data_PCOD8017102
_publ_section_title
;
Structure prediction by ZEFSAII (Michael W. Deem and Ramdas Pophale) SiO2 
 PCOD8017102
Probable space group: P -1
;
_chemical_formula_sum "Si O2"
_cell_formula_units_Z 12
_cell_length_a 14.558696
_cell_length_b 6.184187
_cell_length_c 7.704573
_cell_angle_alpha 121.237677
_cell_angle_beta 109.543372
_cell_angle_gamma 92.185227
_cell_volume 539.316652
_symmetry_space_group_name_H-M "P -1"
_symmetry_group_IT_number 2
_symmetry_cell_setting 'triclinic'
loop_
_space_group_symop_operation_xyz
x,y,z
-x,-y,-z
loop_
_atom_site_type_symbol
_atom_site_label
_atom_site_fract_x
_atom_site_fract_y
_atom_site_fract_z
Si Si1 0.907247 0.516700 0.326736
Si Si2 0.030744 0.238225 0.872196
Si Si3 0.478725 0.718218 0.701524
Si Si4 0.426112 0.219507 0.870783
Si Si5 0.284005 0.357922 0.590987
Si Si6 0.857030 0.974110 0.876107
O O1 0.942969 0.761997 0.316632
O O2 0.812863 0.536454 0.389788
O O3 0.000000 0.500000 0.500000
O O4 0.866127 0.257099 0.078514
O O5 0.126145 0.223800 0.045421
O O6 0.938526 0.992776 0.774847
O O7 0.000000 0.500000 0.000000
O O8 0.500000 0.500000 0.500000
O O9 0.375342 0.597388 0.689707
O O10 0.464673 0.980949 0.707430
O O11 0.573801 0.814028 0.934152
O O12 0.316780 0.214394 0.720175
O O13 0.500000 0.500000 0.000000
O O14 0.253453 0.146141 0.326767
#
# Coordination Sequence:
#
# PCOD8017102 Si02
#       6
#     2   2   2   2   2   2
#     4  11  24  40  61  91 131 174 216 265 317 379
#     4   9  19  38  58  80 119 166 212 261 311 366
#     4  10  23  43  67  93 128 168 211 270 334 393
#     4   9  22  43  65  93 126 162 212 269 329 395
#     4  11  24  38  61  96 126 164 217 265 323 391
#     4  10  22  38  59  88 122 165 217 265 318 377
#
# _framework density 22.25038
#
# number of rings (size 3 to 8) (size 9 to 14) (size 15 to 20)
#    0.000    2.000    0.000    3.000    0.000   17.333 
#    0.000    0.000    0.000    0.000    0.000    0.000 
#    0.000    0.000    0.000    0.000    0.000    0.000 
#
# Total GULP energy -148704.935318 kJ/mol
# GULP energy per Si atom -12392.077943 kJ/mol
# Density = 2.219974 g / cm^3
# Si number density = 22.250380 Si / 1000 Ang^3
#
#
#
# Elastic Constant Matrix: (Units=GPa)
#
#
# Indices 1 2 3 4 5 6 
#
# 1 100.6391 46.1643 42.8565 -7.7279 -3.5023 -18.2868
# 2 46.1643 135.8827 50.1452 -13.0604 5.0091 -16.5410
# 3 42.8565 50.1452 138.5602 -6.9249 16.1417 -20.8822
# 4 -7.7279 -13.0604 -6.9249 43.1424 -13.5121 -2.0400
# 5 -3.5023 5.0091 16.1417 -13.5121 36.6071 -7.2412
# 6 -18.2868 -16.5410 -20.8822 -2.0400 -7.2412 39.5999
#
#
#
# Elastic Compliance Matrix: (Units=1/GPa)
#
#
# Indices 1 2 3 4 5 6 
#
# 1 0.013775 -0.002937 -0.002935 0.002894 0.005002 0.004650
# 2 -0.002937 0.009595 -0.002264 0.002275 0.000577 0.001680
# 3 -0.002935 -0.002264 0.009688 -0.000867 -0.004167 0.002001
# 4 0.002894 0.002275 -0.000867 0.028212 0.011839 0.005448
# 5 0.005002 0.000577 -0.004167 0.011839 0.035395 0.007436
# 6 0.004650 0.001680 0.002001 0.005448 0.007436 0.030797
#
#
# Mechanical properties :
#
#
# Convention : Reuss Voigt Hill
#
# Bulk Modulus (GPa) = 59.57575 72.60157 66.08866
# Shear Modulus (GPa) = 33.48314 39.59761 36.54038
#
# Velocity S-wave (km/s) = 3.88343 4.22315 4.05685
# Velocity P-wave (km/s) = 6.85137 7.51533 7.19102
#
# Compressibility (1/GPa) = 0.01678535
#
# Stress axis : x y z
#
# Youngs Moduli (GPa) = 72.59658 104.22585 103.22120
#
# Poissons Ratio (x) = 0.30610 0.30294
# Poissons Ratio (y) = 0.21321 0.23371
# Poissons Ratio (z) = 0.21306 0.23599
#
# Static dielectric constant tensor:
#      x y z
#    x 3.885600 -0.017810 0.089640 
#    y -0.017810 4.665720 -0.299710 
#    z 0.089640 -0.299710 4.341320 
# 
# 
# High freq. dielectric constant tensor:
#      x y z
#    x 1.845610 -0.015030 0.000880 
#    y -0.015030 1.886290 -0.000470 
#    z 0.000880 -0.000470 1.892370 
# 
# From -- ./inp_files/288248.got.cif
#   From: 2010.06.25/outbox.cif.g09.slc.cpg/sg2_145_cif.got.tgz:288248.got - 2010.06.27 13:26:56.
