data_PCOD8017555
_publ_section_title
;
Structure prediction by ZEFSAII (Michael W. Deem and Ramdas Pophale) SiO2 
 PCOD8017555
Probable space group: P -1
;
_chemical_formula_sum "Si O2"
_cell_formula_units_Z 14
_cell_length_a 11.593708
_cell_length_b 14.810703
_cell_length_c 16.012571
_cell_angle_alpha 161.849001
_cell_angle_beta 136.503409
_cell_angle_gamma 42.856017
_cell_volume 577.166322
_symmetry_space_group_name_H-M "P -1"
_symmetry_group_IT_number 2
_symmetry_cell_setting 'triclinic'
loop_
_space_group_symop_operation_xyz
x,y,z
-x,-y,-z
loop_
_atom_site_type_symbol
_atom_site_label
_atom_site_fract_x
_atom_site_fract_y
_atom_site_fract_z
Si Si1 0.247566 0.474858 0.031146
Si Si2 0.582294 0.437259 0.077211
Si Si3 0.790833 0.809573 0.604727
Si Si4 0.958886 0.919218 0.499776
Si Si5 0.666653 0.815894 0.833252
Si Si6 0.173066 0.632155 0.611079
Si Si7 0.284627 0.072627 0.857219
O O1 0.121362 0.373921 0.806701
O O2 0.442308 0.388949 0.028517
O O3 0.189983 0.826216 0.316548
O O4 0.235569 0.325307 0.983505
O O5 0.661080 0.720219 0.391031
O O6 0.500000 0.500000 0.000000
O O7 0.732119 0.146330 0.899337
O O8 0.793871 0.601265 0.502652
O O9 0.973387 0.779382 0.629543
O O10 0.000000 0.000000 0.500000
O O11 0.133224 0.883417 0.614305
O O12 0.765000 0.528646 0.584217
O O13 0.707394 0.763323 0.906365
O O14 0.721935 0.113525 0.091788
O O15 0.464094 0.848241 0.737037
#
# Coordination Sequence:
#
# PCOD8017555 Si02
#       7
#     2   2   2   2   2   2   2
#     4  11  23  41  65  89 126 170 210 259 317 380
#     4  12  26  44  68  99 129 167 216 269 324 380
#     4  11  24  45  70  94 131 169 215 267 321 387
#     4  10  22  39  62  90 122 167 215 255 307 379
#     4  11  25  39  64  97 131 166 213 266 313 380
#     4  11  24  44  68  97 127 173 216 262 324 374
#     4  10  23  41  62  93 130 168 210 258 318 376
#
# _framework density 24.256439
#
# number of rings (size 3 to 8) (size 9 to 14) (size 15 to 20)
#    0.000    1.143    0.000    6.429    0.000   16.000 
#    0.000    0.000    0.000    0.000    0.000    0.000 
#    0.000    0.000    0.000    0.000    0.000    0.000 
#
# Total GULP energy -173678.421242 kJ/mol
# GULP energy per Si atom -12405.601517 kJ/mol
# Density = 2.420123 g / cm^3
# Si number density = 24.256439 Si / 1000 Ang^3
#
#
#
# Elastic Constant Matrix: (Units=GPa)
#
#
# Indices 1 2 3 4 5 6 
#
# 1 100.9160 47.3668 17.1665 0.1876 -20.8489 -35.2345
# 2 47.3668 91.3349 28.3946 -15.8621 -2.2541 -19.0682
# 3 17.1665 28.3946 93.2641 -6.2822 -16.9557 -22.3836
# 4 0.1876 -15.8621 -6.2822 40.7139 -7.1390 1.7144
# 5 -20.8489 -2.2541 -16.9557 -7.1390 31.5783 5.2333
# 6 -35.2345 -19.0682 -22.3836 1.7144 5.2333 40.2549
#
#
#
# Elastic Compliance Matrix: (Units=1/GPa)
#
#
# Indices 1 2 3 4 5 6 
#
# 1 0.021744 -0.009460 0.004990 -0.001311 0.013473 0.015630
# 2 -0.009460 0.017703 -0.004898 0.005202 -0.006097 -0.002047
# 3 0.004990 -0.004898 0.015486 0.001847 0.010143 0.009262
# 4 -0.001311 0.005202 0.001847 0.028060 0.006797 0.000265
# 5 0.013473 -0.006097 0.010143 0.006797 0.045733 0.008310
# 6 0.015630 -0.002047 0.009262 0.000265 0.008310 0.041611
#
#
# Mechanical properties :
#
#
# Convention : Reuss Voigt Hill
#
# Bulk Modulus (GPa) = 27.62588 52.37452 40.00020
# Shear Modulus (GPa) = 24.85861 35.34856 30.10358
#
# Velocity S-wave (km/s) = 3.20476 3.82158 3.52668
# Velocity P-wave (km/s) = 5.01077 6.41183 5.75410
#
# Compressibility (1/GPa) = 0.03619794
#
# Stress axis : x y z
#
# Youngs Moduli (GPa) = 45.99053 56.48770 64.57419
#
# Poissons Ratio (x) = 0.53437 -0.32224
# Poissons Ratio (y) = 0.43507 0.31627
# Poissons Ratio (z) = -0.22950 0.27666
#
# Static dielectric constant tensor:
#      x y z
#    x 4.607030 -0.313280 0.036760 
#    y -0.313280 4.371300 -0.290790 
#    z 0.036760 -0.290790 4.780180 
# 
# 
# High freq. dielectric constant tensor:
#      x y z
#    x 1.970790 -0.010790 -0.004820 
#    y -0.010790 1.965290 -0.008380 
#    z -0.004820 -0.008380 1.971740 
# 
# From -- ./inp_files/522071.got.cif
#   From: 2010.06.25/outbox.cif.g09.slc.cpg/sg2_262_cif.got.tgz:522071.got - 2010.06.27 13:26:56.
