data_PCOD8017731
_publ_section_title
;
Structure prediction by ZEFSAII (Michael W. Deem and Ramdas Pophale) SiO2 
 PCOD8017731
Probable space group: P -1
;
_chemical_formula_sum "Si O2"
_cell_formula_units_Z 16
_cell_length_a 9.740199
_cell_length_b 16.253353
_cell_length_c 11.106653
_cell_angle_alpha 32.845452
_cell_angle_beta 127.227398
_cell_angle_gamma 115.716416
_cell_volume 748.005326
_symmetry_space_group_name_H-M "P -1"
_symmetry_group_IT_number 2
_symmetry_cell_setting 'triclinic'
loop_
_space_group_symop_operation_xyz
x,y,z
-x,-y,-z
loop_
_atom_site_type_symbol
_atom_site_label
_atom_site_fract_x
_atom_site_fract_y
_atom_site_fract_z
Si Si1 0.233882 0.358425 0.865742
Si Si2 0.573929 0.432370 0.991732
Si Si3 0.946204 0.307751 0.610183
Si Si4 0.300545 0.151991 0.380937
Si Si5 0.687229 0.084068 0.747532
Si Si6 0.171363 0.371177 0.230441
Si Si7 0.858667 0.841591 0.318134
Si Si8 0.203272 0.903892 0.470418
O O1 0.105472 0.510523 0.651328
O O2 0.123418 0.264443 0.836862
O O3 0.412363 0.406676 0.849476
O O4 0.310673 0.255868 0.143617
O O5 0.707522 0.274107 0.272157
O O6 0.500000 0.500000 0.000000
O O7 0.667827 0.552628 0.822658
O O8 0.790946 0.219652 0.680860
O O9 0.994911 0.259023 0.562097
O O10 0.480516 0.140670 0.564608
O O11 0.146323 0.240172 0.278106
O O12 0.276646 0.984966 0.524806
O O13 0.757669 0.020373 0.731382
O O14 0.716185 0.951083 0.028349
O O15 0.227417 0.275112 0.500982
O O16 0.000000 0.500000 0.000000
O O17 0.993055 0.930978 0.352542
#
# Coordination Sequence:
#
# PCOD8017731 Si02
#       8
#     2   2   2   2   2   2   2   2
#     4  11  21  38  67  97 132 165 233 276 324 384
#     4  12  22  42  71 100 130 173 228 277 324 390
#     4  10  22  39  64  98 132 179 214 278 329 400
#     4  12  24  38  68 101 129 174 228 278 327 391
#     4  11  22  39  67  98 136 173 217 275 340 394
#     4  12  25  45  67  96 134 184 221 271 339 401
#     4  11  23  41  62  90 140 175 218 262 347 400
#     4  11  22  40  67 101 132 170 226 282 324 392
#
# _framework density 21.390222999999999
#
# number of rings (size 3 to 8) (size 9 to 14) (size 15 to 20)
#    0.000    0.750    3.750    6.375    1.750    1.000 
#    0.000    0.625    0.000    0.000    0.000    0.000 
#    0.000    0.000    0.000    0.000    0.000    0.000 
#
# Total GULP energy -198224.946542 kJ/mol
# GULP energy per Si atom -12389.059159 kJ/mol
# Density = 2.134154 g / cm^3
# Si number density = 21.390223 Si / 1000 Ang^3
#
#
#
# Elastic Constant Matrix: (Units=GPa)
#
#
# Indices 1 2 3 4 5 6 
#
# 1 94.5771 39.3148 52.1366 -0.4857 -10.0659 8.6859
# 2 39.3148 122.0964 59.0100 11.4985 7.4265 9.2661
# 3 52.1366 59.0100 129.6177 0.7967 -11.5912 10.4109
# 4 -0.4857 11.4985 0.7967 36.6705 4.8237 15.9122
# 5 -10.0659 7.4265 -11.5912 4.8237 38.7225 -2.4384
# 6 8.6859 9.2661 10.4109 15.9122 -2.4384 25.9536
#
#
#
# Elastic Compliance Matrix: (Units=1/GPa)
#
#
# Indices 1 2 3 4 5 6 
#
# 1 0.014614 -0.002848 -0.004088 0.002307 0.002620 -0.003403
# 2 -0.002848 0.011865 -0.004605 -0.003200 -0.003986 0.000151
# 3 -0.004088 -0.004605 0.011924 0.001886 0.002988 -0.002646
# 4 0.002307 -0.003200 0.001886 0.039858 -0.004778 -0.025272
# 5 0.002620 -0.003986 0.002988 -0.004778 0.029076 0.005009
# 6 -0.003403 0.000151 -0.002646 -0.025272 0.005009 0.056642
#
#
# Mechanical properties :
#
#
# Convention : Reuss Voigt Hill
#
# Bulk Modulus (GPa) = 65.27233 71.91267 68.59250
# Shear Modulus (GPa) = 26.01879 33.32464 29.67171
#
# Velocity S-wave (km/s) = 3.49146 3.95135 3.72850
# Velocity P-wave (km/s) = 6.84361 7.38309 7.11846
#
# Compressibility (1/GPa) = 0.01532043
#
# Stress axis : x y z
#
# Youngs Moduli (GPa) = 68.42640 84.27851 83.86320
#
# Poissons Ratio (x) = 0.24005 0.34285
# Poissons Ratio (y) = 0.19490 0.38621
# Poissons Ratio (z) = 0.27974 0.38812
#
# Static dielectric constant tensor:
#      x y z
#    x 3.779080 0.215900 0.098260 
#    y 0.215900 4.509030 0.035680 
#    z 0.098260 0.035680 3.952940 
# 
# 
# High freq. dielectric constant tensor:
#      x y z
#    x 1.807650 0.011220 0.013630 
#    y 0.011220 1.844520 -0.008680 
#    z 0.013630 -0.008680 1.854730 
# 
# From -- ./inp_files/402718.got.cif
#   From: 2010.06.25/outbox.cif.g09.slc.cpg/sg2_202_cif.got.tgz:402718.got - 2010.06.27 13:26:56.
