data_PCOD8017390
_publ_section_title
;
Structure prediction by ZEFSAII (Michael W. Deem and Ramdas Pophale) SiO2 
 PCOD8017390
Probable space group: P -1
;
_chemical_formula_sum "Si O2"
_cell_formula_units_Z 12
_cell_length_a 7.239004
_cell_length_b 11.742596
_cell_length_c 15.234256
_cell_angle_alpha 39.730828
_cell_angle_beta 50.875111
_cell_angle_gamma 41.142257
_cell_volume 540.433134
_symmetry_space_group_name_H-M "P -1"
_symmetry_group_IT_number 2
_symmetry_cell_setting 'triclinic'
loop_
_space_group_symop_operation_xyz
x,y,z
-x,-y,-z
loop_
_atom_site_type_symbol
_atom_site_label
_atom_site_fract_x
_atom_site_fract_y
_atom_site_fract_z
Si Si1 0.669683 0.373727 0.374237
Si Si2 0.020315 0.295546 0.154124
Si Si3 0.097386 0.718633 0.281899
Si Si4 0.098530 0.383719 0.757400
Si Si5 0.825956 0.912653 0.947132
Si Si6 0.489869 0.908503 0.326338
O O1 0.877354 0.418362 0.341404
O O2 0.704659 0.160389 0.526370
O O3 0.744585 0.360980 0.256065
O O4 0.336580 0.565142 0.371585
O O5 0.046511 0.146403 0.154286
O O6 0.292525 0.160306 0.217739
O O7 0.000000 0.500000 0.000000
O O8 0.132237 0.569179 0.276668
O O9 0.770146 0.836344 0.344934
O O10 0.135529 0.907685 0.129615
O O11 0.407369 0.201613 0.734992
O O12 0.013620 0.300842 0.916555
O O13 0.500000 0.000000 0.000000
#
# Coordination Sequence:
#
# PCOD8017390 Si02
#       6
#     2   2   2   2   2   2
#     4  12  22  44  66 100 137 163 214 270 332 377
#     4  12  24  41  68  96 131 176 210 271 332 373
#     4  10  23  41  70  97 124 173 224 261 317 389
#     4  10  22  38  72  92 129 168 223 257 320 381
#     4  12  19  42  66  94 127 173 218 266 314 386
#     4  10  24  42  66  98 130 174 217 262 318 396
#
# _framework density 22.204412999999999
#
# number of rings (size 3 to 8) (size 9 to 14) (size 15 to 20)
#    1.000    0.000    5.000    2.000    0.000    0.000 
#    3.000    2.500    0.000    0.000    0.000    0.000 
#    0.000    0.000    0.000    0.000    0.000    0.000 
#
# Total GULP energy -148672.778449 kJ/mol
# GULP energy per Si atom -12389.398204 kJ/mol
# Density = 2.215387 g / cm^3
# Si number density = 22.204413 Si / 1000 Ang^3
#
#
#
# Elastic Constant Matrix: (Units=GPa)
#
#
# Indices 1 2 3 4 5 6 
#
# 1 103.9655 26.9409 30.4850 -8.1936 -19.7123 16.2426
# 2 26.9409 67.5474 32.1716 3.8433 -5.3897 -1.8519
# 3 30.4850 32.1716 133.7486 -8.9602 -19.4741 2.3542
# 4 -8.1936 3.8433 -8.9602 29.1924 -1.5801 3.7480
# 5 -19.7123 -5.3897 -19.4741 -1.5801 32.2757 -7.7603
# 6 16.2426 -1.8519 2.3542 3.7480 -7.7603 28.8802
#
#
#
# Elastic Compliance Matrix: (Units=1/GPa)
#
#
# Indices 1 2 3 4 5 6 
#
# 1 0.013827 -0.005327 -0.000522 0.005667 0.005772 -0.007260
# 2 -0.005327 0.019249 -0.004147 -0.006022 -0.001657 0.004905
# 3 -0.000522 -0.004147 0.009553 0.003585 0.004956 0.000116
# 4 0.005667 -0.006022 0.003585 0.038977 0.004683 -0.007665
# 5 0.005772 -0.001657 0.004956 0.004683 0.038916 0.006093
# 6 -0.007260 0.004905 0.000116 -0.007665 0.006093 0.041646
#
#
# Mechanical properties :
#
#
# Convention : Reuss Voigt Hill
#
# Bulk Modulus (GPa) = 44.17622 53.82852 49.00237
# Shear Modulus (GPa) = 26.35652 32.44726 29.40189
#
# Velocity S-wave (km/s) = 3.44902 3.82684 3.64283
# Velocity P-wave (km/s) = 5.98326 6.61976 6.30954
#
# Compressibility (1/GPa) = 0.02263661
#
# Stress axis : x y z
#
# Youngs Moduli (GPa) = 72.31999 51.95062 104.67958
#
# Poissons Ratio (x) = 0.27674 0.05469
# Poissons Ratio (y) = 0.38525 0.43410
# Poissons Ratio (z) = 0.03778 0.21543
#
# Static dielectric constant tensor:
#      x y z
#    x 3.819740 0.038630 -0.000470 
#    y 0.038630 3.862070 0.069670 
#    z -0.000470 0.069670 4.170750 
# 
# 
# High freq. dielectric constant tensor:
#      x y z
#    x 1.857360 -0.000940 -0.003240 
#    y -0.000940 1.852480 -0.003140 
#    z -0.003240 -0.003140 1.877650 
# 
# From -- ./inp_files/496109.got.cif
#   From: 2010.06.25/outbox.cif.g09.slc.cpg/sg2_249_cif.got.tgz:496109.got - 2010.06.27 13:26:56.
