data_PCOD8017023
_publ_section_title
;
Structure prediction by ZEFSAII (Michael W. Deem and Ramdas Pophale) SiO2 
 PCOD8017023
Probable space group: P -1
;
_chemical_formula_sum "Si O2"
_cell_formula_units_Z 16
_cell_length_a 14.050896
_cell_length_b 9.038109
_cell_length_c 17.955034
_cell_angle_alpha 28.677570
_cell_angle_beta 137.850937
_cell_angle_gamma 141.316288
_cell_volume 671.639349
_symmetry_space_group_name_H-M "P -1"
_symmetry_group_IT_number 2
_symmetry_cell_setting 'triclinic'
loop_
_space_group_symop_operation_xyz
x,y,z
-x,-y,-z
loop_
_atom_site_type_symbol
_atom_site_label
_atom_site_fract_x
_atom_site_fract_y
_atom_site_fract_z
Si Si1 0.584950 0.595869 0.086579
Si Si2 0.472499 0.759125 0.214664
Si Si3 0.085320 0.298578 0.579640
Si Si4 0.921118 0.618366 0.250503
Si Si5 0.803407 0.107306 0.284484
Si Si6 0.854431 0.624793 0.800182
Si Si7 0.913314 0.640431 0.994341
Si Si8 0.567845 0.345267 0.340057
O O1 0.762811 0.657927 0.153756
O O2 0.511172 0.311268 0.235218
O O3 0.500000 0.500000 0.000000
O O4 0.579777 0.936465 0.965102
O O5 0.319991 0.457936 0.295432
O O6 0.519509 0.624731 0.225916
O O7 0.623463 0.881925 0.302050
O O8 0.246290 0.519668 0.615116
O O9 0.994776 0.536228 0.404189
O O10 0.117284 0.126826 0.599384
O O11 0.972437 0.012210 0.695103
O O12 0.900066 0.304058 0.324175
O O13 0.047901 0.969880 0.135581
O O14 0.797725 0.390734 0.097845
O O15 0.832144 0.524409 0.918649
O O16 0.924007 0.402569 0.891860
O O17 0.500000 0.000000 0.500000
#
# Coordination Sequence:
#
# PCOD8017023 Si02
#       8
#     2   2   2   2   2   2   2   2
#     4  12  26  46  72 110 145 186 236 299 360 416
#     4  11  24  44  72 101 142 188 237 292 353 426
#     4  10  25  45  68  98 138 185 235 284 350 421
#     4  12  23  42  70  99 141 179 237 283 355 414
#     4  10  23  43  64  98 137 184 224 288 350 418
#     4  10  22  40  65  97 128 174 235 282 340 410
#     4  10  22  37  64  97 129 173 229 283 338 406
#     4  11  28  49  73 105 143 190 241 293 357 427
#
# _framework density 23.822306999999999
#
# number of rings (size 3 to 8) (size 9 to 14) (size 15 to 20)
#    0.000    1.250    2.500    1.875   10.500    1.000 
#    2.250    3.750    0.000    0.000    0.000    0.000 
#    0.000    0.000    0.000    0.000    0.000    0.000 
#
# Total GULP energy -198310.083515 kJ/mol
# GULP energy per Si atom -12394.380220 kJ/mol
# Density = 2.376809 g / cm^3
# Si number density = 23.822307 Si / 1000 Ang^3
#
#
#
# Elastic Constant Matrix: (Units=GPa)
#
#
# Indices 1 2 3 4 5 6 
#
# 1 69.1251 41.6129 39.6243 7.6187 3.5416 12.6599
# 2 41.6129 119.2004 48.2223 -0.0019 -7.7001 16.4030
# 3 39.6243 48.2223 124.8907 6.7845 -2.3254 7.2397
# 4 7.6187 -0.0019 6.7845 29.6354 1.7168 -1.4592
# 5 3.5416 -7.7001 -2.3254 1.7168 44.6955 -1.0589
# 6 12.6599 16.4030 7.2397 -1.4592 -1.0589 49.2218
#
#
#
# Elastic Compliance Matrix: (Units=1/GPa)
#
#
# Indices 1 2 3 4 5 6 
#
# 1 0.021479 -0.005484 -0.004314 -0.004534 -0.002774 -0.003256
# 2 -0.005484 0.011849 -0.002775 0.001818 0.002214 -0.002028
# 3 -0.004314 -0.002775 0.010500 -0.001299 0.000471 0.000461
# 4 -0.004534 0.001818 -0.001299 0.035336 -0.000710 0.001784
# 5 -0.002774 0.002214 0.000471 -0.000710 0.023036 0.000381
# 6 -0.003256 -0.002028 0.000461 0.001784 0.000381 0.021823
#
#
# Mechanical properties :
#
#
# Convention : Reuss Voigt Hill
#
# Bulk Modulus (GPa) = 53.52912 63.57059 58.54986
# Shear Modulus (GPa) = 32.17619 36.96097 34.56858
#
# Velocity S-wave (km/s) = 3.67914 3.94322 3.81346
# Velocity P-wave (km/s) = 6.36923 6.89022 6.63484
#
# Compressibility (1/GPa) = 0.01868142
#
# Stress axis : x y z
#
# Youngs Moduli (GPa) = 46.55684 84.39877 95.24169
#
# Poissons Ratio (x) = 0.46288 0.41084
# Poissons Ratio (y) = 0.25534 0.26428
# Poissons Ratio (z) = 0.20083 0.23419
#
# Static dielectric constant tensor:
#      x y z
#    x 4.318470 0.094390 0.177550 
#    y 0.094390 4.355470 -0.091280 
#    z 0.177550 -0.091280 4.187560 
# 
# 
# High freq. dielectric constant tensor:
#      x y z
#    x 1.946510 0.003820 0.021680 
#    y 0.003820 1.946620 -0.009060 
#    z 0.021680 -0.009060 1.932270 
# 
# From -- ./inp_files/572796.got.cif
#   From: 2010.06.25/outbox.cif.g09.slc.cpg/sg2_287_cif.got.tgz:572796.got - 2010.06.27 13:26:56.
