data_PCOD8017055
_publ_section_title
;
Structure prediction by ZEFSAII (Michael W. Deem and Ramdas Pophale) SiO2 
 PCOD8017055
Probable space group: P -1
;
_chemical_formula_sum "Si O2"
_cell_formula_units_Z 16
_cell_length_a 11.152145
_cell_length_b 18.408119
_cell_length_c 12.290171
_cell_angle_alpha 37.772508
_cell_angle_beta 47.731730
_cell_angle_gamma 29.260102
_cell_volume 754.153869
_symmetry_space_group_name_H-M "P -1"
_symmetry_group_IT_number 2
_symmetry_cell_setting 'triclinic'
loop_
_space_group_symop_operation_xyz
x,y,z
-x,-y,-z
loop_
_atom_site_type_symbol
_atom_site_label
_atom_site_fract_x
_atom_site_fract_y
_atom_site_fract_z
Si Si1 0.276291 0.306044 0.535834
Si Si2 0.773021 0.351413 0.559907
Si Si3 0.695869 0.494229 0.857290
Si Si4 0.986675 0.351761 0.062538
Si Si5 0.246166 0.452379 0.817664
Si Si6 0.359375 0.975657 0.179690
Si Si7 0.999804 0.763459 0.221038
Si Si8 0.211058 0.906653 0.150557
O O1 0.405690 0.326822 0.347230
O O2 0.447308 0.210459 0.651513
O O3 0.235473 0.191578 0.657262
O O4 0.000000 0.500000 0.500000
O O5 0.500000 0.500000 0.500000
O O6 0.892452 0.399475 0.370285
O O7 0.925398 0.145243 0.684915
O O8 0.789721 0.363494 0.665531
O O9 0.830871 0.463464 0.918724
O O10 0.892657 0.330216 0.850416
O O11 0.500000 0.500000 0.000000
O O12 0.154442 0.369478 0.971980
O O13 0.800863 0.442665 0.169433
O O14 0.157602 0.142074 0.187975
O O15 0.535794 0.281977 0.829173
O O16 0.227189 0.964583 0.186599
O O17 0.500000 0.000000 0.000000
O O18 0.910100 0.947786 0.042473
#
# Coordination Sequence:
#
# PCOD8017055 Si02
#       8
#     2   2   2   2   2   2   2   2
#     4  10  22  37  67  98 123 166 221 268 314 389
#     4  10  24  38  62  91 127 167 218 261 322 383
#     4  11  25  39  62  95 139 171 210 272 335 383
#     4  11  22  43  64  93 133 172 212 262 332 385
#     4  10  23  40  66  93 128 172 213 265 323 390
#     4  12  20  40  69  98 128 163 228 269 316 383
#     4  11  21  42  66  95 123 171 226 270 314 389
#     4  11  22  39  67  94 124 169 212 274 313 382
#
# _framework density 21.21583
#
# number of rings (size 3 to 8) (size 9 to 14) (size 15 to 20)
#    0.000    1.250    3.750    1.875   10.500    0.000 
#    2.250    1.250    0.000    4.500    0.000    0.000 
#    0.000    0.000    0.000    0.000    0.000    0.000 
#
# Total GULP energy -198208.919451 kJ/mol
# GULP energy per Si atom -12388.057466 kJ/mol
# Density = 2.116754 g / cm^3
# Si number density = 21.215830 Si / 1000 Ang^3
#
#
#
# Elastic Constant Matrix: (Units=GPa)
#
#
# Indices 1 2 3 4 5 6 
#
# 1 67.3196 22.0228 25.0698 6.5670 22.9303 11.9574
# 2 22.0228 99.3741 40.0200 -3.0044 8.0685 25.2910
# 3 25.0698 40.0200 156.1120 -13.6225 15.4040 0.3251
# 4 6.5670 -3.0044 -13.6225 26.4773 -0.7054 0.6913
# 5 22.9303 8.0685 15.4040 -0.7054 49.7691 -0.3281
# 6 11.9574 25.2910 0.3251 0.6913 -0.3281 31.4225
#
#
#
# Elastic Compliance Matrix: (Units=1/GPa)
#
#
# Indices 1 2 3 4 5 6 
#
# 1 0.021246 -0.001307 -0.002791 -0.006908 -0.008856 -0.006945
# 2 -0.001307 0.014681 -0.003408 0.000511 -0.000791 -0.011304
# 3 -0.002791 -0.003408 0.008163 0.004395 -0.000602 0.003617
# 4 -0.006908 0.000511 0.004395 0.041830 0.002341 0.001276
# 5 -0.008856 -0.000791 -0.000602 0.002341 0.024549 0.004218
# 6 -0.006945 -0.011304 0.003617 0.001276 0.004218 0.043544
#
#
# Mechanical properties :
#
#
# Convention : Reuss Voigt Hill
#
# Bulk Modulus (GPa) = 34.38951 55.22565 44.80758
# Shear Modulus (GPa) = 27.97741 37.24666 32.61204
#
# Velocity S-wave (km/s) = 3.63534 4.19454 3.92491
# Velocity P-wave (km/s) = 5.81940 7.03888 6.45799
#
# Compressibility (1/GPa) = 0.02907863
#
# Stress axis : x y z
#
# Youngs Moduli (GPa) = 47.06867 68.11386 122.50638
#
# Poissons Ratio (x) = 0.08899 0.34196
# Poissons Ratio (y) = 0.06150 0.41746
# Poissons Ratio (z) = 0.13138 0.23211
#
# Static dielectric constant tensor:
#      x y z
#    x 4.121650 0.081990 -0.687750 
#    y 0.081990 3.781930 0.191410 
#    z -0.687750 0.191410 5.753800 
# 
# 
# High freq. dielectric constant tensor:
#      x y z
#    x 1.838870 0.013390 -0.002720 
#    y 0.013390 1.791120 -0.014560 
#    z -0.002720 -0.014560 1.857060 
# 
# From -- ./inp_files/282623.got.cif
#   From: 2010.06.25/outbox.cif.g09.slc.cpg/sg2_142_cif.got.tgz:282623.got - 2010.06.27 13:26:56.
