data_PCOD8017264
_publ_section_title
;
Structure prediction by ZEFSAII (Michael W. Deem and Ramdas Pophale) SiO2 
 PCOD8017264
Probable space group: P -1
;
_chemical_formula_sum "Si O2"
_cell_formula_units_Z 16
_cell_length_a 15.040569
_cell_length_b 21.718642
_cell_length_c 10.013782
_cell_angle_alpha 47.009026
_cell_angle_beta 46.029009
_cell_angle_gamma 17.836378
_cell_volume 717.820641
_symmetry_space_group_name_H-M "P -1"
_symmetry_group_IT_number 2
_symmetry_cell_setting 'triclinic'
loop_
_space_group_symop_operation_xyz
x,y,z
-x,-y,-z
loop_
_atom_site_type_symbol
_atom_site_label
_atom_site_fract_x
_atom_site_fract_y
_atom_site_fract_z
Si Si1 0.981123 0.216751 0.887681
Si Si2 0.192662 0.426166 0.224932
Si Si3 0.841425 0.011270 0.156090
Si Si4 0.783281 0.751475 0.389670
Si Si5 0.673903 0.538669 0.186746
Si Si6 0.830762 0.169476 0.520976
Si Si7 0.588640 0.455181 0.181003
Si Si8 0.110450 0.134896 0.450665
O O1 0.678982 0.383764 0.878964
O O2 0.144209 0.201729 0.697524
O O3 0.904192 0.263088 0.055834
O O4 0.195500 0.007460 0.925779
O O5 0.524961 0.229507 0.227014
O O6 0.123759 0.369722 0.407087
O O7 0.980316 0.614871 0.255445
O O8 0.183252 0.464069 0.023312
O O9 0.006731 0.837708 0.331815
O O10 0.000000 0.000000 0.000000
O O11 0.446993 0.955025 0.387378
O O12 0.375740 0.746247 0.274508
O O13 0.565538 0.552022 0.153108
O O14 0.914847 0.337993 0.318942
O O15 0.588893 0.370775 0.392188
O O16 0.074232 0.084727 0.449913
O O17 0.000000 0.000000 0.500000
#
# Coordination Sequence:
#
# PCOD8017264 Si02
#       8
#     2   2   2   2   2   2   2   2
#     4  11  22  39  66  96 129 164 222 266 319 397
#     4  10  22  39  63  93 128 173 211 265 322 378
#     4  11  23  38  67  97 129 169 217 278 325 376
#     4  10  23  43  65  96 133 174 219 263 323 397
#     4  11  21  45  67  93 130 173 219 264 333 379
#     4  11  24  39  65  96 131 165 220 280 320 379
#     4  10  22  38  64  97 122 168 214 272 322 378
#     4  10  23  42  66  92 132 180 212 263 334 393
#
# _framework density 22.289691000000001
#
# number of rings (size 3 to 8) (size 9 to 14) (size 15 to 20)
#    0.000    1.500    1.250    4.500    5.250    4.500 
#    0.000    1.250    0.000    4.500    0.000    0.000 
#    0.000    0.000    0.000    0.000    0.000    0.000 
#
# Total GULP energy -198227.545846 kJ/mol
# GULP energy per Si atom -12389.221615 kJ/mol
# Density = 2.223896 g / cm^3
# Si number density = 22.289691 Si / 1000 Ang^3
#
#
#
# Elastic Constant Matrix: (Units=GPa)
#
#
# Indices 1 2 3 4 5 6 
#
# 1 79.2089 45.8436 31.2222 14.4725 -11.8899 21.5896
# 2 45.8436 94.3322 48.9765 11.9705 0.6458 8.0125
# 3 31.2222 48.9765 156.5974 7.6957 -9.1377 9.5583
# 4 14.4725 11.9705 7.6957 43.1184 -0.2838 8.6815
# 5 -11.8899 0.6458 -9.1377 -0.2838 33.9315 1.0170
# 6 21.5896 8.0125 9.5583 8.6815 1.0170 29.2889
#
#
#
# Elastic Compliance Matrix: (Units=1/GPa)
#
#
# Indices 1 2 3 4 5 6 
#
# 1 0.024505 -0.010377 -0.000086 -0.002281 0.009187 -0.014840
# 2 -0.010377 0.017522 -0.003925 -0.001685 -0.005185 0.004816
# 3 -0.000086 -0.003925 0.007850 0.000036 0.002204 -0.001512
# 4 -0.002281 -0.001685 0.000036 0.025507 -0.000382 -0.005417
# 5 0.009187 -0.005185 0.002204 -0.000382 0.033593 -0.007126
# 6 -0.014840 0.004816 -0.001512 -0.005417 -0.007126 0.046110
#
#
# Mechanical properties :
#
#
# Convention : Reuss Voigt Hill
#
# Bulk Modulus (GPa) = 47.39357 64.69144 56.04250
# Shear Modulus (GPa) = 26.19212 34.87416 30.53314
#
# Velocity S-wave (km/s) = 3.43166 3.95978 3.70514
# Velocity P-wave (km/s) = 6.08362 7.07054 6.59556
#
# Compressibility (1/GPa) = 0.02109991
#
# Stress axis : x y z
#
# Youngs Moduli (GPa) = 40.80729 57.07136 127.39511
#
# Poissons Ratio (x) = 0.59225 0.01101
# Poissons Ratio (y) = 0.42347 0.50000
# Poissons Ratio (z) = 0.00353 0.22399
#
# Static dielectric constant tensor:
#      x y z
#    x 3.884030 0.289880 -0.006130 
#    y 0.289880 4.335400 0.063480 
#    z -0.006130 0.063480 4.625550 
# 
# 
# High freq. dielectric constant tensor:
#      x y z
#    x 1.844110 0.012230 -0.005470 
#    y 0.012230 1.887740 0.008910 
#    z -0.005470 0.008910 1.898660 
# 
# From -- ./inp_files/319241.got.cif
#   From: 2010.06.25/outbox.cif.g09.slc.cpg/sg2_160_cif.got.tgz:319241.got - 2010.06.27 13:26:56.
