data_PCOD8017300
_publ_section_title
;
Structure prediction by ZEFSAII (Michael W. Deem and Ramdas Pophale) SiO2 
 PCOD8017300
Probable space group: P -1
;
_chemical_formula_sum "Si O2"
_cell_formula_units_Z 16
_cell_length_a 20.402335
_cell_length_b 9.332573
_cell_length_c 12.192967
_cell_angle_alpha 142.854943
_cell_angle_beta 40.169345
_cell_angle_gamma 112.925013
_cell_volume 746.890620
_symmetry_space_group_name_H-M "P -1"
_symmetry_group_IT_number 2
_symmetry_cell_setting 'triclinic'
loop_
_space_group_symop_operation_xyz
x,y,z
-x,-y,-z
loop_
_atom_site_type_symbol
_atom_site_label
_atom_site_fract_x
_atom_site_fract_y
_atom_site_fract_z
Si Si1 0.223472 0.370882 0.402630
Si Si2 0.965726 0.171485 0.760086
Si Si3 0.966505 0.771976 0.899450
Si Si4 0.638391 0.689549 0.246420
Si Si5 0.232614 0.968627 0.320278
Si Si6 0.647190 0.929802 0.155986
Si Si7 0.773512 0.798659 0.314858
Si Si8 0.833843 0.077401 0.056394
O O1 0.216966 0.629111 0.631888
O O2 0.090780 0.462647 0.578349
O O3 0.270846 0.102694 0.258950
O O4 0.317206 0.268829 0.118527
O O5 0.847821 0.489546 0.088361
O O6 0.928220 0.027941 0.810943
O O7 0.000000 0.000000 0.500000
O O8 0.084552 0.160733 0.642586
O O9 0.865386 0.852207 0.168344
O O10 0.910074 0.796727 0.866559
O O11 0.000000 0.000000 0.000000
O O12 0.678214 0.732376 0.102545
O O13 0.669034 0.845309 0.394154
O O14 0.495566 0.815714 0.509882
O O15 0.716692 0.355270 0.973180
O O16 0.291547 0.972317 0.363296
O O17 0.719023 0.085225 0.158865
#
# Coordination Sequence:
#
# PCOD8017300 Si02
#       8
#     2   2   2   2   2   2   2   2
#     4  11  24  42  69 101 133 174 213 274 334 396
#     4  12  23  40  68 104 140 172 210 266 338 404
#     4  10  22  38  66 102 133 166 212 264 329 400
#     4  11  28  47  66  96 125 181 232 275 329 389
#     4  12  24  42  69  99 139 176 211 270 336 404
#     4  11  27  48  67  91 132 172 235 284 321 385
#     4  12  23  44  66 100 139 175 216 265 337 403
#     4  11  24  43  66 102 135 171 218 272 333 396
#
# _framework density 21.422148
#
# number of rings (size 3 to 8) (size 9 to 14) (size 15 to 20)
#    0.000    0.750    5.000    2.625    5.250    2.000 
#    0.000    3.750    0.000    0.000    0.000    0.000 
#    0.000    0.000    0.000    0.000    0.000    0.000 
#
# Total GULP energy -198454.771668 kJ/mol
# GULP energy per Si atom -12403.423229 kJ/mol
# Density = 2.137339 g / cm^3
# Si number density = 21.422148 Si / 1000 Ang^3
#
#
#
# Elastic Constant Matrix: (Units=GPa)
#
#
# Indices 1 2 3 4 5 6 
#
# 1 97.7666 38.2437 35.2680 -16.1141 13.3060 -9.8740
# 2 38.2437 99.2501 27.1464 -10.0401 7.4041 -20.1230
# 3 35.2680 27.1464 64.0664 -9.9158 12.3536 -4.0309
# 4 -16.1141 -10.0401 -9.9158 31.4150 -8.2374 4.5802
# 5 13.3060 7.4041 12.3536 -8.2374 37.0697 -3.8208
# 6 -9.8740 -20.1230 -4.0309 4.5802 -3.8208 36.7555
#
#
#
# Elastic Compliance Matrix: (Units=1/GPa)
#
#
# Indices 1 2 3 4 5 6 
#
# 1 0.014539 -0.003389 -0.005562 0.004061 -0.001708 0.000757
# 2 -0.003389 0.013618 -0.003493 0.000739 0.000455 0.006117
# 3 -0.005562 -0.003493 0.021123 0.001876 -0.004109 -0.001751
# 4 0.004061 0.000739 0.001876 0.036557 0.005660 -0.002266
# 5 -0.001708 0.000455 -0.004109 0.005660 0.030309 0.001785
# 6 0.000757 0.006117 -0.001751 -0.002266 0.001785 0.031035
#
#
# Mechanical properties :
#
#
# Convention : Reuss Voigt Hill
#
# Bulk Modulus (GPa) = 40.99824 51.37770 46.18797
# Shear Modulus (GPa) = 27.74683 31.74305 29.74494
#
# Velocity S-wave (km/s) = 3.60285 3.85357 3.73032
# Velocity P-wave (km/s) = 6.04046 6.62084 6.33730
#
# Compressibility (1/GPa) = 0.02439129
#
# Stress axis : x y z
#
# Youngs Moduli (GPa) = 68.78151 73.43224 47.34145
#
# Poissons Ratio (x) = 0.24889 0.26331
# Poissons Ratio (y) = 0.23312 0.16537
# Poissons Ratio (z) = 0.38256 0.25650
#
# Static dielectric constant tensor:
#      x y z
#    x 4.396900 -0.181870 0.107920 
#    y -0.181870 3.988980 0.048980 
#    z 0.107920 0.048980 3.742490 
# 
# 
# High freq. dielectric constant tensor:
#      x y z
#    x 1.852550 -0.011670 0.010850 
#    y -0.011670 1.853060 -0.001970 
#    z 0.010850 -0.001970 1.817740 
# 
# From -- ./inp_files/259240.got.cif
#   From: 2010.06.25/outbox.cif.g09.slc.cpg/sg2_130_cif.got.tgz:259240.got - 2010.06.27 13:26:56.
