data_PCOD8017422
_publ_section_title
;
Structure prediction by ZEFSAII (Michael W. Deem and Ramdas Pophale) SiO2 
 PCOD8017422
Probable space group: P -1
;
_chemical_formula_sum "Si O2"
_cell_formula_units_Z 16
_cell_length_a 11.261778
_cell_length_b 6.158198
_cell_length_c 18.976587
_cell_angle_alpha 86.834920
_cell_angle_beta 147.436283
_cell_angle_gamma 89.743674
_cell_volume 704.084007
_symmetry_space_group_name_H-M "P -1"
_symmetry_group_IT_number 2
_symmetry_cell_setting 'triclinic'
loop_
_space_group_symop_operation_xyz
x,y,z
-x,-y,-z
loop_
_atom_site_type_symbol
_atom_site_label
_atom_site_fract_x
_atom_site_fract_y
_atom_site_fract_z
Si Si1 0.053531 0.541368 0.243017
Si Si2 0.674094 0.660360 0.872691
Si Si3 0.576996 0.671005 0.980820
Si Si4 0.887478 0.171868 0.258880
Si Si5 0.159224 0.677281 0.147696
Si Si6 0.895206 0.605810 0.515314
Si Si7 0.772759 0.228286 0.553032
Si Si8 0.484562 0.016734 0.671100
O O1 0.149186 0.512575 0.212457
O O2 0.242282 0.648845 0.381173
O O3 0.994489 0.305066 0.245884
O O4 0.828243 0.714963 0.126613
O O5 0.583199 0.590009 0.903990
O O6 0.700540 0.443991 0.842388
O O7 0.506426 0.842715 0.748496
O O8 0.912080 0.758494 0.997347
O O9 0.374647 0.863610 0.881929
O O10 0.500000 0.500000 0.000000
O O11 0.914393 0.317119 0.339873
O O12 0.002430 0.931142 0.330184
O O13 0.283793 0.884789 0.228812
O O14 0.773827 0.413610 0.492187
O O15 0.712813 0.807602 0.405603
O O16 0.000000 0.500000 0.500000
O O17 0.571568 0.089518 0.431331
#
# Coordination Sequence:
#
# PCOD8017422 Si02
#       8
#     2   2   2   2   2   2   2   2
#     4   9  20  41  59  88 126 161 207 253 305 363
#     4  10  22  40  65  93 126 158 205 258 307 364
#     4   9  19  38  64  90 121 157 201 253 311 368
#     4   9  20  36  61  90 120 161 207 249 309 368
#     4  10  22  41  64  91 126 163 205 258 304 360
#     4  10  23  38  58  87 127 164 201 255 303 364
#     4  10  22  39  58  88 126 161 207 254 303 363
#     4  11  23  38  61  92 124 163 211 246 309 367
#
# _framework density 22.724563
#
# number of rings (size 3 to 8) (size 9 to 14) (size 15 to 20)
#    0.000    2.250    0.000    1.125    5.250    3.000 
#    0.000   15.000    0.000    0.000    0.000    0.000 
#    0.000    0.000    0.000    0.000    0.000    0.000 
#
# Total GULP energy -198239.776707 kJ/mol
# GULP energy per Si atom -12389.986044 kJ/mol
# Density = 2.267284 g / cm^3
# Si number density = 22.724563 Si / 1000 Ang^3
#
#
#
# Elastic Constant Matrix: (Units=GPa)
#
#
# Indices 1 2 3 4 5 6 
#
# 1 101.6121 10.2618 26.0473 -4.4704 -22.5768 7.0801
# 2 10.2618 60.2986 38.0022 -12.1039 -2.3956 2.3020
# 3 26.0473 38.0022 113.2350 -0.9507 -10.0081 5.8638
# 4 -4.4704 -12.1039 -0.9507 45.3688 1.9470 -1.9356
# 5 -22.5768 -2.3956 -10.0081 1.9470 30.2426 -3.6266
# 6 7.0801 2.3020 5.8638 -1.9356 -3.6266 14.0596
#
#
#
# Elastic Compliance Matrix: (Units=1/GPa)
#
#
# Indices 1 2 3 4 5 6 
#
# 1 0.012426 -0.000395 -0.001828 0.000590 0.008215 -0.003230
# 2 -0.000395 0.022529 -0.007548 0.005877 -0.001373 0.000113
# 3 -0.001828 -0.007548 0.012070 -0.002135 0.001846 -0.002695
# 4 0.000590 0.005877 -0.002135 0.023779 -0.001014 0.002643
# 5 0.008215 -0.001373 0.001846 -0.001014 0.040439 0.005609
# 6 -0.003230 0.000113 -0.002695 0.002643 0.005609 0.075669
#
#
# Mechanical properties :
#
#
# Convention : Reuss Voigt Hill
#
# Bulk Modulus (GPa) = 36.38444 47.08537 41.73491
# Shear Modulus (GPa) = 23.18966 31.32316 27.25641
#
# Velocity S-wave (km/s) = 3.19794 3.71669 3.46703
# Velocity P-wave (km/s) = 5.44808 6.25966 5.86792
#
# Compressibility (1/GPa) = 0.02748428
#
# Stress axis : x y z
#
# Youngs Moduli (GPa) = 80.47670 44.38685 82.85314
#
# Poissons Ratio (x) = 0.01752 0.15142
# Poissons Ratio (y) = 0.03176 0.62537
# Poissons Ratio (z) = 0.14708 0.33503
#
# Static dielectric constant tensor:
#      x y z
#    x 4.010500 0.014920 -0.175160 
#    y 0.014920 3.815960 -0.090220 
#    z -0.175160 -0.090220 4.759950 
# 
# 
# High freq. dielectric constant tensor:
#      x y z
#    x 1.882010 0.002580 -0.014330 
#    y 0.002580 1.871670 -0.008050 
#    z -0.014330 -0.008050 1.923800 
# 
# From -- ./inp_files/82709.got.cif
#   From: 2010.06.25/outbox.cif.g09.slc.cpg/sg2_42_cif.got.tgz:82709.got - 2010.06.27 13:26:56.
