data_PCOD8017046
_publ_section_title
;
Structure prediction by ZEFSAII (Michael W. Deem and Ramdas Pophale) SiO2 
 PCOD8017046
Probable space group: P -1
;
_chemical_formula_sum "Si O2"
_cell_formula_units_Z 16
_cell_length_a 23.285710
_cell_length_b 10.377597
_cell_length_c 18.054151
_cell_angle_alpha 139.807734
_cell_angle_beta 18.668551
_cell_angle_gamma 147.831691
_cell_volume 724.719160
_symmetry_space_group_name_H-M "P -1"
_symmetry_group_IT_number 2
_symmetry_cell_setting 'triclinic'
loop_
_space_group_symop_operation_xyz
x,y,z
-x,-y,-z
loop_
_atom_site_type_symbol
_atom_site_label
_atom_site_fract_x
_atom_site_fract_y
_atom_site_fract_z
Si Si1 0.305332 0.369009 0.368506
Si Si2 0.044685 0.526505 0.670162
Si Si3 0.609969 0.011783 0.946256
Si Si4 0.331220 0.086000 0.827895
Si Si5 0.541475 0.337222 0.424054
Si Si6 0.331703 0.958392 0.395507
Si Si7 0.864928 0.767559 0.315686
Si Si8 0.745850 0.059212 0.301172
O O1 0.172284 0.415139 0.493141
O O2 0.558516 0.621338 0.174949
O O3 0.206660 0.302814 0.542687
O O4 0.291960 0.143543 0.249615
O O5 0.044292 0.687975 0.808709
O O6 0.792964 0.302547 0.863701
O O7 0.152643 0.696486 0.539586
O O8 0.436493 0.897103 0.175217
O O9 0.500000 0.000000 0.000000
O O10 0.521835 0.045560 0.583053
O O11 0.198429 0.962394 0.859298
O O12 0.134883 0.935005 0.061707
O O13 0.500000 0.500000 0.500000
O O14 0.527623 0.143031 0.297067
O O15 0.763843 0.512111 0.279831
O O16 0.321360 0.182926 0.678161
O O17 0.214718 0.076557 0.554783
#
# Coordination Sequence:
#
# PCOD8017046 Si02
#       8
#     2   2   2   2   2   2   2   2
#     4  11  24  45  64 103 135 170 225 269 325 395
#     4  10  25  44  68  96 133 173 217 277 333 383
#     4  12  26  44  72  93 131 178 224 279 321 390
#     4  10  22  37  66  95 132 173 208 268 325 386
#     4   9  19  38  61  93 134 166 212 269 319 394
#     4  10  24  44  63  99 131 172 227 269 327 395
#     4  11  22  39  68  97 136 176 214 268 331 393
#     4   9  19  42  60  97 134 162 216 264 325 394
#
# _framework density 22.077518000000001
#
# number of rings (size 3 to 8) (size 9 to 14) (size 15 to 20)
#    0.000    1.750    2.500    0.375    3.500    5.500 
#    0.000    1.875    0.000    0.000    0.000    0.000 
#    0.000    0.000    0.000    0.000    0.000    0.000 
#
# Total GULP energy -198277.520737 kJ/mol
# GULP energy per Si atom -12392.345046 kJ/mol
# Density = 2.202727 g / cm^3
# Si number density = 22.077518 Si / 1000 Ang^3
#
#
#
# Elastic Constant Matrix: (Units=GPa)
#
#
# Indices 1 2 3 4 5 6 
#
# 1 76.5299 13.0012 -0.5586 -0.2889 4.6335 -0.8128
# 2 13.0012 89.2651 12.5489 -22.1015 -4.2469 3.4026
# 3 -0.5586 12.5489 47.7391 -10.7167 5.7089 9.7117
# 4 -0.2889 -22.1015 -10.7167 30.0826 3.1184 -2.4903
# 5 4.6335 -4.2469 5.7089 3.1184 28.0978 0.9713
# 6 -0.8128 3.4026 9.7117 -2.4903 0.9713 42.7950
#
#
#
# Elastic Compliance Matrix: (Units=1/GPa)
#
#
# Indices 1 2 3 4 5 6 
#
# 1 0.013663 -0.002524 0.000839 -0.001124 -0.002690 0.000266
# 2 -0.002524 0.014307 -0.001802 0.009628 0.001885 -0.000259
# 3 0.000839 -0.001802 0.024915 0.007794 -0.006168 -0.004901
# 4 -0.001124 0.009628 0.007794 0.043585 -0.004783 0.000089
# 5 -0.002690 0.001885 -0.006168 -0.004783 0.038101 0.000056
# 6 0.000266 -0.000259 -0.004901 0.000089 0.000056 0.024509
#
#
# Mechanical properties :
#
#
# Convention : Reuss Voigt Hill
#
# Bulk Modulus (GPa) = 21.78135 29.27971 25.53053
# Shear Modulus (GPa) = 27.56987 32.76457 30.16722
#
# Velocity S-wave (km/s) = 3.53764 3.85654 3.70053
# Velocity P-wave (km/s) = 5.15497 5.75513 5.46330
#
# Compressibility (1/GPa) = 0.04591084
#
# Stress axis : x y z
#
# Youngs Moduli (GPa) = 73.18958 69.89587 40.13657
#
# Poissons Ratio (x) = 0.17643 -0.03366
# Poissons Ratio (y) = 0.18475 0.07231
# Poissons Ratio (z) = -0.06139 0.12593
#
# Static dielectric constant tensor:
#      x y z
#    x 4.333480 0.103620 0.016310 
#    y 0.103620 4.783200 -0.166510 
#    z 0.016310 -0.166510 3.637760 
# 
# 
# High freq. dielectric constant tensor:
#      x y z
#    x 1.886590 -0.007080 0.009640 
#    y -0.007080 1.882650 -0.013050 
#    z 0.009640 -0.013050 1.839280 
# 
# From -- ./inp_files/579242.got.cif
#   From: 2010.06.25/outbox.cif.g09.slc.cpg/sg2_290_cif.got.tgz:579242.got - 2010.06.27 13:26:56.
