data_PCOD8017797
_publ_section_title
;
Structure prediction by ZEFSAII (Michael W. Deem and Ramdas Pophale) SiO2 
 PCOD8017797
Probable space group: P -1
;
_chemical_formula_sum "Si O2"
_cell_formula_units_Z 16
_cell_length_a 12.193206
_cell_length_b 5.181886
_cell_length_c 16.794449
_cell_angle_alpha 126.850739
_cell_angle_beta 51.372201
_cell_angle_gamma 109.223475
_cell_volume 661.618331
_symmetry_space_group_name_H-M "P -1"
_symmetry_group_IT_number 2
_symmetry_cell_setting 'triclinic'
loop_
_space_group_symop_operation_xyz
x,y,z
-x,-y,-z
loop_
_atom_site_type_symbol
_atom_site_label
_atom_site_fract_x
_atom_site_fract_y
_atom_site_fract_z
Si Si1 0.488198 0.644747 0.119824
Si Si2 0.154708 0.715696 0.700691
Si Si3 0.921671 0.552797 0.464413
Si Si4 0.052135 0.855122 0.031707
Si Si5 0.409580 0.038112 0.642438
Si Si6 0.204641 0.777028 0.359498
Si Si7 0.376947 0.707740 0.858095
Si Si8 0.709605 0.973145 0.477546
O O1 0.331037 0.618543 0.220451
O O2 0.586899 0.430115 0.095632
O O3 0.527265 0.014305 0.164770
O O4 0.500000 0.500000 0.000000
O O5 0.140414 0.746364 0.613461
O O6 0.175076 0.332053 0.637409
O O7 0.282204 0.881368 0.718454
O O8 0.009488 0.890826 0.827658
O O9 0.000000 0.500000 0.500000
O O10 0.058516 0.656018 0.369889
O O11 0.798585 0.836208 0.577150
O O12 0.218316 0.855846 0.962218
O O13 0.000000 0.500000 0.000000
O O14 0.000000 0.000000 0.000000
O O15 0.395087 0.422939 0.732304
O O16 0.365327 0.925485 0.553110
O O17 0.563112 0.889035 0.574654
O O18 0.229191 0.737745 0.440207
#
# Coordination Sequence:
#
# PCOD8017797 Si02
#       8
#     2   2   2   2   2   2   2   2
#     4  12  29  50  76 104 149 195 257 304 365 434
#     4  11  24  40  67 101 139 187 237 296 364 437
#     4  10  23  42  70 101 141 188 243 299 370 432
#     4  12  26  47  72 104 150 189 242 301 364 447
#     4  11  22  39  68 105 139 180 232 291 375 443
#     4  10  23  44  66 104 140 189 241 305 363 431
#     4  12  27  48  74 108 144 197 245 306 371 439
#     4  10  22  39  66 100 142 179 234 293 369 433
#
# _framework density 24.183126999999999
#
# number of rings (size 3 to 8) (size 9 to 14) (size 15 to 20)
#    0.000    1.000    2.500    3.000    5.250    5.000 
#    0.000    0.000    0.000    0.000    0.000    0.000 
#    0.000    0.000    0.000    0.000    0.000    0.000 
#
# Total GULP energy -198234.418071 kJ/mol
# GULP energy per Si atom -12389.651129 kJ/mol
# Density = 2.412809 g / cm^3
# Si number density = 24.183127 Si / 1000 Ang^3
#
#
#
# Elastic Constant Matrix: (Units=GPa)
#
#
# Indices 1 2 3 4 5 6 
#
# 1 146.5154 25.7068 49.6020 7.1518 -6.5214 2.2757
# 2 25.7068 78.2710 3.7496 19.5604 -2.5202 1.5643
# 3 49.6020 3.7496 144.5082 12.5910 -14.2687 0.9214
# 4 7.1518 19.5604 12.5910 27.7455 -2.9773 5.3963
# 5 -6.5214 -2.5202 -14.2687 -2.9773 41.6785 -2.2833
# 6 2.2757 1.5643 0.9214 5.3963 -2.2833 53.4406
#
#
#
# Elastic Compliance Matrix: (Units=1/GPa)
#
#
# Indices 1 2 3 4 5 6 
#
# 1 0.008245 -0.002879 -0.002844 0.001284 0.000216 -0.000338
# 2 -0.002879 0.016590 0.001612 -0.011811 0.000305 0.000815
# 3 -0.002844 0.001612 0.008431 -0.004070 0.002272 0.000437
# 4 0.001284 -0.011811 -0.004070 0.046854 0.001204 -0.004319
# 5 0.000216 0.000305 0.002272 0.001204 0.024958 0.000888
# 6 -0.000338 0.000815 0.000437 -0.004319 0.000888 0.019169
#
#
# Mechanical properties :
#
#
# Convention : Reuss Voigt Hill
#
# Bulk Modulus (GPa) = 39.93092 58.60127 49.26610
# Shear Modulus (GPa) = 35.50734 43.92200 39.71467
#
# Velocity S-wave (km/s) = 3.83596 4.26634 4.05686
# Velocity P-wave (km/s) = 6.01391 6.96806 6.50849
#
# Compressibility (1/GPa) = 0.02504325
#
# Stress axis : x y z
#
# Youngs Moduli (GPa) = 121.28106 60.27898 118.61652
#
# Poissons Ratio (x) = 0.17354 0.33733
# Poissons Ratio (y) = 0.34916 -0.19118
# Poissons Ratio (z) = 0.34491 -0.09715
#
# Static dielectric constant tensor:
#      x y z
#    x 4.186370 0.226210 -0.346040 
#    y 0.226210 4.941190 -0.660380 
#    z -0.346040 -0.660380 4.583620 
# 
# 
# High freq. dielectric constant tensor:
#      x y z
#    x 1.988040 0.013920 -0.005830 
#    y 0.013920 1.965840 -0.011820 
#    z -0.005830 -0.011820 1.959050 
# 
# From -- ./inp_files/365059.got.cif
#   From: 2010.06.25/outbox.cif.g09.slc.cpg/sg2_183_cif.got.tgz:365059.got - 2010.06.27 13:26:56.
