data_PCOD8017632
_publ_section_title
;
Structure prediction by ZEFSAII (Michael W. Deem and Ramdas Pophale) SiO2 
 PCOD8017632
Probable space group: P -1
;
_chemical_formula_sum "Si O2"
_cell_formula_units_Z 14
_cell_length_a 9.014453
_cell_length_b 6.474632
_cell_length_c 12.118395
_cell_angle_alpha 82.747297
_cell_angle_beta 98.618199
_cell_angle_gamma 76.498799
_cell_volume 670.351264
_symmetry_space_group_name_H-M "P -1"
_symmetry_group_IT_number 2
_symmetry_cell_setting 'triclinic'
loop_
_space_group_symop_operation_xyz
x,y,z
-x,-y,-z
loop_
_atom_site_type_symbol
_atom_site_label
_atom_site_fract_x
_atom_site_fract_y
_atom_site_fract_z
Si Si1 0.167017 0.523869 0.546659
Si Si2 0.160942 0.857841 0.126365
Si Si3 0.334317 0.069674 0.533520
Si Si4 0.201130 0.821955 0.710388
Si Si5 0.144328 0.904744 0.360797
Si Si6 0.891314 0.711172 0.025862
Si Si7 0.681425 0.418910 0.041383
O O1 0.303128 0.307103 0.564778
O O2 0.171303 0.607107 0.666817
O O3 0.201104 0.697110 0.455891
O O4 0.000000 0.500000 0.500000
O O5 0.230082 0.830689 0.258923
O O6 0.987901 0.815026 0.118120
O O7 0.259049 0.692346 0.060822
O O8 0.159959 0.104270 0.084021
O O9 0.500000 0.000000 0.500000
O O10 0.322559 0.909127 0.643921
O O11 0.206773 0.083962 0.421027
O O12 0.269947 0.758991 0.844531
O O13 0.040134 0.007890 0.683617
O O14 0.745719 0.629844 0.061568
O O15 0.000000 0.500000 0.000000
O O16 0.500000 0.500000 0.000000
#
# Coordination Sequence:
#
# PCOD8017632 Si02
#       7
#     2   2   2   2   2   2   2
#     4  11  21  40  68  95 124 170 214 260 326 379
#     4  10  22  39  63  93 125 164 217 268 315 378
#     4  11  25  42  64 100 135 165 212 274 330 383
#     4  11  23  41  66  94 127 171 223 263 316 398
#     4  11  22  39  68  98 126 164 224 264 318 399
#     4   9  19  38  59  86 118 161 212 259 310 371
#     4  11  26  42  62  94 135 173 218 266 330 394
#
# _framework density 20.884574000000001
#
# number of rings (size 3 to 8) (size 9 to 14) (size 15 to 20)
#    0.000    1.429    2.857    3.429    2.000    9.714 
#    0.000    0.000    0.000    0.000    0.000    0.000 
#    0.000    0.000    0.000    0.000    0.000    0.000 
#
# Total GULP energy -173510.560500 kJ/mol
# GULP energy per Si atom -12393.611464 kJ/mol
# Density = 2.083704 g / cm^3
# Si number density = 20.884574 Si / 1000 Ang^3
#
#
#
# Elastic Constant Matrix: (Units=GPa)
#
#
# Indices 1 2 3 4 5 6 
#
# 1 113.6007 34.5298 27.1877 -11.9072 -7.2451 -0.4058
# 2 34.5298 108.2921 24.3597 0.8069 -8.2952 0.2720
# 3 27.1877 24.3597 120.8567 9.8788 -8.8421 0.6305
# 4 -11.9072 0.8069 9.8788 27.5345 -8.4931 -6.4629
# 5 -7.2451 -8.2952 -8.8421 -8.4931 23.1866 -1.2556
# 6 -0.4058 0.2720 0.6305 -6.4629 -1.2556 28.3896
#
#
#
# Elastic Compliance Matrix: (Units=1/GPa)
#
#
# Indices 1 2 3 4 5 6 
#
# 1 0.011315 -0.002803 -0.002287 0.007736 0.004614 0.002205
# 2 -0.002803 0.010600 -0.001308 -0.000375 0.002275 -0.000097
# 3 -0.002287 -0.001308 0.009473 -0.004398 0.000754 -0.001198
# 4 0.007736 -0.000375 -0.004398 0.050269 0.019698 0.012527
# 5 0.004614 0.002275 0.000754 0.019698 0.053258 0.006867
# 6 0.002205 -0.000097 -0.001198 0.012527 0.006867 0.038439
#
#
# Mechanical properties :
#
#
# Convention : Reuss Voigt Hill
#
# Bulk Modulus (GPa) = 53.78782 57.21154 55.49968
# Shear Modulus (GPa) = 25.99462 32.93365 29.46413
#
# Velocity S-wave (km/s) = 3.53183 3.97537 3.76015
# Velocity P-wave (km/s) = 6.51479 6.96600 6.74417
#
# Compressibility (1/GPa) = 0.01859157
#
# Stress axis : x y z
#
# Youngs Moduli (GPa) = 88.37708 94.34220 105.55997
#
# Poissons Ratio (x) = 0.26447 0.24139
# Poissons Ratio (y) = 0.24775 0.13810
# Poissons Ratio (z) = 0.20209 0.12343
#
# Static dielectric constant tensor:
#      x y z
#    x 3.962450 0.744000 -0.002340 
#    y 0.744000 5.201160 0.304630 
#    z -0.002340 0.304630 3.877950 
# 
# 
# High freq. dielectric constant tensor:
#      x y z
#    x 1.797900 0.008000 -0.007580 
#    y 0.008000 1.830870 0.007180 
#    z -0.007580 0.007180 1.817050 
# 
# From -- ./inp_files/38552.got.cif
#   From: 2010.06.25/outbox.cif.g09.slc.cpg/sg2_20_cif.got.tgz:38552.got - 2010.06.27 13:26:56.
