data_PCOD8017313
_publ_section_title
;
Structure prediction by ZEFSAII (Michael W. Deem and Ramdas Pophale) SiO2 
 PCOD8017313
Probable space group: P -1
;
_chemical_formula_sum "Si O2"
_cell_formula_units_Z 14
_cell_length_a 10.867977
_cell_length_b 11.030597
_cell_length_c 9.821296
_cell_angle_alpha 139.190963
_cell_angle_beta 57.156428
_cell_angle_gamma 109.811756
_cell_volume 640.954204
_symmetry_space_group_name_H-M "P -1"
_symmetry_group_IT_number 2
_symmetry_cell_setting 'triclinic'
loop_
_space_group_symop_operation_xyz
x,y,z
-x,-y,-z
loop_
_atom_site_type_symbol
_atom_site_label
_atom_site_fract_x
_atom_site_fract_y
_atom_site_fract_z
Si Si1 0.984463 0.988434 0.340933
Si Si2 0.623180 0.633014 0.035569
Si Si3 0.239461 0.437063 0.559424
Si Si4 0.915671 0.407762 0.705365
Si Si5 0.794189 0.670159 0.208338
Si Si6 0.555202 0.842162 0.990670
Si Si7 0.306434 0.835773 0.940751
O O1 0.883422 0.831101 0.234092
O O2 0.142675 0.941992 0.136316
O O3 0.911270 0.188473 0.498324
O O4 0.000000 0.000000 0.500000
O O5 0.782255 0.521350 0.794560
O O6 0.573485 0.800956 0.104430
O O7 0.500000 0.500000 0.000000
O O8 0.641873 0.705102 0.240976
O O9 0.234527 0.324225 0.609332
O O10 0.344684 0.310850 0.288562
O O11 0.074862 0.467453 0.620188
O O12 0.305887 0.629421 0.705323
O O13 0.884629 0.468142 0.935883
O O14 0.597400 0.049836 0.119593
O O15 0.385499 0.830050 0.037098
#
# Coordination Sequence:
#
# PCOD8017313 Si02
#       7
#     2   2   2   2   2   2   2
#     4  12  20  37  67  99 121 161 217 264 304 363
#     4  10  24  45  64  88 134 168 199 261 322 375
#     4  12  20  41  67  94 123 163 218 258 306 368
#     4  10  22  38  66  93 125 163 210 256 316 363
#     4  10  22  39  67  97 123 164 211 260 310 367
#     4  11  25  42  61  94 127 170 206 254 320 374
#     4  11  23  39  64  91 129 161 212 264 305 369
#
# _framework density 21.842435999999999
#
# number of rings (size 3 to 8) (size 9 to 14) (size 15 to 20)
#    0.857    0.286    4.286    2.571    2.000    0.571 
#    2.571    2.143    0.000    0.000    0.000    0.000 
#    0.000    0.000    0.000    0.000    0.000    0.000 
#
# Total GULP energy -173532.458922 kJ/mol
# GULP energy per Si atom -12395.175637 kJ/mol
# Density = 2.179272 g / cm^3
# Si number density = 21.842436 Si / 1000 Ang^3
#
#
#
# Elastic Constant Matrix: (Units=GPa)
#
#
# Indices 1 2 3 4 5 6 
#
# 1 120.9972 45.7147 -1.8865 12.5713 -9.0522 18.6652
# 2 45.7147 95.4026 7.7913 24.7085 2.7349 16.3174
# 3 -1.8865 7.7913 37.0238 13.8884 8.0082 4.4860
# 4 12.5713 24.7085 13.8884 31.9674 -1.3638 4.7260
# 5 -9.0522 2.7349 8.0082 -1.3638 13.6263 8.4686
# 6 18.6652 16.3174 4.4860 4.7260 8.4686 41.6093
#
#
#
# Elastic Compliance Matrix: (Units=1/GPa)
#
#
# Indices 1 2 3 4 5 6 
#
# 1 0.012128 -0.005416 -0.000944 0.001318 0.013648 -0.006142
# 2 -0.005416 0.016406 0.002889 -0.012033 -0.009113 -0.001094
# 3 -0.000944 0.002889 0.040077 -0.020982 -0.028867 0.003228
# 4 0.001318 -0.012033 -0.020982 0.050780 0.023259 -0.004112
# 5 0.013648 -0.009113 -0.028867 0.023259 0.120053 -0.026512
# 6 -0.006142 -0.001094 0.003228 -0.004112 -0.026512 0.032732
#
#
# Mechanical properties :
#
#
# Convention : Reuss Voigt Hill
#
# Bulk Modulus (GPa) = 16.21582 39.62919 27.92250
# Shear Modulus (GPa) = 16.68471 30.89418 23.78945
#
# Velocity S-wave (km/s) = 2.76681 3.76495 3.30379
# Velocity P-wave (km/s) = 4.20085 6.08953 5.23113
#
# Compressibility (1/GPa) = 0.06166818
#
# Stress axis : x y z
#
# Youngs Moduli (GPa) = 82.45460 60.95275 24.95190
#
# Poissons Ratio (x) = 0.33014 0.02356
# Poissons Ratio (y) = 0.44660 -0.07209
# Poissons Ratio (z) = 0.07786 -0.17610
#
# Static dielectric constant tensor:
#      x y z
#    x 3.361260 0.530420 0.537250 
#    y 0.530420 4.159430 0.357470 
#    z 0.537250 0.357470 3.704660 
# 
# 
# High freq. dielectric constant tensor:
#      x y z
#    x 1.861100 0.023830 -0.010200 
#    y 0.023830 1.851870 0.016300 
#    z -0.010200 0.016300 1.846000 
# 
# From -- ./inp_files/425326.got.cif
#   From: 2010.06.25/outbox.cif.g09.slc.cpg/sg2_213_cif.got.tgz:425326.got - 2010.06.27 13:26:56.
