data_PCOD8017290
_publ_section_title
;
Structure prediction by ZEFSAII (Michael W. Deem and Ramdas Pophale) SiO2 
 PCOD8017290
Probable space group: P -1
;
_chemical_formula_sum "Si O2"
_cell_formula_units_Z 16
_cell_length_a 14.135318
_cell_length_b 8.829124
_cell_length_c 13.769541
_cell_angle_alpha 52.617712
_cell_angle_beta 42.124666
_cell_angle_gamma 83.198238
_cell_volume 716.684747
_symmetry_space_group_name_H-M "P -1"
_symmetry_group_IT_number 2
_symmetry_cell_setting 'triclinic'
loop_
_space_group_symop_operation_xyz
x,y,z
-x,-y,-z
loop_
_atom_site_type_symbol
_atom_site_label
_atom_site_fract_x
_atom_site_fract_y
_atom_site_fract_z
Si Si1 0.944737 0.590675 0.400389
Si Si2 0.831523 0.726285 0.249595
Si Si3 0.555048 0.255569 0.892221
Si Si4 0.977816 0.761401 0.498247
Si Si5 0.457526 0.383409 0.356471
Si Si6 0.799091 0.531495 0.144583
Si Si7 0.252372 0.099743 0.317076
Si Si8 0.811098 0.113409 0.355233
O O1 0.892916 0.622982 0.322426
O O2 0.770202 0.421226 0.671531
O O3 0.046454 0.820881 0.308349
O O4 0.047897 0.478558 0.351227
O O5 0.665210 0.713046 0.416571
O O6 0.761274 0.571601 0.265725
O O7 0.000000 0.000000 0.000000
O O8 0.506200 0.374050 0.803637
O O9 0.460342 0.241297 0.071541
O O10 0.500000 0.000000 0.000000
O O11 0.794394 0.731848 0.666096
O O12 0.139756 0.987944 0.347514
O O13 0.648878 0.457012 0.209291
O O14 0.347335 0.163292 0.448962
O O15 0.789711 0.296256 0.247839
O O16 0.987025 0.782145 0.867771
O O17 0.201497 0.893723 0.515027
#
# Coordination Sequence:
#
# PCOD8017290 Si02
#       8
#     2   2   2   2   2   2   2   2
#     4  10  22  42  64  96 138 171 222 281 337 404
#     4  11  22  43  70  96 137 183 225 280 345 399
#     4  11  24  43  66  96 139 178 220 286 351 399
#     4  10  22  38  65  97 131 169 226 272 329 414
#     4  11  25  45  70 100 137 176 235 281 338 417
#     4  11  25  44  72  99 136 184 227 282 341 404
#     4  11  23  41  67  96 136 175 223 278 343 405
#     4  11  25  46  69  99 142 177 225 289 342 405
#
# _framework density 22.325019000000001
#
# number of rings (size 3 to 8) (size 9 to 14) (size 15 to 20)
#    0.000    1.250    2.500    3.000    5.250    2.000 
#    0.000    0.000    0.000    0.000    0.000    0.000 
#    0.000    0.000    0.000    0.000    0.000    0.000 
#
# Total GULP energy -198258.169396 kJ/mol
# GULP energy per Si atom -12391.135587 kJ/mol
# Density = 2.227421 g / cm^3
# Si number density = 22.325019 Si / 1000 Ang^3
#
#
#
# Elastic Constant Matrix: (Units=GPa)
#
#
# Indices 1 2 3 4 5 6 
#
# 1 108.6830 19.4037 39.0381 -5.8497 -10.1035 -9.8433
# 2 19.4037 103.8621 30.8178 -1.3508 -1.3087 -9.6756
# 3 39.0381 30.8178 92.6481 7.1216 6.1067 -6.7344
# 4 -5.8497 -1.3508 7.1216 35.3685 5.0621 0.0462
# 5 -10.1035 -1.3087 6.1067 5.0621 28.3600 1.5512
# 6 -9.8433 -9.6756 -6.7344 0.0462 1.5512 41.3390
#
#
#
# Elastic Compliance Matrix: (Units=1/GPa)
#
#
# Indices 1 2 3 4 5 6 
#
# 1 0.011887 -0.000416 -0.005244 0.002311 0.004839 0.001695
# 2 -0.000416 0.010925 -0.003449 0.000921 0.000832 0.001864
# 3 -0.005244 -0.003449 0.014748 -0.003305 -0.004642 0.000525
# 4 0.002311 0.000921 -0.003305 0.029897 -0.003777 0.000336
# 5 0.004839 0.000832 -0.004642 -0.003777 0.038744 -0.000859
# 6 0.001695 0.001864 0.000525 0.000336 -0.000859 0.025147
#
#
# Mechanical properties :
#
#
# Convention : Reuss Voigt Hill
#
# Bulk Modulus (GPa) = 51.69797 53.74581 52.72189
# Shear Modulus (GPa) = 32.04853 35.40908 33.72881
#
# Velocity S-wave (km/s) = 3.79297 3.98687 3.89113
# Velocity P-wave (km/s) = 6.51071 6.73202 6.62229
#
# Compressibility (1/GPa) = 0.01934312
#
# Stress axis : x y z
#
# Youngs Moduli (GPa) = 84.12884 91.53001 67.80407
#
# Poissons Ratio (x) = 0.03807 0.35554
# Poissons Ratio (y) = 0.03499 0.23386
# Poissons Ratio (z) = 0.44114 0.31570
#
# Static dielectric constant tensor:
#      x y z
#    x 3.928980 -0.018070 -0.264710 
#    y -0.018070 4.331310 0.200590 
#    z -0.264710 0.200590 4.011690 
# 
# 
# High freq. dielectric constant tensor:
#      x y z
#    x 1.889580 0.000780 -0.002920 
#    y 0.000780 1.891550 0.002130 
#    z -0.002920 0.002130 1.866210 
# 
# From -- ./inp_files/529390.got.cif
#   From: 2010.06.25/outbox.cif.g09.slc.cpg/sg2_265_cif.got.tgz:529390.got - 2010.06.27 13:26:56.
