data_PCOD8017180
_publ_section_title
;
Structure prediction by ZEFSAII (Michael W. Deem and Ramdas Pophale) SiO2 
 PCOD8017180
Probable space group: P -1
;
_chemical_formula_sum "Si O2"
_cell_formula_units_Z 14
_cell_length_a 9.725891
_cell_length_b 14.241394
_cell_length_c 6.678470
_cell_angle_alpha 106.213378
_cell_angle_beta 49.618354
_cell_angle_gamma 91.542034
_cell_volume 661.454427
_symmetry_space_group_name_H-M "P -1"
_symmetry_group_IT_number 2
_symmetry_cell_setting 'triclinic'
loop_
_space_group_symop_operation_xyz
x,y,z
-x,-y,-z
loop_
_atom_site_type_symbol
_atom_site_label
_atom_site_fract_x
_atom_site_fract_y
_atom_site_fract_z
Si Si1 0.077364 0.261007 0.019561
Si Si2 0.391728 0.286858 0.020987
Si Si3 0.117294 0.595861 0.051359
Si Si4 0.248795 0.653435 0.357136
Si Si5 0.776131 0.530166 0.472994
Si Si6 0.513351 0.942083 0.157427
Si Si7 0.191861 0.033033 0.791854
O O1 0.231844 0.305214 0.016953
O O2 0.909057 0.266936 0.336601
O O3 0.149119 0.146617 0.820124
O O4 0.015864 0.324686 0.917220
O O5 0.343365 0.360024 0.302637
O O6 0.564544 0.310441 0.752433
O O7 0.431860 0.175856 0.006028
O O8 0.221322 0.654408 0.143050
O O9 0.992594 0.534541 0.260091
O O10 0.266650 0.518640 0.729220
O O11 0.258472 0.541264 0.357654
O O12 0.677365 0.976940 0.143405
O O13 0.313064 0.965484 0.467793
O O14 0.500000 0.000000 0.000000
O O15 0.000000 0.000000 0.000000
#
# Coordination Sequence:
#
# PCOD8017180 Si02
#       7
#     2   2   2   2   2   2   2
#     4  10  23  40  62  88 121 159 195 245 304 351
#     4  11  23  41  62  85 125 158 195 249 302 348
#     4  10  22  38  62  86 120 156 204 241 291 358
#     4  11  22  41  59  90 121 157 202 244 288 358
#     4  10  22  39  58  87 122 160 195 246 296 347
#     4  10  24  42  62  94 123 156 205 255 302 363
#     4  10  22  42  65  90 123 160 201 253 308 360
#
# _framework density 21.165476999999999
#
# number of rings (size 3 to 8) (size 9 to 14) (size 15 to 20)
#    0.000    1.714    1.429    1.714    6.000    2.286 
#    5.143    0.000    0.000    0.000    0.000    0.000 
#    0.000    0.000    0.000    0.000    0.000    0.000 
#
# Total GULP energy -173588.399455 kJ/mol
# GULP energy per Si atom -12399.171390 kJ/mol
# Density = 2.111730 g / cm^3
# Si number density = 21.165477 Si / 1000 Ang^3
#
#
#
# Elastic Constant Matrix: (Units=GPa)
#
#
# Indices 1 2 3 4 5 6 
#
# 1 75.9586 42.5621 60.3068 -23.0068 -22.8364 0.3186
# 2 42.5621 106.0814 48.4139 -3.7530 0.5699 -17.0418
# 3 60.3068 48.4139 108.7276 2.0086 -10.6858 -13.0987
# 4 -23.0068 -3.7530 2.0086 40.4089 0.8711 -8.8297
# 5 -22.8364 0.5699 -10.6858 0.8711 31.2548 -11.7470
# 6 0.3186 -17.0418 -13.0987 -8.8297 -11.7470 19.9949
#
#
#
# Elastic Compliance Matrix: (Units=1/GPa)
#
#
# Indices 1 2 3 4 5 6 
#
# 1 0.063975 -0.010276 -0.025399 0.039388 0.043325 0.016430
# 2 -0.010276 0.015119 -0.000295 -0.002307 -0.004327 0.009296
# 3 -0.025399 -0.000295 0.023285 -0.014625 -0.008753 0.003806
# 4 0.039388 -0.002307 -0.014625 0.053883 0.034249 0.031740
# 5 0.043325 -0.004327 -0.008753 0.034249 0.079141 0.051507
# 6 0.016430 0.009296 0.003806 0.031740 0.051507 0.104443
#
#
# Mechanical properties :
#
#
# Convention : Reuss Voigt Hill
#
# Bulk Modulus (GPa) = 32.85302 65.92592 49.38947
# Shear Modulus (GPa) = 11.85024 27.63072 19.74048
#
# Velocity S-wave (km/s) = 2.36876 3.61704 3.05728
# Velocity P-wave (km/s) = 4.79969 6.97563 5.98734
#
# Compressibility (1/GPa) = 0.03043860
#
# Stress axis : x y z
#
# Youngs Moduli (GPa) = 15.63118 66.13990 42.94639
#
# Poissons Ratio (x) = 0.67966 1.09078
# Poissons Ratio (y) = 0.16063 0.01268
# Poissons Ratio (z) = 0.39701 0.01953
#
# Static dielectric constant tensor:
#      x y z
#    x 3.743090 0.082190 -0.039960 
#    y 0.082190 3.719470 0.204470 
#    z -0.039960 0.204470 4.037570 
# 
# 
# High freq. dielectric constant tensor:
#      x y z
#    x 1.819920 0.004270 -0.005820 
#    y 0.004270 1.828450 0.008140 
#    z -0.005820 0.008140 1.840990 
# 
# From -- ./inp_files/39597.got.cif
#   From: 2010.06.25/outbox.cif.g09.slc.cpg/sg2_20_cif.got.tgz:39597.got - 2010.06.27 13:26:56.
