data_PCOD8017229
_publ_section_title
;
Structure prediction by ZEFSAII (Michael W. Deem and Ramdas Pophale) SiO2 
 PCOD8017229
Probable space group: P -1
;
_chemical_formula_sum "Si O2"
_cell_formula_units_Z 14
_cell_length_a 10.811169
_cell_length_b 21.943013
_cell_length_c 6.476817
_cell_angle_alpha 71.151826
_cell_angle_beta 87.573658
_cell_angle_gamma 145.393508
_cell_volume 676.541110
_symmetry_space_group_name_H-M "P -1"
_symmetry_group_IT_number 2
_symmetry_cell_setting 'triclinic'
loop_
_space_group_symop_operation_xyz
x,y,z
-x,-y,-z
loop_
_atom_site_type_symbol
_atom_site_label
_atom_site_fract_x
_atom_site_fract_y
_atom_site_fract_z
Si Si1 0.569313 0.391306 0.007292
Si Si2 0.313334 0.678701 0.184233
Si Si3 0.809160 0.430950 0.280803
Si Si4 0.747135 0.143335 0.940351
Si Si5 0.504021 0.879281 0.700939
Si Si6 0.003237 0.813782 0.782772
Si Si7 0.939032 0.288935 0.371200
O O1 0.565093 0.356742 0.274990
O O2 0.293139 0.297248 0.084863
O O3 0.630967 0.368210 0.848483
O O4 0.792661 0.548163 0.843691
O O5 0.323835 0.684241 0.430101
O O6 0.013210 0.563966 0.269628
O O7 0.521523 0.822679 0.901534
O O8 0.000000 0.500000 0.000000
O O9 0.903431 0.262054 0.647106
O O10 0.634884 0.128464 0.158224
O O11 0.941738 0.179881 0.988864
O O12 0.500000 0.000000 0.000000
O O13 0.310813 0.783725 0.618670
O O14 0.801459 0.037149 0.450398
O O15 0.037179 0.769877 0.672662
#
# Coordination Sequence:
#
# PCOD8017229 Si02
#       7
#     2   2   2   2   2   2   2
#     4  11  24  39  62  91 130 160 194 258 309 358
#     4  10  22  38  63  93 117 162 208 242 303 371
#     4   9  20  39  59  87 119 158 202 246 295 359
#     4  11  21  39  65  89 115 166 213 249 301 355
#     4  11  22  39  65  90 121 159 211 252 293 373
#     4  11  24  41  58  94 127 159 205 252 304 362
#     4  11  22  40  64  89 121 165 206 251 303 357
#
# _framework density 20.693494000000001
#
# number of rings (size 3 to 8) (size 9 to 14) (size 15 to 20)
#    0.000    1.429    4.286    1.286    6.000    2.286 
#    0.000    0.714    0.000    0.000    0.000    0.000 
#    0.000    0.000    0.000    0.000    0.000    0.000 
#
# Total GULP energy -173441.900918 kJ/mol
# GULP energy per Si atom -12388.707208 kJ/mol
# Density = 2.064639 g / cm^3
# Si number density = 20.693494 Si / 1000 Ang^3
#
#
#
# Elastic Constant Matrix: (Units=GPa)
#
#
# Indices 1 2 3 4 5 6 
#
# 1 53.8291 38.2219 25.4822 -2.8978 13.8950 12.3911
# 2 38.2219 105.1120 50.8720 -8.1767 11.7885 21.0817
# 3 25.4822 50.8720 128.5260 5.9459 39.2648 6.2361
# 4 -2.8978 -8.1767 5.9459 43.5033 3.6136 8.3138
# 5 13.8950 11.7885 39.2648 3.6136 36.6171 1.9277
# 6 12.3911 21.0817 6.2361 8.3138 1.9277 31.6811
#
#
#
# Elastic Compliance Matrix: (Units=1/GPa)
#
#
# Indices 1 2 3 4 5 6 
#
# 1 0.027606 -0.008036 0.000394 0.002019 -0.008218 -0.005557
# 2 -0.008036 0.017074 -0.006274 0.004803 0.004254 -0.008503
# 3 0.000394 -0.006274 0.014229 -0.002508 -0.013281 0.002686
# 4 0.002019 0.004803 -0.002508 0.026483 -0.001693 -0.010339
# 5 -0.008218 0.004254 -0.013281 -0.001693 0.043425 0.000800
# 6 -0.005557 -0.008503 0.002686 -0.010339 0.000800 0.041532
#
#
# Mechanical properties :
#
#
# Convention : Reuss Voigt Hill
#
# Bulk Modulus (GPa) = 32.17763 57.40214 44.78989
# Shear Modulus (GPa) = 23.97618 33.88636 28.93127
#
# Velocity S-wave (km/s) = 3.40756 4.05104 3.74315
# Velocity P-wave (km/s) = 5.57363 7.04845 6.35398
#
# Compressibility (1/GPa) = 0.03107749
#
# Stress axis : x y z
#
# Youngs Moduli (GPa) = 36.22417 58.56785 70.27937
#
# Poissons Ratio (x) = 0.47063 -0.02770
# Poissons Ratio (y) = 0.29109 0.44095
# Poissons Ratio (z) = -0.01428 0.36747
#
# Static dielectric constant tensor:
#      x y z
#    x 3.726130 0.273910 0.462450 
#    y 0.273910 3.750920 0.426580 
#    z 0.462450 0.426580 4.273260 
# 
# 
# High freq. dielectric constant tensor:
#      x y z
#    x 1.785650 -0.000590 0.026130 
#    y -0.000590 1.813680 0.014390 
#    z 0.026130 0.014390 1.817570 
# 
# From -- ./inp_files/84309.got.cif
#   From: 2010.06.25/outbox.cif.g09.slc.cpg/sg2_43_cif.got.tgz:84309.got - 2010.06.27 13:26:56.
