data_PCOD8017941
_publ_section_title
;
Structure prediction by ZEFSAII (Michael W. Deem and Ramdas Pophale) SiO2 
 PCOD8017941
Probable space group: P -1
;
_chemical_formula_sum "Si O2"
_cell_formula_units_Z 16
_cell_length_a 14.808572
_cell_length_b 9.767764
_cell_length_c 9.182065
_cell_angle_alpha 91.384849
_cell_angle_beta 38.141074
_cell_angle_gamma 100.602482
_cell_volume 790.209001
_symmetry_space_group_name_H-M "P -1"
_symmetry_group_IT_number 2
_symmetry_cell_setting 'triclinic'
loop_
_space_group_symop_operation_xyz
x,y,z
-x,-y,-z
loop_
_atom_site_type_symbol
_atom_site_label
_atom_site_fract_x
_atom_site_fract_y
_atom_site_fract_z
Si Si1 0.834495 0.658718 0.535956
Si Si2 0.837952 0.164271 0.822744
Si Si3 0.839833 0.888297 0.987003
Si Si4 0.630718 0.646886 0.063715
Si Si5 0.400104 0.671742 0.888024
Si Si6 0.328684 0.652607 0.307282
Si Si7 0.175873 0.891492 0.490943
Si Si8 0.268515 0.165646 0.559628
O O1 0.804740 0.492163 0.539476
O O2 0.819196 0.733370 0.405182
O O3 0.000815 0.720590 0.391532
O O4 0.714201 0.687013 0.804875
O O5 0.796198 0.091706 0.716902
O O6 0.837400 0.042309 0.935697
O O7 0.720538 0.252059 0.023451
O O8 0.997577 0.855127 0.748429
O O9 0.701825 0.766013 0.094501
O O10 0.823227 0.893830 0.180880
O O11 0.645366 0.495035 0.100049
O O12 0.453753 0.640453 0.267154
O O13 0.561042 0.748550 0.615428
O O14 0.411714 0.689422 0.047893
O O15 0.244742 0.769423 0.465809
O O16 0.270194 0.036247 0.447741
#
# Coordination Sequence:
#
# PCOD8017941 Si02
#       8
#     2   2   2   2   2   2   2   2
#     4  11  20  42  68  89 125 158 204 254 309 357
#     4  11  24  40  66  95 118 162 207 256 301 358
#     4  12  26  40  61  92 128 165 202 250 305 363
#     4  11  21  42  66  94 121 157 210 252 303 362
#     4  10  23  40  66  94 121 160 204 255 307 357
#     4  10  22  39  69  97 115 157 209 259 301 357
#     4  11  24  41  64  92 124 158 211 252 303 357
#     4  12  24  43  61  86 132 168 198 249 306 367
#
# _framework density 20.247807000000002
#
# number of rings (size 3 to 8) (size 9 to 14) (size 15 to 20)
#    0.000    1.000    5.000    2.250    3.500    3.500 
#    0.000    0.625    0.000    0.000    0.000    0.000 
#    0.000    0.000    0.000    0.000    0.000    0.000 
#
# Total GULP energy -198487.260376 kJ/mol
# GULP energy per Si atom -12405.453774 kJ/mol
# Density = 2.020172 g / cm^3
# Si number density = 20.247807 Si / 1000 Ang^3
#
#
#
# Elastic Constant Matrix: (Units=GPa)
#
#
# Indices 1 2 3 4 5 6 
#
# 1 61.9046 22.5934 28.2932 -0.8929 -9.3504 -9.3430
# 2 22.5934 83.9706 32.5892 -12.0806 -13.1671 -13.5674
# 3 28.2932 32.5892 52.0035 -7.1064 7.5657 -14.7760
# 4 -0.8929 -12.0806 -7.1064 20.5183 -6.3930 -15.2226
# 5 -9.3504 -13.1671 7.5657 -6.3930 30.8432 -3.7682
# 6 -9.3430 -13.5674 -14.7760 -15.2226 -3.7682 36.4642
#
#
#
# Elastic Compliance Matrix: (Units=1/GPa)
#
#
# Indices 1 2 3 4 5 6 
#
# 1 0.025243 0.003611 -0.015527 0.007067 0.015206 0.006041
# 2 0.003611 0.032765 -0.010993 0.050064 0.032173 0.032887
# 3 -0.015527 -0.010993 0.041791 0.011216 -0.015871 0.011908
# 4 0.007067 0.050064 0.011216 0.187362 0.073131 0.110758
# 5 0.015206 0.032173 -0.015871 0.073131 0.075656 0.047783
# 6 0.006041 0.032887 0.011908 0.110758 0.047783 0.097209
#
#
# Mechanical properties :
#
#
# Convention : Reuss Voigt Hill
#
# Bulk Modulus (GPa) = 18.52464 40.53673 29.53068
# Shear Modulus (GPa) = 9.54497 25.19201 17.36849
#
# Velocity S-wave (km/s) = 2.17355 3.53113 2.93199
# Velocity P-wave (km/s) = 3.93293 6.05714 5.10670
#
# Compressibility (1/GPa) = 0.05398215
#
# Stress axis : x y z
#
# Youngs Moduli (GPa) = 39.61533 30.52068 23.92861
#
# Poissons Ratio (x) = -0.11022 0.37153
# Poissons Ratio (y) = -0.14306 0.26304
# Poissons Ratio (z) = 0.61509 0.33550
#
# Static dielectric constant tensor:
#      x y z
#    x 3.654120 -0.048610 -0.165300 
#    y -0.048610 3.788130 -0.089630 
#    z -0.165300 -0.089630 3.521500 
# 
# 
# High freq. dielectric constant tensor:
#      x y z
#    x 1.789760 -0.002850 -0.016740 
#    y -0.002850 1.803260 -0.011040 
#    z -0.016740 -0.011040 1.775280 
# 
# From -- ./inp_files/188544.got.cif
#   From: 2010.06.25/outbox.cif.g09.slc.cpg/sg2_95_cif.got.tgz:188544.got - 2010.06.27 13:26:56.
