data_PCOD8017376
_publ_section_title
;
Structure prediction by ZEFSAII (Michael W. Deem and Ramdas Pophale) SiO2 
 PCOD8017376
Probable space group: P -1
;
_chemical_formula_sum "Si O2"
_cell_formula_units_Z 16
_cell_length_a 22.806101
_cell_length_b 11.251049
_cell_length_c 8.627270
_cell_angle_alpha 127.604416
_cell_angle_beta 31.426557
_cell_angle_gamma 138.654223
_cell_volume 759.510698
_symmetry_space_group_name_H-M "P -1"
_symmetry_group_IT_number 2
_symmetry_cell_setting 'triclinic'
loop_
_space_group_symop_operation_xyz
x,y,z
-x,-y,-z
loop_
_atom_site_type_symbol
_atom_site_label
_atom_site_fract_x
_atom_site_fract_y
_atom_site_fract_z
Si Si1 0.484064 0.129286 0.375179
Si Si2 0.870781 0.541195 0.144964
Si Si3 0.094112 0.565988 0.487410
Si Si4 0.735324 0.528218 0.129022
Si Si5 0.744263 0.148855 0.126784
Si Si6 0.043642 0.893921 0.210569
Si Si7 0.729508 0.859986 0.341977
Si Si8 0.701219 0.066863 0.803423
O O1 0.603290 0.332478 0.311724
O O2 0.386683 0.130454 0.470877
O O3 0.399612 0.025193 0.636411
O O4 0.550132 0.021312 0.083343
O O5 0.827270 0.595855 0.129974
O O6 0.756166 0.335952 0.294960
O O7 0.910060 0.699873 0.305399
O O8 0.000988 0.525829 0.815202
O O9 0.202123 0.779124 0.414715
O O10 0.000000 0.500000 0.500000
O O11 0.179471 0.474401 0.212086
O O12 0.690006 0.657514 0.279072
O O13 0.864544 0.145033 0.926009
O O14 0.756357 0.138061 0.907030
O O15 0.000000 0.000000 0.500000
O O16 0.125489 0.011882 0.967530
O O17 0.720621 0.909110 0.580672
#
# Coordination Sequence:
#
# PCOD8017376 Si02
#       8
#     2   2   2   2   2   2   2   2
#     4  10  22  44  62  94 131 162 216 263 314 366
#     4  11  21  41  64  94 123 167 218 247 315 379
#     4   9  17  35  60  92 117 155 210 261 289 370
#     4  10  22  38  69  90 129 164 214 262 311 369
#     4  11  23  41  68  91 128 169 208 264 309 379
#     4  11  27  42  60  96 139 160 200 264 328 377
#     4  11  24  40  63  96 126 170 207 264 317 373
#     4  11  20  38  68  92 121 167 218 257 305 372
#
# _framework density 21.066195
#
# number of rings (size 3 to 8) (size 9 to 14) (size 15 to 20)
#    0.000    1.500    5.000    1.500    3.500    0.500 
#    0.000    3.125    0.000    0.000    0.000    0.000 
#    0.000    0.000    0.000    0.000    0.000    0.000 
#
# Total GULP energy -198257.636598 kJ/mol
# GULP energy per Si atom -12391.102287 kJ/mol
# Density = 2.101825 g / cm^3
# Si number density = 21.066195 Si / 1000 Ang^3
#
#
#
# Elastic Constant Matrix: (Units=GPa)
#
#
# Indices 1 2 3 4 5 6 
#
# 1 54.4312 38.0009 29.4718 1.4841 1.3794 0.1148
# 2 38.0009 118.4854 58.2113 17.6083 13.6170 3.8997
# 3 29.4718 58.2113 92.0947 10.3051 9.0285 5.2323
# 4 1.4841 17.6083 10.3051 35.8079 6.3488 1.0770
# 5 1.3794 13.6170 9.0285 6.3488 17.5160 1.9174
# 6 0.1148 3.8997 5.2323 1.0770 1.9174 33.9349
#
#
#
# Elastic Compliance Matrix: (Units=1/GPa)
#
#
# Indices 1 2 3 4 5 6 
#
# 1 0.025488 -0.006879 -0.004635 0.002814 0.004592 0.001070
# 2 -0.006879 0.015065 -0.006208 -0.004190 -0.006424 -0.000255
# 3 -0.004635 -0.006208 0.016757 -0.001014 -0.002897 -0.001659
# 4 0.002814 -0.004190 -0.001014 0.031559 -0.007888 0.000072
# 5 0.004592 -0.006424 -0.002897 -0.007888 0.066330 -0.002328
# 6 0.001070 -0.000255 -0.001659 0.000072 -0.002328 0.029879
#
#
# Mechanical properties :
#
#
# Convention : Reuss Voigt Hill
#
# Bulk Modulus (GPa) = 45.72905 57.37548 51.55226
# Shear Modulus (GPa) = 21.94802 26.74025 24.34413
#
# Velocity S-wave (km/s) = 3.23129 3.56665 3.40310
# Velocity P-wave (km/s) = 5.97294 6.65254 6.32188
#
# Compressibility (1/GPa) = 0.02186794
#
# Stress axis : x y z
#
# Youngs Moduli (GPa) = 39.23375 66.37728 59.67554
#
# Poissons Ratio (x) = 0.45660 0.27657
# Poissons Ratio (y) = 0.26988 0.37047
# Poissons Ratio (z) = 0.18183 0.41208
#
# Static dielectric constant tensor:
#      x y z
#    x 3.673420 0.023660 -0.037850 
#    y 0.023660 4.001130 -0.109700 
#    z -0.037850 -0.109700 4.229030 
# 
# 
# High freq. dielectric constant tensor:
#      x y z
#    x 1.815120 0.004400 -0.007150 
#    y 0.004400 1.829880 -0.002630 
#    z -0.007150 -0.002630 1.821530 
# 
# From -- ./inp_files/278023.got.cif
#   From: 2010.06.25/outbox.cif.g09.slc.cpg/sg2_140_cif.got.tgz:278023.got - 2010.06.27 13:26:56.
