data_PCOD8017796
_publ_section_title
;
Structure prediction by ZEFSAII (Michael W. Deem and Ramdas Pophale) SiO2 
 PCOD8017796
Probable space group: P -1
;
_chemical_formula_sum "Si O2"
_cell_formula_units_Z 14
_cell_length_a 9.808468
_cell_length_b 22.446957
_cell_length_c 5.532526
_cell_angle_alpha 92.735673
_cell_angle_beta 76.757734
_cell_angle_gamma 34.129085
_cell_volume 599.146348
_symmetry_space_group_name_H-M "P -1"
_symmetry_group_IT_number 2
_symmetry_cell_setting 'triclinic'
loop_
_space_group_symop_operation_xyz
x,y,z
-x,-y,-z
loop_
_atom_site_type_symbol
_atom_site_label
_atom_site_fract_x
_atom_site_fract_y
_atom_site_fract_z
Si Si1 0.413463 0.242204 0.587632
Si Si2 0.940395 0.297123 0.258256
Si Si3 0.626681 0.870368 0.572864
Si Si4 0.405258 0.493972 0.826017
Si Si5 0.920770 0.861085 0.145425
Si Si6 0.874433 0.506562 0.849299
Si Si7 0.444255 0.750289 0.946392
O O1 0.425917 0.165485 0.596311
O O2 0.506326 0.233778 0.811524
O O3 0.110334 0.374472 0.638803
O O4 0.603709 0.191901 0.265654
O O5 0.637780 0.405077 0.514439
O O6 0.896390 0.368209 0.103736
O O7 0.202975 0.220537 0.292944
O O8 0.990220 0.212452 0.126588
O O9 0.820963 0.852113 0.391866
O O10 0.334984 0.003535 0.805291
O O11 0.500000 0.500000 0.000000
O O12 0.375121 0.438499 0.920825
O O13 0.171211 0.811035 0.117665
O O14 0.713987 0.608749 0.744443
O O15 0.000000 0.500000 0.000000
#
# Coordination Sequence:
#
# PCOD8017796 Si02
#       7
#     2   2   2   2   2   2   2
#     4  11  26  46  72 104 148 188 236 296 361 430
#     4  11  23  40  74 100 139 177 234 292 358 425
#     4  11  26  46  71 100 138 188 245 298 351 419
#     4  11  23  41  66 104 139 178 223 289 359 427
#     4  11  26  46  71 100 138 188 245 298 351 419
#     4  10  22  39  66 100 137 180 224 285 354 427
#     4  11  26  46  72 104 148 188 236 296 361 430
#
# _framework density 23.366578000000001
#
# number of rings (size 3 to 8) (size 9 to 14) (size 15 to 20)
#    0.000    1.143    0.000    5.143   12.000    2.286 
#    0.000    0.000    0.000    0.000    0.000    0.000 
#    0.000    0.000    0.000    0.000    0.000    0.000 
#
# Total GULP energy -173436.873346 kJ/mol
# GULP energy per Si atom -12388.348096 kJ/mol
# Density = 2.331339 g / cm^3
# Si number density = 23.366578 Si / 1000 Ang^3
#
#
#
# Elastic Constant Matrix: (Units=GPa)
#
#
# Indices 1 2 3 4 5 6 
#
# 1 55.1848 21.1173 7.4799 8.1920 14.5156 -12.7282
# 2 21.1173 95.9949 36.7397 18.3651 11.9053 -2.5518
# 3 7.4799 36.7397 94.6465 11.0428 19.9024 -5.3488
# 4 8.1920 18.3651 11.0428 46.0772 3.6920 0.1694
# 5 14.5156 11.9053 19.9024 3.6920 33.2272 0.2366
# 6 -12.7282 -2.5518 -5.3488 0.1694 0.2366 33.0898
#
#
#
# Elastic Compliance Matrix: (Units=1/GPa)
#
#
# Indices 1 2 3 4 5 6 
#
# 1 0.024928 -0.004515 0.002899 -0.002498 -0.010801 0.009799
# 2 -0.004515 0.013839 -0.004730 -0.003595 0.000257 -0.001418
# 3 0.002899 -0.004730 0.014180 -0.001404 -0.007931 0.003106
# 4 -0.002498 -0.003595 -0.001404 0.023876 0.000579 -0.001591
# 5 -0.010801 0.000257 -0.007931 0.000579 0.039449 -0.005702
# 6 0.009799 -0.001418 0.003106 -0.001591 -0.005702 0.034432
#
#
# Mechanical properties :
#
#
# Convention : Reuss Voigt Hill
#
# Bulk Modulus (GPa) = 24.84208 41.83333 33.33770
# Shear Modulus (GPa) = 28.27838 34.51145 31.39492
#
# Velocity S-wave (km/s) = 3.48258 3.84729 3.66947
# Velocity P-wave (km/s) = 5.17935 6.13820 5.67904
#
# Compressibility (1/GPa) = 0.04025428
#
# Stress axis : x y z
#
# Youngs Moduli (GPa) = 40.11590 72.25961 70.52312
#
# Poissons Ratio (x) = 0.32629 -0.20446
# Poissons Ratio (y) = 0.18114 0.33356
# Poissons Ratio (z) = -0.11630 0.34177
#
# Static dielectric constant tensor:
#      x y z
#    x 4.275110 0.206960 0.003520 
#    y 0.206960 4.771670 0.239500 
#    z 0.003520 0.239500 4.112510 
# 
# 
# High freq. dielectric constant tensor:
#      x y z
#    x 1.935030 0.008730 -0.002210 
#    y 0.008730 1.930740 0.007110 
#    z -0.002210 0.007110 1.917080 
# 
# From -- ./inp_files/53461.got.cif
#   From: 2010.06.25/outbox.cif.g09.slc.cpg/sg2_27_cif.got.tgz:53461.got - 2010.06.27 13:26:56.
