data_PCOD8017396
_publ_section_title
;
Structure prediction by ZEFSAII (Michael W. Deem and Ramdas Pophale) SiO2 
 PCOD8017396
Probable space group: P -1
;
_chemical_formula_sum "Si O2"
_cell_formula_units_Z 14
_cell_length_a 12.344501
_cell_length_b 8.510125
_cell_length_c 8.185735
_cell_angle_alpha 123.156099
_cell_angle_beta 75.426302
_cell_angle_gamma 113.189151
_cell_volume 661.027939
_symmetry_space_group_name_H-M "P -1"
_symmetry_group_IT_number 2
_symmetry_cell_setting 'triclinic'
loop_
_space_group_symop_operation_xyz
x,y,z
-x,-y,-z
loop_
_atom_site_type_symbol
_atom_site_label
_atom_site_fract_x
_atom_site_fract_y
_atom_site_fract_z
Si Si1 0.696418 0.192949 0.114647
Si Si2 0.900113 0.546364 0.166438
Si Si3 0.300332 0.224317 0.120142
Si Si4 0.837227 0.217716 0.402026
Si Si5 0.246321 0.207599 0.753256
Si Si6 0.538730 0.451793 0.284205
Si Si7 0.097297 0.357018 0.400104
O O1 0.792088 0.350037 0.058897
O O2 0.744515 0.202990 0.285156
O O3 0.579681 0.258016 0.180211
O O4 0.674398 0.971321 0.932655
O O5 0.869165 0.733604 0.212187
O O6 0.924820 0.587983 0.373030
O O7 0.000000 0.500000 0.000000
O O8 0.423698 0.401748 0.183799
O O9 0.197885 0.252996 0.292104
O O10 0.255413 0.208255 0.944712
O O11 0.856332 0.433653 0.600340
O O12 0.970715 0.221362 0.299086
O O13 0.780224 0.022599 0.425687
O O14 0.363033 0.352598 0.708676
O O15 0.500000 0.500000 0.500000
#
# Coordination Sequence:
#
# PCOD8017396 Si02
#       7
#     2   2   2   2   2   2   2
#     4   9  21  39  61  88 119 161 199 246 305 350
#     4  10  22  39  55  89 128 158 194 246 301 360
#     4  11  22  39  66  87 118 161 207 247 300 356
#     4   9  20  39  60  89 124 150 212 236 299 357
#     4  10  23  38  61  91 118 157 204 251 298 352
#     4  11  22  44  62  86 124 161 203 251 301 357
#     4  10  22  39  62  89 124 163 196 246 306 360
#
# _framework density 21.179136
#
# number of rings (size 3 to 8) (size 9 to 14) (size 15 to 20)
#    0.000    2.000    0.000    3.429    8.000    1.714 
#    2.571    7.857    0.000    0.000    0.000    0.000 
#    0.000    0.000    0.000    0.000    0.000    0.000 
#
# Total GULP energy -173434.190619 kJ/mol
# GULP energy per Si atom -12388.156473 kJ/mol
# Density = 2.113093 g / cm^3
# Si number density = 21.179136 Si / 1000 Ang^3
#
#
#
# Elastic Constant Matrix: (Units=GPa)
#
#
# Indices 1 2 3 4 5 6 
#
# 1 88.3205 11.2878 6.1043 -0.2959 -13.0415 -1.7744
# 2 11.2878 106.3330 22.5544 18.9539 -8.7664 -13.2624
# 3 6.1043 22.5544 75.3176 -6.5315 -20.5133 -4.2277
# 4 -0.2959 18.9539 -6.5315 29.1287 1.5898 -2.7885
# 5 -13.0415 -8.7664 -20.5133 1.5898 35.0073 3.7201
# 6 -1.7744 -13.2624 -4.2277 -2.7885 3.7201 31.9319
#
#
#
# Elastic Compliance Matrix: (Units=1/GPa)
#
#
# Indices 1 2 3 4 5 6 
#
# 1 0.012108 -0.001223 0.000695 0.000804 0.004597 -0.000209
# 2 -0.001223 0.012442 -0.004099 -0.008680 0.000252 0.003770
# 3 0.000695 -0.004099 0.017487 0.006105 0.009190 0.000114
# 4 0.000804 -0.008680 0.006105 0.041457 -0.000275 0.000900
# 5 0.004597 0.000252 0.009190 -0.000275 0.036020 -0.002644
# 6 -0.000209 0.003770 0.000114 0.000900 -0.002644 0.033272
#
#
# Mechanical properties :
#
#
# Convention : Reuss Voigt Hill
#
# Bulk Modulus (GPa) = 30.50418 38.87379 34.68899
# Shear Modulus (GPa) = 28.90704 34.54856 31.72780
#
# Velocity S-wave (km/s) = 3.69844 4.04326 3.87469
# Velocity P-wave (km/s) = 5.71596 6.33971 6.03589
#
# Compressibility (1/GPa) = 0.03278239
#
# Stress axis : x y z
#
# Youngs Moduli (GPa) = 82.58993 80.37313 57.18488
#
# Poissons Ratio (x) = 0.09830 -0.03975
# Poissons Ratio (y) = 0.10101 0.23442
# Poissons Ratio (z) = -0.05740 0.32948
#
# Static dielectric constant tensor:
#      x y z
#    x 3.189990 -0.962290 -0.111920 
#    y -0.962290 3.420340 0.409910 
#    z -0.111920 0.409910 3.572970 
# 
# 
# High freq. dielectric constant tensor:
#      x y z
#    x 1.849900 -0.002520 -0.004440 
#    y -0.002520 1.835400 0.022440 
#    z -0.004440 0.022440 1.798260 
# 
# From -- ./inp_files/178170.got.cif
#   From: 2010.06.25/outbox.cif.g09.slc.cpg/sg2_90_cif.got.tgz:178170.got - 2010.06.27 13:26:56.
