data_PCOD8017043
_publ_section_title
;
Structure prediction by ZEFSAII (Michael W. Deem and Ramdas Pophale) SiO2 
 PCOD8017043
Probable space group: P -1
;
_chemical_formula_sum "Si O2"
_cell_formula_units_Z 16
_cell_length_a 11.776136
_cell_length_b 9.691280
_cell_length_c 18.131899
_cell_angle_alpha 29.026881
_cell_angle_beta 53.119332
_cell_angle_gamma 64.595211
_cell_volume 778.318961
_symmetry_space_group_name_H-M "P -1"
_symmetry_group_IT_number 2
_symmetry_cell_setting 'triclinic'
loop_
_space_group_symop_operation_xyz
x,y,z
-x,-y,-z
loop_
_atom_site_type_symbol
_atom_site_label
_atom_site_fract_x
_atom_site_fract_y
_atom_site_fract_z
Si Si1 0.095652 0.112103 0.042930
Si Si2 0.157832 0.066396 0.202935
Si Si3 0.520835 0.799735 0.016777
Si Si4 0.775464 0.332379 0.877508
Si Si5 0.441688 0.847914 0.689796
Si Si6 0.724380 0.242354 0.347101
Si Si7 0.941043 0.911647 0.482582
Si Si8 0.186784 0.676429 0.966926
O O1 0.101750 0.968450 0.188353
O O2 0.931293 0.134602 0.083200
O O3 0.126500 0.893770 0.071095
O O4 0.225216 0.407404 0.844634
O O5 0.326018 0.051786 0.152110
O O6 0.140808 0.398409 0.061109
O O7 0.067471 0.870982 0.395298
O O8 0.395552 0.810815 0.001430
O O9 0.515983 0.461903 0.197549
O O10 0.500000 0.000000 0.000000
O O11 0.821316 0.605762 0.676519
O O12 0.805653 0.440163 0.898909
O O13 0.334173 0.903214 0.640420
O O14 0.350399 0.856967 0.796094
O O15 0.586709 0.117737 0.514062
O O16 0.867449 0.152377 0.363072
O O17 0.000000 0.000000 0.500000
#
# Coordination Sequence:
#
# PCOD8017043 Si02
#       8
#     2   2   2   2   2   2   2   2
#     4  12  22  42  65  91 127 166 211 258 317 369
#     4  11  22  39  69  91 124 168 218 253 309 378
#     4  11  21  42  61  93 130 161 207 259 321 368
#     4  12  25  41  64  93 133 168 199 267 328 365
#     4  10  22  37  66  94 116 166 219 256 301 374
#     4  11  20  39  64  90 122 163 214 255 304 371
#     4  12  24  40  61  98 131 162 210 263 312 373
#     4  11  22  40  63  95 121 165 217 254 309 382
#
# _framework density 20.557124999999999
#
# number of rings (size 3 to 8) (size 9 to 14) (size 15 to 20)
#    0.000    0.750    7.500    1.500    0.000    3.500 
#    0.000    1.875    0.000    0.000    0.000    0.000 
#    0.000    0.000    0.000    0.000    0.000    0.000 
#
# Total GULP energy -198381.237983 kJ/mol
# GULP energy per Si atom -12398.827374 kJ/mol
# Density = 2.051034 g / cm^3
# Si number density = 20.557125 Si / 1000 Ang^3
#
#
#
# Elastic Constant Matrix: (Units=GPa)
#
#
# Indices 1 2 3 4 5 6 
#
# 1 89.0950 34.5118 8.2001 8.7499 -0.2148 -13.4441
# 2 34.5118 84.1807 35.4509 17.9768 1.4739 -12.4377
# 3 8.2001 35.4509 87.8462 32.3633 -4.6360 -0.9725
# 4 8.7499 17.9768 32.3633 36.3674 -4.6731 -2.5133
# 5 -0.2148 1.4739 -4.6360 -4.6731 23.5710 2.9849
# 6 -13.4441 -12.4377 -0.9725 -2.5133 2.9849 29.9978
#
#
#
# Elastic Compliance Matrix: (Units=1/GPa)
#
#
# Indices 1 2 3 4 5 6 
#
# 1 0.013947 -0.005421 0.001604 -0.001843 -0.000079 0.003908
# 2 -0.005421 0.017913 -0.005997 -0.002312 -0.003434 0.004951
# 3 0.001604 -0.005997 0.018967 -0.014267 0.001609 -0.002508
# 4 -0.001843 -0.002312 -0.014267 0.042560 0.005664 0.000755
# 5 -0.000079 -0.003434 0.001609 0.005664 0.044761 -0.005386
# 6 0.003908 0.004951 -0.002508 0.000755 -0.005386 0.037658
#
#
# Mechanical properties :
#
#
# Convention : Reuss Voigt Hill
#
# Bulk Modulus (GPa) = 32.05291 46.38305 39.21798
# Shear Modulus (GPa) = 24.29155 30.18452 27.23804
#
# Velocity S-wave (km/s) = 3.44126 3.83603 3.64399
# Velocity P-wave (km/s) = 5.60497 6.49863 6.06827
#
# Compressibility (1/GPa) = 0.03119841
#
# Stress axis : x y z
#
# Youngs Moduli (GPa) = 71.70146 55.82637 52.72232
#
# Poissons Ratio (x) = 0.30262 -0.08456
# Poissons Ratio (y) = 0.38867 0.31619
# Poissons Ratio (z) = -0.11500 0.33481
#
# Static dielectric constant tensor:
#      x y z
#    x 3.688550 -0.150260 -0.139690 
#    y -0.150260 3.691680 0.312240 
#    z -0.139690 0.312240 3.914130 
# 
# 
# High freq. dielectric constant tensor:
#      x y z
#    x 1.809380 -0.009990 -0.007980 
#    y -0.009990 1.791220 0.020090 
#    z -0.007980 0.020090 1.800170 
# 
# From -- ./inp_files/223856.got.cif
#   From: 2010.06.25/outbox.cif.g09.slc.cpg/sg2_112_cif.got.tgz:223856.got - 2010.06.27 13:26:56.
