data_PCOD8017265
_publ_section_title
;
Structure prediction by ZEFSAII (Michael W. Deem and Ramdas Pophale) SiO2 
 PCOD8017265
Probable space group: P -1
;
_chemical_formula_sum "Si O2"
_cell_formula_units_Z 14
_cell_length_a 21.464817
_cell_length_b 7.818620
_cell_length_c 18.200259
_cell_angle_alpha 36.912277
_cell_angle_beta 20.389696
_cell_angle_gamma 39.828519
_cell_volume 636.636555
_symmetry_space_group_name_H-M "P -1"
_symmetry_group_IT_number 2
_symmetry_cell_setting 'triclinic'
loop_
_space_group_symop_operation_xyz
x,y,z
-x,-y,-z
loop_
_atom_site_type_symbol
_atom_site_label
_atom_site_fract_x
_atom_site_fract_y
_atom_site_fract_z
Si Si1 0.753060 0.542750 0.390148
Si Si2 0.486522 0.810832 0.875682
Si Si3 0.173024 0.920836 0.643408
Si Si4 0.856337 0.333741 0.085840
Si Si5 0.219751 0.054741 0.972648
Si Si6 0.499211 0.198534 0.862058
Si Si7 0.375718 0.790080 0.752964
O O1 0.770749 0.400259 0.338666
O O2 0.700740 0.290715 0.590460
O O3 0.587457 0.801183 0.486655
O O4 0.937738 0.659301 0.170351
O O5 0.679642 0.861623 0.610600
O O6 0.427946 0.032343 0.928512
O O7 0.500000 0.500000 0.000000
O O8 0.336116 0.830822 0.972108
O O9 0.151989 0.902738 0.760301
O O10 0.983825 0.032675 0.776541
O O11 0.753105 0.231064 0.165977
O O12 0.770347 0.634463 0.109437
O O13 0.303534 0.045692 0.800291
O O14 0.371368 0.494872 0.907102
O O15 0.500000 0.000000 0.000000
#
# Coordination Sequence:
#
# PCOD8017265 Si02
#       7
#     2   2   2   2   2   2   2
#     4   8  19  37  62  89 125 170 204 260 321 365
#     4  11  23  42  68  92 126 172 212 265 323 371
#     4  10  23  41  66  94 131 170 212 263 313 389
#     4  11  21  43  65  92 136 171 203 262 328 370
#     4  11  22  41  67  98 127 167 217 254 325 380
#     4   9  18  40  62  90 126 164 213 261 306 377
#     4  10  22  38  64  97 130 165 218 258 311 386
#
# _framework density 21.990570000000002
#
# number of rings (size 3 to 8) (size 9 to 14) (size 15 to 20)
#    0.857    1.143    1.429    2.571    0.000    5.714 
#    0.000    7.143    0.000    0.000    0.000    0.000 
#    0.000    0.000    0.000    0.000    0.000    0.000 
#
# Total GULP energy -173580.010616 kJ/mol
# GULP energy per Si atom -12398.572187 kJ/mol
# Density = 2.194052 g / cm^3
# Si number density = 21.990570 Si / 1000 Ang^3
#
#
#
# Elastic Constant Matrix: (Units=GPa)
#
#
# Indices 1 2 3 4 5 6 
#
# 1 169.9911 57.5323 79.9501 4.9101 -7.5509 -12.9468
# 2 57.5323 113.5615 71.1515 7.4992 -7.8455 -0.5112
# 3 79.9501 71.1515 136.6688 9.0658 -8.2309 -14.6991
# 4 4.9101 7.4992 9.0658 34.4653 -1.8576 7.5136
# 5 -7.5509 -7.8455 -8.2309 -1.8576 34.8879 7.6444
# 6 -12.9468 -0.5112 -14.6991 7.5136 7.6444 32.7746
#
#
#
# Elastic Compliance Matrix: (Units=1/GPa)
#
#
# Indices 1 2 3 4 5 6 
#
# 1 0.008419 -0.001889 -0.003750 -0.000146 0.000152 0.001613
# 2 -0.001889 0.013921 -0.006427 -0.000117 0.002045 -0.003862
# 3 -0.003750 -0.006427 0.013584 -0.002800 -0.000348 0.005234
# 4 -0.000146 -0.000117 -0.002800 0.032002 0.003036 -0.009360
# 5 0.000152 0.002045 -0.000348 0.003036 0.030986 -0.007987
# 6 0.001613 -0.003862 0.005234 -0.009360 -0.007987 0.037444
#
#
# Mechanical properties :
#
#
# Convention : Reuss Voigt Hill
#
# Bulk Modulus (GPa) = 84.78984 93.05436 88.92210
# Shear Modulus (GPa) = 30.41022 34.53138 32.47080
#
# Velocity S-wave (km/s) = 3.72274 3.96698 3.84680
# Velocity P-wave (km/s) = 7.55774 7.96178 7.76239
#
# Compressibility (1/GPa) = 0.01179387
#
# Stress axis : x y z
#
# Youngs Moduli (GPa) = 118.77683 71.83336 73.61475
#
# Poissons Ratio (x) = 0.13566 0.27603
# Poissons Ratio (y) = 0.22432 0.47313
# Poissons Ratio (z) = 0.44537 0.46168
#
# Static dielectric constant tensor:
#      x y z
#    x 3.909550 0.078940 0.052080 
#    y 0.078940 4.246200 0.145180 
#    z 0.052080 0.145180 4.081000 
# 
# 
# High freq. dielectric constant tensor:
#      x y z
#    x 1.870030 0.009240 0.003560 
#    y 0.009240 1.874610 0.003520 
#    z 0.003560 0.003520 1.863060 
# 
# From -- ./inp_files/558664.got.cif
#   From: 2010.06.25/outbox.cif.g09.slc.cpg/sg2_280_cif.got.tgz:558664.got - 2010.06.27 13:26:56.
