data_PCOD8017848
_publ_section_title
;
Structure prediction by ZEFSAII (Michael W. Deem and Ramdas Pophale) SiO2 
 PCOD8017848
Probable space group: P -1
;
_chemical_formula_sum "Si O2"
_cell_formula_units_Z 14
_cell_length_a 11.392046
_cell_length_b 14.196499
_cell_length_c 8.873975
_cell_angle_alpha 114.264110
_cell_angle_beta 126.131396
_cell_angle_gamma 31.771265
_cell_volume 596.386960
_symmetry_space_group_name_H-M "P -1"
_symmetry_group_IT_number 2
_symmetry_cell_setting 'triclinic'
loop_
_space_group_symop_operation_xyz
x,y,z
-x,-y,-z
loop_
_atom_site_type_symbol
_atom_site_label
_atom_site_fract_x
_atom_site_fract_y
_atom_site_fract_z
Si Si1 0.886353 0.969095 0.092438
Si Si2 0.357234 0.565508 0.277855
Si Si3 0.853962 0.214104 0.270570
Si Si4 0.230726 0.123978 0.303652
Si Si5 0.230637 0.317242 0.247570
Si Si6 0.055467 0.331389 0.830157
Si Si7 0.762370 0.988419 0.334228
O O1 0.727370 0.055007 0.184949
O O2 0.183394 0.762087 0.212474
O O3 0.872561 0.096862 0.111509
O O4 0.738313 0.983945 0.869639
O O5 0.500000 0.500000 0.500000
O O6 0.558986 0.422186 0.203472
O O7 0.168439 0.581174 0.174049
O O8 0.018321 0.209919 0.317662
O O9 0.972470 0.124132 0.467587
O O10 0.117189 0.293664 0.250869
O O11 0.500000 0.000000 0.500000
O O12 0.070128 0.516268 0.287469
O O13 0.538875 0.151328 0.391562
O O14 0.234610 0.288134 0.052684
O O15 0.217149 0.149065 0.747274
#
# Coordination Sequence:
#
# PCOD8017848 Si02
#       7
#     2   2   2   2   2   2   2
#     4  11  25  45  70 100 135 181 228 283 333 396
#     4  11  22  41  69 102 133 164 231 285 329 400
#     4  12  25  42  70 101 137 183 218 274 351 404
#     4  12  26  47  67 100 143 183 228 273 339 420
#     4  11  22  42  65  96 136 175 221 283 332 390
#     4  10  22  39  67 100 128 168 227 287 329 382
#     4  11  21  40  73  99 130 173 232 281 332 395
#
# _framework density 23.474692999999998
#
# number of rings (size 3 to 8) (size 9 to 14) (size 15 to 20)
#    0.000    0.857    7.143    2.143    2.000    0.571 
#    0.000    2.143    0.000    0.000    0.000    0.000 
#    0.000    0.000    0.000    0.000    0.000    0.000 
#
# Total GULP energy -173541.634281 kJ/mol
# GULP energy per Si atom -12395.831020 kJ/mol
# Density = 2.342126 g / cm^3
# Si number density = 23.474693 Si / 1000 Ang^3
#
#
#
# Elastic Constant Matrix: (Units=GPa)
#
#
# Indices 1 2 3 4 5 6 
#
# 1 108.9273 49.1170 -3.9522 -7.9200 2.7780 -2.8101
# 2 49.1170 106.3509 9.5486 -10.6139 4.0917 19.0382
# 3 -3.9522 9.5486 76.3372 -3.9430 1.1228 -6.1584
# 4 -7.9200 -10.6139 -3.9430 22.7139 -1.9947 2.2505
# 5 2.7780 4.0917 1.1228 -1.9947 26.9288 2.2200
# 6 -2.8101 19.0382 -6.1584 2.2505 2.2200 35.2828
#
#
#
# Elastic Compliance Matrix: (Units=1/GPa)
#
#
# Indices 1 2 3 4 5 6 
#
# 1 0.012489 -0.006697 0.001944 0.001015 -0.000683 0.004926
# 2 -0.006697 0.014934 -0.002704 0.005074 -0.000317 -0.009367
# 3 0.001944 -0.002704 0.013941 0.001386 -0.000598 0.003996
# 4 0.001015 0.005074 0.001386 0.047822 0.003075 -0.005659
# 5 -0.000683 -0.000317 -0.000598 0.003075 0.037717 -0.002557
# 6 0.004926 -0.009367 0.003996 -0.005659 -0.002557 0.035008
#
#
# Mechanical properties :
#
#
# Convention : Reuss Voigt Hill
#
# Bulk Modulus (GPa) = 37.80463 44.56024 41.18244
# Shear Modulus (GPa) = 26.93367 32.77857 29.85612
#
# Velocity S-wave (km/s) = 3.39093 3.74081 3.57016
# Velocity P-wave (km/s) = 5.60986 6.13854 5.88015
#
# Compressibility (1/GPa) = 0.02645178
#
# Stress axis : x y z
#
# Youngs Moduli (GPa) = 80.07153 66.96245 71.72887
#
# Poissons Ratio (x) = 0.44842 -0.13944
# Poissons Ratio (y) = 0.53620 0.19393
# Poissons Ratio (z) = -0.15566 0.18104
#
# Static dielectric constant tensor:
#      x y z
#    x 4.170600 0.110810 0.107220 
#    y 0.110810 4.454670 -0.322270 
#    z 0.107220 -0.322270 4.371130 
# 
# 
# High freq. dielectric constant tensor:
#      x y z
#    x 1.923850 0.006260 0.012430 
#    y 0.006260 1.920140 -0.009890 
#    z 0.012430 -0.009890 1.924220 
# 
# From -- ./inp_files/274145.got.cif
#   From: 2010.06.25/outbox.cif.g09.slc.cpg/sg2_138_cif.got.tgz:274145.got - 2010.06.27 13:26:56.
