data_PCOD8017445
_publ_section_title
;
Structure prediction by ZEFSAII (Michael W. Deem and Ramdas Pophale) SiO2 
 PCOD8017445
Probable space group: P -1
;
_chemical_formula_sum "Si O2"
_cell_formula_units_Z 14
_cell_length_a 12.698120
_cell_length_b 9.067398
_cell_length_c 13.310501
_cell_angle_alpha 50.468380
_cell_angle_beta 34.343794
_cell_angle_gamma 50.066252
_cell_volume 642.558337
_symmetry_space_group_name_H-M "P -1"
_symmetry_group_IT_number 2
_symmetry_cell_setting 'triclinic'
loop_
_space_group_symop_operation_xyz
x,y,z
-x,-y,-z
loop_
_atom_site_type_symbol
_atom_site_label
_atom_site_fract_x
_atom_site_fract_y
_atom_site_fract_z
Si Si1 0.827278 0.675766 0.598111
Si Si2 0.479082 0.776062 0.682140
Si Si3 0.886910 0.931931 0.206616
Si Si4 0.830887 0.081091 0.397322
Si Si5 0.555828 0.667671 0.448063
Si Si6 0.802005 0.439851 0.902237
Si Si7 0.040204 0.538362 0.837758
O O1 0.682473 0.766009 0.580059
O O2 0.722898 0.602593 0.806631
O O3 0.000000 0.500000 0.500000
O O4 0.904147 0.866379 0.488105
O O5 0.519358 0.646079 0.605273
O O6 0.346628 0.008564 0.665098
O O7 0.358323 0.674053 0.897372
O O8 0.993718 0.701256 0.240743
O O9 0.908837 0.062231 0.229475
O O10 0.000000 0.000000 0.000000
O O11 0.594625 0.132608 0.561337
O O12 0.910750 0.251711 0.311424
O O13 0.500000 0.500000 0.500000
O O14 0.782704 0.647840 0.257879
O O15 0.850199 0.545048 0.919395
O O16 0.000000 0.500000 0.000000
#
# Coordination Sequence:
#
# PCOD8017445 Si02
#       7
#     2   2   2   2   2   2   2
#     4  12  24  40  60  92 133 170 208 253 316 377
#     4  10  22  39  64  92 125 163 214 264 308 365
#     4   9  18  36  62  91 117 158 212 261 303 353
#     4  10  22  39  59  92 129 165 208 256 313 372
#     4   9  19  37  62  91 122 158 208 261 311 359
#     4  11  22  39  63  93 125 168 208 259 312 374
#     4  11  22  40  66  94 123 160 211 267 316 369
#
# _framework density 21.787904000000001
#
# number of rings (size 3 to 8) (size 9 to 14) (size 15 to 20)
#    0.000    1.714    1.429    4.714    2.000    1.714 
#    0.000    0.000    0.000    5.143    0.000    0.000 
#    0.000    0.000    0.000    0.000    0.000    0.000 
#
# Total GULP energy -173495.284710 kJ/mol
# GULP energy per Si atom -12392.520336 kJ/mol
# Density = 2.173831 g / cm^3
# Si number density = 21.787904 Si / 1000 Ang^3
#
#
#
# Elastic Constant Matrix: (Units=GPa)
#
#
# Indices 1 2 3 4 5 6 
#
# 1 72.9274 19.9171 -4.3285 7.4026 6.3812 -6.7909
# 2 19.9171 119.3220 28.0920 1.1004 6.0982 -6.2825
# 3 -4.3285 28.0920 69.3347 19.7305 8.9048 -6.1625
# 4 7.4026 1.1004 19.7305 30.1357 0.1392 3.3447
# 5 6.3812 6.0982 8.9048 0.1392 38.5731 -4.1001
# 6 -6.7909 -6.2825 -6.1625 3.3447 -4.1001 24.4276
#
#
#
# Elastic Compliance Matrix: (Units=1/GPa)
#
#
# Indices 1 2 3 4 5 6 
#
# 1 0.016689 -0.003615 0.005781 -0.008386 -0.002873 0.005834
# 2 -0.003615 0.010244 -0.005644 0.004246 0.000230 -0.000337
# 3 0.005781 -0.005644 0.023243 -0.017256 -0.004558 0.007617
# 4 -0.008386 0.004246 -0.017256 0.047655 0.003299 -0.011564
# 5 -0.002873 0.000230 -0.004558 0.003299 0.027648 0.002300
# 6 0.005834 -0.000337 0.007617 -0.011564 0.002300 0.046363
#
#
# Mechanical properties :
#
#
# Convention : Reuss Voigt Hill
#
# Bulk Modulus (GPa) = 23.13784 38.77170 30.95477
# Shear Modulus (GPa) = 25.87909 33.15418 29.51664
#
# Velocity S-wave (km/s) = 3.45015 3.90510 3.68465
# Velocity P-wave (km/s) = 5.14917 6.17793 5.68686
#
# Compressibility (1/GPa) = 0.04321925
#
# Stress axis : x y z
#
# Youngs Moduli (GPa) = 59.92081 97.61577 43.02303
#
# Poissons Ratio (x) = 0.35291 -0.24870
# Poissons Ratio (y) = 0.21663 0.24282
# Poissons Ratio (z) = -0.34639 0.55094
#
# Static dielectric constant tensor:
#      x y z
#    x 4.084960 -0.385700 -0.017050 
#    y -0.385700 4.781900 0.323930 
#    z -0.017050 0.323930 4.099980 
# 
# 
# High freq. dielectric constant tensor:
#      x y z
#    x 1.842600 0.009160 0.002140 
#    y 0.009160 1.861160 0.006900 
#    z 0.002140 0.006900 1.866880 
# 
# From -- ./inp_files/154021.got.cif
#   From: 2010.06.25/outbox.cif.g09.slc.cpg/sg2_78_cif.got.tgz:154021.got - 2010.06.27 13:26:56.
