data_PCOD8017158
_publ_section_title
;
Structure prediction by ZEFSAII (Michael W. Deem and Ramdas Pophale) SiO2 
 PCOD8017158
Probable space group: P -1
;
_chemical_formula_sum "Si O2"
_cell_formula_units_Z 12
_cell_length_a 9.367085
_cell_length_b 16.058450
_cell_length_c 11.201410
_cell_angle_alpha 43.361001
_cell_angle_beta 140.258807
_cell_angle_gamma 143.148398
_cell_volume 618.006025
_symmetry_space_group_name_H-M "P -1"
_symmetry_group_IT_number 2
_symmetry_cell_setting 'triclinic'
loop_
_space_group_symop_operation_xyz
x,y,z
-x,-y,-z
loop_
_atom_site_type_symbol
_atom_site_label
_atom_site_fract_x
_atom_site_fract_y
_atom_site_fract_z
Si Si1 0.942493 0.761864 0.254099
Si Si2 0.602193 0.308538 0.980758
Si Si3 0.635366 0.934141 0.727627
Si Si4 0.992724 0.611357 0.034773
Si Si5 0.723813 0.717983 0.905673
Si Si6 0.112807 0.561767 0.636278
O O1 0.101268 0.704715 0.487542
O O2 0.134287 0.935335 0.180204
O O3 0.688435 0.727821 0.205535
O O4 0.834945 0.688827 0.129867
O O5 0.571409 0.201022 0.179786
O O6 0.771460 0.474865 0.958336
O O7 0.743230 0.287329 0.980322
O O8 0.762874 0.875110 0.777539
O O9 0.500000 0.000000 0.500000
O O10 0.073708 0.553989 0.261616
O O11 0.882866 0.710143 0.903660
O O12 0.408329 0.596076 0.813646
O O13 0.000000 0.500000 0.500000
#
# Coordination Sequence:
#
# PCOD8017158 Si02
#       6
#     2   2   2   2   2   2
#     4  11  21  39  63  87 116 164 205 238 292 356
#     4  10  22  38  61  88 125 156 193 250 305 350
#     4  11  21  40  63  87 116 161 212 240 287 359
#     4  11  21  38  59  92 124 155 190 252 311 340
#     4  11  21  38  61  88 119 158 201 246 291 354
#     4  12  21  35  65  92 116 153 208 244 287 362
#
# _framework density 19.417285
#
# number of rings (size 3 to 8) (size 9 to 14) (size 15 to 20)
#    0.000    1.000    6.667    3.500    0.000    0.667 
#    0.000    5.833    0.000    0.000    0.000    0.000 
#    0.000    0.000    0.000    0.000    0.000    0.000 
#
# Total GULP energy -148732.395225 kJ/mol
# GULP energy per Si atom -12394.366269 kJ/mol
# Density = 1.937309 g / cm^3
# Si number density = 19.417285 Si / 1000 Ang^3
#
#
#
# Elastic Constant Matrix: (Units=GPa)
#
#
# Indices 1 2 3 4 5 6 
#
# 1 166.2000 46.9238 46.4820 -5.1039 14.3997 11.2105
# 2 46.9238 80.7637 12.9201 2.7375 -1.6908 -1.5763
# 3 46.4820 12.9201 105.1239 -6.0131 16.3305 -0.0064
# 4 -5.1039 2.7375 -6.0131 31.4774 -7.4547 1.5164
# 5 14.3997 -1.6908 16.3305 -7.4547 23.8249 4.8065
# 6 11.2105 -1.5763 -0.0064 1.5164 4.8065 27.9098
#
#
#
# Elastic Compliance Matrix: (Units=1/GPa)
#
#
# Indices 1 2 3 4 5 6 
#
# 1 0.008598 -0.004703 -0.002754 0.000789 -0.002731 -0.003292
# 2 -0.004703 0.015342 -0.000401 -0.001507 0.003276 0.002273
# 3 -0.002754 -0.000401 0.011861 0.000106 -0.006919 0.002272
# 4 0.000789 -0.001507 0.000106 0.034881 0.011107 -0.004210
# 5 -0.002731 0.003276 -0.006919 0.011107 0.053807 -0.008589
# 6 -0.003292 0.002273 0.002272 -0.004210 -0.008589 0.038989
#
#
# Mechanical properties :
#
#
# Convention : Reuss Voigt Hill
#
# Bulk Modulus (GPa) = 49.79076 62.74882 56.26979
# Shear Modulus (GPa) = 26.89763 33.02653 29.96208
#
# Velocity S-wave (km/s) = 3.72592 4.12865 3.93244
# Velocity P-wave (km/s) = 6.64892 7.42387 7.04705
#
# Compressibility (1/GPa) = 0.02008405
#
# Stress axis : x y z
#
# Youngs Moduli (GPa) = 116.30694 65.17871 84.31124
#
# Poissons Ratio (x) = 0.30653 0.23223
# Poissons Ratio (y) = 0.54699 0.03382
# Poissons Ratio (z) = 0.32036 0.02615
#
# Static dielectric constant tensor:
#      x y z
#    x 3.665260 -0.170670 0.192460 
#    y -0.170670 3.723120 -0.052500 
#    z 0.192460 -0.052500 3.708510 
# 
# 
# High freq. dielectric constant tensor:
#      x y z
#    x 1.745020 -0.023210 0.016520 
#    y -0.023210 1.751010 0.005720 
#    z 0.016520 0.005720 1.760890 
# 
# From -- ./inp_files/249654.got.cif
#   From: 2010.06.25/outbox.cif.g09.slc.cpg/sg2_125_cif.got.tgz:249654.got - 2010.06.27 13:26:56.
