data_PCOD8017846
_publ_section_title
;
Structure prediction by ZEFSAII (Michael W. Deem and Ramdas Pophale) SiO2 
 PCOD8017846
Probable space group: P -1
;
_chemical_formula_sum "Si O2"
_cell_formula_units_Z 14
_cell_length_a 15.566799
_cell_length_b 20.242183
_cell_length_c 11.364776
_cell_angle_alpha 33.478048
_cell_angle_beta 133.205158
_cell_angle_gamma 159.072202
_cell_volume 619.223760
_symmetry_space_group_name_H-M "P -1"
_symmetry_group_IT_number 2
_symmetry_cell_setting 'triclinic'
loop_
_space_group_symop_operation_xyz
x,y,z
-x,-y,-z
loop_
_atom_site_type_symbol
_atom_site_label
_atom_site_fract_x
_atom_site_fract_y
_atom_site_fract_z
Si Si1 0.903299 0.774995 0.961478
Si Si2 0.607608 0.030993 0.208064
Si Si3 0.375986 0.308805 0.007445
Si Si4 0.691389 0.652617 0.560476
Si Si5 0.164469 0.767567 0.294002
Si Si6 0.964276 0.211372 0.450721
Si Si7 0.846005 0.449463 0.679650
O O1 0.801316 0.741546 0.036868
O O2 0.633965 0.506736 0.032253
O O3 0.105727 0.049026 0.671619
O O4 0.055181 0.789763 0.102594
O O5 0.733144 0.072414 0.370884
O O6 0.467373 0.019177 0.156326
O O7 0.405652 0.763344 0.334870
O O8 0.833909 0.299705 0.935138
O O9 0.174195 0.010551 0.261222
O O10 0.481762 0.440330 0.784159
O O11 0.500000 0.500000 0.500000
O O12 0.864250 0.692027 0.637134
O O13 0.000000 0.500000 0.500000
O O14 0.130606 0.738847 0.447366
O O15 0.163448 0.473309 0.330245
#
# Coordination Sequence:
#
# PCOD8017846 Si02
#       7
#     2   2   2   2   2   2   2
#     4  10  23  43  70  96 133 175 220 275 332 392
#     4  10  23  43  63  99 134 173 223 268 335 393
#     4  10  23  44  68  97 132 174 221 277 331 393
#     4  11  27  43  65 101 130 175 224 271 338 394
#     4  10  22  39  66  99 126 171 220 262 331 393
#     4  11  25  43  67 101 132 172 227 273 331 401
#     4  10  23  40  66  95 135 177 211 277 327 390
#
# _framework density 22.608951000000001
#
# number of rings (size 3 to 8) (size 9 to 14) (size 15 to 20)
#    0.000    1.714    0.000    2.571    6.000    6.286 
#    0.000    0.000    0.000    0.000    0.000    0.000 
#    0.000    0.000    0.000    0.000    0.000    0.000 
#
# Total GULP energy -173510.774818 kJ/mol
# GULP energy per Si atom -12393.626773 kJ/mol
# Density = 2.255749 g / cm^3
# Si number density = 22.608951 Si / 1000 Ang^3
#
#
#
# Elastic Constant Matrix: (Units=GPa)
#
#
# Indices 1 2 3 4 5 6 
#
# 1 92.7711 54.2351 51.1550 23.6515 2.2052 -6.5195
# 2 54.2351 91.9080 39.8078 10.0303 11.8787 11.5426
# 3 51.1550 39.8078 94.3341 14.8897 -15.6516 -9.0351
# 4 23.6515 10.0303 14.8897 32.5850 3.4940 15.8488
# 5 2.2052 11.8787 -15.6516 3.4940 43.6563 -2.2250
# 6 -6.5195 11.5426 -9.0351 15.8488 -2.2250 33.0024
#
#
#
# Elastic Compliance Matrix: (Units=1/GPa)
#
#
# Indices 1 2 3 4 5 6 
#
# 1 0.033869 -0.021641 0.000724 -0.034602 0.008821 0.031670
# 2 -0.021641 0.032361 -0.012746 0.030216 -0.016469 -0.034704
# 3 0.000724 -0.012746 0.022886 -0.018700 0.014194 0.020804
# 4 -0.034602 0.030216 -0.018700 0.090479 -0.023864 -0.067583
# 5 0.008821 -0.016469 0.014194 -0.023864 0.035226 0.025224
# 6 0.031670 -0.034704 0.020804 -0.067583 0.025224 0.088546
#
#
# Mechanical properties :
#
#
# Convention : Reuss Voigt Hill
#
# Bulk Modulus (GPa) = 45.89278 63.26769 54.58024
# Shear Modulus (GPa) = 13.22906 30.76976 21.99941
#
# Velocity S-wave (km/s) = 2.42156 3.69311 3.12274
# Velocity P-wave (km/s) = 5.30671 6.79924 6.09880
#
# Compressibility (1/GPa) = 0.02178992
#
# Stress axis : x y z
#
# Youngs Moduli (GPa) = 29.52549 30.90148 43.69531
#
# Poissons Ratio (x) = 0.66874 -0.03165
# Poissons Ratio (y) = 0.63896 0.55695
# Poissons Ratio (z) = -0.02139 0.39388
#
# Static dielectric constant tensor:
#      x y z
#    x 9.766640 2.115820 -2.299480 
#    y 2.115820 4.656400 -1.000420 
#    z -2.299480 -1.000420 4.914980 
# 
# 
# High freq. dielectric constant tensor:
#      x y z
#    x 1.892860 0.001370 -0.006110 
#    y 0.001370 1.876320 -0.007360 
#    z -0.006110 -0.007360 1.909510 
# 
# From -- ./inp_files/457638.got.cif
#   From: 2010.06.25/outbox.cif.g09.slc.cpg/sg2_229_cif.got.tgz:457638.got - 2010.06.27 13:26:56.
