data_PCOD8017543
_publ_section_title
;
Structure prediction by ZEFSAII (Michael W. Deem and Ramdas Pophale) SiO2 
 PCOD8017543
Probable space group: P -1
;
_chemical_formula_sum "Si O2"
_cell_formula_units_Z 16
_cell_length_a 4.795937
_cell_length_b 24.047484
_cell_length_c 5.611444
_cell_angle_alpha 74.797378
_cell_angle_beta 90.876500
_cell_angle_gamma 105.712847
_cell_volume 600.100901
_symmetry_space_group_name_H-M "P -1"
_symmetry_group_IT_number 2
_symmetry_cell_setting 'triclinic'
loop_
_space_group_symop_operation_xyz
x,y,z
-x,-y,-z
loop_
_atom_site_type_symbol
_atom_site_label
_atom_site_fract_x
_atom_site_fract_y
_atom_site_fract_z
Si Si1 0.462258 0.261736 0.575091
Si Si2 0.043244 0.322420 0.721743
Si Si3 0.645564 0.131079 0.567171
Si Si4 0.996196 0.757517 0.790243
Si Si5 0.935251 0.929524 0.579531
Si Si6 0.899377 0.849358 0.066442
Si Si7 0.689070 0.455210 0.047983
Si Si8 0.172706 0.569124 0.422442
O O1 0.812352 0.287535 0.553284
O O2 0.347757 0.306820 0.700216
O O3 0.310115 0.267439 0.318224
O O4 0.367491 0.190200 0.728422
O O5 0.063321 0.392551 0.630779
O O6 0.922168 0.297175 0.011425
O O7 0.734151 0.202380 0.412360
O O8 0.772990 0.090938 0.428175
O O9 0.297034 0.100895 0.597557
O O10 0.796761 0.123588 0.825340
O O11 0.947709 0.801509 0.939176
O O12 0.806927 0.902565 0.866367
O O13 0.000000 0.000000 0.500000
O O14 0.644501 0.415813 0.340123
O O15 0.500000 0.500000 0.000000
O O16 0.636690 0.417038 0.838825
O O17 0.000000 0.500000 0.000000
O O18 0.000000 0.500000 0.500000
#
# Coordination Sequence:
#
# PCOD8017543 Si02
#       8
#     2   2   2   2   2   2   2   2
#     4  10  23  41  63  93 124 162 211 263 327 383
#     4  11  24  40  64  94 127 161 212 266 323 388
#     4  10  22  39  62  87 121 164 208 255 314 375
#     4   9  21  41  65  89 124 161 209 263 320 384
#     4  11  23  38  59  90 125 163 208 256 309 372
#     4   9  21  40  62  89 121 165 206 259 317 378
#     4  10  22  42  67  91 127 170 219 262 319 393
#     4  10  24  45  68  99 133 178 221 274 337 406
#
# _framework density 26.662179999999999
#
# number of rings (size 3 to 8) (size 9 to 14) (size 15 to 20)
#    0.000    2.000    0.000    1.500    1.750   18.000 
#    2.250    0.000    0.000    0.000    0.000    0.000 
#    0.000    0.000    0.000    0.000    0.000    0.000 
#
# Total GULP energy -198297.069749 kJ/mol
# GULP energy per Si atom -12393.566859 kJ/mol
# Density = 2.660150 g / cm^3
# Si number density = 26.662180 Si / 1000 Ang^3
#
#
#
# Elastic Constant Matrix: (Units=GPa)
#
#
# Indices 1 2 3 4 5 6 
#
# 1 74.0849 -15.3869 -2.9020 -7.7992 11.6785 8.2918
# 2 -15.3869 102.4775 29.2195 -24.5748 11.2030 -12.7635
# 3 -2.9020 29.2195 161.6262 1.4706 17.0498 -3.0495
# 4 -7.7992 -24.5748 1.4706 51.5031 -7.3877 14.2645
# 5 11.6785 11.2030 17.0498 -7.3877 37.0798 1.0822
# 6 8.2918 -12.7635 -3.0495 14.2645 1.0822 34.2681
#
#
#
# Elastic Compliance Matrix: (Units=1/GPa)
#
#
# Indices 1 2 3 4 5 6 
#
# 1 0.015988 0.003492 0.000071 0.004544 -0.005092 -0.004292
# 2 0.003492 0.012738 -0.001959 0.005862 -0.002920 0.001377
# 3 0.000071 -0.001959 0.006884 -0.001734 -0.002961 0.000681
# 4 0.004544 0.005862 -0.001734 0.026185 0.003106 -0.010068
# 5 -0.005092 -0.002920 -0.002961 0.003106 0.031505 -0.002407
# 6 -0.004292 0.001377 0.000681 -0.010068 -0.002407 0.035061
#
#
# Mechanical properties :
#
#
# Convention : Reuss Voigt Hill
#
# Bulk Modulus (GPa) = 25.76301 40.00554 32.88427
# Shear Modulus (GPa) = 36.20774 46.38741 41.29758
#
# Velocity S-wave (km/s) = 3.68913 4.17564 3.93990
# Velocity P-wave (km/s) = 5.27541 6.18750 5.74957
#
# Compressibility (1/GPa) = 0.03881535
#
# Stress axis : x y z
#
# Youngs Moduli (GPa) = 62.54875 78.50651 145.27313
#
# Poissons Ratio (x) = -0.27415 -0.01026
# Poissons Ratio (y) = -0.21843 0.28466
# Poissons Ratio (z) = -0.00442 0.15383
#
# Static dielectric constant tensor:
#      x y z
#    x 5.416190 -0.469210 -1.081430 
#    y -0.469210 5.009720 -0.000230 
#    z -1.081430 -0.000230 6.884040 
# 
# 
# High freq. dielectric constant tensor:
#      x y z
#    x 2.064790 -0.020030 0.004080 
#    y -0.020030 2.069650 0.017960 
#    z 0.004080 0.017960 2.086830 
# 
# From -- ./inp_files/12468.got.cif
#   From: 2010.06.25/outbox.cif.g09.slc.cpg/sg2_7_cif.got.tgz:12468.got - 2010.06.27 13:26:56.
