data_PCOD8017662
_publ_section_title
;
Structure prediction by ZEFSAII (Michael W. Deem and Ramdas Pophale) SiO2 
 PCOD8017662
Probable space group: P -1
;
_chemical_formula_sum "Si O2"
_cell_formula_units_Z 16
_cell_length_a 21.467601
_cell_length_b 8.926238
_cell_length_c 24.261646
_cell_angle_alpha 148.431241
_cell_angle_beta 161.981866
_cell_angle_gamma 32.543247
_cell_volume 737.291869
_symmetry_space_group_name_H-M "P -1"
_symmetry_group_IT_number 2
_symmetry_cell_setting 'triclinic'
loop_
_space_group_symop_operation_xyz
x,y,z
-x,-y,-z
loop_
_atom_site_type_symbol
_atom_site_label
_atom_site_fract_x
_atom_site_fract_y
_atom_site_fract_z
Si Si1 0.229793 0.394268 0.687394
Si Si2 0.484371 0.681725 0.403315
Si Si3 0.134720 0.509293 0.873275
Si Si4 0.374413 0.359756 0.918088
Si Si5 0.039136 0.252429 0.875380
Si Si6 0.975513 0.147099 0.909057
Si Si7 0.814588 0.218457 0.571916
Si Si8 0.424269 0.276433 0.136850
O O1 0.250143 0.485478 0.797269
O O2 0.000000 0.500000 0.500000
O O3 0.282451 0.042333 0.616920
O O4 0.414976 0.520937 0.854193
O O5 0.262365 0.697680 0.247210
O O6 0.646575 0.518023 0.532900
O O7 0.544081 0.485243 0.336869
O O8 0.500000 0.000000 0.500000
O O9 0.212818 0.442990 0.856774
O O10 0.992769 0.285991 0.702626
O O11 0.323821 0.471655 0.062367
O O12 0.014677 0.847185 0.882220
O O13 0.427177 0.009847 0.850611
O O14 0.062419 0.084726 0.900751
O O15 0.895782 0.120907 0.670847
O O16 0.935798 0.599036 0.905218
O O17 0.261765 0.187183 0.014459
#
# Coordination Sequence:
#
# PCOD8017662 Si02
#       8
#     2   2   2   2   2   2   2   2
#     4  11  25  44  69 102 133 182 223 279 342 394
#     4  11  22  40  62  94 136 165 218 272 341 389
#     4  11  24  40  68  97 131 172 230 270 337 396
#     4  11  25  45  70  96 139 179 227 276 337 404
#     4   9  22  39  66  89 133 164 225 266 337 396
#     4  10  22  39  63  97 125 178 215 276 327 407
#     4  11  23  43  67  97 133 176 218 282 337 399
#     4  10  22  43  66  90 128 178 216 273 334 402
#
# _framework density 21.701038
#
# number of rings (size 3 to 8) (size 9 to 14) (size 15 to 20)
#    0.000    1.500    2.500    1.875    7.000    3.500 
#    4.500    0.000    0.000    0.000    0.000    0.000 
#    0.000    0.000    0.000    0.000    0.000    0.000 
#
# Total GULP energy -198308.528699 kJ/mol
# GULP energy per Si atom -12394.283044 kJ/mol
# Density = 2.165165 g / cm^3
# Si number density = 21.701038 Si / 1000 Ang^3
#
#
#
# Elastic Constant Matrix: (Units=GPa)
#
#
# Indices 1 2 3 4 5 6 
#
# 1 80.2360 5.8229 15.2001 -4.2431 -1.2834 -3.8401
# 2 5.8229 92.4820 19.5700 0.7867 8.5363 5.5738
# 3 15.2001 19.5700 92.0526 3.5681 -10.5151 2.5244
# 4 -4.2431 0.7867 3.5681 44.9215 3.9270 -1.8230
# 5 -1.2834 8.5363 -10.5151 3.9270 15.0166 -2.6814
# 6 -3.8401 5.5738 2.5244 -1.8230 -2.6814 30.0219
#
#
#
# Elastic Compliance Matrix: (Units=1/GPa)
#
#
# Indices 1 2 3 4 5 6 
#
# 1 0.013088 -0.000478 -0.002195 0.001517 -0.000182 0.002023
# 2 -0.000478 0.012823 -0.003828 0.000853 -0.010775 -0.003030
# 3 -0.002195 -0.003828 0.013500 -0.002258 0.012074 0.000236
# 4 0.001517 0.000853 -0.002258 0.023294 -0.007861 0.000938
# 5 -0.000182 -0.010775 0.012074 -0.007861 0.084650 0.008045
# 6 0.002023 -0.003030 0.000236 0.000938 0.008045 0.034886
#
#
# Mechanical properties :
#
#
# Convention : Reuss Voigt Hill
#
# Bulk Modulus (GPa) = 37.86447 38.43963 38.15205
# Shear Modulus (GPa) = 24.50448 32.93718 28.72083
#
# Velocity S-wave (km/s) = 3.36398 3.90008 3.64191
# Velocity P-wave (km/s) = 5.70742 6.16706 5.94168
#
# Compressibility (1/GPa) = 0.02640998
#
# Stress axis : x y z
#
# Youngs Moduli (GPa) = 76.40710 77.98510 74.07484
#
# Poissons Ratio (x) = 0.03725 0.16257
# Poissons Ratio (y) = 0.03650 0.28356
# Poissons Ratio (z) = 0.16769 0.29853
#
# Static dielectric constant tensor:
#      x y z
#    x 3.806270 -0.040360 -0.099870 
#    y -0.040360 4.019560 0.015810 
#    z -0.099870 0.015810 4.267970 
# 
# 
# High freq. dielectric constant tensor:
#      x y z
#    x 1.840510 0.001550 -0.010970 
#    y 0.001550 1.867600 0.002770 
#    z -0.010970 0.002770 1.847560 
# 
# From -- ./inp_files/474877.got.cif
#   From: 2010.06.25/outbox.cif.g09.slc.cpg/sg2_238_cif.got.tgz:474877.got - 2010.06.27 13:26:56.
