data_PCOD8017475
_publ_section_title
;
Structure prediction by ZEFSAII (Michael W. Deem and Ramdas Pophale) SiO2 
 PCOD8017475
Probable space group: P -1
;
_chemical_formula_sum "Si O2"
_cell_formula_units_Z 16
_cell_length_a 12.601374
_cell_length_b 21.443779
_cell_length_c 9.219684
_cell_angle_alpha 141.547121
_cell_angle_beta 64.211650
_cell_angle_gamma 144.985424
_cell_volume 725.269028
_symmetry_space_group_name_H-M "P -1"
_symmetry_group_IT_number 2
_symmetry_cell_setting 'triclinic'
loop_
_space_group_symop_operation_xyz
x,y,z
-x,-y,-z
loop_
_atom_site_type_symbol
_atom_site_label
_atom_site_fract_x
_atom_site_fract_y
_atom_site_fract_z
Si Si1 0.313734 0.429003 0.399874
Si Si2 0.230856 0.758917 0.115880
Si Si3 0.294859 0.930174 0.662689
Si Si4 0.886616 0.008604 0.999637
Si Si5 0.828926 0.727503 0.101772
Si Si6 0.716552 0.860419 0.526342
Si Si7 0.227160 0.495835 0.076819
Si Si8 0.155878 0.486949 0.770137
O O1 0.500000 0.500000 0.500000
O O2 0.318570 0.547647 0.668789
O O3 0.330390 0.434517 0.226043
O O4 0.072969 0.211758 0.187329
O O5 0.277900 0.888770 0.427798
O O6 0.443050 0.903056 0.140727
O O7 0.207541 0.641690 0.013790
O O8 0.985690 0.598903 0.894735
O O9 0.111351 0.731729 0.501888
O O10 0.256840 0.022697 0.866792
O O11 0.735146 0.856220 0.680602
O O12 0.000000 0.000000 0.000000
O O13 0.737791 0.771400 0.267816
O O14 0.790836 0.631840 0.091101
O O15 0.094918 0.925718 0.258974
O O16 0.464502 0.719917 0.389183
O O17 0.207390 0.481823 0.889747
#
# Coordination Sequence:
#
# PCOD8017475 Si02
#       8
#     2   2   2   2   2   2   2   2
#     4  10  22  39  60  92 121 161 204 256 305 366
#     4  10  22  39  64  92 120 169 209 253 305 362
#     4   9  20  39  58  89 125 152 212 254 296 361
#     4  10  23  37  62  92 120 161 201 257 314 362
#     4  10  23  40  58  89 129 163 203 248 317 367
#     4  10  23  40  58  88 130 162 202 252 313 371
#     4  11  22  37  64  88 119 166 205 256 305 360
#     4  10  22  39  63  92 123 160 214 252 304 359
#
# _framework density 22.060780999999999
#
# number of rings (size 3 to 8) (size 9 to 14) (size 15 to 20)
#    0.000    2.000    0.000    2.625    8.750    4.000 
#    0.000    2.500    0.000    6.750    0.000    0.000 
#    0.000    0.000    0.000    0.000    0.000    0.000 
#
# Total GULP energy -198281.945259 kJ/mol
# GULP energy per Si atom -12392.621579 kJ/mol
# Density = 2.201057 g / cm^3
# Si number density = 22.060781 Si / 1000 Ang^3
#
#
#
# Elastic Constant Matrix: (Units=GPa)
#
#
# Indices 1 2 3 4 5 6 
#
# 1 75.7124 42.0965 44.3413 -2.8464 11.2460 15.2550
# 2 42.0965 74.8453 56.9426 3.4305 4.4483 18.9795
# 3 44.3413 56.9426 97.0965 -2.6951 14.1934 12.5192
# 4 -2.8464 3.4305 -2.6951 40.0983 10.1722 2.1305
# 5 11.2460 4.4483 14.1934 10.1722 33.8941 6.2730
# 6 15.2550 18.9795 12.5192 2.1305 6.2730 49.2961
#
#
#
# Elastic Compliance Matrix: (Units=1/GPa)
#
#
# Indices 1 2 3 4 5 6 
#
# 1 0.021411 -0.008684 -0.003599 0.003424 -0.005141 -0.001862
# 2 -0.008684 0.030675 -0.014539 -0.005882 0.007852 -0.006176
# 3 -0.003599 -0.014539 0.021421 0.004226 -0.007515 0.002045
# 4 0.003424 -0.005882 0.004226 0.028693 -0.010794 0.000265
# 5 -0.005141 0.007852 -0.007515 -0.010794 0.037268 -0.003800
# 6 -0.001862 -0.006176 0.002045 0.000265 -0.003800 0.023192
#
#
# Mechanical properties :
#
#
# Convention : Reuss Voigt Hill
#
# Bulk Modulus (GPa) = 50.34017 59.37944 54.85981
# Shear Modulus (GPa) = 22.42907 31.60930 27.01919
#
# Velocity S-wave (km/s) = 3.19202 3.78938 3.50346
# Velocity P-wave (km/s) = 6.03769 6.79121 6.42551
#
# Compressibility (1/GPa) = 0.01986485
#
# Stress axis : x y z
#
# Youngs Moduli (GPa) = 46.70438 32.59969 46.68379
#
# Poissons Ratio (x) = 0.28310 0.16799
# Poissons Ratio (y) = 0.40558 0.67871
# Poissons Ratio (z) = 0.16807 0.47395
#
# Static dielectric constant tensor:
#      x y z
#    x 3.750610 0.410840 -0.006670 
#    y 0.410840 4.324300 0.135690 
#    z -0.006670 0.135690 4.396720 
# 
# 
# High freq. dielectric constant tensor:
#      x y z
#    x 1.848180 0.024270 -0.005710 
#    y 0.024270 1.872130 0.019250 
#    z -0.005710 0.019250 1.865950 
# 
# From -- ./inp_files/283366.got.cif
#   From: 2010.06.25/outbox.cif.g09.slc.cpg/sg2_142_cif.got.tgz:283366.got - 2010.06.27 13:26:56.
