data_PCOD8017188
_publ_section_title
;
Structure prediction by ZEFSAII (Michael W. Deem and Ramdas Pophale) SiO2 
 PCOD8017188
Probable space group: P -1
;
_chemical_formula_sum "Si O2"
_cell_formula_units_Z 16
_cell_length_a 14.220996
_cell_length_b 12.609078
_cell_length_c 8.372270
_cell_angle_alpha 132.828405
_cell_angle_beta 77.323488
_cell_angle_gamma 67.938906
_cell_volume 730.196855
_symmetry_space_group_name_H-M "P -1"
_symmetry_group_IT_number 2
_symmetry_cell_setting 'triclinic'
loop_
_space_group_symop_operation_xyz
x,y,z
-x,-y,-z
loop_
_atom_site_type_symbol
_atom_site_label
_atom_site_fract_x
_atom_site_fract_y
_atom_site_fract_z
Si Si1 0.345795 0.062077 0.268053
Si Si2 0.137272 0.010397 0.853270
Si Si3 0.455689 0.386846 0.438417
Si Si4 0.812427 0.551747 0.865695
Si Si5 0.698841 0.977654 0.412824
Si Si6 0.420362 0.262378 0.622149
Si Si7 0.094324 0.304609 0.392833
Si Si8 0.816908 0.341280 0.368088
O O1 0.281006 0.051153 0.434415
O O2 0.430818 0.110414 0.345920
O O3 0.216409 0.254603 0.395380
O O4 0.449034 0.836303 0.913258
O O5 0.225037 0.959288 0.610296
O O6 0.186722 0.798117 0.665921
O O7 0.176892 0.081107 0.049544
O O8 0.968220 0.201537 0.084733
O O9 0.500000 0.500000 0.500000
O O10 0.455559 0.363602 0.605771
O O11 0.292814 0.546271 0.617673
O O12 0.768653 0.523043 0.688192
O O13 0.983850 0.356574 0.616108
O O14 0.773356 0.762321 0.075693
O O15 0.735452 0.564643 0.060915
O O16 0.532736 0.142738 0.601656
O O17 0.000000 0.500000 0.500000
#
# Coordination Sequence:
#
# PCOD8017188 Si02
#       8
#     2   2   2   2   2   2   2   2
#     4  11  25  40  63  94 122 164 205 259 308 365
#     4  10  22  40  65  90 125 163 206 255 305 364
#     4  12  25  40  63  90 127 163 211 251 307 370
#     4  10  22  38  62  90 122 159 203 254 304 367
#     4  11  21  41  62  91 127 160 207 255 308 364
#     4  11  24  39  63  90 129 161 206 257 304 368
#     4  11  22  39  65  92 126 158 208 257 305 365
#     4  10  22  40  63  91 123 167 207 247 309 370
#
# _framework density 21.911901
#
# number of rings (size 3 to 8) (size 9 to 14) (size 15 to 20)
#    0.000    1.250    1.250    5.625    3.500    4.000 
#    0.000    2.500    0.000    6.000    0.000    0.000 
#    0.000    0.000    0.000    0.000    0.000    0.000 
#
# Total GULP energy -198344.714014 kJ/mol
# GULP energy per Si atom -12396.544626 kJ/mol
# Density = 2.186203 g / cm^3
# Si number density = 21.911901 Si / 1000 Ang^3
#
#
#
# Elastic Constant Matrix: (Units=GPa)
#
#
# Indices 1 2 3 4 5 6 
#
# 1 87.6180 40.3790 11.1551 -2.5152 -19.2299 -3.7256
# 2 40.3790 98.8291 26.1802 -7.2456 -19.2387 -0.4142
# 3 11.1551 26.1802 68.8553 -7.2914 -12.1046 -1.2874
# 4 -2.5152 -7.2456 -7.2914 20.8670 3.2554 -13.7473
# 5 -19.2299 -19.2387 -12.1046 3.2554 20.9936 -3.6469
# 6 -3.7256 -0.4142 -1.2874 -13.7473 -3.6469 46.8261
#
#
#
# Elastic Compliance Matrix: (Units=1/GPa)
#
#
# Indices 1 2 3 4 5 6 
#
# 1 0.016006 -0.004588 0.001273 0.000509 0.011513 0.002314
# 2 -0.004588 0.014400 -0.003187 0.002974 0.006883 0.001084
# 3 0.001273 -0.003187 0.017609 0.005864 0.007993 0.002901
# 4 0.000509 0.002974 0.005864 0.063497 0.000005 0.018870
# 5 0.011513 0.006883 0.007993 0.000005 0.070253 0.006670
# 6 0.002314 0.001084 0.002901 0.018870 0.006670 0.027688
#
#
# Mechanical properties :
#
#
# Convention : Reuss Voigt Hill
#
# Bulk Modulus (GPa) = 28.56340 45.63679 37.10009
# Shear Modulus (GPa) = 21.35592 29.57654 25.46623
#
# Velocity S-wave (km/s) = 3.12529 3.67794 3.41282
# Velocity P-wave (km/s) = 5.10755 6.23770 5.70070
#
# Compressibility (1/GPa) = 0.03500984
#
# Stress axis : x y z
#
# Youngs Moduli (GPa) = 62.47849 69.44574 56.78879
#
# Poissons Ratio (x) = 0.31864 -0.07227
# Poissons Ratio (y) = 0.28668 0.18096
# Poissons Ratio (z) = -0.07952 0.22129
#
# Static dielectric constant tensor:
#      x y z
#    x 4.096650 0.127700 -0.173150 
#    y 0.127700 3.899630 -0.059420 
#    z -0.173150 -0.059420 4.019900 
# 
# 
# High freq. dielectric constant tensor:
#      x y z
#    x 1.866880 0.011380 -0.016180 
#    y 0.011380 1.853280 -0.007350 
#    z -0.016180 -0.007350 1.860030 
# 
# From -- ./inp_files/308513.got.cif
#   From: 2010.06.25/outbox.cif.g09.slc.cpg/sg2_155_cif.got.tgz:308513.got - 2010.06.27 13:26:56.
