data_PCOD8017226
_publ_section_title
;
Structure prediction by ZEFSAII (Michael W. Deem and Ramdas Pophale) SiO2 
 PCOD8017226
Probable space group: P -1
;
_chemical_formula_sum "Si O2"
_cell_formula_units_Z 12
_cell_length_a 11.859551
_cell_length_b 12.041690
_cell_length_c 5.136591
_cell_angle_alpha 128.113746
_cell_angle_beta 69.175778
_cell_angle_gamma 104.796954
_cell_volume 538.801192
_symmetry_space_group_name_H-M "P -1"
_symmetry_group_IT_number 2
_symmetry_cell_setting 'triclinic'
loop_
_space_group_symop_operation_xyz
x,y,z
-x,-y,-z
loop_
_atom_site_type_symbol
_atom_site_label
_atom_site_fract_x
_atom_site_fract_y
_atom_site_fract_z
Si Si1 0.011807 0.814662 0.457340
Si Si2 0.878061 0.869590 0.146816
Si Si3 0.263194 0.729936 0.165274
Si Si4 0.418445 0.475518 0.777891
Si Si5 0.361732 0.881285 0.787119
Si Si6 0.367499 0.162686 0.467904
O O1 0.119563 0.705816 0.202495
O O2 0.929906 0.788259 0.234049
O O3 0.077693 0.968542 0.636406
O O4 0.924670 0.790992 0.741085
O O5 0.732294 0.857340 0.252277
O O6 0.279437 0.841593 0.550402
O O7 0.311591 0.583065 0.012403
O O8 0.330398 0.786037 0.929769
O O9 0.500000 0.500000 0.500000
O O10 0.359140 0.318296 0.582408
O O11 0.500000 0.500000 0.000000
O O12 0.499861 0.859947 0.556876
O O13 0.338936 0.045126 0.098649
#
# Coordination Sequence:
#
# PCOD8017226 Si02
#       6
#     2   2   2   2   2   2
#     4  10  22  39  62  92 125 169 211 259 318 365
#     4  10  22  38  63  92 126 165 213 266 306 374
#     4  12  22  45  64  96 129 171 211 260 324 385
#     4  12  25  44  63  94 134 173 204 256 332 391
#     4  11  25  38  69  97 130 158 218 272 319 373
#     4  11  24  43  64 102 129 165 215 269 319 377
#
# _framework density 22.271664000000001
#
# number of rings (size 3 to 8) (size 9 to 14) (size 15 to 20)
#    0.000    1.000    5.000    1.000    4.667    6.667 
#    0.000    1.667    0.000    0.000    0.000    0.000 
#    0.000    0.000    0.000    0.000    0.000    0.000 
#
# Total GULP energy -148834.358560 kJ/mol
# GULP energy per Si atom -12402.863213 kJ/mol
# Density = 2.222097 g / cm^3
# Si number density = 22.271664 Si / 1000 Ang^3
#
#
#
# Elastic Constant Matrix: (Units=GPa)
#
#
# Indices 1 2 3 4 5 6 
#
# 1 95.1373 43.3869 61.0512 -20.8387 -27.5053 -15.7469
# 2 43.3869 98.3472 65.4875 -12.2645 -4.3698 0.8936
# 3 61.0512 65.4875 113.1144 -18.0472 -21.6512 -7.4123
# 4 -20.8387 -12.2645 -18.0472 54.0589 -2.2314 -3.2421
# 5 -27.5053 -4.3698 -21.6512 -2.2314 46.3954 -9.1308
# 6 -15.7469 0.8936 -7.4123 -3.2421 -9.1308 35.9366
#
#
#
# Elastic Compliance Matrix: (Units=1/GPa)
#
#
# Indices 1 2 3 4 5 6 
#
# 1 0.025149 -0.006473 -0.004567 0.008236 0.015501 0.014921
# 2 -0.006473 0.019131 -0.010059 -0.002321 -0.008361 -0.007721
# 3 -0.004567 -0.010059 0.019010 0.002796 0.006134 0.003981
# 4 0.008236 -0.002321 0.002796 0.022953 0.008753 0.008538
# 5 0.015501 -0.008361 0.006134 0.008753 0.036865 0.018422
# 6 0.014921 -0.007721 0.003981 0.008538 0.018422 0.040829
#
#
# Mechanical properties :
#
#
# Convention : Reuss Voigt Hill
#
# Bulk Modulus (GPa) = 47.41160 71.82779 59.61970
# Shear Modulus (GPa) = 23.45586 36.38974 29.92280
#
# Velocity S-wave (km/s) = 3.24878 4.04654 3.66941
# Velocity P-wave (km/s) = 5.95036 7.35890 6.69180
#
# Compressibility (1/GPa) = 0.02109189
#
# Stress axis : x y z
#
# Youngs Moduli (GPa) = 39.76260 52.27161 52.60348
#
# Poissons Ratio (x) = 0.33837 0.24025
# Poissons Ratio (y) = 0.25740 0.52912
# Poissons Ratio (z) = 0.18161 0.52578
#
# Static dielectric constant tensor:
#      x y z
#    x 4.119830 -0.344610 -0.343640 
#    y -0.344610 4.923990 0.356750 
#    z -0.343640 0.356750 4.316710 
# 
# 
# High freq. dielectric constant tensor:
#      x y z
#    x 1.880660 -0.011820 -0.017090 
#    y -0.011820 1.862670 -0.016000 
#    z -0.017090 -0.016000 1.878710 
# 
# From -- ./inp_files/60304.got.cif
#   From: 2010.06.25/outbox.cif.g09.slc.cpg/sg2_31_cif.got.tgz:60304.got - 2010.06.27 13:26:56.
