data_PCOD8017719
_publ_section_title
;
Structure prediction by ZEFSAII (Michael W. Deem and Ramdas Pophale) SiO2 
 PCOD8017719
Probable space group: P -1
;
_chemical_formula_sum "Si O2"
_cell_formula_units_Z 14
_cell_length_a 20.229022
_cell_length_b 9.003877
_cell_length_c 28.053875
_cell_angle_alpha 40.159189
_cell_angle_beta 167.780449
_cell_angle_gamma 137.670700
_cell_volume 696.386479
_symmetry_space_group_name_H-M "P -1"
_symmetry_group_IT_number 2
_symmetry_cell_setting 'triclinic'
loop_
_space_group_symop_operation_xyz
x,y,z
-x,-y,-z
loop_
_atom_site_type_symbol
_atom_site_label
_atom_site_fract_x
_atom_site_fract_y
_atom_site_fract_z
Si Si1 0.205366 0.688665 0.073221
Si Si2 0.258969 0.796168 0.239112
Si Si3 0.296286 0.375006 0.488505
Si Si4 0.734702 0.120108 0.522353
Si Si5 0.189943 0.870954 0.319617
Si Si6 0.735390 0.489170 0.944992
Si Si7 0.771284 0.120519 0.135029
O O1 0.562131 0.659001 0.350172
O O2 0.188493 0.659409 0.011952
O O3 0.000000 0.500000 0.000000
O O4 0.087256 0.951494 0.936931
O O5 0.417941 0.706471 0.324324
O O6 0.532053 0.889980 0.442182
O O7 0.065850 0.583221 0.174862
O O8 0.000000 0.000000 0.000000
O O9 0.187967 0.645498 0.340109
O O10 0.000351 0.221416 0.311145
O O11 0.838690 0.203890 0.626764
O O12 0.527097 0.312371 0.300155
O O13 0.041583 0.064894 0.720843
O O14 0.500000 0.000000 0.500000
O O15 0.616721 0.325087 0.943015
O O16 0.500000 0.000000 0.000000
#
# Coordination Sequence:
#
# PCOD8017719 Si02
#       7
#     2   2   2   2   2   2   2
#     4  12  21  37  62 101 137 164 194 254 328 406
#     4   9  20  34  59  95 131 163 197 248 324 398
#     4  11  24  40  63  97 133 163 214 259 324 381
#     4  10  22  39  64  95 127 165 208 261 328 379
#     4  12  22  34  64 100 137 164 195 252 330 402
#     4  11  20  39  67  91 130 165 207 262 327 380
#     4  11  27  47  64  87 123 176 235 269 297 361
#
# _framework density 20.103777999999998
#
# number of rings (size 3 to 8) (size 9 to 14) (size 15 to 20)
#    0.000    1.143    5.714    0.000    4.000    4.000 
#    0.000    1.429    0.000    0.000    0.000    0.000 
#    0.000    0.000    0.000    0.000    0.000    0.000 
#
# Total GULP energy -173558.461846 kJ/mol
# GULP energy per Si atom -12397.032989 kJ/mol
# Density = 2.005802 g / cm^3
# Si number density = 20.103778 Si / 1000 Ang^3
#
#
#
# Elastic Constant Matrix: (Units=GPa)
#
#
# Indices 1 2 3 4 5 6 
#
# 1 90.3225 53.8862 41.1865 10.8880 2.4335 4.2543
# 2 53.8862 122.3562 62.8096 -9.2128 13.6782 -0.4784
# 3 41.1865 62.8096 93.6890 -4.0348 8.5353 7.5811
# 4 10.8880 -9.2128 -4.0348 40.9639 0.8112 6.5070
# 5 2.4335 13.6782 8.5353 0.8112 32.8575 -2.0329
# 6 4.2543 -0.4784 7.5811 6.5070 -2.0329 40.1198
#
#
#
# Elastic Compliance Matrix: (Units=1/GPa)
#
#
# Indices 1 2 3 4 5 6 
#
# 1 0.017390 -0.006476 -0.003815 -0.006503 0.002559 -0.000016
# 2 -0.006476 0.015437 -0.007039 0.004378 -0.004147 0.001281
# 3 -0.003815 -0.007039 0.017562 0.001726 -0.001600 -0.003359
# 4 -0.006503 0.004378 0.001726 0.028027 -0.002745 -0.004269
# 5 0.002559 -0.004147 -0.001600 -0.002745 0.032583 0.002078
# 6 -0.000016 0.001281 -0.003359 -0.004269 0.002078 0.026375
#
#
# Mechanical properties :
#
#
# Convention : Reuss Voigt Hill
#
# Bulk Modulus (GPa) = 63.58114 69.12581 66.35348
# Shear Modulus (GPa) = 28.20438 32.68727 30.44582
#
# Velocity S-wave (km/s) = 3.74965 4.03665 3.89579
# Velocity P-wave (km/s) = 7.10222 7.49568 7.30160
#
# Compressibility (1/GPa) = 0.01572793
#
# Stress axis : x y z
#
# Youngs Moduli (GPa) = 57.50282 64.78106 56.94184
#
# Poissons Ratio (x) = 0.41952 0.21725
# Poissons Ratio (y) = 0.37239 0.40082
# Poissons Ratio (z) = 0.21939 0.45600
#
# Static dielectric constant tensor:
#      x y z
#    x 3.645890 -0.510610 -0.067180 
#    y -0.510610 3.734630 -0.135910 
#    z -0.067180 -0.135910 3.498450 
# 
# 
# High freq. dielectric constant tensor:
#      x y z
#    x 1.778280 -0.026290 -0.021410 
#    y -0.026290 1.782360 -0.034180 
#    z -0.021410 -0.034180 1.772410 
# 
# From -- ./inp_files/202399.got.cif
#   From: 2010.06.25/outbox.cif.g09.slc.cpg/sg2_102_cif.got.tgz:202399.got - 2010.06.27 13:26:56.
