data_PCOD8017745
_publ_section_title
;
Structure prediction by ZEFSAII (Michael W. Deem and Ramdas Pophale) SiO2 
 PCOD8017745
Probable space group: P -1
;
_chemical_formula_sum "Si O2"
_cell_formula_units_Z 16
_cell_length_a 19.894073
_cell_length_b 10.900759
_cell_length_c 12.524571
_cell_angle_alpha 59.827587
_cell_angle_beta 150.839167
_cell_angle_gamma 138.449998
_cell_volume 776.219523
_symmetry_space_group_name_H-M "P -1"
_symmetry_group_IT_number 2
_symmetry_cell_setting 'triclinic'
loop_
_space_group_symop_operation_xyz
x,y,z
-x,-y,-z
loop_
_atom_site_type_symbol
_atom_site_label
_atom_site_fract_x
_atom_site_fract_y
_atom_site_fract_z
Si Si1 0.777046 0.114695 0.746786
Si Si2 0.462739 0.144517 0.655114
Si Si3 0.396476 0.500259 0.956032
Si Si4 0.573223 0.906574 0.950791
Si Si5 0.954085 0.070752 0.500223
Si Si6 0.514182 0.191193 0.360359
Si Si7 0.335697 0.278792 0.580403
Si Si8 0.239575 0.487103 0.260694
O O1 0.602962 0.102097 0.505253
O O2 0.747717 0.011660 0.637734
O O3 0.699637 0.960290 0.805458
O O4 0.002438 0.342474 0.977269
O O5 0.436234 0.219645 0.689179
O O6 0.643565 0.343047 0.745160
O O7 0.508653 0.020908 0.814361
O O8 0.436009 0.700488 0.924445
O O9 0.157064 0.300301 0.719805
O O10 0.500000 0.500000 0.000000
O O11 0.500399 0.522313 0.200061
O O12 0.549388 0.807538 0.846397
O O13 0.802756 0.074734 0.240248
O O14 0.000000 0.000000 0.500000
O O15 0.860435 0.916656 0.538416
O O16 0.692807 0.411778 0.571662
O O17 0.272675 0.342130 0.371703
#
# Coordination Sequence:
#
# PCOD8017745 Si02
#       8
#     2   2   2   2   2   2   2   2
#     4   9  20  36  55  87 124 159 204 247 294 366
#     4  10  24  44  57  90 127 168 208 241 306 361
#     4  11  22  41  62  93 121 152 201 256 314 356
#     4  10  22  39  65  87 130 160 198 260 296 370
#     4  11  24  40  64  97 117 151 207 253 314 368
#     4   9  19  34  57  89 123 156 196 252 311 347
#     4  11  25  41  63  87 128 166 201 259 298 363
#     4  11  22  36  64  90 122 166 211 249 298 363
#
# _framework density 20.612725999999999
#
# number of rings (size 3 to 8) (size 9 to 14) (size 15 to 20)
#    0.000    1.750    2.500    2.250    1.750    6.500 
#    0.000    1.250    0.000    0.000    0.000    0.000 
#    0.000    0.000    0.000    0.000    0.000    0.000 
#
# Total GULP energy -198297.278371 kJ/mol
# GULP energy per Si atom -12393.579898 kJ/mol
# Density = 2.056581 g / cm^3
# Si number density = 20.612726 Si / 1000 Ang^3
#
#
#
# Elastic Constant Matrix: (Units=GPa)
#
#
# Indices 1 2 3 4 5 6 
#
# 1 69.6815 18.3667 19.7281 10.0299 -4.7017 -6.0069
# 2 18.3667 86.9035 46.8119 6.5100 12.1124 6.5875
# 3 19.7281 46.8119 105.6632 32.0352 2.2639 15.5874
# 4 10.0299 6.5100 32.0352 47.3831 1.3541 4.0727
# 5 -4.7017 12.1124 2.2639 1.3541 22.0953 2.1677
# 6 -6.0069 6.5875 15.5874 4.0727 2.1677 25.0711
#
#
#
# Elastic Compliance Matrix: (Units=1/GPa)
#
#
# Indices 1 2 3 4 5 6 
#
# 1 0.017090 -0.003660 -0.001810 -0.002572 0.005384 0.006134
# 2 -0.003660 0.017798 -0.008222 0.004194 -0.009924 -0.000265
# 3 -0.001810 -0.008222 0.017478 -0.009733 0.003701 -0.007879
# 4 -0.002572 0.004194 -0.009733 0.027743 -0.003563 0.000134
# 5 0.005384 -0.009924 0.003701 -0.003563 0.051911 -0.002313
# 6 0.006134 -0.000265 -0.007879 0.000134 -0.002313 0.046503
#
#
# Mechanical properties :
#
#
# Convention : Reuss Voigt Hill
#
# Bulk Modulus (GPa) = 40.02558 48.00682 44.01620
# Shear Modulus (GPa) = 23.33892 30.73269 27.03580
#
# Velocity S-wave (km/s) = 3.36855 3.86548 3.62554
# Velocity P-wave (km/s) = 5.88129 6.57746 6.23910
#
# Compressibility (1/GPa) = 0.02498402
#
# Stress axis : x y z
#
# Youngs Moduli (GPa) = 58.51242 56.18476 57.21395
#
# Poissons Ratio (x) = 0.20562 0.10355
# Poissons Ratio (y) = 0.21414 0.47041
# Poissons Ratio (z) = 0.10590 0.46194
#
# Static dielectric constant tensor:
#      x y z
#    x 3.695660 0.189430 -0.158290 
#    y 0.189430 3.974920 0.078580 
#    z -0.158290 0.078580 4.001110 
# 
# 
# High freq. dielectric constant tensor:
#      x y z
#    x 1.787120 0.000910 -0.015160 
#    y 0.000910 1.813300 -0.002480 
#    z -0.015160 -0.002480 1.811880 
# 
# From -- ./inp_files/471188.got.cif
#   From: 2010.06.25/outbox.cif.g09.slc.cpg/sg2_236_cif.got.tgz:471188.got - 2010.06.27 13:26:56.
