data_PCOD8017890
_publ_section_title
;
Structure prediction by ZEFSAII (Michael W. Deem and Ramdas Pophale) SiO2 
 PCOD8017890
Probable space group: P -1
;
_chemical_formula_sum "Si O2"
_cell_formula_units_Z 16
_cell_length_a 15.695194
_cell_length_b 8.556909
_cell_length_c 11.979367
_cell_angle_alpha 106.441940
_cell_angle_beta 30.293248
_cell_angle_gamma 93.585976
_cell_volume 721.284536
_symmetry_space_group_name_H-M "P -1"
_symmetry_group_IT_number 2
_symmetry_cell_setting 'triclinic'
loop_
_space_group_symop_operation_xyz
x,y,z
-x,-y,-z
loop_
_atom_site_type_symbol
_atom_site_label
_atom_site_fract_x
_atom_site_fract_y
_atom_site_fract_z
Si Si1 0.981711 0.750916 0.976743
Si Si2 0.171350 0.346252 0.662416
Si Si3 0.327737 0.117888 0.820558
Si Si4 0.620717 0.798187 0.815144
Si Si5 0.413919 0.580029 0.904779
Si Si6 0.441611 0.728400 0.686956
Si Si7 0.196960 0.392007 0.213394
Si Si8 0.638523 0.253673 0.458383
O O1 0.048405 0.549358 0.817394
O O2 0.140300 0.832592 0.799772
O O3 0.932300 0.750022 0.164008
O O4 0.800997 0.870264 0.138428
O O5 0.224288 0.241973 0.464100
O O6 0.348218 0.345782 0.528780
O O7 0.526976 0.121314 0.560907
O O8 0.361022 0.939400 0.812222
O O9 0.212366 0.282244 0.061067
O O10 0.491751 0.695024 0.913590
O O11 0.699338 0.744335 0.837102
O O12 0.500000 0.000000 0.000000
O O13 0.330848 0.675556 0.900159
O O14 0.572240 0.390956 0.661527
O O15 0.266330 0.548605 0.142478
O O16 0.414564 0.647476 0.582019
O O17 0.000000 0.500000 0.500000
#
# Coordination Sequence:
#
# PCOD8017890 Si02
#       8
#     2   2   2   2   2   2   2   2
#     4  11  22  40  67 102 135 169 220 275 328 405
#     4  10  22  39  67  98 136 167 222 272 328 398
#     4  11  25  43  65  99 141 170 219 278 339 392
#     4  11  22  44  68  96 132 176 222 274 331 384
#     4  10  23  41  69  95 125 176 231 258 331 409
#     4  11  21  42  64  97 139 173 207 278 340 395
#     4  11  24  42  70  92 129 179 223 274 322 389
#     4  11  22  39  70  94 135 178 216 263 345 405
#
# _framework density 22.182646999999999
#
# number of rings (size 3 to 8) (size 9 to 14) (size 15 to 20)
#    0.000    1.250    3.750    3.375    0.000    2.500 
#    0.000    3.750    0.000    0.000    0.000    0.000 
#    0.000    0.000    0.000    0.000    0.000    0.000 
#
# Total GULP energy -198373.172439 kJ/mol
# GULP energy per Si atom -12398.323277 kJ/mol
# Density = 2.213216 g / cm^3
# Si number density = 22.182647 Si / 1000 Ang^3
#
#
#
# Elastic Constant Matrix: (Units=GPa)
#
#
# Indices 1 2 3 4 5 6 
#
# 1 87.7451 24.8164 37.9104 -9.9847 -7.1785 -7.7788
# 2 24.8164 91.2759 57.8059 -13.4395 -16.3535 -10.7183
# 3 37.9104 57.8059 144.3338 -24.7310 -2.1594 -8.5070
# 4 -9.9847 -13.4395 -24.7310 34.1390 -4.3928 -1.0807
# 5 -7.1785 -16.3535 -2.1594 -4.3928 26.2281 -0.9213
# 6 -7.7788 -10.7183 -8.5070 -1.0807 -0.9213 42.3203
#
#
#
# Elastic Compliance Matrix: (Units=1/GPa)
#
#
# Indices 1 2 3 4 5 6 
#
# 1 0.013475 -0.000824 -0.002677 0.002171 0.003383 0.001859
# 2 -0.000824 0.017963 -0.005891 0.004131 0.011307 0.003566
# 3 -0.002677 -0.005891 0.010697 0.004294 -0.002798 0.000215
# 4 0.002171 0.004131 0.004294 0.036018 0.009677 0.003439
# 5 0.003383 0.011307 -0.002798 0.009677 0.047641 0.004207
# 6 0.001859 0.003566 0.000215 0.003439 0.004207 0.025097
#
#
# Mechanical properties :
#
#
# Convention : Reuss Voigt Hill
#
# Bulk Modulus (GPa) = 42.82306 62.71336 52.76821
# Shear Modulus (GPa) = 28.17551 34.05896 31.11724
#
# Velocity S-wave (km/s) = 3.56780 3.92265 3.74943
# Velocity P-wave (km/s) = 6.02652 6.98921 6.52564
#
# Compressibility (1/GPa) = 0.02335191
#
# Stress axis : x y z
#
# Youngs Moduli (GPa) = 74.21164 55.66926 93.48097
#
# Poissons Ratio (x) = 0.04588 0.25025
# Poissons Ratio (y) = 0.06116 0.55067
# Poissons Ratio (z) = 0.19866 0.32793
#
# Static dielectric constant tensor:
#      x y z
#    x 3.981320 0.150860 0.111580 
#    y 0.150860 5.046810 -0.347010 
#    z 0.111580 -0.347010 4.124710 
# 
# 
# High freq. dielectric constant tensor:
#      x y z
#    x 1.867090 -0.004660 0.009430 
#    y -0.004660 1.884920 0.000850 
#    z 0.009430 0.000850 1.873360 
# 
# From -- ./inp_files/447599.got.cif
#   From: 2010.06.25/outbox.cif.g09.slc.cpg/sg2_224_cif.got.tgz:447599.got - 2010.06.27 13:26:56.
