data_PCOD8017293
_publ_section_title
;
Structure prediction by ZEFSAII (Michael W. Deem and Ramdas Pophale) SiO2 
 PCOD8017293
Probable space group: P -1
;
_chemical_formula_sum "Si O2"
_cell_formula_units_Z 16
_cell_length_a 15.424049
_cell_length_b 9.417726
_cell_length_c 9.219507
_cell_angle_alpha 86.268478
_cell_angle_beta 68.693543
_cell_angle_gamma 40.015090
_cell_volume 749.717623
_symmetry_space_group_name_H-M "P -1"
_symmetry_group_IT_number 2
_symmetry_cell_setting 'triclinic'
loop_
_space_group_symop_operation_xyz
x,y,z
-x,-y,-z
loop_
_atom_site_type_symbol
_atom_site_label
_atom_site_fract_x
_atom_site_fract_y
_atom_site_fract_z
Si Si1 0.296197 0.517373 0.020864
Si Si2 0.355909 0.658285 0.188721
Si Si3 0.841014 0.615307 0.913067
Si Si4 0.634018 0.432704 0.484109
Si Si5 0.544196 0.096948 0.526673
Si Si6 0.366543 0.960218 0.199517
Si Si7 0.841433 0.121007 0.136908
Si Si8 0.177752 0.177297 0.818594
O O1 0.467478 0.247246 0.968497
O O2 0.297097 0.622083 0.874395
O O3 0.240446 0.687441 0.177033
O O4 0.179678 0.529748 0.064565
O O5 0.383227 0.551550 0.333729
O O6 0.288621 0.897953 0.246245
O O7 0.500000 0.500000 0.000000
O O8 0.024445 0.419974 0.812357
O O9 0.754249 0.784576 0.815607
O O10 0.773539 0.772494 0.087539
O O11 0.500000 0.500000 0.500000
O O12 0.607559 0.624834 0.430242
O O13 0.800418 0.180334 0.330859
O O14 0.594871 0.028090 0.666601
O O15 0.500000 0.000000 0.500000
O O16 0.686120 0.996204 0.365983
O O17 0.845839 0.951882 0.092557
O O18 0.000000 0.000000 0.000000
#
# Coordination Sequence:
#
# PCOD8017293 Si02
#       8
#     2   2   2   2   2   2   2   2
#     4  11  22  40  65 100 130 175 231 277 339 400
#     4  10  22  38  65  99 130 176 224 287 341 387
#     4  11  25  41  63  96 138 179 225 275 344 424
#     4  12  22  43  68 100 133 176 237 282 334 413
#     4  12  26  41  70 101 135 176 228 291 347 404
#     4  11  22  41  62  97 134 174 226 282 336 406
#     4  12  23  43  72  99 138 180 230 282 340 409
#     4  11  25  44  67  96 135 186 225 278 353 416
#
# _framework density 21.341369
#
# number of rings (size 3 to 8) (size 9 to 14) (size 15 to 20)
#    0.000    0.750    5.000    2.625    5.250    0.500 
#    0.000    0.625    2.750    0.000    0.000    0.000 
#    0.000    0.000    0.000    0.000    0.000    0.000 
#
# Total GULP energy -198298.786928 kJ/mol
# GULP energy per Si atom -12393.674183 kJ/mol
# Density = 2.129279 g / cm^3
# Si number density = 21.341369 Si / 1000 Ang^3
#
#
#
# Elastic Constant Matrix: (Units=GPa)
#
#
# Indices 1 2 3 4 5 6 
#
# 1 137.7344 30.2511 50.9621 -1.4145 23.7619 27.0351
# 2 30.2511 96.9137 28.9567 -16.9768 7.8465 10.6072
# 3 50.9621 28.9567 123.7986 -6.7775 18.3457 -2.7031
# 4 -1.4145 -16.9768 -6.7775 36.3287 -5.1652 0.5165
# 5 23.7619 7.8465 18.3457 -5.1652 37.3141 9.8228
# 6 27.0351 10.6072 -2.7031 0.5165 9.8228 33.8699
#
#
#
# Elastic Compliance Matrix: (Units=1/GPa)
#
#
# Indices 1 2 3 4 5 6 
#
# 1 0.011100 -0.001375 -0.004063 -0.001265 -0.002877 -0.007900
# 2 -0.001375 0.012730 -0.002332 0.005657 0.001040 -0.003463
# 3 -0.004063 -0.002332 0.011011 0.000169 -0.003886 0.005977
# 4 -0.001265 0.005657 0.000169 0.030822 0.004461 -0.002512
# 5 -0.002877 0.001040 -0.003886 0.004461 0.033045 -0.007991
# 6 -0.007900 -0.003463 0.005977 -0.002512 -0.007991 0.039748
#
#
# Mechanical properties :
#
#
# Convention : Reuss Voigt Hill
#
# Bulk Modulus (GPa) = 51.80778 64.30962 58.05870
# Shear Modulus (GPa) = 31.16651 38.05433 34.61042
#
# Velocity S-wave (km/s) = 3.82564 4.22729 4.03147
# Velocity P-wave (km/s) = 6.62136 7.35023 6.99529
#
# Compressibility (1/GPa) = 0.01930212
#
# Stress axis : x y z
#
# Youngs Moduli (GPa) = 90.09354 78.55350 90.81683
#
# Poissons Ratio (x) = 0.10799 0.36899
# Poissons Ratio (y) = 0.12385 0.21176
# Poissons Ratio (z) = 0.36605 0.18316
#
# Static dielectric constant tensor:
#      x y z
#    x 4.060420 0.238290 0.271190 
#    y 0.238290 3.533940 0.057940 
#    z 0.271190 0.057940 3.968030 
# 
# 
# High freq. dielectric constant tensor:
#      x y z
#    x 1.843040 0.021040 0.016680 
#    y 0.021040 1.835660 -0.001350 
#    z 0.016680 -0.001350 1.828170 
# 
# From -- ./inp_files/209562.got.cif
#   From: 2010.06.25/outbox.cif.g09.slc.cpg/sg2_105_cif.got.tgz:209562.got - 2010.06.27 13:26:56.
