data_PCOD8017160
_publ_section_title
;
Structure prediction by ZEFSAII (Michael W. Deem and Ramdas Pophale) SiO2 
 PCOD8017160
Probable space group: P -1
;
_chemical_formula_sum "Si O2"
_cell_formula_units_Z 16
_cell_length_a 14.375092
_cell_length_b 9.482086
_cell_length_c 10.257779
_cell_angle_alpha 60.120015
_cell_angle_beta 98.778915
_cell_angle_gamma 54.010249
_cell_volume 757.914160
_symmetry_space_group_name_H-M "P -1"
_symmetry_group_IT_number 2
_symmetry_cell_setting 'triclinic'
loop_
_space_group_symop_operation_xyz
x,y,z
-x,-y,-z
loop_
_atom_site_type_symbol
_atom_site_label
_atom_site_fract_x
_atom_site_fract_y
_atom_site_fract_z
Si Si1 0.158110 0.166002 0.088736
Si Si2 0.680167 0.185546 0.945860
Si Si3 0.479389 0.281470 0.284024
Si Si4 0.748492 0.083326 0.290891
Si Si5 0.573151 0.991381 0.700620
Si Si6 0.966220 0.701029 0.736723
Si Si7 0.839156 0.293149 0.300144
Si Si8 0.434371 0.250062 0.805047
O O1 0.280250 0.143447 0.134475
O O2 0.135629 0.105578 0.251046
O O3 0.205653 0.975768 0.076001
O O4 0.004953 0.459084 0.876625
O O5 0.644759 0.423942 0.836406
O O6 0.533067 0.275344 0.850385
O O7 0.763475 0.013617 0.174644
O O8 0.410032 0.225049 0.213991
O O9 0.593523 0.224060 0.244207
O O10 0.559281 0.102449 0.510333
O O11 0.882228 0.831172 0.521324
O O12 0.745982 0.284212 0.203456
O O13 0.435254 0.218273 0.663399
O O14 0.119167 0.600278 0.819067
O O15 0.736438 0.484896 0.312543
O O16 0.000000 0.000000 0.500000
O O17 0.500000 0.000000 0.000000
#
# Coordination Sequence:
#
# PCOD8017160 Si02
#       8
#     2   2   2   2   2   2   2   2
#     4  10  22  43  64  93 119 174 206 264 309 384
#     4  11  24  37  67  95 128 156 213 273 320 356
#     4  11  22  39  62  98 125 163 200 273 326 373
#     4  11  22  39  60  96 124 165 203 268 314 377
#     4  10  23  39  66  93 127 162 210 265 325 369
#     4  10  22  41  66  83 129 171 216 242 319 391
#     4  10  22  38  61  89 125 170 207 253 316 378
#     4  11  22  39  64  99 124 165 214 267 312 383
#
# _framework density 21.110569999999999
#
# number of rings (size 3 to 8) (size 9 to 14) (size 15 to 20)
#    0.000    1.500    2.500    2.625    3.500    4.500 
#    0.000    1.875    0.000    0.000    0.000    0.000 
#    0.000    0.000    0.000    0.000    0.000    0.000 
#
# Total GULP energy -198322.735577 kJ/mol
# GULP energy per Si atom -12395.170974 kJ/mol
# Density = 2.106252 g / cm^3
# Si number density = 21.110570 Si / 1000 Ang^3
#
#
#
# Elastic Constant Matrix: (Units=GPa)
#
#
# Indices 1 2 3 4 5 6 
#
# 1 83.1359 53.2576 17.1550 12.6500 -9.1655 0.3250
# 2 53.2576 165.5693 45.1807 12.1158 1.9114 -6.5006
# 3 17.1550 45.1807 68.3941 6.9250 -2.0614 7.3327
# 4 12.6500 12.1158 6.9250 32.9843 2.8082 -1.3209
# 5 -9.1655 1.9114 -2.0614 2.8082 18.1472 0.2811
# 6 0.3250 -6.5006 7.3327 -1.3209 0.2811 37.8335
#
#
#
# Elastic Compliance Matrix: (Units=1/GPa)
#
#
# Indices 1 2 3 4 5 6 
#
# 1 0.017478 -0.005450 0.000255 -0.005691 0.010333 -0.001411
# 2 -0.005450 0.009372 -0.005273 0.000240 -0.004418 0.002720
# 3 0.000255 -0.005273 0.018906 -0.002599 0.003307 -0.004688
# 4 -0.005691 0.000240 -0.002599 0.033750 -0.008446 0.001835
# 5 0.010333 -0.004418 0.003307 -0.008446 0.062507 -0.002248
# 6 -0.001411 0.002720 -0.004688 0.001835 -0.002248 0.027900
#
#
# Mechanical properties :
#
#
# Convention : Reuss Voigt Hill
#
# Bulk Modulus (GPa) = 40.28985 60.92063 50.60524
# Shear Modulus (GPa) = 25.11024 31.22674 28.16849
#
# Velocity S-wave (km/s) = 3.45260 3.85021 3.65681
# Velocity P-wave (km/s) = 5.91781 6.97754 6.46941
#
# Compressibility (1/GPa) = 0.02482014
#
# Stress axis : x y z
#
# Youngs Moduli (GPa) = 57.21584 106.70074 52.89314
#
# Poissons Ratio (x) = 0.58150 -0.01350
# Poissons Ratio (y) = 0.31182 0.27892
# Poissons Ratio (z) = -0.01461 0.56266
#
# Static dielectric constant tensor:
#      x y z
#    x 4.104800 0.021680 -0.156000 
#    y 0.021680 3.998850 0.134290 
#    z -0.156000 0.134290 3.618220 
# 
# 
# High freq. dielectric constant tensor:
#      x y z
#    x 1.830080 -0.002060 -0.013670 
#    y -0.002060 1.828910 0.004590 
#    z -0.013670 0.004590 1.820590 
# 
# From -- ./inp_files/297920.got.cif
#   From: 2010.06.25/outbox.cif.g09.slc.cpg/sg2_149_cif.got.tgz:297920.got - 2010.06.27 13:26:56.
