data_PCOD8017022
_publ_section_title
;
Structure prediction by ZEFSAII (Michael W. Deem and Ramdas Pophale) SiO2 
 PCOD8017022
Probable space group: P -1
;
_chemical_formula_sum "Si O2"
_cell_formula_units_Z 16
_cell_length_a 14.208771
_cell_length_b 12.082866
_cell_length_c 14.939716
_cell_angle_alpha 39.631306
_cell_angle_beta 55.317922
_cell_angle_gamma 29.139606
_cell_volume 750.949468
_symmetry_space_group_name_H-M "P -1"
_symmetry_group_IT_number 2
_symmetry_cell_setting 'triclinic'
loop_
_space_group_symop_operation_xyz
x,y,z
-x,-y,-z
loop_
_atom_site_type_symbol
_atom_site_label
_atom_site_fract_x
_atom_site_fract_y
_atom_site_fract_z
Si Si1 0.475891 0.037883 0.383498
Si Si2 0.384641 0.659966 0.106437
Si Si3 0.111505 0.724321 0.174900
Si Si4 0.993361 0.695904 0.774946
Si Si5 0.611358 0.171130 0.560955
Si Si6 0.277115 0.962894 0.788767
Si Si7 0.353547 0.481889 0.677054
Si Si8 0.286201 0.026728 0.088221
O O1 0.282097 0.398290 0.232572
O O2 0.675954 0.889864 0.331028
O O3 0.500000 0.000000 0.500000
O O4 0.442100 0.890813 0.452420
O O5 0.230380 0.698879 0.196288
O O6 0.599019 0.302378 0.186991
O O7 0.396952 0.770110 0.114579
O O8 0.307369 0.862285 0.936128
O O9 0.958799 0.780325 0.269877
O O10 0.000000 0.000000 0.000000
O O11 0.120354 0.709320 0.673216
O O12 0.875376 0.871937 0.823388
O O13 0.164553 0.331730 0.915083
O O14 0.827130 0.854876 0.690162
O O15 0.416086 0.403756 0.587738
O O16 0.628902 0.342889 0.404804
O O17 0.519749 0.153346 0.845013
#
# Coordination Sequence:
#
# PCOD8017022 Si02
#       8
#     2   2   2   2   2   2   2   2
#     4  11  25  41  61  93 131 161 210 262 305 371
#     4   9  19  36  60  92 124 158 201 254 312 371
#     4   9  20  39  62  89 121 157 207 254 304 374
#     4  10  22  42  61  98 124 155 213 259 316 369
#     4  10  24  41  64  89 125 171 210 253 305 379
#     4   9  20  39  59  88 121 167 208 246 312 375
#     4  10  22  43  65  90 127 168 207 253 317 366
#     4  10  22  37  64  97 127 151 205 268 309 371
#
# _framework density 21.306360999999999
#
# number of rings (size 3 to 8) (size 9 to 14) (size 15 to 20)
#    0.000    2.250    0.000    1.500    8.750    1.500 
#    0.000    0.000    0.000    0.000    0.000    0.000 
#    0.000    0.000    0.000    0.000    0.000    0.000 
#
# Total GULP energy -198243.546886 kJ/mol
# GULP energy per Si atom -12390.221680 kJ/mol
# Density = 2.125787 g / cm^3
# Si number density = 21.306361 Si / 1000 Ang^3
#
#
#
# Elastic Constant Matrix: (Units=GPa)
#
#
# Indices 1 2 3 4 5 6 
#
# 1 113.9270 57.5746 38.0376 21.5851 -22.5126 3.8469
# 2 57.5746 78.0028 22.2003 15.2645 -7.8872 -6.2347
# 3 38.0376 22.2003 74.5587 2.5760 -9.6001 -4.1340
# 4 21.5851 15.2645 2.5760 31.7064 -8.6860 -11.0493
# 5 -22.5126 -7.8872 -9.6001 -8.6860 29.4441 6.3648
# 6 3.8469 -6.2347 -4.1340 -11.0493 6.3648 45.3137
#
#
#
# Elastic Compliance Matrix: (Units=1/GPa)
#
#
# Indices 1 2 3 4 5 6 
#
# 1 0.019876 -0.011166 -0.005700 -0.007462 0.009642 -0.006918
# 2 -0.011166 0.021732 -0.001072 -0.002724 -0.004699 0.003836
# 3 -0.005700 -0.001072 0.016839 0.004405 0.001555 0.002728
# 4 -0.007462 -0.002724 0.004405 0.042629 0.005350 0.010304
# 5 0.009642 -0.004699 0.001555 0.005350 0.043486 -0.006127
# 6 -0.006918 0.003836 0.002728 0.010304 -0.006127 0.026805
#
#
# Mechanical properties :
#
#
# Convention : Reuss Voigt Hill
#
# Bulk Modulus (GPa) = 44.30662 55.79038 50.04850
# Shear Modulus (GPa) = 23.28111 31.20456 27.24284
#
# Velocity S-wave (km/s) = 3.30916 3.83112 3.57967
# Velocity P-wave (km/s) = 5.95323 6.76843 6.37387
#
# Compressibility (1/GPa) = 0.02256999
#
# Stress axis : x y z
#
# Youngs Moduli (GPa) = 50.31138 46.01548 59.38744
#
# Poissons Ratio (x) = 0.51383 0.33849
# Poissons Ratio (y) = 0.56180 0.06367
# Poissons Ratio (z) = 0.28676 0.04934
#
# Static dielectric constant tensor:
#      x y z
#    x 3.867040 -0.393560 -0.177500 
#    y -0.393560 3.982800 -0.008150 
#    z -0.177500 -0.008150 3.950340 
# 
# 
# High freq. dielectric constant tensor:
#      x y z
#    x 1.825870 -0.019630 -0.007380 
#    y -0.019630 1.830810 -0.002770 
#    z -0.007380 -0.002770 1.836040 
# 
# From -- ./inp_files/532337.got.cif
#   From: 2010.06.25/outbox.cif.g09.slc.cpg/sg2_267_cif.got.tgz:532337.got - 2010.06.27 13:26:56.
