data_PCOD8017569
_publ_section_title
;
Structure prediction by ZEFSAII (Michael W. Deem and Ramdas Pophale) SiO2 
 PCOD8017569
Probable space group: P -1
;
_chemical_formula_sum "Si O2"
_cell_formula_units_Z 12
_cell_length_a 24.088712
_cell_length_b 9.175972
_cell_length_c 11.258170
_cell_angle_alpha 40.751294
_cell_angle_beta 30.672943
_cell_angle_gamma 27.633538
_cell_volume 588.692294
_symmetry_space_group_name_H-M "P -1"
_symmetry_group_IT_number 2
_symmetry_cell_setting 'triclinic'
loop_
_space_group_symop_operation_xyz
x,y,z
-x,-y,-z
loop_
_atom_site_type_symbol
_atom_site_label
_atom_site_fract_x
_atom_site_fract_y
_atom_site_fract_z
Si Si1 0.053414 0.390101 0.103251
Si Si2 0.713606 0.603214 0.270330
Si Si3 0.579772 0.381386 0.552317
Si Si4 0.328790 0.652661 0.034856
Si Si5 0.423552 0.260341 0.315579
Si Si6 0.740378 0.728080 0.586606
O O1 0.916743 0.515081 0.363073
O O2 0.181397 0.016235 0.097523
O O3 0.119216 0.525528 0.954848
O O4 0.000000 0.500000 0.000000
O O5 0.699630 0.413965 0.323293
O O6 0.681713 0.555895 0.489570
O O7 0.596453 0.968014 0.220505
O O8 0.500000 0.500000 0.500000
O O9 0.675663 0.013777 0.615430
O O10 0.451909 0.588826 0.761537
O O11 0.409633 0.499286 0.109515
O O12 0.275047 0.488075 0.183723
O O13 0.359486 0.137663 0.435024
#
# Coordination Sequence:
#
# PCOD8017569 Si02
#       6
#     2   2   2   2   2   2
#     4  12  22  40  63  93 127 164 206 260 308 370
#     4  11  22  37  66  96 126 160 210 254 308 370
#     4  12  22  40  63  93 127 164 206 260 308 370
#     4  10  22  41  68  89 124 163 218 255 306 361
#     4   9  20  40  63  97 112 165 221 250 296 359
#     4  10  22  39  62  92 124 161 204 250 319 358
#
# _framework density 20.384163000000001
#
# number of rings (size 3 to 8) (size 9 to 14) (size 15 to 20)
#    1.000    0.333    3.333    4.000    0.000    3.333 
#    0.000    0.000    0.000    6.000    0.000    0.000 
#    0.000    0.000    0.000    0.000    0.000    0.000 
#
# Total GULP energy -148750.296385 kJ/mol
# GULP energy per Si atom -12395.858032 kJ/mol
# Density = 2.033777 g / cm^3
# Si number density = 20.384163 Si / 1000 Ang^3
#
#
#
# Elastic Constant Matrix: (Units=GPa)
#
#
# Indices 1 2 3 4 5 6 
#
# 1 88.1418 16.7882 28.8914 -7.5096 -15.7832 -11.6973
# 2 16.7882 74.5979 17.6369 2.1977 1.3997 -3.1836
# 3 28.8914 17.6369 86.3769 5.2114 -16.5807 -15.6761
# 4 -7.5096 2.1977 5.2114 35.2210 -2.6277 0.5682
# 5 -15.7832 1.3997 -16.5807 -2.6277 48.0351 -8.5232
# 6 -11.6973 -3.1836 -15.6761 0.5682 -8.5232 26.2787
#
#
#
# Elastic Compliance Matrix: (Units=1/GPa)
#
#
# Indices 1 2 3 4 5 6 
#
# 1 0.014846 -0.002713 -0.002409 0.003996 0.005505 0.006542
# 2 -0.002713 0.014707 -0.002919 -0.001237 -0.002756 -0.002035
# 3 -0.002409 -0.002919 0.016311 -0.002418 0.006657 0.010516
# 4 0.003996 -0.001237 -0.002418 0.029839 0.002192 0.000252
# 5 0.005505 -0.002756 0.006657 0.002192 0.027797 0.015056
# 6 0.006542 -0.002035 0.010516 0.000252 0.015056 0.051870
#
#
# Mechanical properties :
#
#
# Convention : Reuss Voigt Hill
#
# Bulk Modulus (GPa) = 33.57752 41.74996 37.66374
# Shear Modulus (GPa) = 27.56640 34.29364 30.93002
#
# Velocity S-wave (km/s) = 3.68141 4.10612 3.89955
# Velocity P-wave (km/s) = 5.88035 6.55792 6.22835
#
# Compressibility (1/GPa) = 0.02978183
#
# Stress axis : x y z
#
# Youngs Moduli (GPa) = 67.35737 67.99318 61.30741
#
# Poissons Ratio (x) = 0.18450 0.14768
# Poissons Ratio (y) = 0.18277 0.17897
# Poissons Ratio (z) = 0.16225 0.19848
#
# Static dielectric constant tensor:
#      x y z
#    x 3.774810 0.029170 -0.248270 
#    y 0.029170 3.575630 -0.102310 
#    z -0.248270 -0.102310 3.672500 
# 
# 
# High freq. dielectric constant tensor:
#      x y z
#    x 1.793530 -0.000420 -0.016750 
#    y -0.000420 1.785780 -0.014940 
#    z -0.016750 -0.014940 1.797710 
# 
# From -- ./inp_files/473757.got.cif
#   From: 2010.06.25/outbox.cif.g09.slc.cpg/sg2_237_cif.got.tgz:473757.got - 2010.06.27 13:26:56.
