data_PCOD8017876
_publ_section_title
;
Structure prediction by ZEFSAII (Michael W. Deem and Ramdas Pophale) SiO2 
 PCOD8017876
Probable space group: P -1
;
_chemical_formula_sum "Si O2"
_cell_formula_units_Z 16
_cell_length_a 16.318216
_cell_length_b 5.198586
_cell_length_c 25.101082
_cell_angle_alpha 53.807447
_cell_angle_beta 155.707205
_cell_angle_gamma 124.129578
_cell_volume 705.304669
_symmetry_space_group_name_H-M "P -1"
_symmetry_group_IT_number 2
_symmetry_cell_setting 'triclinic'
loop_
_space_group_symop_operation_xyz
x,y,z
-x,-y,-z
loop_
_atom_site_type_symbol
_atom_site_label
_atom_site_fract_x
_atom_site_fract_y
_atom_site_fract_z
Si Si1 0.802677 0.836406 0.835819
Si Si2 0.488422 0.876102 0.448808
Si Si3 0.519311 0.001744 0.115338
Si Si4 0.838814 0.314298 0.554953
Si Si5 0.071674 0.771126 0.718724
Si Si6 0.728435 0.483302 0.035652
Si Si7 0.536829 0.682661 0.269975
Si Si8 0.217138 0.029819 0.074228
O O1 0.715644 0.034340 0.711357
O O2 0.801465 0.032598 0.866353
O O3 0.662266 0.521614 0.802390
O O4 0.039290 0.791889 0.970588
O O5 0.500000 0.500000 0.500000
O O6 0.500000 0.000000 0.500000
O O7 0.674512 0.040254 0.507547
O O8 0.420670 0.825930 0.026993
O O9 0.565443 0.720879 0.219105
O O10 0.720790 0.199020 0.193399
O O11 0.374719 0.249959 0.023884
O O12 0.741015 0.577305 0.427974
O O13 0.929196 0.512345 0.634197
O O14 0.992679 0.127000 0.633325
O O15 0.093798 0.636420 0.807936
O O16 0.820572 0.623206 0.016991
O O17 0.455049 0.010849 0.203354
#
# Coordination Sequence:
#
# PCOD8017876 Si02
#       8
#     2   2   2   2   2   2   2   2
#     4  10  22  41  66  96 127 174 218 272 319 396
#     4  11  26  45  67  96 136 178 212 264 328 393
#     4  11  23  43  71  94 133 172 220 274 336 373
#     4  11  27  42  69  93 138 172 219 270 324 392
#     4  12  25  44  66 102 130 176 222 269 323 399
#     4  11  23  42  67  98 133 171 216 279 326 388
#     4  10  23  42  64  93 134 172 219 272 328 384
#     4  10  22  39  67  95 129 169 225 269 328 381
#
# _framework density 22.685231000000002
#
# number of rings (size 3 to 8) (size 9 to 14) (size 15 to 20)
#    0.000    1.250    1.250    3.375   10.500    1.000 
#    0.000    0.000    0.000    0.000    0.000    0.000 
#    0.000    0.000    0.000    0.000    0.000    0.000 
#
# Total GULP energy -198238.430221 kJ/mol
# GULP energy per Si atom -12389.901889 kJ/mol
# Density = 2.263360 g / cm^3
# Si number density = 22.685231 Si / 1000 Ang^3
#
#
#
# Elastic Constant Matrix: (Units=GPa)
#
#
# Indices 1 2 3 4 5 6 
#
# 1 72.9230 21.4419 41.9306 -8.9928 -19.8922 -7.4869
# 2 21.4419 86.5621 38.8833 0.9392 -16.6679 -15.4269
# 3 41.9306 38.8833 142.6104 -5.9728 -27.7713 -10.1599
# 4 -8.9928 0.9392 -5.9728 32.9734 -1.4526 -4.1055
# 5 -19.8922 -16.6679 -27.7713 -1.4526 35.7104 1.7692
# 6 -7.4869 -15.4269 -10.1599 -4.1055 1.7692 37.0420
#
#
#
# Elastic Compliance Matrix: (Units=1/GPa)
#
#
# Indices 1 2 3 4 5 6 
#
# 1 0.018980 -0.001363 -0.003363 0.005253 0.007408 0.002575
# 2 -0.001363 0.014638 -0.002509 -0.000463 0.003860 0.004897
# 3 -0.003363 -0.002509 0.009669 0.001209 0.004482 0.000847
# 4 0.005253 -0.000463 0.001209 0.032775 0.004755 0.004606
# 5 0.007408 0.003860 0.004482 0.004755 0.037458 0.003072
# 6 0.002575 0.004897 0.000847 0.004606 0.003072 0.030152
#
#
# Mechanical properties :
#
#
# Convention : Reuss Voigt Hill
#
# Bulk Modulus (GPa) = 34.70141 56.28968 45.49554
# Shear Modulus (GPa) = 29.80651 34.46781 32.13716
#
# Velocity S-wave (km/s) = 3.62873 3.90217 3.76793
# Velocity P-wave (km/s) = 5.73472 6.72085 6.24727
#
# Compressibility (1/GPa) = 0.02881728
#
# Stress axis : x y z
#
# Youngs Moduli (GPa) = 52.68607 68.31447 103.42483
#
# Poissons Ratio (x) = 0.09308 0.34784
# Poissons Ratio (y) = 0.07179 0.25952
# Poissons Ratio (z) = 0.17719 0.17142
#
# Static dielectric constant tensor:
#      x y z
#    x 4.024250 0.173150 -0.092060 
#    y 0.173150 4.120690 -0.091720 
#    z -0.092060 -0.091720 4.285250 
# 
# 
# High freq. dielectric constant tensor:
#      x y z
#    x 1.888790 0.006260 -0.008550 
#    y 0.006260 1.898970 -0.004780 
#    z -0.008550 -0.004780 1.905710 
# 
# From -- ./inp_files/90150.got.cif
#   From: 2010.06.25/outbox.cif.g09.slc.cpg/sg2_46_cif.got.tgz:90150.got - 2010.06.27 13:26:56.
