data_PCOD8017279
_publ_section_title
;
Structure prediction by ZEFSAII (Michael W. Deem and Ramdas Pophale) SiO2 
 PCOD8017279
Probable space group: P -1
;
_chemical_formula_sum "Si O2"
_cell_formula_units_Z 12
_cell_length_a 12.765673
_cell_length_b 15.351051
_cell_length_c 9.303875
_cell_angle_alpha 38.929104
_cell_angle_beta 134.305386
_cell_angle_gamma 152.360424
_cell_volume 531.205141
_symmetry_space_group_name_H-M "P -1"
_symmetry_group_IT_number 2
_symmetry_cell_setting 'triclinic'
loop_
_space_group_symop_operation_xyz
x,y,z
-x,-y,-z
loop_
_atom_site_type_symbol
_atom_site_label
_atom_site_fract_x
_atom_site_fract_y
_atom_site_fract_z
Si Si1 0.964598 0.688619 0.460199
Si Si2 0.217905 0.958512 0.084428
Si Si3 0.572030 0.602438 0.282043
Si Si4 0.657049 0.223737 0.737111
Si Si5 0.101279 0.204339 0.254147
Si Si6 0.819026 0.185586 0.198228
O O1 0.810500 0.707053 0.333881
O O2 0.812983 0.462131 0.527115
O O3 0.154698 0.877115 0.291187
O O4 0.093648 0.714960 0.686951
O O5 0.310995 0.889857 0.182886
O O6 0.997595 0.857968 0.920596
O O7 0.406549 0.215318 0.937069
O O8 0.500000 0.500000 0.500000
O O9 0.372045 0.405541 0.238198
O O10 0.392209 0.076139 0.659521
O O11 0.715477 0.242178 0.939112
O O12 0.026775 0.280520 0.181830
O O13 0.000000 0.000000 0.500000
#
# Coordination Sequence:
#
# PCOD8017279 Si02
#       6
#     2   2   2   2   2   2
#     4  12  24  42  65  95 130 164 208 263 316 366
#     4  11  26  42  62  98 130 162 208 264 317 367
#     4  12  24  40  69  93 124 166 215 256 310 374
#     4  10  24  41  66  92 128 168 212 251 314 379
#     4  11  21  40  65  92 126 165 211 258 307 373
#     4  10  22  38  65  94 124 162 218 254 306 371
#
# _framework density 22.590143000000001
#
# number of rings (size 3 to 8) (size 9 to 14) (size 15 to 20)
#    0.000    1.000    3.333    2.500    4.667    5.333 
#    0.000    0.000    0.000    0.000    0.000    0.000 
#    0.000    0.000    0.000    0.000    0.000    0.000 
#
# Total GULP energy -148785.696003 kJ/mol
# GULP energy per Si atom -12398.808000 kJ/mol
# Density = 2.253873 g / cm^3
# Si number density = 22.590143 Si / 1000 Ang^3
#
#
#
# Elastic Constant Matrix: (Units=GPa)
#
#
# Indices 1 2 3 4 5 6 
#
# 1 84.9181 16.7666 36.0881 -8.1389 -8.2360 -2.8760
# 2 16.7666 118.9901 27.0431 -10.8865 -0.7475 -2.6760
# 3 36.0881 27.0431 57.3992 -25.6772 -9.0782 -7.3414
# 4 -8.1389 -10.8865 -25.6772 48.8486 -4.6488 5.5651
# 5 -8.2360 -0.7475 -9.0782 -4.6488 36.7668 -6.5263
# 6 -2.8760 -2.6760 -7.3414 5.5651 -6.5263 30.2661
#
#
#
# Elastic Compliance Matrix: (Units=1/GPa)
#
#
# Indices 1 2 3 4 5 6 
#
# 1 0.016542 0.000075 -0.012043 -0.003465 0.000177 -0.000667
# 2 0.000075 0.009462 -0.005016 -0.000569 -0.001195 -0.000526
# 3 -0.012043 -0.005016 0.037107 0.016561 0.009599 0.006438
# 4 -0.003465 -0.000569 0.016561 0.029159 0.006948 -0.000226
# 5 0.000177 -0.001195 0.009599 0.006948 0.031852 0.007830
# 6 -0.000667 -0.000526 0.006438 -0.000226 0.007830 0.036222
#
#
# Mechanical properties :
#
#
# Convention : Reuss Voigt Hill
#
# Bulk Modulus (GPa) = 34.31345 46.78921 40.55133
# Shear Modulus (GPa) = 24.50676 35.27029 29.88853
#
# Velocity S-wave (km/s) = 3.29727 3.95563 3.64136
# Velocity P-wave (km/s) = 5.45147 6.45135 5.97237
#
# Compressibility (1/GPa) = 0.02914309
#
# Stress axis : x y z
#
# Youngs Moduli (GPa) = 60.45394 105.68517 26.94940
#
# Poissons Ratio (x) = -0.00795 0.32454
# Poissons Ratio (y) = -0.00455 0.13518
# Poissons Ratio (z) = 0.72803 0.53013
#
# Static dielectric constant tensor:
#      x y z
#    x 3.980810 0.196270 0.081380 
#    y 0.196270 4.535430 0.121010 
#    z 0.081380 0.121010 4.022500 
# 
# 
# High freq. dielectric constant tensor:
#      x y z
#    x 1.875160 0.003210 0.003630 
#    y 0.003210 1.905770 -0.004160 
#    z 0.003630 -0.004160 1.881190 
# 
# From -- ./inp_files/21907.got.cif
#   From: 2010.06.25/outbox.cif.g09.slc.cpg/sg2_11_cif.got.tgz:21907.got - 2010.06.27 13:26:56.
