data_PCOD8017607
_publ_section_title
;
Structure prediction by ZEFSAII (Michael W. Deem and Ramdas Pophale) SiO2 
 PCOD8017607
Probable space group: P -1
;
_chemical_formula_sum "Si O2"
_cell_formula_units_Z 16
_cell_length_a 12.681337
_cell_length_b 10.912523
_cell_length_c 11.051893
_cell_angle_alpha 42.868695
_cell_angle_beta 60.552276
_cell_angle_gamma 49.092329
_cell_volume 786.168246
_symmetry_space_group_name_H-M "P -1"
_symmetry_group_IT_number 2
_symmetry_cell_setting 'triclinic'
loop_
_space_group_symop_operation_xyz
x,y,z
-x,-y,-z
loop_
_atom_site_type_symbol
_atom_site_label
_atom_site_fract_x
_atom_site_fract_y
_atom_site_fract_z
Si Si1 0.591875 0.416069 0.392651
Si Si2 0.585421 0.590218 0.722796
Si Si3 0.395635 0.807249 0.900535
Si Si4 0.582479 0.802861 0.009607
Si Si5 0.988795 0.350224 0.441787
Si Si6 0.870242 0.101350 0.585537
Si Si7 0.202024 0.257574 0.594287
Si Si8 0.885129 0.704553 0.853436
O O1 0.500000 0.500000 0.500000
O O2 0.511129 0.363406 0.374100
O O3 0.735252 0.215030 0.493629
O O4 0.623835 0.593361 0.207353
O O5 0.484939 0.724326 0.789317
O O6 0.697423 0.663726 0.577995
O O7 0.655765 0.348275 0.902561
O O8 0.484781 0.843445 0.922649
O O9 0.269693 0.032191 0.778128
O O10 0.728931 0.751907 0.909485
O O11 0.500000 0.000000 0.000000
O O12 0.103636 0.246549 0.555413
O O13 0.068136 0.317053 0.295822
O O14 0.888204 0.247007 0.568207
O O15 0.887118 0.590637 0.356277
O O16 0.873052 0.903126 0.789411
O O17 0.000000 0.000000 0.500000
O O18 0.000000 0.500000 0.000000
#
# Coordination Sequence:
#
# PCOD8017607 Si02
#       8
#     2   2   2   2   2   2   2   2
#     4  11  23  40  66  97 129 168 212 276 328 395
#     4  10  23  42  66  98 130 171 224 272 338 394
#     4  10  24  41  65  99 130 171 221 281 332 393
#     4  11  24  39  65 100 132 164 219 276 335 393
#     4  10  24  44  62  96 125 178 227 257 337 398
#     4  10  22  39  63  88 127 168 213 260 321 388
#     4  11  23  43  70  89 136 176 221 278 321 405
#     4  11  24  42  65  96 132 171 216 274 332 398
#
# _framework density 20.351877999999999
#
# number of rings (size 3 to 8) (size 9 to 14) (size 15 to 20)
#    0.000    1.500    0.000    4.125   10.500    1.000 
#    4.500    1.250    0.000    0.000    0.000    0.000 
#    0.000    0.000    0.000    0.000    0.000    0.000 
#
# Total GULP energy -198289.109225 kJ/mol
# GULP energy per Si atom -12393.069327 kJ/mol
# Density = 2.030556 g / cm^3
# Si number density = 20.351878 Si / 1000 Ang^3
#
#
#
# Elastic Constant Matrix: (Units=GPa)
#
#
# Indices 1 2 3 4 5 6 
#
# 1 108.1100 52.3280 58.0398 -18.3494 12.0795 11.9181
# 2 52.3280 116.5693 52.2098 -12.7501 22.8603 1.6017
# 3 58.0398 52.2098 108.1375 -26.0359 9.1333 -0.7801
# 4 -18.3494 -12.7501 -26.0359 47.9477 -5.4662 6.3639
# 5 12.0795 22.8603 9.1333 -5.4662 25.1493 0.1214
# 6 11.9181 1.6017 -0.7801 6.3639 0.1214 40.6940
#
#
#
# Elastic Compliance Matrix: (Units=1/GPa)
#
#
# Indices 1 2 3 4 5 6 
#
# 1 0.015158 -0.003648 -0.005770 0.002170 -0.001374 -0.004742
# 2 -0.003648 0.013829 -0.004189 -0.001169 -0.009554 0.000655
# 3 -0.005770 -0.004189 0.015433 0.005117 0.002080 0.001344
# 4 0.002170 -0.001169 0.005117 0.025159 0.003652 -0.004437
# 5 -0.001374 -0.009554 0.002080 0.003652 0.049145 0.000101
# 6 -0.004742 0.000655 0.001344 -0.004437 0.000101 0.026656
#
#
# Mechanical properties :
#
#
# Convention : Reuss Voigt Hill
#
# Bulk Modulus (GPa) = 58.11786 73.10799 65.61293
# Shear Modulus (GPa) = 28.03813 34.10748 31.07280
#
# Velocity S-wave (km/s) = 3.71572 4.09820 3.91164
# Velocity P-wave (km/s) = 6.85764 7.64157 7.26020
#
# Compressibility (1/GPa) = 0.01720641
#
# Stress axis : x y z
#
# Youngs Moduli (GPa) = 65.97252 72.31172 64.79810
#
# Poissons Ratio (x) = 0.26380 0.37387
# Poissons Ratio (y) = 0.24067 0.27142
# Poissons Ratio (z) = 0.38065 0.30289
#
# Static dielectric constant tensor:
#      x y z
#    x 3.047880 1.458830 -0.164390 
#    y 1.458830 3.185290 -0.474020 
#    z -0.164390 -0.474020 4.140110 
# 
# 
# High freq. dielectric constant tensor:
#      x y z
#    x 1.806620 0.003690 -0.002960 
#    y 0.003690 1.812770 -0.006570 
#    z -0.002960 -0.006570 1.801040 
# 
# From -- ./inp_files/281718.got.cif
#   From: 2010.06.25/outbox.cif.g09.slc.cpg/sg2_141_cif.got.tgz:281718.got - 2010.06.27 13:26:56.
