data_PCOD8017176
_publ_section_title
;
Structure prediction by ZEFSAII (Michael W. Deem and Ramdas Pophale) SiO2 
 PCOD8017176
Probable space group: P -1
;
_chemical_formula_sum "Si O2"
_cell_formula_units_Z 16
_cell_length_a 22.796695
_cell_length_b 20.902711
_cell_length_c 8.887161
_cell_angle_alpha 31.581238
_cell_angle_beta 31.757813
_cell_angle_gamma 19.368144
_cell_volume 708.548655
_symmetry_space_group_name_H-M "P -1"
_symmetry_group_IT_number 2
_symmetry_cell_setting 'triclinic'
loop_
_space_group_symop_operation_xyz
x,y,z
-x,-y,-z
loop_
_atom_site_type_symbol
_atom_site_label
_atom_site_fract_x
_atom_site_fract_y
_atom_site_fract_z
Si Si1 0.026981 0.338019 0.216061
Si Si2 0.190977 0.390658 0.358013
Si Si3 0.456773 0.292953 0.760846
Si Si4 0.782147 0.882283 0.047375
Si Si5 0.791535 0.004420 0.088070
Si Si6 0.846153 0.366784 0.801698
Si Si7 0.477978 0.545855 0.283726
Si Si8 0.597200 0.043271 0.687818
O O1 0.869093 0.395282 0.523962
O O2 0.215175 0.125756 0.295779
O O3 0.041544 0.299825 0.081507
O O4 0.000000 0.500000 0.000000
O O5 0.305206 0.173906 0.605574
O O6 0.176677 0.498018 0.310071
O O7 0.000000 0.500000 0.500000
O O8 0.282985 0.376503 0.044227
O O9 0.436572 0.455618 0.472563
O O10 0.467864 0.249345 0.648119
O O11 0.632659 0.099512 0.862485
O O12 0.853892 0.887150 0.031367
O O13 0.639162 0.051277 0.410412
O O14 0.697099 0.216355 0.840982
O O15 0.975159 0.864813 0.066629
O O16 0.669091 0.437072 0.032598
O O17 0.500000 0.500000 0.500000
O O18 0.500000 0.000000 0.000000
#
# Coordination Sequence:
#
# PCOD8017176 Si02
#       8
#     2   2   2   2   2   2   2   2
#     4  10  22  38  62 101 138 171 222 282 352 408
#     4  12  22  37  66 103 134 169 225 288 348 406
#     4  11  25  45  67 100 135 182 231 278 342 411
#     4  11  21  40  69  96 136 176 224 287 355 402
#     4  11  24  45  70 100 137 183 234 285 336 404
#     4  11  24  44  67 101 142 176 233 285 337 409
#     4  12  25  47  72  95 140 191 236 277 331 409
#     4  10  24  42  69 101 139 172 222 293 349 408
#
# _framework density 22.581372000000002
#
# number of rings (size 3 to 8) (size 9 to 14) (size 15 to 20)
#    0.000    1.000    5.000    1.125    3.500    2.000 
#    2.250    5.625    0.000    0.000    0.000    0.000 
#    0.000    0.000    0.000    0.000    0.000    0.000 
#
# Total GULP energy -198332.354793 kJ/mol
# GULP energy per Si atom -12395.772175 kJ/mol
# Density = 2.252998 g / cm^3
# Si number density = 22.581372 Si / 1000 Ang^3
#
#
#
# Elastic Constant Matrix: (Units=GPa)
#
#
# Indices 1 2 3 4 5 6 
#
# 1 76.6242 37.2449 39.0732 6.6106 9.1177 36.3444
# 2 37.2449 110.9956 65.9768 -2.0013 1.8103 29.1980
# 3 39.0732 65.9768 136.8534 4.3228 -1.5977 23.7500
# 4 6.6106 -2.0013 4.3228 56.0607 5.6639 4.8476
# 5 9.1177 1.8103 -1.5977 5.6639 31.6452 0.6516
# 6 36.3444 29.1980 23.7500 4.8476 0.6516 42.5221
#
#
#
# Elastic Compliance Matrix: (Units=1/GPa)
#
#
# Indices 1 2 3 4 5 6 
#
# 1 0.025023 -0.001505 -0.003298 -0.000473 -0.006827 -0.018353
# 2 -0.001505 0.014357 -0.005577 0.001694 -0.000856 -0.005637
# 3 -0.003298 -0.005577 0.010877 -0.000903 0.001967 0.000646
# 4 -0.000473 0.001694 -0.000903 0.018556 -0.003279 -0.002319
# 5 -0.006827 -0.000856 0.001967 -0.003279 0.034196 0.005175
# 6 -0.018353 -0.005637 0.000646 -0.002319 0.005175 0.042898
#
#
# Mechanical properties :
#
#
# Convention : Reuss Voigt Hill
#
# Bulk Modulus (GPa) = 33.90368 67.67367 50.78867
# Shear Modulus (GPa) = 28.32877 38.19082 33.25979
#
# Velocity S-wave (km/s) = 3.54576 4.11695 3.84198
# Velocity P-wave (km/s) = 5.64002 7.25485 6.49780
#
# Compressibility (1/GPa) = 0.02949533
#
# Stress axis : x y z
#
# Youngs Moduli (GPa) = 39.96360 69.65416 91.93948
#
# Poissons Ratio (x) = 0.10485 0.30325
# Poissons Ratio (y) = 0.06015 0.51273
# Poissons Ratio (z) = 0.13181 0.38845
#
# Static dielectric constant tensor:
#      x y z
#    x 4.060950 0.230680 0.353710 
#    y 0.230680 4.657610 0.462860 
#    z 0.353710 0.462860 4.714400 
# 
# 
# High freq. dielectric constant tensor:
#      x y z
#    x 1.877700 0.008580 0.017500 
#    y 0.008580 1.905180 -0.001210 
#    z 0.017500 -0.001210 1.897220 
# 
# From -- ./inp_files/355239.got.cif
#   From: 2010.06.25/outbox.cif.g09.slc.cpg/sg2_178_cif.got.tgz:355239.got - 2010.06.27 13:26:56.
