data_PCOD8017094
_publ_section_title
;
Structure prediction by ZEFSAII (Michael W. Deem and Ramdas Pophale) SiO2 
 PCOD8017094
Probable space group: P -1
;
_chemical_formula_sum "Si O2"
_cell_formula_units_Z 16
_cell_length_a 14.259875
_cell_length_b 14.374540
_cell_length_c 15.184223
_cell_angle_alpha 34.671161
_cell_angle_beta 38.618713
_cell_angle_gamma 20.167660
_cell_volume 609.746676
_symmetry_space_group_name_H-M "P -1"
_symmetry_group_IT_number 2
_symmetry_cell_setting 'triclinic'
loop_
_space_group_symop_operation_xyz
x,y,z
-x,-y,-z
loop_
_atom_site_type_symbol
_atom_site_label
_atom_site_fract_x
_atom_site_fract_y
_atom_site_fract_z
Si Si1 0.888531 0.071964 0.296227
Si Si2 0.383306 0.753762 0.092509
Si Si3 0.739130 0.837808 0.012302
Si Si4 0.908022 0.403475 0.662629
Si Si5 0.684771 0.560104 0.349684
Si Si6 0.443000 0.243810 0.513632
Si Si7 0.434837 0.866328 0.783294
Si Si8 0.908708 0.934897 0.688792
O O1 0.758145 0.006933 0.445235
O O2 0.098715 0.911464 0.186967
O O3 0.051397 0.949866 0.363518
O O4 0.636081 0.425291 0.200964
O O5 0.368960 0.935182 0.014229
O O6 0.425373 0.752239 0.960293
O O7 0.839888 0.588400 0.187292
O O8 0.965630 0.718653 0.875783
O O9 0.500000 0.000000 0.000000
O O10 0.745766 0.492809 0.625280
O O11 0.000000 0.500000 0.500000
O O12 0.181327 0.054328 0.757733
O O13 0.712831 0.576679 0.755268
O O14 0.656383 0.582579 0.457961
O O15 0.878781 0.243786 0.409925
O O16 0.396384 0.795840 0.332210
O O17 0.422428 0.067042 0.667138
#
# Coordination Sequence:
#
# PCOD8017094 Si02
#       8
#     2   2   2   2   2   2   2   2
#     4  11  25  42  64  93 141 172 206 261 333 377
#     4  11  23  43  66  95 127 176 216 262 320 383
#     4   9  18  37  59  89 123 161 214 262 307 355
#     4  10  23  43  69  98 132 162 207 281 334 367
#     4  11  22  37  63  94 122 169 224 258 304 385
#     4  11  25  44  67  99 128 171 216 266 323 395
#     4  11  23  46  72  97 124 167 223 270 318 382
#     4  10  22  38  58  91 134 170 204 267 317 364
#
# _framework density 26.240406
#
# number of rings (size 3 to 8) (size 9 to 14) (size 15 to 20)
#    0.000    1.500    1.250    4.875    0.000   11.000 
#    0.000    3.750    0.000    0.000    0.000    0.000 
#    0.000    0.000    0.000    0.000    0.000    0.000 
#
# Total GULP energy -198367.784302 kJ/mol
# GULP energy per Si atom -12397.986519 kJ/mol
# Density = 2.618068 g / cm^3
# Si number density = 26.240406 Si / 1000 Ang^3
#
#
#
# Elastic Constant Matrix: (Units=GPa)
#
#
# Indices 1 2 3 4 5 6 
#
# 1 108.9137 15.9053 41.0606 13.2333 11.3324 -24.1774
# 2 15.9053 120.5506 29.0633 28.6235 5.1558 -7.7377
# 3 41.0606 29.0633 121.5298 43.1561 23.7571 1.4849
# 4 13.2333 28.6235 43.1561 46.5097 5.1734 -7.4502
# 5 11.3324 5.1558 23.7571 5.1734 42.7160 3.1433
# 6 -24.1774 -7.7377 1.4849 -7.4502 3.1433 26.9945
#
#
#
# Elastic Compliance Matrix: (Units=1/GPa)
#
#
# Indices 1 2 3 4 5 6 
#
# 1 0.014482 -0.000456 -0.006148 0.004429 -0.001981 0.014631
# 2 -0.000456 0.009788 -0.000147 -0.005570 -0.000371 0.000911
# 3 -0.006148 -0.000147 0.016659 -0.014637 -0.005115 -0.009909
# 4 0.004429 -0.005570 -0.014637 0.039251 0.001869 0.013791
# 5 -0.001981 -0.000371 -0.005115 0.001869 0.026909 -0.004216
# 6 0.014631 0.000911 -0.009909 0.013791 -0.004216 0.055252
#
#
# Mechanical properties :
#
#
# Convention : Reuss Voigt Hill
#
# Bulk Modulus (GPa) = 36.46214 58.11696 47.28955
# Shear Modulus (GPa) = 27.02895 40.90838 33.96867
#
# Velocity S-wave (km/s) = 3.21292 3.95268 3.60184
# Velocity P-wave (km/s) = 5.26207 6.55954 5.94630
#
# Compressibility (1/GPa) = 0.02742571
#
# Stress axis : x y z
#
# Youngs Moduli (GPa) = 69.05156 102.16734 60.02617
#
# Poissons Ratio (x) = 0.04662 0.36906
# Poissons Ratio (y) = 0.03151 0.00883
# Poissons Ratio (z) = 0.42455 0.01504
#
# Static dielectric constant tensor:
#      x y z
#    x 4.748530 -0.307040 -0.208910 
#    y -0.307040 4.826740 0.402880 
#    z -0.208910 0.402880 6.093810 
# 
# 
# High freq. dielectric constant tensor:
#      x y z
#    x 2.061310 0.000680 -0.002000 
#    y 0.000680 2.049370 0.008490 
#    z -0.002000 0.008490 2.077770 
# 
# From -- ./inp_files/534259.got.cif
#   From: 2010.06.25/outbox.cif.g09.slc.cpg/sg2_268_cif.got.tgz:534259.got - 2010.06.27 13:26:56.
