data_PCOD8017683
_publ_section_title
;
Structure prediction by ZEFSAII (Michael W. Deem and Ramdas Pophale) SiO2 
 PCOD8017683
Probable space group: P -1
;
_chemical_formula_sum "Si O2"
_cell_formula_units_Z 14
_cell_length_a 7.386492
_cell_length_b 18.527618
_cell_length_c 12.260238
_cell_angle_alpha 20.554766
_cell_angle_beta 86.042296
_cell_angle_gamma 86.464446
_cell_volume 587.676451
_symmetry_space_group_name_H-M "P -1"
_symmetry_group_IT_number 2
_symmetry_cell_setting 'triclinic'
loop_
_space_group_symop_operation_xyz
x,y,z
-x,-y,-z
loop_
_atom_site_type_symbol
_atom_site_label
_atom_site_fract_x
_atom_site_fract_y
_atom_site_fract_z
Si Si1 0.995791 0.683547 0.153737
Si Si2 0.334494 0.520431 0.636972
Si Si3 0.536361 0.794309 0.647349
Si Si4 0.267719 0.597257 0.776247
Si Si5 0.365803 0.758502 0.943270
Si Si6 0.999406 0.902199 0.301402
Si Si7 0.297633 0.955186 0.028046
O O1 0.000000 0.500000 0.500000
O O2 0.823258 0.646925 0.135813
O O3 0.162640 0.672706 0.078314
O O4 0.986224 0.909780 0.882438
O O5 0.347238 0.597669 0.651164
O O6 0.303882 0.736852 0.268950
O O7 0.519168 0.406772 0.757846
O O8 0.390203 0.759102 0.609099
O O9 0.435009 0.767737 0.804151
O O10 0.621012 0.020085 0.312423
O O11 0.705350 0.635225 0.850798
O O12 0.059433 0.684135 0.663617
O O13 0.155124 0.948675 0.140926
O O14 0.795146 0.885543 0.280504
O O15 0.500000 0.000000 0.000000
#
# Coordination Sequence:
#
# PCOD8017683 Si02
#       7
#     2   2   2   2   2   2   2
#     4  12  25  41  62  95 140 174 214 264 331 398
#     4  10  22  40  61  98 126 172 219 267 328 398
#     4   9  19  44  70 101 122 175 230 272 328 384
#     4   9  19  40  70  90 133 161 220 285 321 381
#     4  10  23  41  70  94 135 172 219 273 326 388
#     4  10  22  40  60  95 130 170 216 270 321 401
#     4  10  22  39  64  89 129 172 220 268 326 389
#
# _framework density 23.822633
#
# number of rings (size 3 to 8) (size 9 to 14) (size 15 to 20)
#    0.000    2.000    1.429    0.857    2.000    4.000 
#    0.000   18.571    0.000    0.000    0.000    0.000 
#    0.000    0.000    0.000    0.000    0.000    0.000 
#
# Total GULP energy -173463.941773 kJ/mol
# GULP energy per Si atom -12390.281555 kJ/mol
# Density = 2.376841 g / cm^3
# Si number density = 23.822633 Si / 1000 Ang^3
#
#
#
# Elastic Constant Matrix: (Units=GPa)
#
#
# Indices 1 2 3 4 5 6 
#
# 1 186.2560 39.0511 53.8244 -23.4783 29.1518 12.7138
# 2 39.0511 58.5667 31.5324 -24.3705 5.3232 12.3446
# 3 53.8244 31.5324 93.4578 -22.7604 37.4083 0.1597
# 4 -23.4783 -24.3705 -22.7604 28.8033 2.0449 -2.2308
# 5 29.1518 5.3232 37.4083 2.0449 46.0303 0.9688
# 6 12.7138 12.3446 0.1597 -2.2308 0.9688 34.5189
#
#
#
# Elastic Compliance Matrix: (Units=1/GPa)
#
#
# Indices 1 2 3 4 5 6 
#
# 1 0.007236 -0.002168 -0.001325 0.003132 -0.003361 -0.001587
# 2 -0.002168 0.031322 -0.004736 0.020224 0.000892 -0.009099
# 3 -0.001325 -0.004736 0.024859 0.016233 -0.019614 0.003666
# 4 0.003132 0.020224 0.016233 0.068396 -0.020481 -0.003467
# 5 -0.003361 0.000892 -0.019614 -0.020481 0.040631 -0.001455
# 6 -0.001587 -0.009099 0.003666 -0.003467 -0.001455 0.032608
#
#
# Mechanical properties :
#
#
# Convention : Reuss Voigt Hill
#
# Bulk Modulus (GPa) = 21.29488 65.23293 43.26390
# Shear Modulus (GPa) = 21.08263 36.12866 28.60565
#
# Velocity S-wave (km/s) = 2.97809 3.89854 3.46898
# Velocity P-wave (km/s) = 4.55892 6.90703 5.85195
#
# Compressibility (1/GPa) = 0.04695964
#
# Stress axis : x y z
#
# Youngs Moduli (GPa) = 138.20736 31.92618 40.22695
#
# Poissons Ratio (x) = 0.06921 0.05330
# Poissons Ratio (y) = 0.29960 0.19051
# Poissons Ratio (z) = 0.18312 0.15120
#
# Static dielectric constant tensor:
#      x y z
#    x 4.618220 0.106410 0.699970 
#    y 0.106410 4.185020 -0.260070 
#    z 0.699970 -0.260070 4.890960 
# 
# 
# High freq. dielectric constant tensor:
#      x y z
#    x 1.948620 0.002790 0.027510 
#    y 0.002790 1.942950 -0.018300 
#    z 0.027510 -0.018300 1.945570 
# 
# From -- ./inp_files/418610.got.cif
#   From: 2010.06.25/outbox.cif.g09.slc.cpg/sg2_210_cif.got.tgz:418610.got - 2010.06.27 13:26:56.
