data_PCOD8017733
_publ_section_title
;
Structure prediction by ZEFSAII (Michael W. Deem and Ramdas Pophale) SiO2 
 PCOD8017733
Probable space group: P -1
;
_chemical_formula_sum "Si O2"
_cell_formula_units_Z 10
_cell_length_a 11.411813
_cell_length_b 8.905938
_cell_length_c 18.831142
_cell_angle_alpha 31.175273
_cell_angle_beta 31.484252
_cell_angle_gamma 54.121400
_cell_volume 438.443715
_symmetry_space_group_name_H-M "P -1"
_symmetry_group_IT_number 2
_symmetry_cell_setting 'triclinic'
loop_
_space_group_symop_operation_xyz
x,y,z
-x,-y,-z
loop_
_atom_site_type_symbol
_atom_site_label
_atom_site_fract_x
_atom_site_fract_y
_atom_site_fract_z
Si Si1 0.142874 0.403809 0.266654
Si Si2 0.348350 0.607526 0.441359
Si Si3 0.421079 0.069589 0.087705
Si Si4 0.505787 0.914418 0.389279
Si Si5 0.095863 0.362445 0.152057
O O1 0.379750 0.541005 0.145269
O O2 0.231895 0.531396 0.089109
O O3 0.962704 0.545345 0.329462
O O4 0.000000 0.000000 0.500000
O O5 0.490591 0.826889 0.349356
O O6 0.399701 0.302557 0.528174
O O7 0.446199 0.834246 0.227993
O O8 0.141594 0.051011 0.234942
O O9 0.500000 0.000000 0.000000
O O10 0.221126 0.808871 0.612412
O O11 0.738786 0.315454 0.117741
#
# Coordination Sequence:
#
# PCOD8017733 Si02
#       5
#     2   2   2   2   2
#     4  11  21  40  70  95 130 168 229 275 320 388
#     4  10  22  39  64  99 127 171 220 278 326 386
#     4  12  25  41  65  98 137 173 219 274 333 396
#     4  10  23  39  70  96 131 169 224 281 323 390
#     4  11  22  42  66  99 126 174 224 272 331 387
#
# _framework density 22.807943999999999
#
# number of rings (size 3 to 8) (size 9 to 14) (size 15 to 20)
#    0.000    1.200    4.000    3.000    2.800    3.200 
#    0.000    2.000    0.000    0.000    0.000    0.000 
#    0.000    0.000    0.000    0.000    0.000    0.000 
#
# Total GULP energy -123925.516810 kJ/mol
# GULP energy per Si atom -12392.551681 kJ/mol
# Density = 2.275603 g / cm^3
# Si number density = 22.807944 Si / 1000 Ang^3
#
#
#
# Elastic Constant Matrix: (Units=GPa)
#
#
# Indices 1 2 3 4 5 6 
#
# 1 54.4537 60.5007 43.8697 8.3282 17.3726 -20.1173
# 2 60.5007 137.2709 71.1275 29.7548 9.9495 -37.4578
# 3 43.8697 71.1275 148.0188 -0.2825 9.7771 -15.2493
# 4 8.3282 29.7548 -0.2825 39.2642 -4.6551 7.9126
# 5 17.3726 9.9495 9.7771 -4.6551 27.2097 -2.7924
# 6 -20.1173 -37.4578 -15.2493 7.9126 -2.7924 39.2909
#
#
#
# Elastic Compliance Matrix: (Units=1/GPa)
#
#
# Indices 1 2 3 4 5 6 
#
# 1 0.050796 -0.013539 -0.005841 -0.005603 -0.025297 0.010164
# 2 -0.013539 0.027536 -0.007057 -0.022352 -0.000553 0.021042
# 3 -0.005841 -0.007057 0.010975 0.008431 0.003097 -0.006937
# 4 -0.005603 -0.022352 0.008431 0.051461 0.014422 -0.030245
# 5 -0.025297 -0.000553 0.003097 0.014422 0.053291 -0.011395
# 6 0.010164 0.021042 -0.006937 -0.030245 -0.011395 0.053304
#
#
# Mechanical properties :
#
#
# Convention : Reuss Voigt Hill
#
# Bulk Modulus (GPa) = 27.44940 76.74880 52.09910
# Shear Modulus (GPa) = 16.00600 32.10264 24.05432
#
# Velocity S-wave (km/s) = 2.65197 3.75576 3.25106
# Velocity P-wave (km/s) = 4.63017 7.24781 6.08150
#
# Compressibility (1/GPa) = 0.03643068
#
# Stress axis : x y z
#
# Youngs Moduli (GPa) = 19.68671 36.31600 91.11382
#
# Poissons Ratio (x) = 0.49170 0.53222
# Poissons Ratio (y) = 0.26655 0.64303
# Poissons Ratio (z) = 0.11500 0.25630
#
# Static dielectric constant tensor:
#      x y z
#    x 4.160170 -0.490310 0.107030 
#    y -0.490310 4.181350 0.088110 
#    z 0.107030 0.088110 4.124520 
# 
# 
# High freq. dielectric constant tensor:
#      x y z
#    x 1.865660 -0.033630 0.006360 
#    y -0.033630 1.898910 0.006850 
#    z 0.006360 0.006850 1.908640 
# 
# From -- ./inp_files/15506.got.cif
#   From: 2010.06.25/outbox.cif.g09.slc.cpg/sg2_8_cif.got.tgz:15506.got - 2010.06.27 13:26:56.
