data_PCOD8017130
_publ_section_title
;
Structure prediction by ZEFSAII (Michael W. Deem and Ramdas Pophale) SiO2 
 PCOD8017130
Probable space group: P -1
;
_chemical_formula_sum "Si O2"
_cell_formula_units_Z 16
_cell_length_a 16.508548
_cell_length_b 9.157791
_cell_length_c 13.563413
_cell_angle_alpha 93.445063
_cell_angle_beta 154.466570
_cell_angle_gamma 96.970629
_cell_volume 805.456127
_symmetry_space_group_name_H-M "P -1"
_symmetry_group_IT_number 2
_symmetry_cell_setting 'triclinic'
loop_
_space_group_symop_operation_xyz
x,y,z
-x,-y,-z
loop_
_atom_site_type_symbol
_atom_site_label
_atom_site_fract_x
_atom_site_fract_y
_atom_site_fract_z
Si Si1 0.714682 0.951509 0.495252
Si Si2 0.122790 0.484351 0.855956
Si Si3 0.819754 0.827718 0.783255
Si Si4 0.707679 0.420584 0.303943
Si Si5 0.511360 0.354340 0.877914
Si Si6 0.570537 0.232344 0.330673
Si Si7 0.922781 0.544225 0.816881
Si Si8 0.161811 0.185308 0.977541
O O1 0.655232 0.852465 0.529978
O O2 0.607655 0.833935 0.282385
O O3 0.644539 0.094922 0.432522
O O4 0.961105 0.018574 0.752811
O O5 0.085530 0.312328 0.852297
O O6 0.950649 0.469150 0.584720
O O7 0.096267 0.584506 0.923922
O O8 0.346004 0.563012 0.055720
O O9 0.889894 0.704555 0.799890
O O10 0.738944 0.762238 0.801507
O O11 0.000000 0.000000 0.000000
O O12 0.651909 0.568302 0.280872
O O13 0.581898 0.266488 0.227597
O O14 0.650893 0.372387 0.127212
O O15 0.711647 0.397302 0.546987
O O16 0.333705 0.166997 0.098093
O O17 0.000000 0.500000 0.000000
#
# Coordination Sequence:
#
# PCOD8017130 Si02
#       8
#     2   2   2   2   2   2   2   2
#     4  11  23  42  59  92 129 158 203 267 301 352
#     4  11  21  40  66  91 122 165 205 252 303 376
#     4  10  22  38  60  90 129 161 197 253 302 353
#     4  10  22  43  64  92 122 159 208 258 309 374
#     4  11  24  40  68  92 120 159 210 261 312 358
#     4  11  23  39  65  88 124 168 207 248 310 374
#     4  11  20  38  64  93 123 165 207 246 301 369
#     4  11  22  41  63  88 128 167 204 246 307 371
#
# _framework density 19.864519999999999
#
# number of rings (size 3 to 8) (size 9 to 14) (size 15 to 20)
#    0.000    1.250    5.000    2.625    0.000    5.500 
#    0.000    0.625    0.000    0.000    0.000    0.000 
#    0.000    0.000    0.000    0.000    0.000    0.000 
#
# Total GULP energy -198372.876648 kJ/mol
# GULP energy per Si atom -12398.304790 kJ/mol
# Density = 1.981931 g / cm^3
# Si number density = 19.864520 Si / 1000 Ang^3
#
#
#
# Elastic Constant Matrix: (Units=GPa)
#
#
# Indices 1 2 3 4 5 6 
#
# 1 82.9467 28.8086 27.7557 7.3504 -5.4503 1.7571
# 2 28.8086 128.6512 42.2090 -3.2896 -13.6027 -7.5415
# 3 27.7557 42.2090 70.5232 2.6739 -8.2533 -2.0106
# 4 7.3504 -3.2896 2.6739 33.9717 2.4009 -7.3106
# 5 -5.4503 -13.6027 -8.2533 2.4009 36.1927 -4.7058
# 6 1.7571 -7.5415 -2.0106 -7.3106 -4.7058 26.6291
#
#
#
# Elastic Compliance Matrix: (Units=1/GPa)
#
#
# Indices 1 2 3 4 5 6 
#
# 1 0.014660 -0.002051 -0.004450 -0.003651 0.000296 -0.002834
# 2 -0.002051 0.010508 -0.005137 0.002508 0.002811 0.003909
# 3 -0.004450 -0.005137 0.019281 -0.001117 0.001913 0.000326
# 4 -0.003651 0.002508 -0.001117 0.032701 -0.000769 0.009708
# 5 0.000296 0.002811 0.001913 -0.000769 0.030000 0.006011
# 6 -0.002834 0.003909 0.000326 0.009708 0.006011 0.042599
#
#
# Mechanical properties :
#
#
# Convention : Reuss Voigt Hill
#
# Bulk Modulus (GPa) = 47.22804 53.29640 50.26222
# Shear Modulus (GPa) = 27.76510 31.58188 29.67349
#
# Velocity S-wave (km/s) = 3.74267 3.99164 3.86916
# Velocity P-wave (km/s) = 6.51947 6.93775 6.73186
#
# Compressibility (1/GPa) = 0.02117386
#
# Stress axis : x y z
#
# Youngs Moduli (GPa) = 68.21083 95.16557 51.86470
#
# Poissons Ratio (x) = 0.19520 0.23080
# Poissons Ratio (y) = 0.13991 0.26641
# Poissons Ratio (z) = 0.30354 0.48883
#
# Static dielectric constant tensor:
#      x y z
#    x 3.835780 0.063870 -0.197330 
#    y 0.063870 3.708330 -0.187670 
#    z -0.197330 -0.187670 3.701250 
# 
# 
# High freq. dielectric constant tensor:
#      x y z
#    x 1.774390 0.004980 -0.010460 
#    y 0.004980 1.780770 -0.017090 
#    z -0.010460 -0.017090 1.772590 
# 
# From -- ./inp_files/200604.got.cif
#   From: 2010.06.25/outbox.cif.g09.slc.cpg/sg2_101_cif.got.tgz:200604.got - 2010.06.27 13:26:56.
