data_PCOD8017449
_publ_section_title
;
Structure prediction by ZEFSAII (Michael W. Deem and Ramdas Pophale) SiO2 
 PCOD8017449
Probable space group: P -1
;
_chemical_formula_sum "Si O2"
_cell_formula_units_Z 14
_cell_length_a 11.506818
_cell_length_b 13.895349
_cell_length_c 22.830771
_cell_angle_alpha 22.274416
_cell_angle_beta 28.947405
_cell_angle_gamma 37.978192
_cell_volume 665.083313
_symmetry_space_group_name_H-M "P -1"
_symmetry_group_IT_number 2
_symmetry_cell_setting 'triclinic'
loop_
_space_group_symop_operation_xyz
x,y,z
-x,-y,-z
loop_
_atom_site_type_symbol
_atom_site_label
_atom_site_fract_x
_atom_site_fract_y
_atom_site_fract_z
Si Si1 0.006998 0.338533 0.177112
Si Si2 0.241396 0.237558 0.011512
Si Si3 0.114359 0.399268 0.759963
Si Si4 0.723318 0.690635 0.810900
Si Si5 0.388667 0.806685 0.478894
Si Si6 0.794363 0.298118 0.732730
Si Si7 0.084958 0.138815 0.797884
O O1 0.918562 0.609510 0.046964
O O2 0.776815 0.171674 0.402792
O O3 0.221748 0.367747 0.112930
O O4 0.111872 0.208643 0.147908
O O5 0.520190 0.377591 0.812626
O O6 0.227715 0.952767 0.155286
O O7 0.348737 0.530188 0.618611
O O8 0.158539 0.319992 0.719041
O O9 0.940917 0.624030 0.711058
O O10 0.001614 0.150744 0.984488
O O11 0.669752 0.979719 0.662514
O O12 0.500000 0.500000 0.000000
O O13 0.665037 0.854093 0.352490
O O14 0.000000 0.500000 0.500000
O O15 0.877156 0.247069 0.791024
#
# Coordination Sequence:
#
# PCOD8017449 Si02
#       7
#     2   2   2   2   2   2   2
#     4  10  22  43  65  87 124 165 202 255 312 355
#     4  10  24  45  62  88 125 164 209 257 297 359
#     4  10  22  39  59  94 125 164 199 245 323 360
#     4  11  22  38  63  95 125 157 202 258 308 367
#     4  11  22  40  64  94 126 161 202 253 315 372
#     4  11  24  41  63  90 120 165 210 249 305 356
#     4  11  23  39  63  90 127 160 205 256 298 373
#
# _framework density 21.049994999999999
#
# number of rings (size 3 to 8) (size 9 to 14) (size 15 to 20)
#    0.000    1.429    1.429    4.714    2.000    3.429 
#    0.000    2.143    0.000    0.000    0.000    0.000 
#    0.000    0.000    0.000    0.000    0.000    0.000 
#
# Total GULP energy -173517.282061 kJ/mol
# GULP energy per Si atom -12394.091576 kJ/mol
# Density = 2.100208 g / cm^3
# Si number density = 21.049995 Si / 1000 Ang^3
#
#
#
# Elastic Constant Matrix: (Units=GPa)
#
#
# Indices 1 2 3 4 5 6 
#
# 1 100.8326 39.9481 52.6581 18.5613 7.9052 -3.4763
# 2 39.9481 62.3891 28.4971 0.5180 2.1364 8.0572
# 3 52.6581 28.4971 111.3780 10.4144 -12.4280 10.9938
# 4 18.5613 0.5180 10.4144 29.3078 0.6106 0.7751
# 5 7.9052 2.1364 -12.4280 0.6106 24.4868 6.4889
# 6 -3.4763 8.0572 10.9938 0.7751 6.4889 28.2680
#
#
#
# Elastic Compliance Matrix: (Units=1/GPa)
#
#
# Indices 1 2 3 4 5 6 
#
# 1 0.023585 -0.011631 -0.010209 -0.011157 -0.015208 0.013983
# 2 -0.011631 0.024542 -0.000073 0.007128 0.003914 -0.009491
# 3 -0.010209 -0.000073 0.016479 0.000598 0.014567 -0.011004
# 4 -0.011157 0.007128 0.000598 0.040918 0.003752 -0.005620
# 5 -0.015208 0.003914 0.014567 0.003752 0.058590 -0.022203
# 6 0.013983 -0.009491 -0.011004 -0.005620 -0.022203 0.049331
#
#
# Mechanical properties :
#
#
# Convention : Reuss Voigt Hill
#
# Bulk Modulus (GPa) = 48.12257 57.42291 52.77274
# Shear Modulus (GPa) = 18.92530 26.64562 22.78546
#
# Velocity S-wave (km/s) = 3.00169 3.56170 3.29362
# Velocity P-wave (km/s) = 5.90968 6.65228 6.29194
#
# Compressibility (1/GPa) = 0.02078027
#
# Stress axis : x y z
#
# Youngs Moduli (GPa) = 42.40050 40.74697 60.68217
#
# Poissons Ratio (x) = 0.47392 0.61948
# Poissons Ratio (y) = 0.49315 0.00445
# Poissons Ratio (z) = 0.43285 0.00299
#
# Static dielectric constant tensor:
#      x y z
#    x 3.877420 -0.129900 0.128510 
#    y -0.129900 3.930100 0.092270 
#    z 0.128510 0.092270 4.230510 
# 
# 
# High freq. dielectric constant tensor:
#      x y z
#    x 1.826370 -0.008870 -0.005800 
#    y -0.008870 1.824490 0.007130 
#    z -0.005800 0.007130 1.831360 
# 
# From -- ./inp_files/271687.got.cif
#   From: 2010.06.25/outbox.cif.g09.slc.cpg/sg2_136_cif.got.tgz:271687.got - 2010.06.27 13:26:56.
