data_PCOD8017459
_publ_section_title
;
Structure prediction by ZEFSAII (Michael W. Deem and Ramdas Pophale) SiO2 
 PCOD8017459
Probable space group: P -1
;
_chemical_formula_sum "Si O2"
_cell_formula_units_Z 10
_cell_length_a 16.980917
_cell_length_b 5.023794
_cell_length_c 5.396826
_cell_angle_alpha 81.024421
_cell_angle_beta 122.967884
_cell_angle_gamma 102.279684
_cell_volume 376.967859
_symmetry_space_group_name_H-M "P -1"
_symmetry_group_IT_number 2
_symmetry_cell_setting 'triclinic'
loop_
_space_group_symop_operation_xyz
x,y,z
-x,-y,-z
loop_
_atom_site_type_symbol
_atom_site_label
_atom_site_fract_x
_atom_site_fract_y
_atom_site_fract_z
Si Si1 0.069148 0.781650 0.180847
Si Si2 0.223285 0.075958 0.117146
Si Si3 0.609865 0.474593 0.667529
Si Si4 0.432385 0.723091 0.878161
Si Si5 0.121093 0.573387 0.802163
O O1 0.176182 0.957568 0.313828
O O2 0.056780 0.639284 0.450089
O O3 0.060097 0.563990 0.960701
O O4 0.000000 0.000000 0.000000
O O5 0.331082 0.223151 0.315912
O O6 0.160698 0.294240 0.865913
O O7 0.211766 0.818606 0.945660
O O8 0.500000 0.500000 0.500000
O O9 0.627002 0.287123 0.482586
O O10 0.637908 0.342423 0.995272
O O11 0.500000 0.500000 0.000000
O O12 0.500000 0.000000 0.000000
#
# Coordination Sequence:
#
# PCOD8017459 Si02
#       5
#     2   2   2   2   2
#     4  10  24  45  70  98 133 172 216 270 329 396
#     4  10  26  42  67  97 137 170 222 270 325 387
#     4  10  23  42  65  92 129 174 216 265 320 378
#     4  10  22  39  60  88 118 161 214 260 309 371
#     4  10  25  41  67  98 134 169 218 269 329 387
#
# _framework density 26.527460000000001
#
# number of rings (size 3 to 8) (size 9 to 14) (size 15 to 20)
#    1.200    0.800    0.000    1.200    5.600    8.000 
#    3.600    0.000    0.000    0.000    0.000    0.000 
#    0.000    0.000    0.000    0.000    0.000    0.000 
#
# Total GULP energy -123913.554288 kJ/mol
# GULP energy per Si atom -12391.355429 kJ/mol
# Density = 2.646708 g / cm^3
# Si number density = 26.527460 Si / 1000 Ang^3
#
#
#
# Elastic Constant Matrix: (Units=GPa)
#
#
# Indices 1 2 3 4 5 6 
#
# 1 101.5205 17.2655 47.7327 -0.5461 -30.8700 41.1664
# 2 17.2655 123.9917 33.7787 16.5178 -28.9489 19.7684
# 3 47.7327 33.7787 161.2598 9.5574 -55.3285 30.5027
# 4 -0.5461 16.5178 9.5574 49.7951 2.0895 4.4789
# 5 -30.8700 -28.9489 -55.3285 2.0895 52.6030 -8.3478
# 6 41.1664 19.7684 30.5027 4.4789 -8.3478 48.3380
#
#
#
# Elastic Compliance Matrix: (Units=1/GPa)
#
#
# Indices 1 2 3 4 5 6 
#
# 1 0.018485 0.001994 0.000333 0.000421 0.009882 -0.015100
# 2 0.001994 0.010484 0.000802 -0.003465 0.007137 -0.004938
# 3 0.000333 0.000802 0.011030 -0.002378 0.011481 -0.005369
# 4 0.000421 -0.003465 -0.002378 0.021938 -0.005089 -0.000352
# 5 0.009882 0.007137 0.011481 -0.005089 0.039216 -0.011336
# 6 -0.015100 -0.004938 -0.005369 -0.000352 -0.011336 0.037030
#
#
# Mechanical properties :
#
#
# Convention : Reuss Voigt Hill
#
# Bulk Modulus (GPa) = 21.61844 64.92508 43.27176
# Shear Modulus (GPa) = 33.93382 49.34690 41.64036
#
# Velocity S-wave (km/s) = 3.58047 4.31771 3.96625
# Velocity P-wave (km/s) = 5.02594 7.02742 6.10920
#
# Compressibility (1/GPa) = 0.04625681
#
# Stress axis : x y z
#
# Youngs Moduli (GPa) = 54.09784 95.38097 90.65983
#
# Poissons Ratio (x) = -0.19019 -0.03016
# Poissons Ratio (y) = -0.10787 -0.07271
# Poissons Ratio (z) = -0.01800 -0.07649
#
# Static dielectric constant tensor:
#      x y z
#    x 4.641190 0.030690 0.064140 
#    y 0.030690 4.845670 0.914250 
#    z 0.064140 0.914250 3.716720 
# 
# 
# High freq. dielectric constant tensor:
#      x y z
#    x 2.072010 0.024330 -0.009750 
#    y 0.024330 2.088670 0.010080 
#    z -0.009750 0.010080 2.060080 
# 
# From -- ./inp_files/2513.got.cif
#   From: 2010.06.25/outbox.cif.g09.slc.cpg/sg2_2_cif.got.tgz:2513.got - 2010.06.27 13:26:56.
