data_PCOD8017932
_publ_section_title
;
Structure prediction by ZEFSAII (Michael W. Deem and Ramdas Pophale) SiO2 
 PCOD8017932
Probable space group: P -1
;
_chemical_formula_sum "Si O2"
_cell_formula_units_Z 14
_cell_length_a 15.240196
_cell_length_b 9.705430
_cell_length_c 16.410365
_cell_angle_alpha 145.224316
_cell_angle_beta 37.534702
_cell_angle_gamma 150.190590
_cell_volume 660.071351
_symmetry_space_group_name_H-M "P -1"
_symmetry_group_IT_number 2
_symmetry_cell_setting 'triclinic'
loop_
_space_group_symop_operation_xyz
x,y,z
-x,-y,-z
loop_
_atom_site_type_symbol
_atom_site_label
_atom_site_fract_x
_atom_site_fract_y
_atom_site_fract_z
Si Si1 0.146599 0.706993 0.100920
Si Si2 0.252632 0.830522 0.906123
Si Si3 0.209113 0.284584 0.074119
Si Si4 0.621554 0.036473 0.671517
Si Si5 0.207886 0.128475 0.403650
Si Si6 0.526695 0.811034 0.452359
Si Si7 0.207555 0.227043 0.867059
O O1 0.927492 0.506758 0.152901
O O2 0.224899 0.950935 0.233580
O O3 0.257280 0.888226 0.026532
O O4 0.187118 0.476317 0.976795
O O5 0.415080 0.823958 0.755175
O O6 0.270734 0.116942 0.997129
O O7 0.293069 0.612983 0.207941
O O8 0.288687 0.309190 0.938002
O O9 0.991041 0.108606 0.149326
O O10 0.730238 0.934546 0.588083
O O11 0.625791 0.999539 0.553616
O O12 0.332595 0.488447 0.463259
O O13 0.000000 0.000000 0.500000
O O14 0.657881 0.755335 0.286872
O O15 0.500000 0.000000 0.500000
#
# Coordination Sequence:
#
# PCOD8017932 Si02
#       7
#     2   2   2   2   2   2   2
#     4  10  22  43  69  98 131 180 229 288 333 413
#     4  10  22  39  69 102 136 170 233 283 345 405
#     4  10  22  39  72 100 136 176 224 287 344 414
#     4  12  25  44  69 100 141 186 226 285 348 413
#     4  12  28  46  71  98 143 188 232 281 353 408
#     4  12  29  45  70 103 145 181 233 290 341 413
#     4  10  22  44  68 100 136 178 228 280 345 404
#
# _framework density 21.209828000000002
#
# number of rings (size 3 to 8) (size 9 to 14) (size 15 to 20)
#    0.000    1.143    1.429    3.429    6.000    5.143 
#    0.000    0.000    0.000    0.000    0.000    0.000 
#    0.000    0.000    0.000    0.000    0.000    0.000 
#
# Total GULP energy -173640.058910 kJ/mol
# GULP energy per Si atom -12402.861351 kJ/mol
# Density = 2.116155 g / cm^3
# Si number density = 21.209828 Si / 1000 Ang^3
#
#
#
# Elastic Constant Matrix: (Units=GPa)
#
#
# Indices 1 2 3 4 5 6 
#
# 1 246.4763 93.7209 113.7507 8.7619 -29.5421 -43.9389
# 2 93.7209 113.9859 69.8165 5.0555 -8.4599 -17.6948
# 3 113.7507 69.8165 148.5163 -1.0747 -3.9476 -5.7365
# 4 8.7619 5.0555 -1.0747 40.2630 -2.5692 -2.9063
# 5 -29.5421 -8.4599 -3.9476 -2.5692 67.4587 7.7807
# 6 -43.9389 -17.6948 -5.7365 -2.9063 7.7807 42.9809
#
#
#
# Elastic Compliance Matrix: (Units=1/GPa)
#
#
# Indices 1 2 3 4 5 6 
#
# 1 0.009254 -0.003019 -0.005340 -0.001113 0.002515 0.006974
# 2 -0.003019 0.014285 -0.004330 -0.001101 -0.000075 0.002156
# 3 -0.005340 -0.004330 0.012631 0.001574 -0.001485 -0.005181
# 4 -0.001113 -0.001101 0.001574 0.025303 0.000400 0.000257
# 5 0.002515 -0.000075 -0.001485 0.000400 0.015903 -0.000510
# 6 0.006974 0.002156 -0.005181 0.000257 -0.000510 0.030701
#
#
# Mechanical properties :
#
#
# Convention : Reuss Voigt Hill
#
# Bulk Modulus (GPa) = 92.66447 118.17275 105.41861
# Shear Modulus (GPa) = 36.48205 45.58653 41.03429
#
# Velocity S-wave (km/s) = 4.15185 4.64110 4.40327
# Velocity P-wave (km/s) = 8.17117 9.19547 8.69841
#
# Compressibility (1/GPa) = 0.01079162
#
# Stress axis : x y z
#
# Youngs Moduli (GPa) = 108.06037 70.00175 79.17227
#
# Poissons Ratio (x) = 0.21135 0.42281
# Poissons Ratio (y) = 0.32626 0.34279
# Poissons Ratio (z) = 0.57708 0.30309
#
# Static dielectric constant tensor:
#      x y z
#    x 4.522190 0.466570 -0.038170 
#    y 0.466570 4.401740 -0.135660 
#    z -0.038170 -0.135660 3.824250 
# 
# 
# High freq. dielectric constant tensor:
#      x y z
#    x 1.847430 -0.004920 0.004990 
#    y -0.004920 1.842330 -0.000100 
#    z 0.004990 -0.000100 1.836750 
# 
# From -- ./inp_files/202566.got.cif
#   From: 2010.06.25/outbox.cif.g09.slc.cpg/sg2_102_cif.got.tgz:202566.got - 2010.06.27 13:26:56.
