data_PCOD8017859
_publ_section_title
;
Structure prediction by ZEFSAII (Michael W. Deem and Ramdas Pophale) SiO2 
 PCOD8017859
Probable space group: P -1
;
_chemical_formula_sum "Si O2"
_cell_formula_units_Z 16
_cell_length_a 10.168973
_cell_length_b 11.382229
_cell_length_c 13.909480
_cell_angle_alpha 144.233007
_cell_angle_beta 64.722137
_cell_angle_gamma 91.297444
_cell_volume 672.474805
_symmetry_space_group_name_H-M "P -1"
_symmetry_group_IT_number 2
_symmetry_cell_setting 'triclinic'
loop_
_space_group_symop_operation_xyz
x,y,z
-x,-y,-z
loop_
_atom_site_type_symbol
_atom_site_label
_atom_site_fract_x
_atom_site_fract_y
_atom_site_fract_z
Si Si1 0.823532 0.106470 0.393005
Si Si2 0.572283 0.851814 0.060066
Si Si3 0.166725 0.480241 0.393606
Si Si4 0.578009 0.434694 0.133872
Si Si5 0.390847 0.274548 0.829078
Si Si6 0.891223 0.348656 0.108420
Si Si7 0.638699 0.569209 0.508168
Si Si8 0.781361 0.815175 0.346709
O O1 0.900986 0.268835 0.480419
O O2 0.600556 0.304204 0.589201
O O3 0.882938 0.935277 0.359056
O O4 0.908218 0.923915 0.150280
O O5 0.675133 0.684154 0.012624
O O6 0.463075 0.146962 0.310193
O O7 0.726522 0.761936 0.871237
O O8 0.439627 0.789583 0.018303
O O9 0.300731 0.452774 0.415788
O O10 0.000000 0.500000 0.500000
O O11 0.607200 0.498461 0.059669
O O12 0.749830 0.339903 0.083057
O O13 0.259688 0.256064 0.789769
O O14 0.596647 0.011577 0.592993
O O15 0.823169 0.387306 0.265148
O O16 0.904986 0.568120 0.211917
O O17 0.500000 0.500000 0.500000
#
# Coordination Sequence:
#
# PCOD8017859 Si02
#       8
#     2   2   2   2   2   2   2   2
#     4  10  22  39  67  89 133 167 216 267 332 385
#     4  11  22  41  69  89 131 175 221 272 333 394
#     4  11  28  47  62  94 135 181 224 279 331 387
#     4   9  21  40  65 100 134 167 213 269 340 402
#     4   9  17  33  67  96 129 166 213 265 337 397
#     4  11  22  41  69  98 130 171 219 274 333 395
#     4  12  27  43  69  99 127 176 236 273 325 393
#     4   9  18  36  62 103 131 158 210 279 330 395
#
# _framework density 23.792714
#
# number of rings (size 3 to 8) (size 9 to 14) (size 15 to 20)
#    0.000    1.750    1.250    3.375    5.250    1.500 
#    0.000    0.000    0.000    6.750    0.000    0.000 
#    0.000    0.000    0.000    0.000    0.000    0.000 
#
# Total GULP energy -198337.516382 kJ/mol
# GULP energy per Si atom -12396.094774 kJ/mol
# Density = 2.373856 g / cm^3
# Si number density = 23.792714 Si / 1000 Ang^3
#
#
#
# Elastic Constant Matrix: (Units=GPa)
#
#
# Indices 1 2 3 4 5 6 
#
# 1 55.9882 36.6272 11.8063 -5.5184 4.1389 10.9341
# 2 36.6272 130.5226 37.9025 -11.9402 6.9369 22.9794
# 3 11.8063 37.9025 86.9073 -9.9461 3.2589 4.8442
# 4 -5.5184 -11.9402 -9.9461 47.3644 0.5984 13.8403
# 5 4.1389 6.9369 3.2589 0.5984 20.9411 -1.8603
# 6 10.9341 22.9794 4.8442 13.8403 -1.8603 33.3947
#
#
#
# Elastic Compliance Matrix: (Units=1/GPa)
#
#
# Indices 1 2 3 4 5 6 
#
# 1 0.022727 -0.004905 -0.000169 0.003021 -0.003414 -0.005484
# 2 -0.004905 0.012035 -0.003539 0.004113 -0.003299 -0.008050
# 3 -0.000169 -0.003539 0.013356 0.002001 -0.000959 -0.000330
# 4 0.003021 0.004113 0.002001 0.027594 -0.004463 -0.015795
# 5 -0.003414 -0.003299 -0.000959 -0.004463 0.050525 0.008191
# 6 -0.005484 -0.008050 -0.000330 -0.015795 0.008191 0.044330
#
#
# Mechanical properties :
#
#
# Convention : Reuss Voigt Hill
#
# Bulk Modulus (GPa) = 32.37124 49.56558 40.96841
# Shear Modulus (GPa) = 25.24110 32.81217 29.02664
#
# Velocity S-wave (km/s) = 3.26064 3.71763 3.49661
# Velocity P-wave (km/s) = 5.27359 6.26939 5.79293
#
# Compressibility (1/GPa) = 0.03089162
#
# Stress axis : x y z
#
# Youngs Moduli (GPa) = 44.00129 83.09350 74.87102
#
# Poissons Ratio (x) = 0.40760 0.01262
# Poissons Ratio (y) = 0.21584 0.26497
# Poissons Ratio (z) = 0.00742 0.29407
#
# Static dielectric constant tensor:
#      x y z
#    x 3.828540 0.236850 0.064630 
#    y 0.236850 4.678030 -0.011760 
#    z 0.064630 -0.011760 4.364140 
# 
# 
# High freq. dielectric constant tensor:
#      x y z
#    x 1.899770 0.022310 -0.000400 
#    y 0.022310 1.964900 -0.005310 
#    z -0.000400 -0.005310 1.942170 
# 
# From -- ./inp_files/519941.got.cif
#   From: 2010.06.25/outbox.cif.g09.slc.cpg/sg2_260_cif.got.tgz:519941.got - 2010.06.27 13:26:56.
