data_PCOD8017388
_publ_section_title
;
Structure prediction by ZEFSAII (Michael W. Deem and Ramdas Pophale) SiO2 
 PCOD8017388
Probable space group: P -1
;
_chemical_formula_sum "Si O2"
_cell_formula_units_Z 16
_cell_length_a 25.485347
_cell_length_b 9.226856
_cell_length_c 21.333542
_cell_angle_alpha 29.034786
_cell_angle_beta 161.206845
_cell_angle_gamma 150.379033
_cell_volume 756.086618
_symmetry_space_group_name_H-M "P -1"
_symmetry_group_IT_number 2
_symmetry_cell_setting 'triclinic'
loop_
_space_group_symop_operation_xyz
x,y,z
-x,-y,-z
loop_
_atom_site_type_symbol
_atom_site_label
_atom_site_fract_x
_atom_site_fract_y
_atom_site_fract_z
Si Si1 0.868747 0.666071 0.969590
Si Si2 0.089031 0.785106 0.602765
Si Si3 0.555579 0.691292 0.684135
Si Si4 0.073624 0.687251 0.951613
Si Si5 0.289108 0.319943 0.997875
Si Si6 0.544632 0.292269 0.076418
Si Si7 0.819648 0.068601 0.211503
Si Si8 0.759816 0.872960 0.471355
O O1 0.687512 0.697455 0.774837
O O2 0.915619 0.403412 0.164648
O O3 0.869492 0.545118 0.944519
O O4 0.000000 0.000000 0.000000
O O5 0.143268 0.937758 0.672188
O O6 0.213590 0.030233 0.606961
O O7 0.119037 0.443977 0.759981
O O8 0.894531 0.800563 0.364693
O O9 0.631181 0.647973 0.854532
O O10 0.385572 0.438462 0.571177
O O11 0.500000 0.000000 0.500000
O O12 0.931827 0.839747 0.707718
O O13 0.000000 0.500000 0.000000
O O14 0.236420 0.964778 0.049468
O O15 0.420701 0.521933 0.020452
O O16 0.697819 0.156408 0.325031
O O17 0.500000 0.500000 0.000000
O O18 0.381119 0.997624 0.997383
#
# Coordination Sequence:
#
# PCOD8017388 Si02
#       8
#     2   2   2   2   2   2   2   2
#     4  12  24  45  71  94 136 182 232 276 332 406
#     4  10  22  38  71  97 133 170 221 277 338 398
#     4  12  25  46  71  97 132 181 233 279 335 402
#     4  12  27  47  68  99 139 181 229 281 337 405
#     4  11  24  44  70 100 139 173 223 280 348 398
#     4  11  24  40  65  99 141 173 213 278 346 402
#     4  11  21  41  67 103 133 169 231 272 336 403
#     4  11  23  42  69  96 135 176 224 274 338 402
#
# _framework density 21.161598000000001
#
# number of rings (size 3 to 8) (size 9 to 14) (size 15 to 20)
#    0.000    0.750    3.750    3.750    1.750    3.000 
#    2.250    1.250    0.000    0.000    0.000    0.000 
#    0.000    0.000    0.000    0.000    0.000    0.000 
#
# Total GULP energy -198285.140702 kJ/mol
# GULP energy per Si atom -12392.821294 kJ/mol
# Density = 2.111343 g / cm^3
# Si number density = 21.161598 Si / 1000 Ang^3
#
#
#
# Elastic Constant Matrix: (Units=GPa)
#
#
# Indices 1 2 3 4 5 6 
#
# 1 135.9888 35.1378 40.8513 -16.5307 18.2395 2.3888
# 2 35.1378 100.4166 3.6938 -6.5424 3.4317 4.6726
# 3 40.8513 3.6938 88.2265 -21.9657 11.6649 -1.5807
# 4 -16.5307 -6.5424 -21.9657 36.8214 -1.2799 1.1688
# 5 18.2395 3.4317 11.6649 -1.2799 32.3088 -9.7695
# 6 2.3888 4.6726 -1.5807 1.1688 -9.7695 33.3801
#
#
#
# Elastic Compliance Matrix: (Units=1/GPa)
#
#
# Indices 1 2 3 4 5 6 
#
# 1 0.010055 -0.003030 -0.003514 0.001780 -0.004579 -0.001864
# 2 -0.003030 0.011141 0.001311 0.001435 -0.000320 -0.001425
# 3 -0.003514 0.001311 0.015269 0.007658 -0.003518 -0.000507
# 4 0.001780 0.001435 0.007658 0.032733 -0.003249 -0.002063
# 5 -0.004579 -0.000320 -0.003518 -0.003249 0.038188 0.011496
# 6 -0.001864 -0.001425 -0.000507 -0.002063 0.011496 0.033704
#
#
# Mechanical properties :
#
#
# Convention : Reuss Voigt Hill
#
# Bulk Modulus (GPa) = 38.46257 53.77753 46.12005
# Shear Modulus (GPa) = 31.20630 36.83200 34.01915
#
# Velocity S-wave (km/s) = 3.84430 4.17647 4.01382
# Velocity P-wave (km/s) = 6.15792 6.98034 6.58199
#
# Compressibility (1/GPa) = 0.02599930
#
# Stress axis : x y z
#
# Youngs Moduli (GPa) = 99.44948 89.75591 65.49084
#
# Poissons Ratio (x) = 0.27197 0.23013
# Poissons Ratio (y) = 0.30134 -0.08584
# Poissons Ratio (z) = 0.34946 -0.11764
#
# Static dielectric constant tensor:
#      x y z
#    x 8.778970 5.047160 8.238130 
#    y 5.047160 9.017020 8.204680 
#    z 8.238130 8.204680 17.742070 
# 
# 
# High freq. dielectric constant tensor:
#      x y z
#    x 1.843610 0.007320 0.017230 
#    y 0.007320 1.831170 -0.015300 
#    z 0.017230 -0.015300 1.833570 
# 
# From -- ./inp_files/357755.got.cif
#   From: 2010.06.25/outbox.cif.g09.slc.cpg/sg2_179_cif.got.tgz:357755.got - 2010.06.27 13:26:56.
