data_PCOD8017263
_publ_section_title
;
Structure prediction by ZEFSAII (Michael W. Deem and Ramdas Pophale) SiO2 
 PCOD8017263
Probable space group: P -1
;
_chemical_formula_sum "Si O2"
_cell_formula_units_Z 16
_cell_length_a 9.002139
_cell_length_b 16.543034
_cell_length_c 13.149936
_cell_angle_alpha 46.037113
_cell_angle_beta 145.772926
_cell_angle_gamma 134.980633
_cell_volume 748.919676
_symmetry_space_group_name_H-M "P -1"
_symmetry_group_IT_number 2
_symmetry_cell_setting 'triclinic'
loop_
_space_group_symop_operation_xyz
x,y,z
-x,-y,-z
loop_
_atom_site_type_symbol
_atom_site_label
_atom_site_fract_x
_atom_site_fract_y
_atom_site_fract_z
Si Si1 0.089336 0.172669 0.101085
Si Si2 0.310276 0.519669 0.231887
Si Si3 0.928425 0.873492 0.519719
Si Si4 0.827115 0.062517 0.613833
Si Si5 0.982136 0.303447 0.123444
Si Si6 0.701476 0.259101 0.680409
Si Si7 0.706043 0.270513 0.435337
Si Si8 0.120812 0.477370 0.376881
O O1 0.424935 0.223411 0.249541
O O2 0.984048 0.236478 0.077616
O O3 0.003507 0.028283 0.185088
O O4 0.935732 0.195942 0.891483
O O5 0.093617 0.461271 0.253394
O O6 0.624612 0.564254 0.407623
O O7 0.261286 0.417973 0.205580
O O8 0.266589 0.640299 0.062639
O O9 0.593295 0.813820 0.370584
O O10 0.093483 0.890005 0.494947
O O11 0.064556 0.793178 0.731319
O O12 0.000000 0.000000 0.500000
O O13 0.896721 0.183983 0.612465
O O14 0.500000 0.000000 0.500000
O O15 0.639614 0.274076 0.513757
O O16 0.827623 0.386293 0.691148
O O17 0.855624 0.399415 0.359125
#
# Coordination Sequence:
#
# PCOD8017263 Si02
#       8
#     2   2   2   2   2   2   2   2
#     4  11  23  45  66  96 133 176 226 270 328 404
#     4  10  22  38  64  96 134 172 221 275 327 394
#     4  12  22  43  73  95 132 179 215 276 339 388
#     4  10  23  44  66  93 132 173 217 274 329 390
#     4  11  20  40  64  97 132 171 221 274 326 392
#     4  12  25  43  70  98 134 176 227 270 329 401
#     4  11  24  44  66  95 138 178 217 281 332 381
#     4  11  22  42  65  93 137 178 220 275 332 391
#
# _framework density 21.364107000000001
#
# number of rings (size 3 to 8) (size 9 to 14) (size 15 to 20)
#    0.000    1.000    5.000    1.875    1.750    1.500 
#   11.250    0.000    0.000    0.000    0.000    0.000 
#    0.000    0.000    0.000    0.000    0.000    0.000 
#
# Total GULP energy -198260.307303 kJ/mol
# GULP energy per Si atom -12391.269206 kJ/mol
# Density = 2.131548 g / cm^3
# Si number density = 21.364107 Si / 1000 Ang^3
#
#
#
# Elastic Constant Matrix: (Units=GPa)
#
#
# Indices 1 2 3 4 5 6 
#
# 1 75.8587 19.2175 24.1499 1.1611 9.8081 16.2277
# 2 19.2175 101.2939 42.7111 -23.2033 11.1618 9.2555
# 3 24.1499 42.7111 135.5941 -23.9800 -11.2875 13.1110
# 4 1.1611 -23.2033 -23.9800 35.3479 -9.7120 4.8017
# 5 9.8081 11.1618 -11.2875 -9.7120 21.1158 -8.4836
# 6 16.2277 9.2555 13.1110 4.8017 -8.4836 39.4865
#
#
#
# Elastic Compliance Matrix: (Units=1/GPa)
#
#
# Indices 1 2 3 4 5 6 
#
# 1 0.019846 -0.000325 -0.005795 -0.009037 -0.020064 -0.009368
# 2 -0.000325 0.014017 -0.003830 0.004771 -0.008865 -0.004365
# 3 -0.005795 -0.003830 0.012838 0.010910 0.017149 0.001374
# 4 -0.009037 0.004771 0.010910 0.047156 0.028982 -0.000535
# 5 -0.020064 -0.008865 0.017149 0.028982 0.092269 0.020929
# 6 -0.009368 -0.004365 0.001374 -0.000535 0.020929 0.034303
#
#
# Mechanical properties :
#
#
# Convention : Reuss Voigt Hill
#
# Bulk Modulus (GPa) = 37.31040 53.87818 45.59429
# Shear Modulus (GPa) = 20.05916 34.30126 27.18021
#
# Velocity S-wave (km/s) = 3.06750 4.01129 3.57071
# Velocity P-wave (km/s) = 5.48161 6.83576 6.19579
#
# Compressibility (1/GPa) = 0.02680218
#
# Stress axis : x y z
#
# Youngs Moduli (GPa) = 50.38804 71.34009 77.89667
#
# Poissons Ratio (x) = 0.02318 0.45140
# Poissons Ratio (y) = 0.01637 0.29831
# Poissons Ratio (z) = 0.29199 0.27320
#
# Static dielectric constant tensor:
#      x y z
#    x 3.374420 -0.174410 -0.030210 
#    y -0.174410 4.012890 -0.306350 
#    z -0.030210 -0.306350 4.072510 
# 
# 
# High freq. dielectric constant tensor:
#      x y z
#    x 1.830260 -0.014440 0.001070 
#    y -0.014440 1.841690 -0.024140 
#    z 0.001070 -0.024140 1.843470 
# 
# From -- ./inp_files/402205.got.cif
#   From: 2010.06.25/outbox.cif.g09.slc.cpg/sg2_202_cif.got.tgz:402205.got - 2010.06.27 13:26:56.
