data_PCOD8017441
_publ_section_title
;
Structure prediction by ZEFSAII (Michael W. Deem and Ramdas Pophale) SiO2 
 PCOD8017441
Probable space group: P -1
;
_chemical_formula_sum "Si O2"
_cell_formula_units_Z 16
_cell_length_a 9.368662
_cell_length_b 19.412799
_cell_length_c 11.972063
_cell_angle_alpha 137.915459
_cell_angle_beta 46.596576
_cell_angle_gamma 101.003120
_cell_volume 800.880287
_symmetry_space_group_name_H-M "P -1"
_symmetry_group_IT_number 2
_symmetry_cell_setting 'triclinic'
loop_
_space_group_symop_operation_xyz
x,y,z
-x,-y,-z
loop_
_atom_site_type_symbol
_atom_site_label
_atom_site_fract_x
_atom_site_fract_y
_atom_site_fract_z
Si Si1 0.897019 0.616235 0.343728
Si Si2 0.217771 0.642723 0.336233
Si Si3 0.756365 0.280512 0.345908
Si Si4 0.246848 0.540354 0.851407
Si Si5 0.470015 0.857370 0.730770
Si Si6 0.964254 0.110642 0.412644
Si Si7 0.225180 0.047128 0.668318
Si Si8 0.097869 0.159621 0.630086
O O1 0.835888 0.516341 0.264716
O O2 0.635116 0.770566 0.647040
O O3 0.014475 0.619002 0.398698
O O4 0.107375 0.564352 0.071773
O O5 0.153096 0.707934 0.570479
O O6 0.188068 0.739419 0.372844
O O7 0.500000 0.500000 0.000000
O O8 0.556391 0.427889 0.570826
O O9 0.621855 0.216920 0.366799
O O10 0.007009 0.183892 0.017480
O O11 0.158625 0.681266 0.022374
O O12 0.649450 0.856657 0.546967
O O13 0.231093 0.009735 0.078710
O O14 0.037280 0.102006 0.492741
O O15 0.787428 0.070212 0.440254
O O16 0.162294 0.075973 0.606051
O O17 0.500000 0.000000 0.500000
#
# Coordination Sequence:
#
# PCOD8017441 Si02
#       8
#     2   2   2   2   2   2   2   2
#     4   9  17  32  56  95 119 143 187 256 297 351
#     4  12  22  34  62  95 122 149 195 255 305 345
#     4  10  22  39  59  91 125 155 197 250 299 359
#     4   9  17  36  60  88 119 148 199 240 303 347
#     4   9  20  36  63  92 114 152 205 248 300 341
#     4  11  23  40  62  91 118 155 205 255 291 349
#     4  11  28  42  56  85 127 170 199 235 303 361
#     4  11  21  39  65  88 120 160 198 246 292 361
#
# _framework density 19.978019
#
# number of rings (size 3 to 8) (size 9 to 14) (size 15 to 20)
#    0.000    1.750    3.750    1.500    3.500    1.500 
#    0.000    1.250    0.000    3.750    0.000    0.000 
#    0.000    0.000    0.000    0.000    0.000    0.000 
#
# Total GULP energy -198392.705795 kJ/mol
# GULP energy per Si atom -12399.544112 kJ/mol
# Density = 1.993255 g / cm^3
# Si number density = 19.978019 Si / 1000 Ang^3
#
#
#
# Elastic Constant Matrix: (Units=GPa)
#
#
# Indices 1 2 3 4 5 6 
#
# 1 152.8115 26.8482 45.2347 -3.3826 7.4441 -1.3153
# 2 26.8482 49.1416 36.4861 5.6790 0.1199 -3.4261
# 3 45.2347 36.4861 100.9640 9.1890 -7.8118 -0.4354
# 4 -3.3826 5.6790 9.1890 26.2379 -0.3794 -2.0115
# 5 7.4441 0.1199 -7.8118 -0.3794 30.7373 -3.8590
# 6 -1.3153 -3.4261 -0.4354 -2.0115 -3.8590 28.1177
#
#
#
# Elastic Compliance Matrix: (Units=1/GPa)
#
#
# Indices 1 2 3 4 5 6 
#
# 1 0.008105 -0.002327 -0.003245 0.002634 -0.002764 -0.000146
# 2 -0.002327 0.029087 -0.009293 -0.003146 -0.001593 0.002848
# 3 -0.003245 -0.009293 0.015415 -0.003791 0.004607 -0.000684
# 4 0.002634 -0.003146 -0.003791 0.040640 -0.000776 0.002482
# 5 -0.002764 -0.001593 0.004607 -0.000776 0.034934 0.004487
# 6 -0.000146 0.002848 -0.000684 0.002482 0.004487 0.036688
#
#
# Mechanical properties :
#
#
# Convention : Reuss Voigt Hill
#
# Bulk Modulus (GPa) = 43.71196 57.78390 50.74793
# Shear Modulus (GPa) = 24.72504 29.97513 27.35009
#
# Velocity S-wave (km/s) = 3.52179 3.87771 3.70403
# Velocity P-wave (km/s) = 6.20200 7.00253 6.61439
#
# Compressibility (1/GPa) = 0.02287703
#
# Stress axis : x y z
#
# Youngs Moduli (GPa) = 123.38090 34.37995 64.87096
#
# Poissons Ratio (x) = 0.08000 0.21048
# Poissons Ratio (y) = 0.28709 0.60288
# Poissons Ratio (z) = 0.40032 0.31951
#
# Static dielectric constant tensor:
#      x y z
#    x 3.918660 0.114840 -0.047460 
#    y 0.114840 3.350720 0.216930 
#    z -0.047460 0.216930 3.771220 
# 
# 
# High freq. dielectric constant tensor:
#      x y z
#    x 1.791050 0.007410 0.001970 
#    y 0.007410 1.745770 0.021780 
#    z 0.001970 0.021780 1.786550 
# 
# From -- ./inp_files/175135.got.cif
#   From: 2010.06.25/outbox.cif.g09.slc.cpg/sg2_88_cif.got.tgz:175135.got - 2010.06.27 13:26:56.
