data_PCOD8017357
_publ_section_title
;
Structure prediction by ZEFSAII (Michael W. Deem and Ramdas Pophale) SiO2 
 PCOD8017357
Probable space group: P -1
;
_chemical_formula_sum "Si O2"
_cell_formula_units_Z 16
_cell_length_a 14.856501
_cell_length_b 9.083760
_cell_length_c 20.426130
_cell_angle_alpha 38.337093
_cell_angle_beta 142.559641
_cell_angle_gamma 150.758788
_cell_volume 778.729514
_symmetry_space_group_name_H-M "P -1"
_symmetry_group_IT_number 2
_symmetry_cell_setting 'triclinic'
loop_
_space_group_symop_operation_xyz
x,y,z
-x,-y,-z
loop_
_atom_site_type_symbol
_atom_site_label
_atom_site_fract_x
_atom_site_fract_y
_atom_site_fract_z
Si Si1 0.940313 0.077385 0.188763
Si Si2 0.023492 0.427797 0.611950
Si Si3 0.871723 0.983327 0.324407
Si Si4 0.269827 0.226701 0.957346
Si Si5 0.287601 0.765519 0.179005
Si Si6 0.313718 0.649334 0.498998
Si Si7 0.684320 0.526311 0.582017
Si Si8 0.266251 0.744242 0.759829
O O1 0.132879 0.444516 0.160024
O O2 0.832797 0.035623 0.209798
O O3 0.788605 0.939990 0.089506
O O4 0.017102 0.892336 0.305643
O O5 0.868974 0.369124 0.594515
O O6 0.000000 0.500000 0.500000
O O7 0.228747 0.707934 0.671235
O O8 0.718793 0.609401 0.381280
O O9 0.847026 0.170095 0.296689
O O10 0.097671 0.119408 0.412933
O O11 0.182426 0.398787 0.858566
O O12 0.500000 0.500000 0.000000
O O13 0.209143 0.957065 0.068474
O O14 0.308151 0.692175 0.289850
O O15 0.499345 0.976526 0.191124
O O16 0.352035 0.599387 0.466964
O O17 0.500000 0.000000 0.500000
O O18 0.500000 0.500000 0.500000
#
# Coordination Sequence:
#
# PCOD8017357 Si02
#       8
#     2   2   2   2   2   2   2   2
#     4  10  22  39  66  89 126 161 208 259 317 369
#     4  11  23  40  59  89 128 172 205 256 316 370
#     4  11  23  43  60  94 127 168 208 261 316 369
#     4   9  20  42  66  91 119 164 210 255 316 377
#     4  10  22  38  68  91 121 163 214 254 317 370
#     4  12  27  36  59  92 132 164 216 254 308 379
#     4  11  25  41  64  92 128 172 209 253 314 378
#     4  10  22  40  67  87 126 166 212 262 313 372
#
# _framework density 20.546285999999998
#
# number of rings (size 3 to 8) (size 9 to 14) (size 15 to 20)
#    0.000    1.500    2.500    1.500    8.750    1.000 
#    0.000    5.000    2.750    0.000    0.000    0.000 
#    0.000    0.000    0.000    0.000    0.000    0.000 
#
# Total GULP energy -198255.038722 kJ/mol
# GULP energy per Si atom -12390.939920 kJ/mol
# Density = 2.049952 g / cm^3
# Si number density = 20.546286 Si / 1000 Ang^3
#
#
#
# Elastic Constant Matrix: (Units=GPa)
#
#
# Indices 1 2 3 4 5 6 
#
# 1 99.9430 42.6290 31.4408 -2.6790 -4.2655 -1.7146
# 2 42.6290 157.5757 58.8615 -4.7566 -5.4588 -1.4883
# 3 31.4408 58.8615 126.4342 -13.6253 -5.1771 1.4106
# 4 -2.6790 -4.7566 -13.6253 37.9686 -5.5939 1.8223
# 5 -4.2655 -5.4588 -5.1771 -5.5939 25.8692 1.7243
# 6 -1.7146 -1.4883 1.4106 1.8223 1.7243 19.9364
#
#
#
# Elastic Compliance Matrix: (Units=1/GPa)
#
#
# Indices 1 2 3 4 5 6 
#
# 1 0.011657 -0.002469 -0.001717 0.000003 0.001001 0.000853
# 2 -0.002469 0.008240 -0.003231 -0.000243 0.000592 0.000602
# 3 -0.001717 -0.003231 0.010321 0.003547 0.001975 -0.001614
# 4 0.000003 -0.000243 0.003547 0.028798 0.007121 -0.003517
# 5 0.001001 0.000592 0.001975 0.007121 0.041162 -0.004220
# 6 0.000853 0.000602 -0.001614 -0.003517 -0.004220 0.051078
#
#
# Mechanical properties :
#
#
# Convention : Reuss Voigt Hill
#
# Bulk Modulus (GPa) = 65.00449 72.20173 68.60311
# Shear Modulus (GPa) = 29.20241 33.48962 31.34602
#
# Velocity S-wave (km/s) = 3.77410 4.04166 3.91017
# Velocity P-wave (km/s) = 7.12029 7.54965 7.33811
#
# Compressibility (1/GPa) = 0.01538355
#
# Stress axis : x y z
#
# Youngs Moduli (GPa) = 85.78851 121.36203 96.88575
#
# Poissons Ratio (x) = 0.29966 0.16638
# Poissons Ratio (y) = 0.21182 0.31301
# Poissons Ratio (z) = 0.14733 0.39208
#
# Static dielectric constant tensor:
#      x y z
#    x 3.691880 -0.267800 0.026410 
#    y -0.267800 4.403630 0.031060 
#    z 0.026410 0.031060 4.347490 
# 
# 
# High freq. dielectric constant tensor:
#      x y z
#    x 1.781620 -0.014920 0.001470 
#    y -0.014920 1.820430 -0.003600 
#    z 0.001470 -0.003600 1.809040 
# 
# From -- ./inp_files/201896.got.cif
#   From: 2010.06.25/outbox.cif.g09.slc.cpg/sg2_101_cif.got.tgz:201896.got - 2010.06.27 13:26:56.
