data_PCOD8017970
_publ_section_title
;
Structure prediction by ZEFSAII (Michael W. Deem and Ramdas Pophale) SiO2 
 PCOD8017970
Probable space group: P -1
;
_chemical_formula_sum "Si O2"
_cell_formula_units_Z 14
_cell_length_a 14.150974
_cell_length_b 11.890570
_cell_length_c 7.417665
_cell_angle_alpha 118.687966
_cell_angle_beta 122.133011
_cell_angle_gamma 31.665616
_cell_volume 553.795486
_symmetry_space_group_name_H-M "P -1"
_symmetry_group_IT_number 2
_symmetry_cell_setting 'triclinic'
loop_
_space_group_symop_operation_xyz
x,y,z
-x,-y,-z
loop_
_atom_site_type_symbol
_atom_site_label
_atom_site_fract_x
_atom_site_fract_y
_atom_site_fract_z
Si Si1 0.171993 0.748648 0.017075
Si Si2 0.209999 0.535533 0.547187
Si Si3 0.207214 0.100633 0.660023
Si Si4 0.345601 0.193607 0.654850
Si Si5 0.245282 0.223440 0.144213
Si Si6 0.148880 0.520462 0.012027
Si Si7 0.554652 0.343585 0.571854
O O1 0.207785 0.626395 0.789675
O O2 0.140919 0.683049 0.110254
O O3 0.347017 0.681452 0.175344
O O4 0.000000 0.000000 0.000000
O O5 0.255215 0.343847 0.499284
O O6 0.371568 0.435313 0.506020
O O7 0.010435 0.726230 0.394111
O O8 0.246005 0.148947 0.556080
O O9 0.304899 0.875579 0.564031
O O10 0.286979 0.103450 0.913906
O O11 0.301783 0.329584 0.878935
O O12 0.572066 0.969320 0.691107
O O13 0.056004 0.347518 0.142083
O O14 0.215550 0.401636 0.185624
O O15 0.500000 0.500000 0.500000
#
# Coordination Sequence:
#
# PCOD8017970 Si02
#       7
#     2   2   2   2   2   2   2
#     4  11  24  47  69  93 136 179 221 268 327 394
#     4  11  26  46  68  97 135 175 219 275 336 384
#     4  11  24  43  65 102 136 168 222 275 332 389
#     4  10  23  41  71  98 132 171 222 277 329 393
#     4  10  22  39  71 100 131 174 218 273 334 388
#     4   9  21  39  67  96 133 171 219 265 332 385
#     4  12  30  44  68  98 135 178 224 271 323 398
#
# _framework density 25.280092
#
# number of rings (size 3 to 8) (size 9 to 14) (size 15 to 20)
#    0.000    1.429    1.429    2.571   10.000    4.571 
#    0.000    0.000    0.000    0.000    0.000    0.000 
#    0.000    0.000    0.000    0.000    0.000    0.000 
#
# Total GULP energy -173657.851567 kJ/mol
# GULP energy per Si atom -12404.132255 kJ/mol
# Density = 2.522255 g / cm^3
# Si number density = 25.280092 Si / 1000 Ang^3
#
#
#
# Elastic Constant Matrix: (Units=GPa)
#
#
# Indices 1 2 3 4 5 6 
#
# 1 109.6748 70.9747 29.4150 -12.7887 20.1621 8.0538
# 2 70.9747 209.3853 57.3234 -4.7467 9.8228 8.3862
# 3 29.4150 57.3234 110.9491 -19.1873 18.1229 8.2124
# 4 -12.7887 -4.7467 -19.1873 54.7182 2.7523 7.0267
# 5 20.1621 9.8228 18.1229 2.7523 45.1687 -6.3684
# 6 8.0538 8.3862 8.2124 7.0267 -6.3684 51.7822
#
#
#
# Elastic Compliance Matrix: (Units=1/GPa)
#
#
# Indices 1 2 3 4 5 6 
#
# 1 0.013402 -0.004184 0.000365 0.003531 -0.005809 -0.002658
# 2 -0.004184 0.006892 -0.003047 -0.001594 0.001752 0.000449
# 3 0.000365 -0.003047 0.012365 0.004776 -0.005148 -0.002806
# 4 0.003531 -0.001594 0.004776 0.021483 -0.005102 -0.004591
# 5 -0.005809 0.001752 -0.005148 -0.005102 0.027505 0.005511
# 6 -0.002658 0.000449 -0.002806 -0.004591 0.005511 0.021398
#
#
# Mechanical properties :
#
#
# Convention : Reuss Voigt Hill
#
# Bulk Modulus (GPa) = 52.83291 82.82616 67.82953
# Shear Modulus (GPa) = 40.62201 48.48690 44.55445
#
# Velocity S-wave (km/s) = 4.01294 4.38423 4.20269
# Velocity P-wave (km/s) = 6.51275 7.64612 7.10208
#
# Compressibility (1/GPa) = 0.01892760
#
# Stress axis : x y z
#
# Youngs Moduli (GPa) = 74.61392 145.10022 80.87297
#
# Poissons Ratio (x) = 0.60706 -0.02948
# Poissons Ratio (y) = 0.31216 0.24639
# Poissons Ratio (z) = -0.02720 0.44206
#
# Static dielectric constant tensor:
#      x y z
#    x 4.970510 0.107090 -0.025310 
#    y 0.107090 4.851850 -0.027430 
#    z -0.025310 -0.027430 4.489160 
# 
# 
# High freq. dielectric constant tensor:
#      x y z
#    x 2.006010 -0.004610 -0.006440 
#    y -0.004610 2.036840 0.013560 
#    z -0.006440 0.013560 2.038320 
# 
# From -- ./inp_files/178469.got.cif
#   From: 2010.06.25/outbox.cif.g09.slc.cpg/sg2_90_cif.got.tgz:178469.got - 2010.06.27 13:26:56.
