data_PCOD8017757
_publ_section_title
;
Structure prediction by ZEFSAII (Michael W. Deem and Ramdas Pophale) SiO2 
 PCOD8017757
Probable space group: P -1
;
_chemical_formula_sum "Si O2"
_cell_formula_units_Z 16
_cell_length_a 8.748070
_cell_length_b 15.095348
_cell_length_c 14.673654
_cell_angle_alpha 29.102550
_cell_angle_beta 69.744018
_cell_angle_gamma 87.562322
_cell_volume 726.633408
_symmetry_space_group_name_H-M "P -1"
_symmetry_group_IT_number 2
_symmetry_cell_setting 'triclinic'
loop_
_space_group_symop_operation_xyz
x,y,z
-x,-y,-z
loop_
_atom_site_type_symbol
_atom_site_label
_atom_site_fract_x
_atom_site_fract_y
_atom_site_fract_z
Si Si1 0.695189 0.241335 0.137172
Si Si2 0.833593 0.142964 0.857643
Si Si3 0.081332 0.024402 0.180774
Si Si4 0.255879 0.014402 0.489119
Si Si5 0.389987 0.497836 0.663527
Si Si6 0.274421 0.536248 0.456731
Si Si7 0.032382 0.234704 0.386864
Si Si8 0.306463 0.050072 0.744908
O O1 0.774761 0.138301 0.281989
O O2 0.485108 0.184453 0.263857
O O3 0.673091 0.136417 0.136051
O O4 0.850342 0.503016 0.863290
O O5 0.808793 0.986692 0.920499
O O6 0.707156 0.241223 0.773443
O O7 0.063768 0.326737 0.657972
O O8 0.744396 0.990969 0.101181
O O9 0.079173 0.876647 0.395033
O O10 0.857299 0.938735 0.284378
O O11 0.214558 0.284771 0.946780
O O12 0.134524 0.849303 0.579738
O O13 0.180630 0.166325 0.393199
O O14 0.293977 0.531310 0.565315
O O15 0.560796 0.465791 0.630606
O O16 0.483710 0.709436 0.521312
#
# Coordination Sequence:
#
# PCOD8017757 Si02
#       8
#     2   2   2   2   2   2   2   2
#     4  11  25  46  76 104 139 176 229 282 347 411
#     4  11  23  41  67  96 140 183 230 276 341 397
#     4  12  25  43  66 102 140 182 228 281 341 402
#     4  10  24  50  72 108 134 176 224 290 350 408
#     4  11  24  42  64  92 138 182 232 282 334 393
#     4  10  22  39  65  92 128 189 234 282 327 396
#     4  11  25  46  76 104 139 176 229 282 347 411
#     4  12  25  43  66 102 140 182 228 281 341 402
#
# _framework density 22.019358
#
# number of rings (size 3 to 8) (size 9 to 14) (size 15 to 20)
#    0.000    1.000    3.750    2.625    3.500    6.000 
#    9.000    0.000    0.000    0.000    0.000    0.000 
#    0.000    0.000    0.000    0.000    0.000    0.000 
#
# Total GULP energy -198500.531524 kJ/mol
# GULP energy per Si atom -12406.283220 kJ/mol
# Density = 2.196924 g / cm^3
# Si number density = 22.019358 Si / 1000 Ang^3
#
#
#
# Elastic Constant Matrix: (Units=GPa)
#
#
# Indices 1 2 3 4 5 6 
#
# 1 73.7641 11.0423 12.1099 -3.5951 10.8665 10.7533
# 2 11.0423 110.6602 45.5479 -7.9670 4.6543 12.3409
# 3 12.1099 45.5479 128.9498 -19.0174 2.9185 24.4198
# 4 -3.5951 -7.9670 -19.0174 43.5588 1.6134 1.9076
# 5 10.8665 4.6543 2.9185 1.6134 15.6619 -3.1583
# 6 10.7533 12.3409 24.4198 1.9076 -3.1583 16.4056
#
#
#
# Elastic Compliance Matrix: (Units=1/GPa)
#
#
# Indices 1 2 3 4 5 6 
#
# 1 0.019211 0.000287 0.003422 0.004805 -0.019007 -0.022120
# 2 0.000287 0.010954 -0.002542 0.001321 -0.004249 -0.005617
# 3 0.003422 -0.002542 0.014276 0.007487 -0.009965 -0.024370
# 4 0.004805 0.001321 0.007487 0.028235 -0.012250 -0.020928
# 5 -0.019007 -0.004249 -0.009965 -0.012250 0.091402 0.049509
# 6 -0.022120 -0.005617 -0.024370 -0.020928 0.049509 0.127918
#
#
# Mechanical properties :
#
#
# Convention : Reuss Voigt Hill
#
# Bulk Modulus (GPa) = 21.37856 50.08602 35.73229
# Shear Modulus (GPa) = 16.37984 31.43688 23.90836
#
# Velocity S-wave (km/s) = 2.73038 3.78258 3.29870
# Velocity P-wave (km/s) = 4.43509 6.47093 5.54721
#
# Compressibility (1/GPa) = 0.04677584
#
# Stress axis : x y z
#
# Youngs Moduli (GPa) = 52.05410 91.28754 70.04705
#
# Poissons Ratio (x) = -0.02616 -0.23973
# Poissons Ratio (y) = -0.01492 0.17803
# Poissons Ratio (z) = -0.17815 0.23202
#
# Static dielectric constant tensor:
#      x y z
#    x 4.150560 0.108550 0.000700 
#    y 0.108550 4.042270 -0.163990 
#    z 0.000700 -0.163990 4.023180 
# 
# 
# High freq. dielectric constant tensor:
#      x y z
#    x 1.877110 0.004140 -0.002910 
#    y 0.004140 1.862520 -0.010680 
#    z -0.002910 -0.010680 1.873610 
# 
# From -- ./inp_files/504958.got.cif
#   From: 2010.06.25/outbox.cif.g09.slc.cpg/sg2_253_cif.got.tgz:504958.got - 2010.06.27 13:26:56.
