data_PCOD8017466
_publ_section_title
;
Structure prediction by ZEFSAII (Michael W. Deem and Ramdas Pophale) SiO2 
 PCOD8017466
Probable space group: P -1
;
_chemical_formula_sum "Si O2"
_cell_formula_units_Z 16
_cell_length_a 14.639062
_cell_length_b 5.927577
_cell_length_c 11.475106
_cell_angle_alpha 82.531469
_cell_angle_beta 114.645266
_cell_angle_gamma 64.085174
_cell_volume 752.323655
_symmetry_space_group_name_H-M "P -1"
_symmetry_group_IT_number 2
_symmetry_cell_setting 'triclinic'
loop_
_space_group_symop_operation_xyz
x,y,z
-x,-y,-z
loop_
_atom_site_type_symbol
_atom_site_label
_atom_site_fract_x
_atom_site_fract_y
_atom_site_fract_z
Si Si1 0.585987 0.600153 0.512933
Si Si2 0.620115 0.609745 0.168878
Si Si3 0.761548 0.041615 0.575160
Si Si4 0.359120 0.046119 0.039027
Si Si5 0.208068 0.969705 0.793816
Si Si6 0.358564 0.118881 0.295556
Si Si7 0.968349 0.081591 0.610880
Si Si8 0.212158 0.322235 0.584566
O O1 0.500000 0.500000 0.500000
O O2 0.652738 0.625396 0.660582
O O3 0.501648 0.890329 0.387680
O O4 0.688390 0.370068 0.498632
O O5 0.686216 0.644717 0.309453
O O6 0.481904 0.746482 0.124002
O O7 0.682570 0.292357 0.195880
O O8 0.625940 0.750992 0.045589
O O9 0.727310 0.967284 0.685167
O O10 0.724096 0.908311 0.465268
O O11 0.900231 0.947766 0.640409
O O12 0.319722 0.181898 0.136381
O O13 0.253547 0.015232 0.936683
O O14 0.159681 0.227008 0.664767
O O15 0.092863 0.951871 0.757710
O O16 0.891767 0.407298 0.552423
O O17 0.000000 0.000000 0.500000
#
# Coordination Sequence:
#
# PCOD8017466 Si02
#       8
#     2   2   2   2   2   2   2   2
#     4   9  21  38  60  92 122 163 204 256 308 366
#     4  10  22  40  60  94 125 163 205 254 315 372
#     4  11  23  37  60  94 126 160 202 263 316 368
#     4  10  24  39  62  88 130 169 207 249 302 385
#     4  11  23  41  62  91 127 166 209 256 316 371
#     4  10  22  39  60  89 127 165 210 252 308 370
#     4  12  23  39  64  95 124 160 208 268 315 366
#     4  11  22  37  65  94 126 154 206 265 322 369
#
# _framework density 21.267441999999999
#
# number of rings (size 3 to 8) (size 9 to 14) (size 15 to 20)
#    0.000    1.500    2.500    1.500    8.750    2.000 
#    0.000    0.625    0.000    3.750    0.000    0.000 
#    0.000    0.000    0.000    0.000    0.000    0.000 
#
# Total GULP energy -198342.832672 kJ/mol
# GULP energy per Si atom -12396.427042 kJ/mol
# Density = 2.121904 g / cm^3
# Si number density = 21.267442 Si / 1000 Ang^3
#
#
#
# Elastic Constant Matrix: (Units=GPa)
#
#
# Indices 1 2 3 4 5 6 
#
# 1 115.3038 12.9533 38.8824 12.8471 8.5307 -4.1294
# 2 12.9533 114.2089 40.0984 23.2332 -1.2179 -3.5417
# 3 38.8824 40.0984 101.0908 27.7993 7.3466 -4.7494
# 4 12.8471 23.2332 27.7993 37.8267 -0.3250 0.1748
# 5 8.5307 -1.2179 7.3466 -0.3250 27.1941 2.8158
# 6 -4.1294 -3.5417 -4.7494 0.1748 2.8158 25.3359
#
#
#
# Elastic Compliance Matrix: (Units=1/GPa)
#
#
# Indices 1 2 3 4 5 6 
#
# 1 0.010162 0.000314 -0.003496 -0.001102 -0.002379 0.001317
# 2 0.000314 0.010781 -0.003246 -0.004337 0.001121 0.000855
# 3 -0.003496 -0.003246 0.015059 -0.007926 -0.003443 0.002237
# 4 -0.001102 -0.004337 -0.007926 0.035339 0.003010 -0.002850
# 5 -0.002379 0.001121 -0.003443 0.003010 0.039078 -0.005240
# 6 0.001317 0.000855 0.002237 -0.002850 -0.005240 0.040825
#
#
# Mechanical properties :
#
#
# Convention : Reuss Voigt Hill
#
# Bulk Modulus (GPa) = 43.20006 57.16350 50.18178
# Shear Modulus (GPa) = 29.10134 33.98263 31.54198
#
# Velocity S-wave (km/s) = 3.70314 4.00167 3.85530
# Velocity P-wave (km/s) = 6.21620 6.94895 6.59277
#
# Compressibility (1/GPa) = 0.02314812
#
# Stress axis : x y z
#
# Youngs Moduli (GPa) = 98.40443 92.75970 66.40547
#
# Poissons Ratio (x) = -0.02916 0.23212
# Poissons Ratio (y) = -0.03094 0.21553
# Poissons Ratio (z) = 0.34397 0.30106
#
# Static dielectric constant tensor:
#      x y z
#    x 3.956020 -0.141120 0.247320 
#    y -0.141120 4.275840 -0.062420 
#    z 0.247320 -0.062420 3.776530 
# 
# 
# High freq. dielectric constant tensor:
#      x y z
#    x 1.833170 0.006060 0.009200 
#    y 0.006060 1.843060 0.012560 
#    z 0.009200 0.012560 1.805270 
# 
# From -- ./inp_files/84974.got.cif
#   From: 2010.06.25/outbox.cif.g09.slc.cpg/sg2_43_cif.got.tgz:84974.got - 2010.06.27 13:26:56.
