data_PCOD8017590
_publ_section_title
;
Structure prediction by ZEFSAII (Michael W. Deem and Ramdas Pophale) SiO2 
 PCOD8017590
Probable space group: P -1
;
_chemical_formula_sum "Si O2"
_cell_formula_units_Z 16
_cell_length_a 5.188458
_cell_length_b 16.503014
_cell_length_c 11.638069
_cell_angle_alpha 124.016256
_cell_angle_beta 66.100338
_cell_angle_gamma 120.957960
_cell_volume 698.599826
_symmetry_space_group_name_H-M "P -1"
_symmetry_group_IT_number 2
_symmetry_cell_setting 'triclinic'
loop_
_space_group_symop_operation_xyz
x,y,z
-x,-y,-z
loop_
_atom_site_type_symbol
_atom_site_label
_atom_site_fract_x
_atom_site_fract_y
_atom_site_fract_z
Si Si1 0.404352 0.501735 0.834628
Si Si2 0.559024 0.853571 0.301317
Si Si3 0.231470 0.442366 0.414278
Si Si4 0.293805 0.613692 0.158769
Si Si5 0.439437 0.050915 0.394510
Si Si6 0.409651 0.125541 0.100824
Si Si7 0.847432 0.061989 0.851477
Si Si8 0.098875 0.795832 0.725997
O O1 0.628740 0.560448 0.738257
O O2 0.510653 0.411247 0.795194
O O3 0.061789 0.453069 0.810165
O O4 0.420937 0.588482 0.995926
O O5 0.320211 0.734286 0.252325
O O6 0.673464 0.889103 0.439711
O O7 0.820856 0.851691 0.164889
O O8 0.417938 0.936229 0.349537
O O9 0.500000 0.500000 0.500000
O O10 0.027762 0.322930 0.393371
O O11 0.000000 0.500000 0.500000
O O12 0.771619 0.126746 0.345793
O O13 0.209625 0.024607 0.308289
O O14 0.193175 0.186217 0.154208
O O15 0.645944 0.185590 0.207395
O O16 0.191166 0.004041 0.075874
O O17 0.604575 0.119709 0.947919
#
# Coordination Sequence:
#
# PCOD8017590 Si02
#       8
#     2   2   2   2   2   2   2   2
#     4  10  24  48  68 101 135 167 241 278 340 392
#     4  11  23  41  66  99 130 186 219 272 332 405
#     4  12  27  45  72 102 134 179 226 284 347 409
#     4  10  24  45  74  97 132 183 218 296 328 392
#     4  10  24  40  63  97 144 167 230 260 336 409
#     4  10  23  40  69  92 136 173 219 270 333 392
#     4  10  22  39  62  95 136 175 219 271 323 401
#     4  11  24  46  65 101 130 180 216 282 333 404
#
# _framework density 22.902956
#
# number of rings (size 3 to 8) (size 9 to 14) (size 15 to 20)
#    0.000    1.500    1.250    1.875    8.750    1.500 
#    2.250    0.000    0.000    0.000    0.000    0.000 
#    0.000    0.000    0.000    0.000    0.000    0.000 
#
# Total GULP energy -198362.850898 kJ/mol
# GULP energy per Si atom -12397.678181 kJ/mol
# Density = 2.285083 g / cm^3
# Si number density = 22.902956 Si / 1000 Ang^3
#
#
#
# Elastic Constant Matrix: (Units=GPa)
#
#
# Indices 1 2 3 4 5 6 
#
# 1 89.7543 12.0664 9.2345 -0.0009 -12.6922 0.5507
# 2 12.0664 88.6483 28.0514 18.9696 -2.8377 -7.9088
# 3 9.2345 28.0514 75.5078 -3.8681 -9.3948 -3.4302
# 4 -0.0009 18.9696 -3.8681 42.5710 1.9322 -6.8217
# 5 -12.6922 -2.8377 -9.3948 1.9322 38.9130 1.0558
# 6 0.5507 -7.9088 -3.4302 -6.8217 1.0558 22.1529
#
#
#
# Elastic Compliance Matrix: (Units=1/GPa)
#
#
# Indices 1 2 3 4 5 6 
#
# 1 0.011919 -0.001510 -0.000469 0.000305 0.003676 -0.000989
# 2 -0.001510 0.014921 -0.005656 -0.006750 -0.000501 0.002434
# 3 -0.000469 -0.005656 0.016066 0.004097 0.003067 0.001595
# 4 0.000305 -0.006750 0.004097 0.028019 -0.000982 0.006892
# 5 0.003676 -0.000501 0.003067 -0.000982 0.027688 -0.001417
# 6 -0.000989 0.002434 0.001595 0.006892 -0.001417 0.048471
#
#
# Mechanical properties :
#
#
# Convention : Reuss Voigt Hill
#
# Bulk Modulus (GPa) = 36.18373 39.17945 37.68159
# Shear Modulus (GPa) = 29.14317 34.36462 31.75389
#
# Velocity S-wave (km/s) = 3.57103 3.87776 3.72755
# Velocity P-wave (km/s) = 5.73027 6.09862 5.91732
#
# Compressibility (1/GPa) = 0.02763673
#
# Stress axis : x y z
#
# Youngs Moduli (GPa) = 83.90242 67.01762 62.24241
#
# Poissons Ratio (x) = 0.10119 0.02917
# Poissons Ratio (y) = 0.12668 0.35206
# Poissons Ratio (z) = 0.03932 0.37907
#
# Static dielectric constant tensor:
#      x y z
#    x 3.901100 0.081350 -0.036520 
#    y 0.081350 4.090550 -0.179480 
#    z -0.036520 -0.179480 4.409450 
# 
# 
# High freq. dielectric constant tensor:
#      x y z
#    x 1.897170 0.009860 -0.003300 
#    y 0.009860 1.896310 -0.008270 
#    z -0.003300 -0.008270 1.914500 
# 
# From -- ./inp_files/85387.got.cif
#   From: 2010.06.25/outbox.cif.g09.slc.cpg/sg2_43_cif.got.tgz:85387.got - 2010.06.27 13:26:56.
