data_PCOD8017826
_publ_section_title
;
Structure prediction by ZEFSAII (Michael W. Deem and Ramdas Pophale) SiO2 
 PCOD8017826
Probable space group: P -1
;
_chemical_formula_sum "Si O2"
_cell_formula_units_Z 16
_cell_length_a 12.461092
_cell_length_b 12.106189
_cell_length_c 12.339833
_cell_angle_alpha 128.734068
_cell_angle_beta 56.526666
_cell_angle_gamma 80.446662
_cell_volume 749.691880
_symmetry_space_group_name_H-M "P -1"
_symmetry_group_IT_number 2
_symmetry_cell_setting 'triclinic'
loop_
_space_group_symop_operation_xyz
x,y,z
-x,-y,-z
loop_
_atom_site_type_symbol
_atom_site_label
_atom_site_fract_x
_atom_site_fract_y
_atom_site_fract_z
Si Si1 0.137596 0.653470 0.191854
Si Si2 0.739468 0.150275 0.685715
Si Si3 0.884282 0.901369 0.072209
Si Si4 0.095214 0.423219 0.227448
Si Si5 0.273414 0.757293 0.813277
Si Si6 0.555363 0.291547 0.647690
Si Si7 0.691058 0.749007 0.782991
Si Si8 0.525000 0.342303 0.148401
O O1 0.185163 0.752111 0.298242
O O2 0.130964 0.520273 0.185946
O O3 0.305957 0.481463 0.895217
O O4 0.918779 0.879301 0.396174
O O5 0.580261 0.270291 0.750229
O O6 0.633055 0.203849 0.891474
O O7 0.792188 0.057613 0.113938
O O8 0.704691 0.052633 0.357707
O O9 0.932038 0.697549 0.897241
O O10 0.095998 0.790306 0.929040
O O11 0.285503 0.248333 0.099096
O O12 0.890106 0.634613 0.539534
O O13 0.500000 0.500000 0.500000
O O14 0.293308 0.802681 0.951408
O O15 0.605598 0.399774 0.631760
O O16 0.650341 0.619539 0.698699
O O17 0.500000 0.000000 0.000000
#
# Coordination Sequence:
#
# PCOD8017826 Si02
#       8
#     2   2   2   2   2   2   2   2
#     4  10  22  40  62  89 123 166 211 266 318 368
#     4  10  22  39  66  94 120 164 220 274 313 362
#     4  11  26  40  64  96 132 175 207 261 320 389
#     4  11  24  42  62  94 135 168 211 258 327 391
#     4  11  23  43  63  94 130 167 218 258 316 382
#     4  11  23  40  63  95 125 164 220 262 315 374
#     4  11  23  40  65  96 128 166 211 269 326 378
#     4  11  21  41  70  94 125 165 215 276 316 369
#
# _framework density 21.342103000000002
#
# number of rings (size 3 to 8) (size 9 to 14) (size 15 to 20)
#    0.000    1.250    1.250    5.250    7.000    1.500 
#    0.000    0.625    0.000    0.000    0.000    0.000 
#    0.000    0.000    0.000    0.000    0.000    0.000 
#
# Total GULP energy -198396.917581 kJ/mol
# GULP energy per Si atom -12399.807349 kJ/mol
# Density = 2.129353 g / cm^3
# Si number density = 21.342103 Si / 1000 Ang^3
#
#
#
# Elastic Constant Matrix: (Units=GPa)
#
#
# Indices 1 2 3 4 5 6 
#
# 1 83.7453 37.0286 16.9849 -2.3880 -0.1607 -6.4958
# 2 37.0286 107.7959 26.3220 -0.1379 -1.2431 7.4204
# 3 16.9849 26.3220 95.5091 3.3107 -6.3478 2.9304
# 4 -2.3880 -0.1379 3.3107 26.7462 -5.0338 -0.8118
# 5 -0.1607 -1.2431 -6.3478 -5.0338 29.4569 0.8685
# 6 -6.4958 7.4204 2.9304 -0.8118 0.8685 42.1727
#
#
#
# Elastic Compliance Matrix: (Units=1/GPa)
#
#
# Indices 1 2 3 4 5 6 
#
# 1 0.014706 -0.004929 -0.001428 0.001512 -0.000273 0.003266
# 2 -0.004929 0.011705 -0.002260 -0.000176 0.000029 -0.002666
# 3 -0.001428 -0.002260 0.011555 -0.001175 0.002207 -0.000693
# 4 0.001512 -0.000176 -0.001175 0.038895 0.006366 0.000963
# 5 -0.000273 0.000029 0.002207 0.006366 0.035535 -0.000810
# 6 0.003266 -0.002666 -0.000693 0.000963 -0.000810 0.024768
#
#
# Mechanical properties :
#
#
# Convention : Reuss Voigt Hill
#
# Bulk Modulus (GPa) = 48.22949 49.74683 48.98816
# Shear Modulus (GPa) = 30.99652 33.45613 32.22633
#
# Velocity S-wave (km/s) = 3.81512 3.96360 3.89007
# Velocity P-wave (km/s) = 6.48492 6.65633 6.57119
#
# Compressibility (1/GPa) = 0.02073420
#
# Stress axis : x y z
#
# Youngs Moduli (GPa) = 68.00013 85.43128 86.53898
#
# Poissons Ratio (x) = 0.42109 0.12354
# Poissons Ratio (y) = 0.33517 0.19554
# Poissons Ratio (z) = 0.09708 0.19304
#
# Static dielectric constant tensor:
#      x y z
#    x 4.660320 -0.115350 0.003750 
#    y -0.115350 3.923130 0.051030 
#    z 0.003750 0.051030 3.900970 
# 
# 
# High freq. dielectric constant tensor:
#      x y z
#    x 1.822050 -0.007340 -0.014470 
#    y -0.007340 1.845190 0.002880 
#    z -0.014470 0.002880 1.842120 
# 
# From -- ./inp_files/428874.got.cif
#   From: 2010.06.25/outbox.cif.g09.slc.cpg/sg2_215_cif.got.tgz:428874.got - 2010.06.27 13:26:56.
