data_PCOD8017352
_publ_section_title
;
Structure prediction by ZEFSAII (Michael W. Deem and Ramdas Pophale) SiO2 
 PCOD8017352
Probable space group: P -1
;
_chemical_formula_sum "Si O2"
_cell_formula_units_Z 14
_cell_length_a 5.137981
_cell_length_b 12.484845
_cell_length_c 14.513390
_cell_angle_alpha 61.235622
_cell_angle_beta 111.924009
_cell_angle_gamma 127.426379
_cell_volume 643.707766
_symmetry_space_group_name_H-M "P -1"
_symmetry_group_IT_number 2
_symmetry_cell_setting 'triclinic'
loop_
_space_group_symop_operation_xyz
x,y,z
-x,-y,-z
loop_
_atom_site_type_symbol
_atom_site_label
_atom_site_fract_x
_atom_site_fract_y
_atom_site_fract_z
Si Si1 0.475045 0.063824 0.330293
Si Si2 0.839486 0.637729 0.016344
Si Si3 0.446357 0.809665 0.522464
Si Si4 0.548667 0.739002 0.074914
Si Si5 0.257667 0.135785 0.753637
Si Si6 0.307083 0.874336 0.858568
Si Si7 0.672346 0.667572 0.472177
O O1 0.460039 0.161634 0.368770
O O2 0.707944 0.164104 0.236188
O O3 0.611657 0.965032 0.428729
O O4 0.120808 0.963661 0.280862
O O5 0.766973 0.680037 0.088220
O O6 0.151285 0.616263 0.079641
O O7 0.500000 0.500000 0.000000
O O8 0.945602 0.763330 0.901245
O O9 0.575245 0.710888 0.538221
O O10 0.056412 0.728873 0.494890
O O11 0.706223 0.799791 0.168202
O O12 0.581291 0.861219 0.958079
O O13 0.439368 0.265066 0.650933
O O14 0.422935 0.040745 0.813719
O O15 0.500000 0.500000 0.500000
#
# Coordination Sequence:
#
# PCOD8017352 Si02
#       7
#     2   2   2   2   2   2   2
#     4  10  22  38  68 101 131 170 214 280 327 389
#     4  10  23  44  63  90 136 172 217 263 319 384
#     4  10  23  42  68  94 135 165 222 271 334 382
#     4  10  24  40  67  95 131 174 211 269 319 391
#     4  11  23  41  65  99 132 167 224 264 335 386
#     4  10  22  38  68  96 132 170 216 265 325 384
#     4  11  24  45  67  94 132 176 219 275 323 394
#
# _framework density 21.749001
#
# number of rings (size 3 to 8) (size 9 to 14) (size 15 to 20)
#    0.857    0.857    1.429    2.143    4.000    2.857 
#    2.571    0.000    0.000    0.000    0.000    0.000 
#    0.000    0.000    0.000    0.000    0.000    0.000 
#
# Total GULP energy -173509.554841 kJ/mol
# GULP energy per Si atom -12393.539632 kJ/mol
# Density = 2.169950 g / cm^3
# Si number density = 21.749001 Si / 1000 Ang^3
#
#
#
# Elastic Constant Matrix: (Units=GPa)
#
#
# Indices 1 2 3 4 5 6 
#
# 1 90.7719 26.4477 26.1513 -0.3001 -30.0295 -15.2825
# 2 26.4477 118.0614 62.3642 8.1068 -27.8357 -15.1569
# 3 26.1513 62.3642 98.1035 24.4249 -31.4198 -2.5846
# 4 -0.3001 8.1068 24.4249 34.9335 -11.4725 -5.0831
# 5 -30.0295 -27.8357 -31.4198 -11.4725 33.0237 10.5321
# 6 -15.2825 -15.1569 -2.5846 -5.0831 10.5321 35.5912
#
#
#
# Elastic Compliance Matrix: (Units=1/GPa)
#
#
# Indices 1 2 3 4 5 6 
#
# 1 0.017190 0.000758 -0.001568 0.006862 0.015933 0.003855
# 2 0.000758 0.014501 -0.009224 0.005267 0.004269 0.005320
# 3 -0.001568 -0.009224 0.022522 -0.011198 0.010813 -0.007765
# 4 0.006862 0.005267 -0.011198 0.040150 0.011868 0.006598
# 5 0.015933 0.004269 0.010813 0.011868 0.065398 -0.008213
# 6 0.003855 0.005320 -0.007765 0.006598 -0.008213 0.034827
#
#
# Mechanical properties :
#
#
# Convention : Reuss Voigt Hill
#
# Bulk Modulus (GPa) = 29.28777 59.65146 44.46962
# Shear Modulus (GPa) = 22.12030 33.50792 27.81411
#
# Velocity S-wave (km/s) = 3.19262 3.92939 3.58001
# Velocity P-wave (km/s) = 5.20441 6.93351 6.13023
#
# Compressibility (1/GPa) = 0.03414394
#
# Stress axis : x y z
#
# Youngs Moduli (GPa) = 58.17232 68.96283 44.40178
#
# Poissons Ratio (x) = -0.05225 0.06962
# Poissons Ratio (y) = -0.04407 0.40956
# Poissons Ratio (z) = 0.09122 0.63611
#
# Static dielectric constant tensor:
#      x y z
#    x 3.993180 -0.220550 -0.244720 
#    y -0.220550 3.917840 0.157660 
#    z -0.244720 0.157660 4.228430 
# 
# 
# High freq. dielectric constant tensor:
#      x y z
#    x 1.861890 -0.006400 -0.013460 
#    y -0.006400 1.836000 0.017130 
#    z -0.013460 0.017130 1.848830 
# 
# From -- ./inp_files/482106.got.cif
#   From: 2010.06.25/outbox.cif.g09.slc.cpg/sg2_242_cif.got.tgz:482106.got - 2010.06.27 13:26:56.
