data_PCOD8017496
_publ_section_title
;
Structure prediction by ZEFSAII (Michael W. Deem and Ramdas Pophale) SiO2 
 PCOD8017496
Probable space group: P -1
;
_chemical_formula_sum "Si O2"
_cell_formula_units_Z 14
_cell_length_a 9.527565
_cell_length_b 11.426870
_cell_length_c 12.985439
_cell_angle_alpha 132.932752
_cell_angle_beta 38.935465
_cell_angle_gamma 122.702193
_cell_volume 650.314118
_symmetry_space_group_name_H-M "P -1"
_symmetry_group_IT_number 2
_symmetry_cell_setting 'triclinic'
loop_
_space_group_symop_operation_xyz
x,y,z
-x,-y,-z
loop_
_atom_site_type_symbol
_atom_site_label
_atom_site_fract_x
_atom_site_fract_y
_atom_site_fract_z
Si Si1 0.376543 0.194036 0.024925
Si Si2 0.680912 0.129448 0.434301
Si Si3 0.871263 0.467084 0.809470
Si Si4 0.444748 0.554054 0.208446
Si Si5 0.875021 0.148247 0.706982
Si Si6 0.096817 0.962825 0.152124
Si Si7 0.951224 0.211688 0.139445
O O1 0.375423 0.375170 0.178600
O O2 0.191535 0.168326 0.025480
O O3 0.320423 0.072710 0.077674
O O4 0.618385 0.149900 0.815957
O O5 0.598237 0.309678 0.602095
O O6 0.752952 0.128841 0.271381
O O7 0.500000 0.000000 0.500000
O O8 0.898227 0.089310 0.353464
O O9 0.706995 0.400254 0.774541
O O10 0.990016 0.315333 0.703218
O O11 0.061521 0.594073 0.738802
O O12 0.708816 0.560494 0.036801
O O13 0.884946 0.146871 0.823996
O O14 0.000000 0.000000 0.500000
O O15 0.059324 0.849939 0.007405
#
# Coordination Sequence:
#
# PCOD8017496 Si02
#       7
#     2   2   2   2   2   2   2
#     4   9  20  40  60  83 117 155 197 240 291 348
#     4  11  22  36  60  91 117 147 199 250 291 343
#     4   9  19  37  57  82 118 154 192 237 294 348
#     4   9  18  34  60  85 110 151 197 245 285 337
#     4  11  23  37  60  89 119 155 197 242 286 349
#     4  11  23  37  59  88 123 159 188 239 301 347
#     4  10  22  39  61  85 117 157 194 243 296 344
#
# _framework density 21.528058999999999
#
# number of rings (size 3 to 8) (size 9 to 14) (size 15 to 20)
#    0.000    2.000    0.000    4.714    0.000   12.571 
#    0.000    0.000    0.000    5.143    0.000    0.000 
#    0.000    0.000    0.000    0.000    0.000    0.000 
#
# Total GULP energy -173478.889332 kJ/mol
# GULP energy per Si atom -12391.349238 kJ/mol
# Density = 2.147906 g / cm^3
# Si number density = 21.528059 Si / 1000 Ang^3
#
#
#
# Elastic Constant Matrix: (Units=GPa)
#
#
# Indices 1 2 3 4 5 6 
#
# 1 66.1564 48.9866 42.0160 -0.1471 12.8667 -16.4315
# 2 48.9866 182.9907 59.0118 -1.9924 -0.4621 -22.9684
# 3 42.0160 59.0118 108.2775 15.3656 -0.0629 1.7785
# 4 -0.1471 -1.9924 15.3656 37.4172 -1.8137 -3.7256
# 5 12.8667 -0.4621 -0.0629 -1.8137 22.8535 -1.6860
# 6 -16.4315 -22.9684 1.7785 -3.7256 -1.6860 35.4448
#
#
#
# Elastic Compliance Matrix: (Units=1/GPa)
#
#
# Indices 1 2 3 4 5 6 
#
# 1 0.030748 -0.003012 -0.011223 0.005048 -0.016071 0.012632
# 2 -0.003012 0.008016 -0.003618 0.002448 0.002363 0.004350
# 3 -0.011223 -0.003618 0.016818 -0.007794 0.005011 -0.008972
# 4 0.005048 0.002448 -0.007794 0.030839 0.000192 0.007568
# 5 -0.016071 0.002363 0.005011 0.000192 0.052613 -0.003647
# 6 0.012632 0.004350 -0.008972 0.007568 -0.003647 0.037959
#
#
# Mechanical properties :
#
#
# Convention : Reuss Voigt Hill
#
# Bulk Modulus (GPa) = 50.30886 73.05040 61.67963
# Shear Modulus (GPa) = 22.79721 32.97042 27.88382
#
# Velocity S-wave (km/s) = 3.25769 3.91770 3.60284
# Velocity P-wave (km/s) = 6.12942 7.38043 6.78382
#
# Compressibility (1/GPa) = 0.01987721
#
# Stress axis : x y z
#
# Youngs Moduli (GPa) = 32.52250 124.74607 59.45877
#
# Poissons Ratio (x) = 0.37575 0.66730
# Poissons Ratio (y) = 0.09796 0.21510
# Poissons Ratio (z) = 0.36500 0.45128
#
# Static dielectric constant tensor:
#      x y z
#    x 3.552920 -0.190810 -0.089650 
#    y -0.190810 4.395700 -0.163660 
#    z -0.089650 -0.163660 3.804160 
# 
# 
# High freq. dielectric constant tensor:
#      x y z
#    x 1.804050 -0.011810 -0.001290 
#    y -0.011810 1.872470 0.000540 
#    z -0.001290 0.000540 1.832530 
# 
# From -- ./inp_files/392946.got.cif
#   From: 2010.06.25/outbox.cif.g09.slc.cpg/sg2_197_cif.got.tgz:392946.got - 2010.06.27 13:26:56.
