data_PCOD8017988
_publ_section_title
;
Structure prediction by ZEFSAII (Michael W. Deem and Ramdas Pophale) SiO2 
 PCOD8017988
Probable space group: P -1
;
_chemical_formula_sum "Si O2"
_cell_formula_units_Z 14
_cell_length_a 12.843896
_cell_length_b 16.298404
_cell_length_c 11.706004
_cell_angle_alpha 44.800962
_cell_angle_beta 111.677058
_cell_angle_gamma 147.707721
_cell_volume 729.450235
_symmetry_space_group_name_H-M "P -1"
_symmetry_group_IT_number 2
_symmetry_cell_setting 'triclinic'
loop_
_space_group_symop_operation_xyz
x,y,z
-x,-y,-z
loop_
_atom_site_type_symbol
_atom_site_label
_atom_site_fract_x
_atom_site_fract_y
_atom_site_fract_z
Si Si1 0.488010 0.451432 0.172772
Si Si2 0.334902 0.980668 0.058862
Si Si3 0.964306 0.330628 0.145162
Si Si4 0.519754 0.302021 0.019606
Si Si5 0.485028 0.865819 0.265855
Si Si6 0.320670 0.071769 0.406300
Si Si7 0.777277 0.513376 0.285782
O O1 0.276173 0.153692 0.377606
O O2 0.738271 0.617920 0.154409
O O3 0.500000 0.500000 0.000000
O O4 0.440985 0.522770 0.158206
O O5 0.381023 0.898544 0.216778
O O6 0.053377 0.733606 0.150995
O O7 0.407103 0.148129 0.010350
O O8 0.505578 0.150886 0.848485
O O9 0.755646 0.102656 0.195648
O O10 0.889901 0.213380 0.357569
O O11 0.000000 0.500000 0.000000
O O12 0.217191 0.508211 0.030593
O O13 0.327555 0.096019 0.248240
O O14 0.295814 0.597311 0.507257
O O15 0.592854 0.277765 0.353659
#
# Coordination Sequence:
#
# PCOD8017988 Si02
#       7
#     2   2   2   2   2   2   2
#     4   8  18  38  60  85 110 145 195 234 279 335
#     4  11  22  36  58  82 118 155 179 233 284 340
#     4  11  21  38  59  85 113 147 192 244 274 333
#     4  11  21  36  58  89 112 147 192 233 283 328
#     4  10  22  40  54  84 117 152 190 222 288 343
#     4   8  20  39  58  82 113 145 191 234 281 330
#     4   9  19  40  60  79 111 155 186 227 286 338
#
# _framework density 19.192537000000002
#
# number of rings (size 3 to 8) (size 9 to 14) (size 15 to 20)
#    0.857    1.429    1.429    1.286    0.000    2.857 
#    2.571    0.714    0.000    0.000    0.000    0.000 
#    0.000    0.000    0.000    0.000    0.000    0.000 
#
# Total GULP energy -173450.043909 kJ/mol
# GULP energy per Si atom -12389.288851 kJ/mol
# Density = 1.914885 g / cm^3
# Si number density = 19.192537 Si / 1000 Ang^3
#
#
#
# Elastic Constant Matrix: (Units=GPa)
#
#
# Indices 1 2 3 4 5 6 
#
# 1 93.1718 20.8066 50.0576 4.6140 10.5473 -4.3280
# 2 20.8066 49.1486 16.1946 7.9929 2.2668 -9.5357
# 3 50.0576 16.1946 94.1212 7.0892 14.5891 -2.2025
# 4 4.6140 7.9929 7.0892 22.6277 1.6187 1.7887
# 5 10.5473 2.2668 14.5891 1.6187 22.3416 2.8136
# 6 -4.3280 -9.5357 -2.2025 1.7887 2.8136 36.1306
#
#
#
# Elastic Compliance Matrix: (Units=1/GPa)
#
#
# Indices 1 2 3 4 5 6 
#
# 1 0.015909 -0.004200 -0.007414 0.000692 -0.002356 0.000494
# 2 -0.004200 0.025133 -0.001342 -0.008116 0.000086 0.006443
# 3 -0.007414 -0.001342 0.016041 -0.002591 -0.006700 0.000386
# 4 0.000692 -0.008116 -0.002591 0.048143 -0.000727 -0.004544
# 5 -0.002356 0.000086 -0.006700 -0.000727 0.050869 -0.004593
# 6 0.000494 0.006443 0.000386 -0.004544 -0.004593 0.030043
#
#
# Mechanical properties :
#
#
# Convention : Reuss Voigt Hill
#
# Bulk Modulus (GPa) = 32.08043 45.61770 38.84906
# Shear Modulus (GPa) = 22.47792 26.17882 24.32837
#
# Velocity S-wave (km/s) = 3.42596 3.69726 3.56419
# Velocity P-wave (km/s) = 5.69219 6.48432 6.10112
#
# Compressibility (1/GPa) = 0.03117166
#
# Stress axis : x y z
#
# Youngs Moduli (GPa) = 62.85572 39.78870 62.33947
#
# Poissons Ratio (x) = 0.16712 0.46219
# Poissons Ratio (y) = 0.26400 0.08364
# Poissons Ratio (z) = 0.46602 0.05339
#
# Static dielectric constant tensor:
#      x y z
#    x 3.807230 0.078610 0.323840 
#    y 0.078610 3.317300 0.089550 
#    z 0.323840 0.089550 3.615180 
# 
# 
# High freq. dielectric constant tensor:
#      x y z
#    x 1.738580 0.009770 0.011320 
#    y 0.009770 1.731320 0.013720 
#    z 0.011320 0.013720 1.742670 
# 
# From -- ./inp_files/255579.got.cif
#   From: 2010.06.25/outbox.cif.g09.slc.cpg/sg2_128_cif.got.tgz:255579.got - 2010.06.27 13:26:56.
