data_PCOD8017672
_publ_section_title
;
Structure prediction by ZEFSAII (Michael W. Deem and Ramdas Pophale) SiO2 
 PCOD8017672
Probable space group: P -1
;
_chemical_formula_sum "Si O2"
_cell_formula_units_Z 16
_cell_length_a 8.919684
_cell_length_b 24.197033
_cell_length_c 8.932089
_cell_angle_alpha 149.936900
_cell_angle_beta 118.850835
_cell_angle_gamma 49.058224
_cell_volume 711.031660
_symmetry_space_group_name_H-M "P -1"
_symmetry_group_IT_number 2
_symmetry_cell_setting 'triclinic'
loop_
_space_group_symop_operation_xyz
x,y,z
-x,-y,-z
loop_
_atom_site_type_symbol
_atom_site_label
_atom_site_fract_x
_atom_site_fract_y
_atom_site_fract_z
Si Si1 0.661315 0.272066 0.321550
Si Si2 0.027503 0.942501 0.213353
Si Si3 0.760062 0.636274 0.559253
Si Si4 0.929616 0.350043 0.081369
Si Si5 0.980547 0.867497 0.595800
Si Si6 0.781026 0.632317 0.218842
Si Si7 0.275419 0.095071 0.176868
Si Si8 0.500574 0.547153 0.775473
O O1 0.451938 0.278598 0.255747
O O2 0.614605 0.419144 0.636862
O O3 0.816883 0.198406 0.359707
O O4 0.754108 0.193465 0.025217
O O5 0.860498 0.905477 0.024353
O O6 0.000000 0.000000 0.500000
O O7 0.007228 0.041872 0.308741
O O8 0.873301 0.484044 0.292882
O O9 0.702800 0.657887 0.409774
O O10 0.909338 0.685117 0.789241
O O11 0.732653 0.353203 0.053718
O O12 0.039532 0.241139 0.752341
O O13 0.781505 0.950033 0.801690
O O14 0.782676 0.758924 0.468208
O O15 0.619263 0.621617 0.014765
O O16 0.000000 0.500000 0.000000
O O17 0.500000 0.000000 0.000000
O O18 0.500000 0.500000 0.500000
#
# Coordination Sequence:
#
# PCOD8017672 Si02
#       8
#     2   2   2   2   2   2   2   2
#     4  10  22  44  68  98 136 181 233 276 353 411
#     4  11  27  46  72  99 137 184 235 288 347 415
#     4  10  22  39  66  99 137 174 224 289 340 413
#     4  10  22  39  64 100 134 177 228 281 349 402
#     4  11  24  45  72  93 143 182 232 281 345 418
#     4  12  24  40  68  97 142 178 233 282 347 408
#     4  11  27  44  68 104 140 182 232 281 350 417
#     4  11  24  39  69 100 140 181 229 289 344 414
#
# _framework density 22.502514999999999
#
# number of rings (size 3 to 8) (size 9 to 14) (size 15 to 20)
#    0.000    1.250    0.000    6.000    8.750    5.000 
#    0.000    1.250    0.000    0.000    0.000    0.000 
#    0.000    0.000    0.000    0.000    0.000    0.000 
#
# Total GULP energy -198379.637090 kJ/mol
# GULP energy per Si atom -12398.727318 kJ/mol
# Density = 2.245130 g / cm^3
# Si number density = 22.502515 Si / 1000 Ang^3
#
#
#
# Elastic Constant Matrix: (Units=GPa)
#
#
# Indices 1 2 3 4 5 6 
#
# 1 125.9369 46.7366 68.7007 -2.0588 4.7954 -16.4214
# 2 46.7366 70.5524 42.0670 -12.3603 9.7373 -1.5730
# 3 68.7007 42.0670 154.5846 -24.6080 -2.2950 -18.9061
# 4 -2.0588 -12.3603 -24.6080 41.9964 -8.4697 -3.4588
# 5 4.7954 9.7373 -2.2950 -8.4697 36.8202 -4.4146
# 6 -16.4214 -1.5730 -18.9061 -3.4588 -4.4146 39.2283
#
#
#
# Elastic Compliance Matrix: (Units=1/GPa)
#
#
# Indices 1 2 3 4 5 6 
#
# 1 0.013035 -0.006573 -0.004277 -0.003731 -0.000758 0.002717
# 2 -0.006573 0.021368 -0.002920 0.003012 -0.004712 -0.003567
# 3 -0.004277 -0.002920 0.010767 0.006398 0.003987 0.004295
# 4 -0.003731 0.003012 0.006398 0.030235 0.007663 0.005171
# 5 -0.000758 -0.004712 0.003987 0.007663 0.031187 0.005600
# 6 0.002717 -0.003567 0.004295 0.005171 0.005600 0.029642
#
#
# Mechanical properties :
#
#
# Convention : Reuss Voigt Hill
#
# Bulk Modulus (GPa) = 56.72469 74.00917 65.36693
# Shear Modulus (GPa) = 29.47196 36.51363 32.99280
#
# Velocity S-wave (km/s) = 3.62293 4.03258 3.83323
# Velocity P-wave (km/s) = 6.53940 7.39209 6.97878
#
# Compressibility (1/GPa) = 0.01762901
#
# Stress axis : x y z
#
# Youngs Moduli (GPa) = 76.71393 46.79935 92.87225
#
# Poissons Ratio (x) = 0.30762 0.39724
# Poissons Ratio (y) = 0.50426 0.27122
# Poissons Ratio (z) = 0.32813 0.13667
#
# Static dielectric constant tensor:
#      x y z
#    x 4.245150 -0.021090 -0.061020 
#    y -0.021090 3.972510 -0.012770 
#    z -0.061020 -0.012770 4.425960 
# 
# 
# High freq. dielectric constant tensor:
#      x y z
#    x 1.898910 -0.000970 -0.002370 
#    y -0.000970 1.873730 -0.003320 
#    z -0.002370 -0.003320 1.900930 
# 
# From -- ./inp_files/226808.got.cif
#   From: 2010.06.25/outbox.cif.g09.slc.cpg/sg2_114_cif.got.tgz:226808.got - 2010.06.27 13:26:56.
