data_PCOD8017415
_publ_section_title
;
Structure prediction by ZEFSAII (Michael W. Deem and Ramdas Pophale) SiO2 
 PCOD8017415
Probable space group: P -1
;
_chemical_formula_sum "Si O2"
_cell_formula_units_Z 16
_cell_length_a 14.483123
_cell_length_b 12.263632
_cell_length_c 11.298109
_cell_angle_alpha 123.408733
_cell_angle_beta 129.857482
_cell_angle_gamma 30.776913
_cell_volume 788.238869
_symmetry_space_group_name_H-M "P -1"
_symmetry_group_IT_number 2
_symmetry_cell_setting 'triclinic'
loop_
_space_group_symop_operation_xyz
x,y,z
-x,-y,-z
loop_
_atom_site_type_symbol
_atom_site_label
_atom_site_fract_x
_atom_site_fract_y
_atom_site_fract_z
Si Si1 0.585159 0.052165 0.816999
Si Si2 0.201935 0.222639 0.830934
Si Si3 0.124903 0.441364 0.677052
Si Si4 0.231790 0.947937 0.816995
Si Si5 0.447929 0.441231 0.322974
Si Si6 0.099155 0.112525 0.181479
Si Si7 0.917611 0.112684 0.818550
Si Si8 0.371086 0.222530 0.169153
O O1 0.691629 0.007403 0.757831
O O2 0.665164 0.835819 0.779331
O O3 0.354256 0.250444 0.719855
O O4 0.633099 0.103256 0.000008
O O5 0.082089 0.378595 0.713184
O O6 0.114183 0.164269 0.779387
O O7 0.421111 0.000085 0.842253
O O8 0.206642 0.332831 0.000059
O O9 0.000000 0.500000 0.500000
O O10 0.060608 0.641097 0.776955
O O11 0.365499 0.749693 0.719805
O O12 0.066109 0.992774 0.757825
O O13 0.500000 0.500000 0.500000
O O14 0.283656 0.640901 0.222933
O O15 0.369121 0.378357 0.286959
O O16 0.127686 0.999868 0.255213
O O17 0.022094 0.090443 0.000010
#
# Coordination Sequence:
#
# PCOD8017415 Si02
#       8
#     2   2   2   2   2   2   2   2
#     4   9  19  38  62  83 107 144 190 240 282 319
#     4   8  15  32  58  82 104 136 183 232 274 322
#     4  11  22  35  55  84 117 149 178 226 289 343
#     4   9  19  38  62  83 107 144 190 240 282 319
#     4  11  22  35  55  84 117 149 178 226 289 343
#     4  10  22  39  58  81 110 149 196 234 269 329
#     4  10  22  39  58  81 110 149 196 234 269 329
#     4   8  15  32  58  82 104 136 183 232 274 322
#
# _framework density 20.298416
#
# number of rings (size 3 to 8) (size 9 to 14) (size 15 to 20)
#    0.000    2.500    0.000    3.750    0.000    6.000 
#    0.000   10.000    0.000    0.000    0.000    0.000 
#    0.000    0.000    0.000    0.000    0.000    0.000 
#
# Total GULP energy -198329.604692 kJ/mol
# GULP energy per Si atom -12395.600293 kJ/mol
# Density = 2.025222 g / cm^3
# Si number density = 20.298416 Si / 1000 Ang^3
#
#
#
# Elastic Constant Matrix: (Units=GPa)
#
#
# Indices 1 2 3 4 5 6 
#
# 1 184.4986 75.2448 52.7375 -1.4365 -0.5809 23.9833
# 2 75.2448 109.7907 40.3655 -1.6589 -1.6421 22.7408
# 3 52.7375 40.3655 68.1593 -1.2375 -0.4404 9.1816
# 4 -1.4365 -1.6589 -1.2375 22.3853 -1.6736 -1.0907
# 5 -0.5809 -1.6421 -0.4404 -1.6736 6.3874 -1.6961
# 6 23.9833 22.7408 9.1816 -1.0907 -1.6961 30.5095
#
#
#
# Elastic Compliance Matrix: (Units=1/GPa)
#
#
# Indices 1 2 3 4 5 6 
#
# 1 0.008438 -0.003804 -0.003925 -0.000182 -0.001244 -0.002692
# 2 -0.003804 0.014939 -0.005006 0.000381 0.001512 -0.006541
# 3 -0.003925 -0.005006 0.020597 0.000554 0.000092 0.000643
# 4 -0.000182 0.000381 0.000554 0.045764 0.012650 0.002032
# 5 -0.001244 0.001512 0.000092 0.012650 0.162628 0.009316
# 6 -0.002692 -0.006541 0.000643 0.002032 0.009316 0.040165
#
#
# Mechanical properties :
#
#
# Convention : Reuss Voigt Hill
#
# Bulk Modulus (GPa) = 54.04130 77.68269 65.86200
# Shear Modulus (GPa) = 15.42405 24.79649 20.11027
#
# Velocity S-wave (km/s) = 2.75956 3.49893 3.15100
# Velocity P-wave (km/s) = 6.06916 7.39437 6.76430
#
# Compressibility (1/GPa) = 0.01850437
#
# Stress axis : x y z
#
# Youngs Moduli (GPa) = 118.51376 66.94006 48.55039
#
# Poissons Ratio (x) = 0.25461 0.19055
# Poissons Ratio (y) = 0.45077 0.24306
# Poissons Ratio (z) = 0.46514 0.33513
#
# Static dielectric constant tensor:
#      x y z
#    x 4.229960 0.771960 -0.050150 
#    y 0.771960 2.256010 0.094140 
#    z -0.050150 0.094140 3.438820 
# 
# 
# High freq. dielectric constant tensor:
#      x y z
#    x 1.804130 0.009400 -0.000310 
#    y 0.009400 1.791440 -0.002070 
#    z -0.000310 -0.002070 1.763860 
# 
# From -- ./inp_files/451664.got.cif
#   From: 2010.06.25/outbox.cif.g09.slc.cpg/sg2_226_cif.got.tgz:451664.got - 2010.06.27 13:26:56.
