data_PCOD8017976
_publ_section_title
;
Structure prediction by ZEFSAII (Michael W. Deem and Ramdas Pophale) SiO2 
 PCOD8017976
Probable space group: P -1
;
_chemical_formula_sum "Si O2"
_cell_formula_units_Z 14
_cell_length_a 21.397312
_cell_length_b 15.053919
_cell_length_c 11.620094
_cell_angle_alpha 30.800496
_cell_angle_beta 146.356223
_cell_angle_gamma 159.662327
_cell_volume 658.355631
_symmetry_space_group_name_H-M "P -1"
_symmetry_group_IT_number 2
_symmetry_cell_setting 'triclinic'
loop_
_space_group_symop_operation_xyz
x,y,z
-x,-y,-z
loop_
_atom_site_type_symbol
_atom_site_label
_atom_site_fract_x
_atom_site_fract_y
_atom_site_fract_z
Si Si1 0.510430 0.979070 0.231658
Si Si2 0.703102 0.804627 0.997860
Si Si3 0.999477 0.008993 0.625815
Si Si4 0.751511 0.395056 0.941951
Si Si5 0.847809 0.171799 0.601815
Si Si6 0.349278 0.898277 0.300606
Si Si7 0.957117 0.283178 0.396223
O O1 0.648704 0.016984 0.463952
O O2 0.354035 0.685716 0.248268
O O3 0.416461 0.985068 0.176013
O O4 0.611864 0.224666 0.023304
O O5 0.825218 0.995250 0.859461
O O6 0.699262 0.965925 0.893493
O O7 0.500000 0.500000 0.000000
O O8 0.800140 0.767178 0.259398
O O9 0.908553 0.077602 0.455813
O O10 0.000000 0.000000 0.500000
O O11 0.890140 0.711769 0.835264
O O12 0.851595 0.331639 0.149057
O O13 0.000000 0.500000 0.500000
O O14 0.897717 0.146216 0.584536
O O15 0.172146 0.566963 0.409896
O O16 0.500000 0.000000 0.500000
#
# Coordination Sequence:
#
# PCOD8017976 Si02
#       7
#     2   2   2   2   2   2   2
#     4  10  22  39  71  97 130 176 226 277 333 408
#     4  12  26  41  64 104 141 170 229 291 335 398
#     4  12  27  43  67 100 139 178 228 283 338 410
#     4  10  23  46  65  97 135 177 225 277 339 404
#     4  11  21  45  71  96 138 179 229 279 338 412
#     4  12  21  39  67  98 129 175 219 273 346 396
#     4  11  24  43  72  97 128 189 224 273 346 407
#
# _framework density 21.265103
#
# number of rings (size 3 to 8) (size 9 to 14) (size 15 to 20)
#    0.000    0.857    4.286    2.571    4.000    2.857 
#    0.000    6.429    0.000    0.000    0.000    0.000 
#    0.000    0.000    0.000    0.000    0.000    0.000 
#
# Total GULP energy -173625.976784 kJ/mol
# GULP energy per Si atom -12401.855485 kJ/mol
# Density = 2.121670 g / cm^3
# Si number density = 21.265103 Si / 1000 Ang^3
#
#
#
# Elastic Constant Matrix: (Units=GPa)
#
#
# Indices 1 2 3 4 5 6 
#
# 1 173.2417 44.2369 35.3356 -15.4242 0.2807 4.1720
# 2 44.2369 116.1665 39.2958 6.1159 -3.4213 0.8275
# 3 35.3356 39.2958 75.2217 0.8233 -0.1545 1.0893
# 4 -15.4242 6.1159 0.8233 36.5783 -7.3820 2.7163
# 5 0.2807 -3.4213 -0.1545 -7.3820 38.3346 -1.5412
# 6 4.1720 0.8275 1.0893 2.7163 -1.5412 28.9723
#
#
#
# Elastic Compliance Matrix: (Units=1/GPa)
#
#
# Indices 1 2 3 4 5 6 
#
# 1 0.007120 -0.002115 -0.002261 0.003574 0.000390 -0.001194
# 2 -0.002115 0.011196 -0.004833 -0.002583 0.000515 0.000436
# 3 -0.002261 -0.004833 0.016888 -0.000610 -0.000470 -0.000139
# 4 0.003574 -0.002583 -0.000610 0.030627 0.005518 -0.002996
# 5 0.000390 0.000515 -0.000470 0.005518 0.027225 0.000878
# 6 -0.001194 0.000436 -0.000139 -0.002996 0.000878 0.035008
#
#
# Mechanical properties :
#
#
# Convention : Reuss Voigt Hill
#
# Bulk Modulus (GPa) = 59.56532 66.92960 63.24746
# Shear Modulus (GPa) = 32.87797 37.16116 35.01956
#
# Velocity S-wave (km/s) = 3.93631 4.18487 4.06249
# Velocity P-wave (km/s) = 6.98076 7.40899 7.19806
#
# Compressibility (1/GPa) = 0.01678829
#
# Stress axis : x y z
#
# Youngs Moduli (GPa) = 140.45492 89.31432 59.21237
#
# Poissons Ratio (x) = 0.18887 0.13387
# Poissons Ratio (y) = 0.29701 0.28615
# Poissons Ratio (z) = 0.31755 0.43162
#
# Static dielectric constant tensor:
#      x y z
#    x 4.158310 -0.009750 -0.000370 
#    y -0.009750 3.591010 0.665520 
#    z -0.000370 0.665520 3.231320 
# 
# 
# High freq. dielectric constant tensor:
#      x y z
#    x 1.847060 0.002980 -0.012380 
#    y 0.002980 1.848160 0.011950 
#    z -0.012380 0.011950 1.820190 
# 
# From -- ./inp_files/208446.got.cif
#   From: 2010.06.25/outbox.cif.g09.slc.cpg/sg2_105_cif.got.tgz:208446.got - 2010.06.27 13:26:56.
