data_PCOD8017116
_publ_section_title
;
Structure prediction by ZEFSAII (Michael W. Deem and Ramdas Pophale) SiO2 
 PCOD8017116
Probable space group: P -1
;
_chemical_formula_sum "Si O2"
_cell_formula_units_Z 16
_cell_length_a 12.080186
_cell_length_b 9.114083
_cell_length_c 15.656436
_cell_angle_alpha 109.952285
_cell_angle_beta 152.675374
_cell_angle_gamma 70.499523
_cell_volume 741.891787
_symmetry_space_group_name_H-M "P -1"
_symmetry_group_IT_number 2
_symmetry_cell_setting 'triclinic'
loop_
_space_group_symop_operation_xyz
x,y,z
-x,-y,-z
loop_
_atom_site_type_symbol
_atom_site_label
_atom_site_fract_x
_atom_site_fract_y
_atom_site_fract_z
Si Si1 0.665109 0.921981 0.522423
Si Si2 0.225846 0.875309 0.119187
Si Si3 0.542097 0.365848 0.880118
Si Si4 0.972621 0.178416 0.740290
Si Si5 0.260601 0.428965 0.527274
Si Si6 0.951062 0.681744 0.004641
Si Si7 0.789165 0.629141 0.192166
Si Si8 0.507780 0.371256 0.407622
O O1 0.486715 0.943549 0.322428
O O2 0.741261 0.738612 0.555858
O O3 0.500000 0.000000 0.500000
O O4 0.920690 0.999046 0.692155
O O5 0.249100 0.772340 0.027681
O O6 0.192568 0.754746 0.150562
O O7 0.000000 0.000000 0.000000
O O8 0.348733 0.400280 0.678750
O O9 0.403267 0.307643 0.856691
O O10 0.668487 0.524493 0.017428
O O11 0.702427 0.244792 0.551172
O O12 0.123980 0.216254 0.766398
O O13 0.104866 0.254605 0.926034
O O14 0.436883 0.543809 0.625896
O O15 0.996065 0.519602 0.359794
O O16 0.731937 0.720395 0.794812
O O17 0.000000 0.500000 0.000000
O O18 0.500000 0.500000 0.500000
#
# Coordination Sequence:
#
# PCOD8017116 Si02
#       8
#     2   2   2   2   2   2   2   2
#     4  11  21  38  55  89 125 160 194 241 305 372
#     4  11  24  38  61  88 123 160 197 246 307 363
#     4  10  22  41  62  91 119 155 211 251 299 353
#     4  11  22  37  58  87 120 156 200 245 306 351
#     4  10  22  38  60  86 120 158 199 250 304 352
#     4  12  21  36  57  85 120 155 193 251 301 350
#     4  10  22  40  67  87 115 161 208 255 292 356
#     4  11  21  33  55  87 116 150 201 249 298 362
#
# _framework density 21.566488
#
# number of rings (size 3 to 8) (size 9 to 14) (size 15 to 20)
#    0.000    1.250    2.500    4.875    3.500    0.000 
#    0.000    2.500    0.000    9.750    0.000    0.000 
#    0.000    0.000    0.000    0.000    0.000    0.000 
#
# Total GULP energy -198230.206070 kJ/mol
# GULP energy per Si atom -12389.387879 kJ/mol
# Density = 2.151740 g / cm^3
# Si number density = 21.566488 Si / 1000 Ang^3
#
#
#
# Elastic Constant Matrix: (Units=GPa)
#
#
# Indices 1 2 3 4 5 6 
#
# 1 111.9769 32.0346 21.7171 10.1503 2.9077 -9.5811
# 2 32.0346 80.4625 12.8152 5.9429 3.9503 -2.5886
# 3 21.7171 12.8152 99.8762 9.8296 -10.5144 1.5114
# 4 10.1503 5.9429 9.8296 27.5172 -0.6953 9.6609
# 5 2.9077 3.9503 -10.5144 -0.6953 32.8137 5.5333
# 6 -9.5811 -2.5886 1.5114 9.6609 5.5333 28.4885
#
#
#
# Elastic Compliance Matrix: (Units=1/GPa)
#
#
# Indices 1 2 3 4 5 6 
#
# 1 0.011273 -0.003554 -0.001844 -0.004757 -0.002209 0.005608
# 2 -0.003554 0.014292 -0.001108 -0.001843 -0.001998 0.001175
# 3 -0.001844 -0.001108 0.011254 -0.002564 0.004057 -0.001237
# 4 -0.004757 -0.001843 -0.002564 0.045790 0.003810 -0.017899
# 5 -0.002209 -0.001998 0.004057 0.003810 0.033809 -0.008998
# 6 0.005608 0.001175 -0.001237 -0.017899 -0.008998 0.044978
#
#
# Mechanical properties :
#
#
# Convention : Reuss Voigt Hill
#
# Bulk Modulus (GPa) = 42.00647 47.27216 44.63932
# Shear Modulus (GPa) = 27.42071 32.81380 30.11725
#
# Velocity S-wave (km/s) = 3.56961 3.90490 3.74101
# Velocity P-wave (km/s) = 6.04230 6.50368 6.27723
#
# Compressibility (1/GPa) = 0.02380586
#
# Stress axis : x y z
#
# Youngs Moduli (GPa) = 88.70478 69.97102 88.85958
#
# Poissons Ratio (x) = 0.24870 0.16390
# Poissons Ratio (y) = 0.31528 0.09842
# Poissons Ratio (z) = 0.16361 0.07750
#
# Static dielectric constant tensor:
#      x y z
#    x 3.693410 0.080080 0.342800 
#    y 0.080080 3.992010 0.664010 
#    z 0.342800 0.664010 7.084440 
# 
# 
# High freq. dielectric constant tensor:
#      x y z
#    x 1.833360 0.014370 -0.002240 
#    y 0.014370 1.838470 0.012350 
#    z -0.002240 0.012350 1.858780 
# 
# From -- ./inp_files/432349.got.cif
#   From: 2010.06.25/outbox.cif.g09.slc.cpg/sg2_217_cif.got.tgz:432349.got - 2010.06.27 13:26:56.
