data_PCOD8017771
_publ_section_title
;
Structure prediction by ZEFSAII (Michael W. Deem and Ramdas Pophale) SiO2 
 PCOD8017771
Probable space group: P -1
;
_chemical_formula_sum "Si O2"
_cell_formula_units_Z 14
_cell_length_a 11.344573
_cell_length_b 16.836580
_cell_length_c 9.134975
_cell_angle_alpha 72.889185
_cell_angle_beta 96.622506
_cell_angle_gamma 32.833964
_cell_volume 646.052104
_symmetry_space_group_name_H-M "P -1"
_symmetry_group_IT_number 2
_symmetry_cell_setting 'triclinic'
loop_
_space_group_symop_operation_xyz
x,y,z
-x,-y,-z
loop_
_atom_site_type_symbol
_atom_site_label
_atom_site_fract_x
_atom_site_fract_y
_atom_site_fract_z
Si Si1 0.200900 0.172941 0.562991
Si Si2 0.680979 0.749958 0.286078
Si Si3 0.855694 0.469685 0.086623
Si Si4 0.411948 0.474602 0.583631
Si Si5 0.797440 0.080376 0.809846
Si Si6 0.260670 0.267232 0.017712
Si Si7 0.373066 0.660355 0.982258
O O1 0.373650 0.144808 0.656355
O O2 0.068354 0.274716 0.326756
O O3 0.945673 0.311884 0.569393
O O4 0.443935 0.940789 0.724583
O O5 0.394675 0.871761 0.175289
O O6 0.000000 0.500000 0.500000
O O7 0.690462 0.792212 0.109323
O O8 0.522344 0.644562 0.936462
O O9 0.986831 0.391204 0.984056
O O10 0.824262 0.581335 0.087986
O O11 0.500000 0.500000 0.500000
O O12 0.552545 0.307190 0.601199
O O13 0.541142 0.401885 0.803356
O O14 0.000000 0.000000 0.000000
O O15 0.005340 0.911452 0.796251
O O16 0.500000 0.500000 0.000000
#
# Coordination Sequence:
#
# PCOD8017771 Si02
#       7
#     2   2   2   2   2   2   2
#     4  11  23  40  66  97 128 166 219 272 323 382
#     4  12  22  42  66  99 130 157 222 277 316 375
#     4  10  23  44  61  92 134 168 215 262 326 392
#     4  10  22  39  65  94 128 168 219 268 322 390
#     4  10  22  42  69  89 129 178 208 264 335 382
#     4  11  23  39  68  93 125 174 206 266 333 386
#     4  10  23  42  63  90 130 172 213 266 323 386
#
# _framework density 21.670076999999999
#
# number of rings (size 3 to 8) (size 9 to 14) (size 15 to 20)
#    0.000    1.429    2.857    2.571    8.000    1.143 
#    0.000    0.714    0.000    0.000    0.000    0.000 
#    0.000    0.000    0.000    0.000    0.000    0.000 
#
# Total GULP energy -173506.757504 kJ/mol
# GULP energy per Si atom -12393.339822 kJ/mol
# Density = 2.162075 g / cm^3
# Si number density = 21.670077 Si / 1000 Ang^3
#
#
#
# Elastic Constant Matrix: (Units=GPa)
#
#
# Indices 1 2 3 4 5 6 
#
# 1 128.5440 52.3797 25.9857 9.8016 -5.9558 -39.3590
# 2 52.3797 137.9745 26.4084 -10.0033 -8.8530 -21.0664
# 3 25.9857 26.4084 58.9791 -11.5325 -12.9730 -12.5009
# 4 9.8016 -10.0033 -11.5325 28.3660 1.1477 1.2813
# 5 -5.9558 -8.8530 -12.9730 1.1477 35.6209 -2.3145
# 6 -39.3590 -21.0664 -12.5009 1.2813 -2.3145 40.1859
#
#
#
# Elastic Compliance Matrix: (Units=1/GPa)
#
#
# Indices 1 2 3 4 5 6 
#
# 1 0.013963 -0.003431 -0.003584 -0.008039 0.001156 0.011085
# 2 -0.003431 0.009335 -0.001453 0.003793 0.001162 0.001027
# 3 -0.003584 -0.001453 0.023401 0.009797 0.007450 0.003125
# 4 -0.008039 0.003793 0.009797 0.043478 0.001497 -0.004137
# 5 0.001156 0.001162 0.007450 0.001497 0.031599 0.005831
# 6 0.011085 0.001027 0.003125 -0.004137 0.005831 0.037719
#
#
# Mechanical properties :
#
#
# Convention : Reuss Voigt Hill
#
# Bulk Modulus (GPa) = 33.59875 59.44947 46.52411
# Shear Modulus (GPa) = 26.83093 35.54949 31.19021
#
# Velocity S-wave (km/s) = 3.52256 4.05469 3.79796
# Velocity P-wave (km/s) = 5.66418 7.02952 6.38346
#
# Compressibility (1/GPa) = 0.02976301
#
# Stress axis : x y z
#
# Youngs Moduli (GPa) = 71.62020 107.12717 42.73242
#
# Poissons Ratio (x) = 0.36755 0.15314
# Poissons Ratio (y) = 0.24572 0.06210
# Poissons Ratio (z) = 0.25667 0.15567
#
# Static dielectric constant tensor:
#      x y z
#    x 4.021960 -0.225330 -0.026050 
#    y -0.225330 4.535520 -0.582190 
#    z -0.026050 -0.582190 4.357250 
# 
# 
# High freq. dielectric constant tensor:
#      x y z
#    x 1.856470 -0.011920 -0.009470 
#    y -0.011920 1.860460 -0.019150 
#    z -0.009470 -0.019150 1.828240 
# 
# From -- ./inp_files/189530.got.cif
#   From: 2010.06.25/outbox.cif.g09.slc.cpg/sg2_95_cif.got.tgz:189530.got - 2010.06.27 13:26:56.
