data_PCOD8017492
_publ_section_title
;
Structure prediction by ZEFSAII (Michael W. Deem and Ramdas Pophale) SiO2 
 PCOD8017492
Probable space group: P -1
;
_chemical_formula_sum "Si O2"
_cell_formula_units_Z 16
_cell_length_a 9.311241
_cell_length_b 9.810395
_cell_length_c 15.118726
_cell_angle_alpha 75.311203
_cell_angle_beta 142.767951
_cell_angle_gamma 92.756270
_cell_volume 779.878649
_symmetry_space_group_name_H-M "P -1"
_symmetry_group_IT_number 2
_symmetry_cell_setting 'triclinic'
loop_
_space_group_symop_operation_xyz
x,y,z
-x,-y,-z
loop_
_atom_site_type_symbol
_atom_site_label
_atom_site_fract_x
_atom_site_fract_y
_atom_site_fract_z
Si Si1 0.962201 0.684862 0.268123
Si Si2 0.659545 0.592557 0.514805
Si Si3 0.961078 0.076760 0.599056
Si Si4 0.377196 0.876261 0.733764
Si Si5 0.904535 0.800383 0.710957
Si Si6 0.839510 0.895215 0.854891
Si Si7 0.457376 0.669083 0.963039
Si Si8 0.820854 0.217418 0.810926
O O1 0.113878 0.522953 0.403852
O O2 0.028275 0.806492 0.340852
O O3 0.045933 0.697788 0.205865
O O4 0.670681 0.702057 0.123909
O O5 0.500000 0.500000 0.500000
O O6 0.772176 0.688428 0.621271
O O7 0.472411 0.703755 0.339054
O O8 0.793653 0.156513 0.423127
O O9 0.842538 0.952083 0.601237
O O10 0.232959 0.006327 0.705915
O O11 0.605493 0.923529 0.798810
O O12 0.466334 0.730383 0.858679
O O13 0.797275 0.823901 0.753342
O O14 0.198129 0.737919 0.871649
O O15 0.883837 0.052415 0.831881
O O16 0.068983 0.786030 0.035872
O O17 0.500000 0.500000 0.000000
#
# Coordination Sequence:
#
# PCOD8017492 Si02
#       8
#     2   2   2   2   2   2   2   2
#     4  11  21  43  67  93 129 177 215 264 322 388
#     4  10  23  40  60  95 133 169 211 265 319 385
#     4  10  23  42  68  99 125 171 221 267 323 377
#     4  10  23  41  66  94 135 164 215 275 316 383
#     4  11  23  41  70  97 126 176 218 261 324 389
#     4  11  22  39  67  99 132 164 215 273 324 375
#     4  11  23  45  65  91 133 176 214 261 324 388
#     4  10  22  39  61 100 134 163 212 274 324 375
#
# _framework density 20.516010999999999
#
# number of rings (size 3 to 8) (size 9 to 14) (size 15 to 20)
#    0.000    1.500    3.750    0.750    3.500    5.000 
#    2.250    3.750    0.000    0.000    0.000    0.000 
#    0.000    0.000    0.000    0.000    0.000    0.000 
#
# Total GULP energy -198394.990337 kJ/mol
# GULP energy per Si atom -12399.686896 kJ/mol
# Density = 2.046932 g / cm^3
# Si number density = 20.516011 Si / 1000 Ang^3
#
#
#
# Elastic Constant Matrix: (Units=GPa)
#
#
# Indices 1 2 3 4 5 6 
#
# 1 79.3340 24.5011 31.7760 2.8645 0.7063 -4.0533
# 2 24.5011 113.8899 48.2055 11.8173 -3.8381 -8.1144
# 3 31.7760 48.2055 134.4281 -7.8719 9.2959 -6.7759
# 4 2.8645 11.8173 -7.8719 34.9109 2.4611 4.2013
# 5 0.7063 -3.8381 9.2959 2.4611 26.6796 7.6648
# 6 -4.0533 -8.1144 -6.7759 4.2013 7.6648 15.1549
#
#
#
# Elastic Compliance Matrix: (Units=1/GPa)
#
#
# Indices 1 2 3 4 5 6 
#
# 1 0.014389 -0.001599 -0.002795 -0.001529 -0.000139 0.002237
# 2 -0.001599 0.011841 -0.004140 -0.005506 0.002447 0.004350
# 3 -0.002795 -0.004140 0.010361 0.003951 -0.005453 0.003330
# 4 -0.001529 -0.005506 0.003951 0.032835 -0.002439 -0.009460
# 5 -0.000139 0.002447 -0.005453 -0.002439 0.046921 -0.024220
# 6 0.002237 0.004350 0.003330 -0.009460 -0.024220 0.085274
#
#
# Mechanical properties :
#
#
# Convention : Reuss Voigt Hill
#
# Bulk Modulus (GPa) = 51.22637 59.62413 55.42525
# Shear Modulus (GPa) = 22.20289 30.22703 26.21496
#
# Velocity S-wave (km/s) = 3.29328 3.84257 3.57848
# Velocity P-wave (km/s) = 6.28364 6.98659 6.64442
#
# Compressibility (1/GPa) = 0.01952119
#
# Stress axis : x y z
#
# Youngs Moduli (GPa) = 69.49741 84.45490 96.51936
#
# Poissons Ratio (x) = 0.13506 0.26977
# Poissons Ratio (y) = 0.11114 0.39963
# Poissons Ratio (z) = 0.19425 0.34967
#
# Static dielectric constant tensor:
#      x y z
#    x 3.593640 0.053290 0.153720 
#    y 0.053290 3.645490 -0.302790 
#    z 0.153720 -0.302790 4.295540 
# 
# 
# High freq. dielectric constant tensor:
#      x y z
#    x 1.785930 0.008170 0.009870 
#    y 0.008170 1.796890 -0.008470 
#    z 0.009870 -0.008470 1.822070 
# 
# From -- ./inp_files/209252.got.cif
#   From: 2010.06.25/outbox.cif.g09.slc.cpg/sg2_105_cif.got.tgz:209252.got - 2010.06.27 13:26:56.
