data_PCOD8017081
_publ_section_title
;
Structure prediction by ZEFSAII (Michael W. Deem and Ramdas Pophale) SiO2 
 PCOD8017081
Probable space group: P -1
;
_chemical_formula_sum "Si O2"
_cell_formula_units_Z 14
_cell_length_a 13.732245
_cell_length_b 8.870548
_cell_length_c 7.900905
_cell_angle_alpha 47.788813
_cell_angle_beta 96.338438
_cell_angle_gamma 73.369212
_cell_volume 617.785411
_symmetry_space_group_name_H-M "P -1"
_symmetry_group_IT_number 2
_symmetry_cell_setting 'triclinic'
loop_
_space_group_symop_operation_xyz
x,y,z
-x,-y,-z
loop_
_atom_site_type_symbol
_atom_site_label
_atom_site_fract_x
_atom_site_fract_y
_atom_site_fract_z
Si Si1 0.621759 0.014432 0.187629
Si Si2 0.854455 0.309489 0.818638
Si Si3 0.774464 0.656478 0.240945
Si Si4 0.343765 0.327282 0.282067
Si Si5 0.400576 0.450149 0.872398
Si Si6 0.106320 0.110066 0.079571
Si Si7 0.716711 0.038315 0.512884
O O1 0.510432 0.258177 0.941148
O O2 0.712750 0.043840 0.301167
O O3 0.676991 0.907664 0.099978
O O4 0.589203 0.837644 0.419095
O O5 0.841452 0.493277 0.533986
O O6 0.760526 0.432885 0.851422
O O7 0.846203 0.094546 0.897478
O O8 0.974242 0.219238 0.999725
O O9 0.715078 0.540836 0.209713
O O10 0.864178 0.691898 0.123518
O O11 0.418022 0.394362 0.121611
O O12 0.306715 0.170679 0.274747
O O13 0.382068 0.707516 0.635864
O O14 0.164613 0.011240 0.348150
#
# Coordination Sequence:
#
# PCOD8017081 Si02
#       7
#     2   2   2   2   2   2   2
#     4   9  22  39  57  87 118 148 192 234 277 340
#     4  10  23  41  60  84 114 150 191 241 283 338
#     4  11  21  40  60  87 114 151 191 236 281 342
#     4   9  22  38  58  85 114 150 189 236 279 340
#     4  12  20  39  61  83 121 154 182 236 286 330
#     4  11  22  41  61  83 115 151 191 237 289 331
#     4  10  22  38  57  88 116 146 197 232 274 351
#
# _framework density 22.661588999999999
#
# number of rings (size 3 to 8) (size 9 to 14) (size 15 to 20)
#    0.857    0.857    2.857    1.714    2.000    0.571 
#    0.000    1.429    0.000    0.000    0.000    0.000 
#    0.000    0.000    0.000    0.000    0.000    0.000 
#
# Total GULP energy -173471.317518 kJ/mol
# GULP energy per Si atom -12390.808394 kJ/mol
# Density = 2.261001 g / cm^3
# Si number density = 22.661589 Si / 1000 Ang^3
#
#
#
# Elastic Constant Matrix: (Units=GPa)
#
#
# Indices 1 2 3 4 5 6 
#
# 1 27.6851 5.1488 8.8782 4.2714 8.7618 6.6027
# 2 5.1488 61.3908 16.7361 -16.5942 5.9469 -0.0257
# 3 8.8782 16.7361 67.9164 -11.7136 15.2136 5.9209
# 4 4.2714 -16.5942 -11.7136 35.0443 -0.2784 8.5202
# 5 8.7618 5.9469 15.2136 -0.2784 24.2717 3.4599
# 6 6.6027 -0.0257 5.9209 8.5202 3.4599 30.1461
#
#
#
# Elastic Compliance Matrix: (Units=1/GPa)
#
#
# Indices 1 2 3 4 5 6 
#
# 1 0.044034 -0.003532 -0.002706 -0.006635 -0.012584 -0.005796
# 2 -0.003532 0.019929 -0.002307 0.009370 -0.001885 -0.001188
# 3 -0.002706 -0.002307 0.019354 0.006582 -0.009953 -0.003928
# 4 -0.006635 0.009370 0.006582 0.038512 -0.002091 -0.010476
# 5 -0.012584 -0.001885 -0.009953 -0.002091 0.052523 -0.000728
# 6 -0.005796 -0.001188 -0.003928 -0.010476 -0.000728 0.038256
#
#
# Mechanical properties :
#
#
# Convention : Reuss Voigt Hill
#
# Bulk Modulus (GPa) = 15.09990 24.27983 19.68987
# Shear Modulus (GPa) = 19.85906 26.30768 23.08337
#
# Velocity S-wave (km/s) = 2.96350 3.41088 3.19503
# Velocity P-wave (km/s) = 4.28806 5.12343 4.72425
#
# Compressibility (1/GPa) = 0.06622560
#
# Stress axis : x y z
#
# Youngs Moduli (GPa) = 22.70975 50.17762 51.66995
#
# Poissons Ratio (x) = 0.17724 0.13982
# Poissons Ratio (y) = 0.08022 0.11922
# Poissons Ratio (z) = 0.06145 0.11578
#
# Static dielectric constant tensor:
#      x y z
#    x 3.548570 0.262050 0.085760 
#    y 0.262050 4.158870 -0.160460 
#    z 0.085760 -0.160460 4.081910 
# 
# 
# High freq. dielectric constant tensor:
#      x y z
#    x 1.854320 0.019760 0.007610 
#    y 0.019760 1.896260 -0.011100 
#    z 0.007610 -0.011100 1.898490 
# 
# From -- ./inp_files/179720.got.cif
#   From: 2010.06.25/outbox.cif.g09.slc.cpg/sg2_90_cif.got.tgz:179720.got - 2010.06.27 13:26:56.
