data_PCOD8017695
_publ_section_title
;
Structure prediction by ZEFSAII (Michael W. Deem and Ramdas Pophale) SiO2 
 PCOD8017695
Probable space group: P -1
;
_chemical_formula_sum "Si O2"
_cell_formula_units_Z 16
_cell_length_a 8.419257
_cell_length_b 9.379559
_cell_length_c 13.013613
_cell_angle_alpha 119.114041
_cell_angle_beta 61.458922
_cell_angle_gamma 103.399445
_cell_volume 788.718741
_symmetry_space_group_name_H-M "P -1"
_symmetry_group_IT_number 2
_symmetry_cell_setting 'triclinic'
loop_
_space_group_symop_operation_xyz
x,y,z
-x,-y,-z
loop_
_atom_site_type_symbol
_atom_site_label
_atom_site_fract_x
_atom_site_fract_y
_atom_site_fract_z
Si Si1 0.913849 0.871708 0.060283
Si Si2 0.657858 0.193664 0.580058
Si Si3 0.144487 0.636450 0.023255
Si Si4 0.589123 0.055069 0.334218
Si Si5 0.994205 0.598142 0.430009
Si Si6 0.592733 0.642873 0.586553
Si Si7 0.192024 0.453382 0.139706
Si Si8 0.492318 0.475483 0.213807
O O1 0.062429 0.813870 0.079933
O O2 0.744292 0.949204 0.197090
O O3 0.843916 0.713853 0.966608
O O4 0.000000 0.000000 0.000000
O O5 0.669339 0.137605 0.439812
O O6 0.504442 0.332108 0.693426
O O7 0.856323 0.258595 0.571276
O O8 0.592520 0.046456 0.620506
O O9 0.198952 0.612854 0.117839
O O10 0.309801 0.598923 0.882857
O O11 0.000000 0.500000 0.000000
O O12 0.526978 0.195640 0.325998
O O13 0.796987 0.672517 0.494648
O O14 0.000000 0.500000 0.500000
O O15 0.035750 0.474638 0.280459
O O16 0.500000 0.500000 0.500000
O O17 0.611077 0.605797 0.687959
O O18 0.386414 0.440411 0.129013
#
# Coordination Sequence:
#
# PCOD8017695 Si02
#       8
#     2   2   2   2   2   2   2   2
#     4  11  25  41  64  95 135 174 209 265 320 387
#     4  10  22  41  66  91 134 171 206 282 319 376
#     4  10  22  39  64  92 123 170 217 251 309 392
#     4  11  24  41  62  98 136 168 216 262 334 379
#     4  11  22  42  69  97 124 166 225 269 325 381
#     4  12  24  39  70  97 125 172 217 275 320 400
#     4  10  23  41  67  92 128 170 212 267 315 386
#     4  11  21  42  67  93 127 167 222 264 319 374
#
# _framework density 20.286064
#
# number of rings (size 3 to 8) (size 9 to 14) (size 15 to 20)
#    0.000    1.250    3.750    2.625    7.000    3.500 
#    0.000    7.500    0.000    0.000    0.000    0.000 
#    0.000    0.000    0.000    0.000    0.000    0.000 
#
# Total GULP energy -198356.946467 kJ/mol
# GULP energy per Si atom -12397.309154 kJ/mol
# Density = 2.023989 g / cm^3
# Si number density = 20.286064 Si / 1000 Ang^3
#
#
#
# Elastic Constant Matrix: (Units=GPa)
#
#
# Indices 1 2 3 4 5 6 
#
# 1 121.6474 49.1614 56.4561 5.0213 -15.1127 -3.6970
# 2 49.1614 99.4459 25.0114 7.6330 10.1824 -20.8098
# 3 56.4561 25.0114 121.7259 13.6502 -3.1332 -9.4239
# 4 5.0213 7.6330 13.6502 30.0198 -4.2506 -0.0966
# 5 -15.1127 10.1824 -3.1332 -4.2506 40.0090 -1.0879
# 6 -3.6970 -20.8098 -9.4239 -0.0966 -1.0879 35.0880
#
#
#
# Elastic Compliance Matrix: (Units=1/GPa)
#
#
# Indices 1 2 3 4 5 6 
#
# 1 0.014599 -0.007665 -0.005691 0.003105 0.007233 -0.004304
# 2 -0.007665 0.016531 0.001174 -0.004450 -0.007237 0.009075
# 3 -0.005691 0.001174 0.011335 -0.004772 -0.001984 0.003066
# 4 0.003105 -0.004450 -0.004772 0.036898 0.005762 -0.003314
# 5 0.007233 -0.007237 -0.001984 0.005762 0.029940 -0.003119
# 6 -0.004304 0.009075 0.003066 -0.003314 -0.003119 0.034146
#
#
# Mechanical properties :
#
#
# Convention : Reuss Voigt Hill
#
# Bulk Modulus (GPa) = 55.24810 67.11967 61.18388
# Shear Modulus (GPa) = 28.76056 35.16937 31.96497
#
# Velocity S-wave (km/s) = 3.76939 4.16826 3.97383
# Velocity P-wave (km/s) = 6.79985 7.50495 7.16108
#
# Compressibility (1/GPa) = 0.01810017
#
# Stress axis : x y z
#
# Youngs Moduli (GPa) = 68.49778 60.49068 88.22243
#
# Poissons Ratio (x) = 0.46367 0.50209
# Poissons Ratio (y) = 0.52504 -0.10355
# Poissons Ratio (z) = 0.38984 -0.07100
#
# Static dielectric constant tensor:
#      x y z
#    x 3.808300 -0.300350 0.017310 
#    y -0.300350 3.991660 -0.167860 
#    z 0.017310 -0.167860 3.836940 
# 
# 
# High freq. dielectric constant tensor:
#      x y z
#    x 1.794890 -0.006340 -0.007340 
#    y -0.006340 1.790490 -0.012820 
#    z -0.007340 -0.012820 1.803150 
# 
# From -- ./inp_files/176279.got.cif
#   From: 2010.06.25/outbox.cif.g09.slc.cpg/sg2_89_cif.got.tgz:176279.got - 2010.06.27 13:26:56.
