data_PCOD8017336
_publ_section_title
;
Structure prediction by ZEFSAII (Michael W. Deem and Ramdas Pophale) SiO2 
 PCOD8017336
Probable space group: P -1
;
_chemical_formula_sum "Si O2"
_cell_formula_units_Z 10
_cell_length_a 9.572482
_cell_length_b 7.517608
_cell_length_c 13.180303
_cell_angle_alpha 75.450649
_cell_angle_beta 34.145321
_cell_angle_gamma 61.525113
_cell_volume 447.780626
_symmetry_space_group_name_H-M "P -1"
_symmetry_group_IT_number 2
_symmetry_cell_setting 'triclinic'
loop_
_space_group_symop_operation_xyz
x,y,z
-x,-y,-z
loop_
_atom_site_type_symbol
_atom_site_label
_atom_site_fract_x
_atom_site_fract_y
_atom_site_fract_z
Si Si1 0.264728 0.598427 0.041323
Si Si2 0.592668 0.384517 0.261400
Si Si3 0.143271 0.959319 0.698701
Si Si4 0.710524 0.152638 0.595529
Si Si5 0.155211 0.280652 0.032070
O O1 0.174266 0.428779 0.085359
O O2 0.500000 0.500000 0.000000
O O3 0.401564 0.663210 0.855126
O O4 0.983060 0.801212 0.223841
O O5 0.607803 0.195520 0.348335
O O6 0.323413 0.611804 0.419882
O O7 0.877166 0.408821 0.107005
O O8 0.285017 0.930703 0.508098
O O9 0.892403 0.896733 0.855430
O O10 0.448035 0.155015 0.811599
O O11 0.000000 0.000000 0.500000
#
# Coordination Sequence:
#
# PCOD8017336 Si02
#       5
#     2   2   2   2   2
#     4  11  20  36  62  93 118 152 199 250 294 343
#     4   9  21  43  60  83 125 159 196 240 294 360
#     4  10  22  38  67  83 118 162 202 234 296 356
#     4  11  20  36  62  93 118 152 199 250 294 343
#     4   9  23  42  63  83 123 159 200 233 301 358
#
# _framework density 22.332363000000001
#
# number of rings (size 3 to 8) (size 9 to 14) (size 15 to 20)
#    1.200    0.800    0.000    6.000    0.000    3.200 
#    0.000    8.000    0.000   12.000    0.000    0.000 
#    0.000    0.000    0.000    0.000    0.000    0.000 
#
# Total GULP energy -123959.911587 kJ/mol
# GULP energy per Si atom -12395.991159 kJ/mol
# Density = 2.228153 g / cm^3
# Si number density = 22.332363 Si / 1000 Ang^3
#
#
#
# Elastic Constant Matrix: (Units=GPa)
#
#
# Indices 1 2 3 4 5 6 
#
# 1 131.1162 49.6093 45.6950 11.7164 21.6319 -17.2870
# 2 49.6093 85.2002 50.5120 24.6875 3.7259 -8.6845
# 3 45.6950 50.5120 121.5327 27.5448 21.9998 6.6430
# 4 11.7164 24.6875 27.5448 37.8186 4.6482 -3.0596
# 5 21.6319 3.7259 21.9998 4.6482 41.5574 11.3066
# 6 -17.2870 -8.6845 6.6430 -3.0596 11.3066 44.0352
#
#
#
# Elastic Compliance Matrix: (Units=1/GPa)
#
#
# Indices 1 2 3 4 5 6 
#
# 1 0.012107 -0.005864 -0.001833 0.002701 -0.006679 0.005775
# 2 -0.005864 0.020609 -0.005403 -0.008225 0.004773 0.000781
# 3 -0.001833 -0.005403 0.013293 -0.005325 -0.004161 -0.003092
# 4 0.002701 -0.008225 -0.005325 0.035466 -0.002744 0.003410
# 5 -0.006679 0.004773 -0.004161 -0.002744 0.032210 -0.009514
# 6 0.005775 0.000781 -0.003092 0.003410 -0.009514 0.028277
#
#
# Mechanical properties :
#
#
# Convention : Reuss Voigt Hill
#
# Bulk Modulus (GPa) = 50.48915 69.94240 60.21578
# Shear Modulus (GPa) = 28.61000 37.48441 33.04721
#
# Velocity S-wave (km/s) = 3.58313 4.10137 3.85098
# Velocity P-wave (km/s) = 6.30679 7.33588 6.84071
#
# Compressibility (1/GPa) = 0.01980623
#
# Stress axis : x y z
#
# Youngs Moduli (GPa) = 82.59992 48.52263 75.23038
#
# Poissons Ratio (x) = 0.28454 0.13793
# Poissons Ratio (y) = 0.48437 0.40649
# Poissons Ratio (z) = 0.15144 0.26218
#
# Static dielectric constant tensor:
#      x y z
#    x 3.811250 -0.125000 0.229840 
#    y -0.125000 3.961160 0.134240 
#    z 0.229840 0.134240 3.836720 
# 
# 
# High freq. dielectric constant tensor:
#      x y z
#    x 1.867870 -0.010800 0.021020 
#    y -0.010800 1.883820 0.010950 
#    z 0.021020 0.010950 1.871400 
# 
# From -- ./inp_files/156338.got.cif
#   From: 2010.06.25/outbox.cif.g09.slc.cpg/sg2_79_cif.got.tgz:156338.got - 2010.06.27 13:26:56.
