data_PCOD8017248
_publ_section_title
;
Structure prediction by ZEFSAII (Michael W. Deem and Ramdas Pophale) SiO2 
 PCOD8017248
Probable space group: P -1
;
_chemical_formula_sum "Si O2"
_cell_formula_units_Z 12
_cell_length_a 7.982064
_cell_length_b 11.949099
_cell_length_c 8.412563
_cell_angle_alpha 90.016718
_cell_angle_beta 109.903051
_cell_angle_gamma 50.818166
_cell_volume 558.838802
_symmetry_space_group_name_H-M "P -1"
_symmetry_group_IT_number 2
_symmetry_cell_setting 'triclinic'
loop_
_space_group_symop_operation_xyz
x,y,z
-x,-y,-z
loop_
_atom_site_type_symbol
_atom_site_label
_atom_site_fract_x
_atom_site_fract_y
_atom_site_fract_z
Si Si1 0.438166 0.183693 0.450371
Si Si2 0.020050 0.747804 0.709763
Si Si3 0.378245 0.203924 0.792891
Si Si4 0.162408 0.074323 0.635418
Si Si5 0.997055 0.521155 0.811348
Si Si6 0.155349 0.915463 0.898304
O O1 0.475249 0.194169 0.649018
O O2 0.275218 0.138539 0.371065
O O3 0.283578 0.353409 0.329787
O O4 0.686587 0.067128 0.438059
O O5 0.130196 0.581916 0.799577
O O6 0.140268 0.790388 0.857634
O O7 0.047564 0.771164 0.531420
O O8 0.329851 0.091322 0.785626
O O9 0.126058 0.368918 0.755495
O O10 0.569910 0.162934 0.985777
O O11 0.044672 0.037320 0.720849
O O12 0.000000 0.500000 0.000000
O O13 0.000000 0.000000 0.000000
#
# Coordination Sequence:
#
# PCOD8017248 Si02
#       6
#     2   2   2   2   2   2
#     4   9  20  40  63  88 115 155 204 238 289 352
#     4   9  22  38  60  85 124 151 196 237 301 338
#     4  11  22  38  63  90 118 157 201 238 293 356
#     4  11  21  39  66  86 118 159 199 242 291 350
#     4  10  22  38  64  87 120 156 198 243 290 354
#     4  12  24  36  59  93 123 150 198 250 295 343
#
# _framework density 21.473098
#
# number of rings (size 3 to 8) (size 9 to 14) (size 15 to 20)
#    1.000    0.667    0.000    6.500    2.333    0.667 
#    0.000    0.000    0.000    3.000    0.000    0.000 
#    0.000    0.000    0.000    0.000    0.000    0.000 
#
# Total GULP energy -148691.717930 kJ/mol
# GULP energy per Si atom -12390.976494 kJ/mol
# Density = 2.142422 g / cm^3
# Si number density = 21.473098 Si / 1000 Ang^3
#
#
#
# Elastic Constant Matrix: (Units=GPa)
#
#
# Indices 1 2 3 4 5 6 
#
# 1 57.3508 34.0058 31.1328 3.9153 -24.7732 7.1402
# 2 34.0058 89.6493 32.6103 4.2643 -20.7421 8.2676
# 3 31.1328 32.6103 96.1967 7.0587 -11.1366 9.0256
# 4 3.9153 4.2643 7.0587 35.9059 7.3557 -7.7841
# 5 -24.7732 -20.7421 -11.1366 7.3557 53.4123 -0.7957
# 6 7.1402 8.2676 9.0256 -7.7841 -0.7957 20.9842
#
#
#
# Elastic Compliance Matrix: (Units=1/GPa)
#
#
# Indices 1 2 3 4 5 6 
#
# 1 0.029864 -0.005926 -0.005320 -0.005311 0.011066 -0.007089
# 2 -0.005926 0.015424 -0.002470 -0.002101 0.002961 -0.003665
# 3 -0.005320 -0.002470 0.013480 -0.002574 -0.000321 -0.003981
# 4 -0.005311 -0.002101 -0.002574 0.034397 -0.008312 0.016186
# 5 0.011066 0.002961 -0.000321 -0.008312 0.025980 -0.006892
# 6 -0.007089 -0.003665 -0.003981 0.016186 -0.006892 0.058967
#
#
# Mechanical properties :
#
#
# Convention : Reuss Voigt Hill
#
# Bulk Modulus (GPa) = 31.91295 48.74386 40.32840
# Shear Modulus (GPa) = 23.14945 31.75699 27.45322
#
# Velocity S-wave (km/s) = 3.28696 3.84984 3.57948
# Velocity P-wave (km/s) = 5.41290 6.52004 5.99210
#
# Compressibility (1/GPa) = 0.03133524
#
# Stress axis : x y z
#
# Youngs Moduli (GPa) = 33.48559 64.83449 74.18552
#
# Poissons Ratio (x) = 0.38420 0.39468
# Poissons Ratio (y) = 0.19843 0.18323
# Poissons Ratio (z) = 0.17815 0.16014
#
# Static dielectric constant tensor:
#      x y z
#    x 3.889000 0.460750 0.303680 
#    y 0.460750 4.004870 0.175890 
#    z 0.303680 0.175890 4.683310 
# 
# 
# High freq. dielectric constant tensor:
#      x y z
#    x 1.818950 0.020200 -0.011560 
#    y 0.020200 1.827910 -0.005700 
#    z -0.011560 -0.005700 1.853520 
# 
# From -- ./inp_files/181915.got.cif
#   From: 2010.06.25/outbox.cif.g09.slc.cpg/sg2_91_cif.got.tgz:181915.got - 2010.06.27 13:26:56.
