data_PCOD8017197
_publ_section_title
;
Structure prediction by ZEFSAII (Michael W. Deem and Ramdas Pophale) SiO2 
 PCOD8017197
Probable space group: P -1
;
_chemical_formula_sum "Si O2"
_cell_formula_units_Z 16
_cell_length_a 7.997114
_cell_length_b 7.847420
_cell_length_c 19.746781
_cell_angle_alpha 53.717100
_cell_angle_beta 107.622063
_cell_angle_gamma 119.412934
_cell_volume 870.067405
_symmetry_space_group_name_H-M "P -1"
_symmetry_group_IT_number 2
_symmetry_cell_setting 'triclinic'
loop_
_space_group_symop_operation_xyz
x,y,z
-x,-y,-z
loop_
_atom_site_type_symbol
_atom_site_label
_atom_site_fract_x
_atom_site_fract_y
_atom_site_fract_z
Si Si1 0.716758 0.162194 0.498204
Si Si2 0.283093 0.444617 0.498630
Si Si3 0.726891 0.263004 0.904078
Si Si4 0.284449 0.045148 0.897474
Si Si5 0.994958 0.510634 0.359285
Si Si6 0.951871 0.275347 0.177304
Si Si7 0.048468 0.348344 0.827849
Si Si8 0.004836 0.091471 0.637000
O O1 0.748949 0.373620 0.500602
O O2 0.810874 0.275483 0.411602
O O3 0.820263 0.017162 0.582300
O O4 0.500000 0.000000 0.500000
O O5 0.500000 0.500000 0.500000
O O6 0.187894 0.200967 0.583491
O O7 0.180401 0.456675 0.412713
O O8 0.506816 0.201638 0.869674
O O9 0.840374 0.539393 0.868989
O O10 0.840771 0.193846 0.873877
O O11 0.730862 0.126379 0.003779
O O12 0.180847 0.209752 0.868132
O O13 0.180244 0.893149 0.855925
O O14 0.995411 0.558152 0.269524
O O15 0.994559 0.733234 0.345461
O O16 0.845760 0.428089 0.162385
O O17 0.996069 0.135377 0.275591
#
# Coordination Sequence:
#
# PCOD8017197 Si02
#       8
#     2   2   2   2   2   2   2   2
#     4   9  19  33  54  78 111 156 193 234 296 343
#     4   9  19  33  54  78 111 156 193 234 296 343
#     4   9  24  40  63  96 115 161 210 232 317 379
#     4  11  20  46  63  84 135 153 188 276 293 347
#     4   9  18  37  54  77 119 155 188 246 296 339
#     4  10  22  38  62  93 117 159 206 241 305 366
#     4  10  22  38  62  93 117 159 206 241 305 366
#     4   9  18  37  54  77 119 155 188 246 296 339
#
# _framework density 18.389381
#
# number of rings (size 3 to 8) (size 9 to 14) (size 15 to 20)
#    0.750    1.750    1.250    2.250    0.000    4.000 
#    2.250    6.250    0.000    0.000    0.000    0.000 
#    0.000    0.000    0.000    0.000    0.000    0.000 
#
# Total GULP energy -198225.438559 kJ/mol
# GULP energy per Si atom -12389.089910 kJ/mol
# Density = 1.834753 g / cm^3
# Si number density = 18.389381 Si / 1000 Ang^3
#
#
#
# Elastic Constant Matrix: (Units=GPa)
#
#
# Indices 1 2 3 4 5 6 
#
# 1 120.4545 40.2538 35.0811 -8.3630 13.5839 21.4673
# 2 40.2538 88.9113 27.0191 -10.9409 15.0089 15.3306
# 3 35.0811 27.0191 95.7849 -18.3572 7.8453 16.2352
# 4 -8.3630 -10.9409 -18.3572 17.8411 -1.6228 1.8758
# 5 13.5839 15.0089 7.8453 -1.6228 18.6631 -0.4430
# 6 21.4673 15.3306 16.2352 1.8758 -0.4430 39.6547
#
#
#
# Elastic Compliance Matrix: (Units=1/GPa)
#
#
# Indices 1 2 3 4 5 6 
#
# 1 0.011228 -0.002667 -0.001856 0.001710 -0.005204 -0.004426
# 2 -0.002667 0.016170 -0.000347 0.007909 -0.010351 -0.005155
# 3 -0.001856 -0.000347 0.015409 0.015061 -0.003679 -0.005924
# 4 0.001710 0.007909 0.015061 0.077981 -0.007486 -0.013922
# 5 -0.005204 -0.010351 -0.003679 -0.007486 0.066813 0.009425
# 6 -0.004426 -0.005155 -0.005924 -0.013922 0.009425 0.032796
#
#
# Mechanical properties :
#
#
# Convention : Reuss Voigt Hill
#
# Bulk Modulus (GPa) = 30.24151 56.65096 43.44623
# Shear Modulus (GPa) = 20.73319 28.75156 24.74238
#
# Velocity S-wave (km/s) = 3.36140 3.95839 3.67205
# Velocity P-wave (km/s) = 5.61660 7.19479 6.45411
#
# Compressibility (1/GPa) = 0.03306714
#
# Stress axis : x y z
#
# Youngs Moduli (GPa) = 89.06169 61.84422 64.89601
#
# Poissons Ratio (x) = 0.16497 0.12042
# Poissons Ratio (y) = 0.23757 0.02251
# Poissons Ratio (z) = 0.16527 0.02145
#
# Static dielectric constant tensor:
#      x y z
#    x 3.306590 -0.010760 -0.043250 
#    y -0.010760 3.289240 -0.059740 
#    z -0.043250 -0.059740 3.463700 
# 
# 
# High freq. dielectric constant tensor:
#      x y z
#    x 1.705810 0.000550 -0.003290 
#    y 0.000550 1.705200 -0.003400 
#    z -0.003290 -0.003400 1.725230 
# 
# From -- ./inp_files/212717.got.cif
#   From: 2010.06.25/outbox.cif.g09.slc.cpg/sg2_107_cif.got.tgz:212717.got - 2010.06.27 13:26:56.
