data_PCOD8017349
_publ_section_title
;
Structure prediction by ZEFSAII (Michael W. Deem and Ramdas Pophale) SiO2 
 PCOD8017349
Probable space group: P -1
;
_chemical_formula_sum "Si O2"
_cell_formula_units_Z 16
_cell_length_a 8.260439
_cell_length_b 10.182488
_cell_length_c 16.082991
_cell_angle_alpha 144.974558
_cell_angle_beta 109.586191
_cell_angle_gamma 79.455276
_cell_volume 720.933101
_symmetry_space_group_name_H-M "P -1"
_symmetry_group_IT_number 2
_symmetry_cell_setting 'triclinic'
loop_
_space_group_symop_operation_xyz
x,y,z
-x,-y,-z
loop_
_atom_site_type_symbol
_atom_site_label
_atom_site_fract_x
_atom_site_fract_y
_atom_site_fract_z
Si Si1 0.430152 0.732025 0.843604
Si Si2 0.216013 0.768827 0.450014
Si Si3 0.285764 0.243861 0.794800
Si Si4 0.087440 0.175935 0.356621
Si Si5 0.386188 0.486745 0.099422
Si Si6 0.952490 0.420646 0.316430
Si Si7 0.920899 0.262436 0.765814
Si Si8 0.456863 0.415019 0.539822
O O1 0.563326 0.607788 0.853336
O O2 0.230580 0.666437 0.807174
O O3 0.424395 0.643585 0.702019
O O4 0.500000 0.000000 0.000000
O O5 0.175871 0.851874 0.393199
O O6 0.407188 0.709478 0.452980
O O7 0.090881 0.525261 0.324281
O O8 0.206978 0.975768 0.621261
O O9 0.446341 0.324493 0.801534
O O10 0.118426 0.383089 0.833347
O O11 0.360685 0.279455 0.919868
O O12 0.040646 0.366445 0.509759
O O13 0.293543 0.212151 0.400133
O O14 0.001835 0.203317 0.265066
O O15 0.033426 0.921208 0.253324
O O16 0.202245 0.578436 0.128119
O O17 0.500000 0.500000 0.500000
#
# Coordination Sequence:
#
# PCOD8017349 Si02
#       8
#     2   2   2   2   2   2   2   2
#     4  11  26  45  70  92 138 185 223 279 349 414
#     4  12  23  42  73 100 135 174 235 287 342 402
#     4  11  26  43  70  98 141 186 219 285 353 407
#     4  10  22  38  67  99 132 173 226 278 342 401
#     4  11  26  47  64 103 143 181 232 279 345 424
#     4  10  22  42  65  99 132 175 227 278 335 413
#     4  12  24  43  72 104 134 181 233 293 340 404
#     4  11  23  41  67 100 135 170 226 289 338 402
#
# _framework density 22.193460999999999
#
# number of rings (size 3 to 8) (size 9 to 14) (size 15 to 20)
#    0.000    1.000    3.750    2.250    7.000    1.000 
#    0.000    0.625    0.000    0.000    0.000    0.000 
#    0.000    0.000    0.000    0.000    0.000    0.000 
#
# Total GULP energy -198287.323660 kJ/mol
# GULP energy per Si atom -12392.957729 kJ/mol
# Density = 2.214295 g / cm^3
# Si number density = 22.193461 Si / 1000 Ang^3
#
#
#
# Elastic Constant Matrix: (Units=GPa)
#
#
# Indices 1 2 3 4 5 6 
#
# 1 126.8600 10.7952 6.1214 6.2997 0.6286 -9.2519
# 2 10.7952 102.9551 15.0043 0.5945 -6.8916 -8.2318
# 3 6.1214 15.0043 81.6657 -2.1025 -3.7056 3.4216
# 4 6.2997 0.5945 -2.1025 25.8723 -1.2446 -0.2419
# 5 0.6286 -6.8916 -3.7056 -1.2446 21.1515 -4.9283
# 6 -9.2519 -8.2318 3.4216 -0.2419 -4.9283 35.2010
#
#
#
# Elastic Compliance Matrix: (Units=1/GPa)
#
#
# Indices 1 2 3 4 5 6 
#
# 1 0.008216 -0.000605 -0.000651 -0.002030 -0.000200 0.002039
# 2 -0.000605 0.010544 -0.001845 -0.000032 0.003832 0.003022
# 3 -0.000651 -0.001845 0.012797 0.001291 0.001352 -0.001648
# 4 -0.002030 -0.000032 0.001291 0.039375 0.002585 -0.000034
# 5 -0.000200 0.003832 0.001352 0.002585 0.050747 0.007835
# 6 0.002039 0.003022 -0.001648 -0.000034 0.007835 0.030908
#
#
# Mechanical properties :
#
#
# Convention : Reuss Voigt Hill
#
# Bulk Modulus (GPa) = 39.44388 41.70253 40.57320
# Shear Modulus (GPa) = 29.89688 35.08229 32.48959
#
# Velocity S-wave (km/s) = 3.67427 3.98018 3.83028
# Velocity P-wave (km/s) = 5.98429 6.32089 6.15489
#
# Compressibility (1/GPa) = 0.02535248
#
# Stress axis : x y z
#
# Youngs Moduli (GPa) = 121.71122 94.84317 78.14606
#
# Poissons Ratio (x) = 0.05739 0.05091
# Poissons Ratio (y) = 0.07365 0.14421
# Poissons Ratio (z) = 0.07929 0.17502
#
# Static dielectric constant tensor:
#      x y z
#    x 4.009720 -0.147760 0.047600 
#    y -0.147760 4.040940 -0.143330 
#    z 0.047600 -0.143330 3.730510 
# 
# 
# High freq. dielectric constant tensor:
#      x y z
#    x 1.897370 -0.004170 0.012520 
#    y -0.004170 1.867590 -0.017240 
#    z 0.012520 -0.017240 1.851180 
# 
# From -- ./inp_files/495926.got.cif
#   From: 2010.06.25/outbox.cif.g09.slc.cpg/sg2_248_cif.got.tgz:495926.got - 2010.06.27 13:26:56.
