data_PCOD8017144
_publ_section_title
;
Structure prediction by ZEFSAII (Michael W. Deem and Ramdas Pophale) SiO2 
 PCOD8017144
Probable space group: P -1
;
_chemical_formula_sum "Si O2"
_cell_formula_units_Z 14
_cell_length_a 12.752952
_cell_length_b 11.406191
_cell_length_c 8.011987
_cell_angle_alpha 77.515068
_cell_angle_beta 112.807097
_cell_angle_gamma 143.816567
_cell_volume 624.161645
_symmetry_space_group_name_H-M "P -1"
_symmetry_group_IT_number 2
_symmetry_cell_setting 'triclinic'
loop_
_space_group_symop_operation_xyz
x,y,z
-x,-y,-z
loop_
_atom_site_type_symbol
_atom_site_label
_atom_site_fract_x
_atom_site_fract_y
_atom_site_fract_z
Si Si1 0.272931 0.174604 0.429945
Si Si2 0.256344 0.743250 0.254567
Si Si3 0.900462 0.272267 0.167088
Si Si4 0.241956 0.319046 0.956830
Si Si5 0.301774 0.927059 0.560705
Si Si6 0.585671 0.545724 0.299481
Si Si7 0.040806 0.923016 0.885772
O O1 0.483950 0.365192 0.416199
O O2 0.274653 0.243226 0.586850
O O3 0.111712 0.103149 0.246285
O O4 0.220507 0.991963 0.473983
O O5 0.232095 0.797278 0.393711
O O6 0.109185 0.508014 0.234090
O O7 0.470382 0.874918 0.338555
O O8 0.216956 0.789368 0.051361
O O9 0.785622 0.207359 0.284608
O O10 0.924549 0.148322 0.209278
O O11 0.283209 0.412244 0.770897
O O12 0.227655 0.159659 0.971578
O O13 0.428081 0.497039 0.129685
O O14 0.055527 0.219044 0.962586
#
# Coordination Sequence:
#
# PCOD8017144 Si02
#       7
#     2   2   2   2   2   2   2
#     4  10  22  38  60  95 131 159 205 259 321 393
#     4  10  26  46  68  96 124 172 230 268 310 382
#     4  11  24  46  70  94 131 171 216 273 322 377
#     4   9  19  35  55  87 127 165 203 245 311 384
#     4  11  24  46  70  94 131 171 216 273 322 377
#     4   9  19  35  55  87 127 165 203 245 311 384
#     4  10  22  38  60  95 131 159 205 259 321 393
#
# _framework density 22.430088000000001
#
# number of rings (size 3 to 8) (size 9 to 14) (size 15 to 20)
#    0.000    2.000    0.000    1.714   12.000    2.286 
#    0.000    5.714    0.000    0.000    0.000    0.000 
#    0.000    0.000    0.000    0.000    0.000    0.000 
#
# Total GULP energy -173517.029466 kJ/mol
# GULP energy per Si atom -12394.073533 kJ/mol
# Density = 2.237904 g / cm^3
# Si number density = 22.430088 Si / 1000 Ang^3
#
#
#
# Elastic Constant Matrix: (Units=GPa)
#
#
# Indices 1 2 3 4 5 6 
#
# 1 64.9727 17.7661 34.1406 -2.8319 -2.1159 -2.2096
# 2 17.7661 60.7741 29.8806 5.0297 0.8424 0.7380
# 3 34.1406 29.8806 123.4966 -1.7657 -21.5656 4.2592
# 4 -2.8319 5.0297 -1.7657 38.3114 7.1314 -10.5474
# 5 -2.1159 0.8424 -21.5656 7.1314 32.6386 -6.0045
# 6 -2.2096 0.7380 4.2592 -10.5474 -6.0045 32.9415
#
#
#
# Elastic Compliance Matrix: (Units=1/GPa)
#
#
# Indices 1 2 3 4 5 6 
#
# 1 0.018992 -0.003405 -0.004822 0.002680 -0.001999 0.002467
# 2 -0.003405 0.019946 -0.004454 -0.002904 -0.003345 -0.001639
# 3 -0.004822 -0.004454 0.011864 -0.000830 0.007709 -0.000618
# 4 0.002680 -0.002904 -0.000830 0.030102 -0.005214 0.009040
# 5 -0.001999 -0.003345 0.007709 -0.005214 0.037587 0.004126
# 6 0.002467 -0.001639 -0.000618 0.009040 0.004126 0.034286
#
#
# Mechanical properties :
#
#
# Convention : Reuss Voigt Hill
#
# Bulk Modulus (GPa) = 39.30921 45.86867 42.58894
# Shear Modulus (GPa) = 26.79258 31.94204 29.36731
#
# Velocity S-wave (km/s) = 3.45989 3.77778 3.62233
# Velocity P-wave (km/s) = 5.79003 6.28672 6.04348
#
# Compressibility (1/GPa) = 0.02543933
#
# Stress axis : x y z
#
# Youngs Moduli (GPa) = 52.65480 50.13474 84.29030
#
# Poissons Ratio (x) = 0.17071 0.40646
# Poissons Ratio (y) = 0.17929 0.37543
# Poissons Ratio (z) = 0.25391 0.22330
#
# Static dielectric constant tensor:
#      x y z
#    x 3.674620 0.247160 -0.331700 
#    y 0.247160 4.149200 -0.071340 
#    z -0.331700 -0.071340 4.255520 
# 
# 
# High freq. dielectric constant tensor:
#      x y z
#    x 1.847440 0.020130 -0.028430 
#    y 0.020130 1.890390 0.006690 
#    z -0.028430 0.006690 1.903400 
# 
# From -- ./inp_files/253719.got.cif
#   From: 2010.06.25/outbox.cif.g09.slc.cpg/sg2_127_cif.got.tgz:253719.got - 2010.06.27 13:26:56.
