data_PCOD8017693
_publ_section_title
;
Structure prediction by ZEFSAII (Michael W. Deem and Ramdas Pophale) SiO2 
 PCOD8017693
Probable space group: P -1
;
_chemical_formula_sum "Si O2"
_cell_formula_units_Z 14
_cell_length_a 19.145628
_cell_length_b 12.420194
_cell_length_c 7.262898
_cell_angle_alpha 61.737294
_cell_angle_beta 120.759277
_cell_angle_gamma 156.170943
_cell_volume 599.511992
_symmetry_space_group_name_H-M "P -1"
_symmetry_group_IT_number 2
_symmetry_cell_setting 'triclinic'
loop_
_space_group_symop_operation_xyz
x,y,z
-x,-y,-z
loop_
_atom_site_type_symbol
_atom_site_label
_atom_site_fract_x
_atom_site_fract_y
_atom_site_fract_z
Si Si1 0.497128 0.360118 0.179714
Si Si2 0.981506 0.778146 0.565597
Si Si3 0.340421 0.771508 0.612381
Si Si4 0.219104 0.312712 0.386127
Si Si5 0.448734 0.722175 0.043947
Si Si6 0.821798 0.216761 0.737844
Si Si7 0.167111 0.765915 0.847270
O O1 0.631090 0.516528 0.399442
O O2 0.291828 0.059270 0.210284
O O3 0.500000 0.500000 0.000000
O O4 0.549228 0.342099 0.098011
O O5 0.809083 0.521918 0.420559
O O6 0.915398 0.759161 0.676631
O O7 0.087982 0.796838 0.737500
O O8 0.110938 0.044177 0.416132
O O9 0.258394 0.796177 0.507918
O O10 0.500000 0.000000 0.500000
O O11 0.404931 0.805553 0.869259
O O12 0.305347 0.469603 0.185368
O O13 0.640475 0.971023 0.201678
O O14 0.036491 0.500032 0.769305
O O15 0.804830 0.250561 0.895469
#
# Coordination Sequence:
#
# PCOD8017693 Si02
#       7
#     2   2   2   2   2   2   2
#     4  11  22  40  64  94 128 169 206 260 322 373
#     4  10  22  39  64  91 132 168 206 262 319 374
#     4  11  18  39  68  89 126 171 212 256 319 376
#     4  11  23  42  63  96 131 166 216 256 315 383
#     4  11  23  40  70  96 123 170 215 263 311 371
#     4   9  18  35  65  87 127 166 209 253 319 374
#     4   9  18  35  65  95 117 171 209 257 318 367
#
# _framework density 23.352326000000001
#
# number of rings (size 3 to 8) (size 9 to 14) (size 15 to 20)
#    0.000    1.714    4.286    1.714    0.000    2.857 
#    0.000    3.571   12.571    0.000    0.000    0.000 
#    0.000    0.000    0.000    0.000    0.000    0.000 
#
# Total GULP energy -173478.462635 kJ/mol
# GULP energy per Si atom -12391.318760 kJ/mol
# Density = 2.329917 g / cm^3
# Si number density = 23.352326 Si / 1000 Ang^3
#
#
#
# Elastic Constant Matrix: (Units=GPa)
#
#
# Indices 1 2 3 4 5 6 
#
# 1 23.4365 36.5665 38.7665 -5.4773 12.7023 3.6631
# 2 36.5665 224.3311 73.2759 -22.7214 12.2151 4.2330
# 3 38.7665 73.2759 138.5191 -15.6182 19.9018 7.8057
# 4 -5.4773 -22.7214 -15.6182 40.6325 2.2700 1.8635
# 5 12.7023 12.2151 19.9018 2.2700 33.7622 -4.3652
# 6 3.6631 4.2330 7.8057 1.8635 -4.3652 31.0975
#
#
#
# Elastic Compliance Matrix: (Units=1/GPa)
#
#
# Indices 1 2 3 4 5 6 
#
# 1 0.107204 -0.008749 -0.020569 0.003608 -0.026608 -0.010226
# 2 -0.008749 0.006278 -0.000903 0.001878 0.001491 0.000499
# 3 -0.020569 -0.000903 0.013802 0.002097 -0.000353 -0.001094
# 4 0.003608 0.001878 0.002097 0.027433 -0.005588 -0.003635
# 5 -0.026608 0.001491 -0.000353 -0.005588 0.040849 0.009089
# 6 -0.010226 0.000499 -0.001094 -0.003635 0.009089 0.035062
#
#
# Mechanical properties :
#
#
# Convention : Reuss Voigt Hill
#
# Bulk Modulus (GPa) = 14.96025 75.94494 45.45259
# Shear Modulus (GPa) = 15.95650 36.94363 26.45007
#
# Velocity S-wave (km/s) = 2.61683 3.98176 3.36914
# Velocity P-wave (km/s) = 3.94342 7.33016 5.88565
#
# Compressibility (1/GPa) = 0.06684382
#
# Stress axis : x y z
#
# Youngs Moduli (GPa) = 9.32797 159.27427 72.45113
#
# Poissons Ratio (x) = 1.39345 1.49022
# Poissons Ratio (y) = 0.08161 0.06545
# Poissons Ratio (z) = 0.19186 0.14389
#
# Static dielectric constant tensor:
#      x y z
#    x 3.931040 0.080410 0.446470 
#    y 0.080410 4.983880 -0.021530 
#    z 0.446470 -0.021530 4.294450 
# 
# 
# High freq. dielectric constant tensor:
#      x y z
#    x 1.880080 0.007660 0.019090 
#    y 0.007660 1.957670 -0.001600 
#    z 0.019090 -0.001600 1.927660 
# 
# From -- ./inp_files/354067.got.cif
#   From: 2010.06.25/outbox.cif.g09.slc.cpg/sg2_178_cif.got.tgz:354067.got - 2010.06.27 13:26:56.
