data_PCOD8017068
_publ_section_title
;
Structure prediction by ZEFSAII (Michael W. Deem and Ramdas Pophale) SiO2 
 PCOD8017068
Probable space group: P -1
;
_chemical_formula_sum "Si O2"
_cell_formula_units_Z 16
_cell_length_a 11.866569
_cell_length_b 8.254403
_cell_length_c 14.932201
_cell_angle_alpha 115.885158
_cell_angle_beta 40.026211
_cell_angle_gamma 131.141026
_cell_volume 701.556281
_symmetry_space_group_name_H-M "P -1"
_symmetry_group_IT_number 2
_symmetry_cell_setting 'triclinic'
loop_
_space_group_symop_operation_xyz
x,y,z
-x,-y,-z
loop_
_atom_site_type_symbol
_atom_site_label
_atom_site_fract_x
_atom_site_fract_y
_atom_site_fract_z
Si Si1 0.350878 0.085539 0.604674
Si Si2 0.081941 0.856517 0.347573
Si Si3 0.587371 0.565562 0.561148
Si Si4 0.303098 0.267388 0.211212
Si Si5 0.351869 0.017225 0.386924
Si Si6 0.901361 0.798447 0.872175
Si Si7 0.528894 0.754177 0.174265
Si Si8 0.677362 0.317190 0.909313
O O1 0.472149 0.334660 0.626335
O O2 0.271466 0.040413 0.538378
O O3 0.500000 0.000000 0.500000
O O4 0.152824 0.968985 0.764186
O O5 0.208223 0.809559 0.186208
O O6 0.837240 0.677868 0.441867
O O7 0.146443 0.101195 0.344215
O O8 0.154247 0.849688 0.403333
O O9 0.500000 0.500000 0.500000
O O10 0.533075 0.739559 0.669730
O O11 0.177028 0.207004 0.181434
O O12 0.397771 0.515887 0.244339
O O13 0.501627 0.242865 0.075089
O O14 0.504177 0.930060 0.284454
O O15 0.860681 0.569826 0.868859
O O16 0.777968 0.852767 0.032843
O O17 0.435763 0.718979 0.124386
#
# Coordination Sequence:
#
# PCOD8017068 Si02
#       8
#     2   2   2   2   2   2   2   2
#     4  11  23  40  60  81 111 156 194 224 279 351
#     4  11  19  33  57  86 115 148 186 238 286 324
#     4  10  22  38  53  78 118 154 184 223 275 341
#     4   9  16  29  55  87 115 145 183 230 287 340
#     4  10  22  39  57  84 116 143 187 247 285 323
#     4   9  17  35  57  80 112 154 188 224 279 341
#     4   8  17  34  56  83 115 141 184 244 283 321
#     4   8  16  30  52  85 117 143 184 236 283 333
#
# _framework density 22.806436999999999
#
# number of rings (size 3 to 8) (size 9 to 14) (size 15 to 20)
#    0.000    2.500    0.000    4.500    0.000    1.000 
#    0.000   14.375    0.000    3.000    0.000    0.000 
#    0.000    0.000    0.000    0.000    0.000    0.000 
#
# Total GULP energy -198218.294387 kJ/mol
# GULP energy per Si atom -12388.643399 kJ/mol
# Density = 2.275453 g / cm^3
# Si number density = 22.806437 Si / 1000 Ang^3
#
#
#
# Elastic Constant Matrix: (Units=GPa)
#
#
# Indices 1 2 3 4 5 6 
#
# 1 49.1231 20.7190 16.9005 -3.9953 -17.0510 10.1763
# 2 20.7190 141.6470 63.9383 -5.7729 -33.5583 -10.8814
# 3 16.9005 63.9383 88.2560 -12.2046 -34.1533 7.8264
# 4 -3.9953 -5.7729 -12.2046 52.9374 -0.0744 -4.6595
# 5 -17.0510 -33.5583 -34.1533 -0.0744 36.0133 9.1807
# 6 10.1763 -10.8814 7.8264 -4.6595 9.1807 30.1684
#
#
#
# Elastic Compliance Matrix: (Units=1/GPa)
#
#
# Indices 1 2 3 4 5 6 
#
# 1 0.033031 -0.004556 0.009434 0.002196 0.026173 -0.022858
# 2 -0.004556 0.012283 -0.009813 -0.000464 -0.002353 0.009157
# 3 0.009434 -0.009813 0.031480 0.004863 0.031213 -0.023636
# 4 0.002196 -0.000464 0.004863 0.020070 0.005446 -0.000727
# 5 0.026173 -0.002353 0.031213 0.005446 0.077943 -0.040653
# 6 -0.022858 0.009157 -0.023636 -0.000727 -0.040653 0.062551
#
#
# Mechanical properties :
#
#
# Convention : Reuss Voigt Hill
#
# Bulk Modulus (GPa) = 14.94187 53.57130 34.25658
# Shear Modulus (GPa) = 18.55041 35.65503 27.10272
#
# Velocity S-wave (km/s) = 2.85508 3.95824 3.45103
# Velocity P-wave (km/s) = 4.17546 6.66564 5.56171
#
# Compressibility (1/GPa) = 0.06692602
#
# Stress axis : x y z
#
# Youngs Moduli (GPa) = 30.27417 81.41575 31.76591
#
# Poissons Ratio (x) = 0.37093 -0.29969
# Poissons Ratio (y) = 0.13793 0.31171
# Poissons Ratio (z) = -0.28562 0.79890
#
# Static dielectric constant tensor:
#      x y z
#    x 3.936460 -0.249660 -0.149750 
#    y -0.249660 4.762240 0.256120 
#    z -0.149750 0.256120 4.255200 
# 
# 
# High freq. dielectric constant tensor:
#      x y z
#    x 1.889140 -0.009030 -0.007020 
#    y -0.009030 1.906290 0.007340 
#    z -0.007020 0.007340 1.887660 
# 
# From -- ./inp_files/515864.got.cif
#   From: 2010.06.25/outbox.cif.g09.slc.cpg/sg2_258_cif.got.tgz:515864.got - 2010.06.27 13:26:56.
