data_PCOD8017118
_publ_section_title
;
Structure prediction by ZEFSAII (Michael W. Deem and Ramdas Pophale) SiO2 
 PCOD8017118
Probable space group: P -1
;
_chemical_formula_sum "Si O2"
_cell_formula_units_Z 16
_cell_length_a 20.000677
_cell_length_b 5.278266
_cell_length_c 19.999228
_cell_angle_alpha 77.084096
_cell_angle_beta 22.101168
_cell_angle_gamma 76.214618
_cell_volume 771.457566
_symmetry_space_group_name_H-M "P -1"
_symmetry_group_IT_number 2
_symmetry_cell_setting 'triclinic'
loop_
_space_group_symop_operation_xyz
x,y,z
-x,-y,-z
loop_
_atom_site_type_symbol
_atom_site_label
_atom_site_fract_x
_atom_site_fract_y
_atom_site_fract_z
Si Si1 0.624746 0.873484 0.536036
Si Si2 0.392618 0.769765 0.881529
Si Si3 0.350233 0.927812 0.051707
Si Si4 0.044252 0.846821 0.116299
Si Si5 0.478260 0.587770 0.106558
Si Si6 0.410699 0.560332 0.508592
Si Si7 0.995055 0.419922 0.085581
Si Si8 0.106790 0.751222 0.387251
O O1 0.548860 0.837888 0.682490
O O2 0.842636 0.846737 0.333665
O O3 0.538521 0.666101 0.579351
O O4 0.536849 0.158473 0.580011
O O5 0.467441 0.498072 0.862411
O O6 0.360779 0.982300 0.959048
O O7 0.195324 0.755313 0.035087
O O8 0.159584 0.840629 0.258226
O O9 0.479434 0.663879 0.966485
O O10 0.403442 0.170310 0.031884
O O11 0.083670 0.640384 0.032261
O O12 0.086662 0.129741 0.031513
O O13 0.273254 0.689397 0.286017
O O14 0.500000 0.500000 0.500000
O O15 0.202852 0.581253 0.706963
O O16 0.000000 0.500000 0.000000
O O17 0.000000 0.500000 0.500000
O O18 0.000000 0.000000 0.500000
#
# Coordination Sequence:
#
# PCOD8017118 Si02
#       8
#     2   2   2   2   2   2   2   2
#     4  10  23  40  58  90 123 157 211 266 317 388
#     4  10  26  39  72  86 132 178 210 258 340 376
#     4  10  23  43  66  96 132 172 227 258 323 391
#     4  10  23  40  58  90 123 157 211 266 317 388
#     4  10  23  43  66  96 132 172 227 258 323 391
#     4  10  22  38  60  87 119 156 207 267 323 386
#     4  10  22  38  60  87 119 156 207 267 323 386
#     4  12  24  42  70 104 138 174 216 279 325 369
#
# _framework density 20.739961000000001
#
# number of rings (size 3 to 8) (size 9 to 14) (size 15 to 20)
#    0.750    1.000    0.000    3.000    7.000    1.000 
#    0.000    0.000    0.000    0.000    0.000    0.000 
#    0.000    0.000    0.000    0.000    0.000    0.000 
#
# Total GULP energy -198215.959006 kJ/mol
# GULP energy per Si atom -12388.497438 kJ/mol
# Density = 2.069276 g / cm^3
# Si number density = 20.739961 Si / 1000 Ang^3
#
#
#
# Elastic Constant Matrix: (Units=GPa)
#
#
# Indices 1 2 3 4 5 6 
#
# 1 70.9968 41.3921 35.4220 0.9983 2.3986 12.9189
# 2 41.3921 161.4744 46.1848 -9.2635 5.4340 29.4339
# 3 35.4220 46.1848 100.6176 -7.9847 9.6949 5.5378
# 4 0.9983 -9.2635 -7.9847 28.3111 -4.6311 -1.5725
# 5 2.3986 5.4340 9.6949 -4.6311 39.8103 0.7303
# 6 12.9189 29.4339 5.5378 -1.5725 0.7303 33.5504
#
#
#
# Elastic Compliance Matrix: (Units=1/GPa)
#
#
# Indices 1 2 3 4 5 6 
#
# 1 0.019297 -0.002782 -0.005575 -0.003355 0.000262 -0.004233
# 2 -0.002782 0.008895 -0.002602 0.001917 -0.000076 -0.006212
# 3 -0.005575 -0.002602 0.013413 0.002888 -0.002283 0.002401
# 4 -0.003355 0.001917 0.002888 0.037514 0.003586 0.000813
# 5 0.000262 -0.000076 -0.002283 0.003586 0.026088 -0.000057
# 6 -0.004233 -0.006212 0.002401 0.000813 -0.000057 0.036528
#
#
# Mechanical properties :
#
#
# Convention : Reuss Voigt Hill
#
# Bulk Modulus (GPa) = 50.79595 64.34296 57.56945
# Shear Modulus (GPa) = 29.37449 34.34036 31.85743
#
# Velocity S-wave (km/s) = 3.76749 4.07352 3.92349
# Velocity P-wave (km/s) = 6.59320 7.29491 6.95291
#
# Compressibility (1/GPa) = 0.01968661
#
# Stress axis : x y z
#
# Youngs Moduli (GPa) = 51.82137 112.42131 74.55520
#
# Poissons Ratio (x) = 0.31272 0.41566
# Poissons Ratio (y) = 0.14415 0.19402
# Poissons Ratio (z) = 0.28891 0.29256
#
# Static dielectric constant tensor:
#      x y z
#    x 3.800150 0.234670 -0.007710 
#    y 0.234670 4.479140 -0.011210 
#    z -0.007710 -0.011210 3.802500 
# 
# 
# High freq. dielectric constant tensor:
#      x y z
#    x 1.810480 0.002100 0.004210 
#    y 0.002100 1.832100 -0.001510 
#    z 0.004210 -0.001510 1.808490 
# 
# From -- ./inp_files/600751.got.cif
#   From: 2010.06.25/outbox.cif.g09.slc.cpg/sg2_301_cif.got.tgz:600751.got - 2010.06.27 13:26:56.
