data_PCOD8017060
_publ_section_title
;
Structure prediction by ZEFSAII (Michael W. Deem and Ramdas Pophale) SiO2 
 PCOD8017060
Probable space group: P -1
;
_chemical_formula_sum "Si O2"
_cell_formula_units_Z 16
_cell_length_a 5.238398
_cell_length_b 15.652857
_cell_length_c 13.599591
_cell_angle_alpha 54.549816
_cell_angle_beta 66.017832
_cell_angle_gamma 98.859030
_cell_volume 707.085139
_symmetry_space_group_name_H-M "P -1"
_symmetry_group_IT_number 2
_symmetry_cell_setting 'triclinic'
loop_
_space_group_symop_operation_xyz
x,y,z
-x,-y,-z
loop_
_atom_site_type_symbol
_atom_site_label
_atom_site_fract_x
_atom_site_fract_y
_atom_site_fract_z
Si Si1 0.836193 0.644920 0.662227
Si Si2 0.246585 0.455205 0.981170
Si Si3 0.854758 0.965658 0.439209
Si Si4 0.485825 0.376035 0.698352
Si Si5 0.227396 0.126204 0.826536
Si Si6 0.867277 0.490204 0.367476
Si Si7 0.131016 0.796372 0.704573
Si Si8 0.087228 0.846422 0.338070
O O1 0.101382 0.601479 0.651906
O O2 0.912060 0.740207 0.676784
O O3 0.855280 0.709674 0.511919
O O4 0.471981 0.521118 0.806444
O O5 0.022417 0.306357 0.116337
O O6 0.500000 0.500000 0.000000
O O7 0.000000 0.500000 0.000000
O O8 0.499225 0.839775 0.583446
O O9 0.088237 0.947952 0.340912
O O10 0.849824 0.085972 0.326108
O O11 0.000000 0.000000 0.500000
O O12 0.299623 0.228557 0.828999
O O13 0.606804 0.410257 0.544609
O O14 0.241559 0.424982 0.727899
O O15 0.775085 0.425407 0.697719
O O16 0.548396 0.128269 0.738140
O O17 0.041506 0.146264 0.752651
O O18 0.000000 0.000000 0.000000
#
# Coordination Sequence:
#
# PCOD8017060 Si02
#       8
#     2   2   2   2   2   2   2   2
#     4  11  22  43  70 103 130 185 235 276 339 426
#     4  10  23  41  63  96 137 176 217 275 337 393
#     4  11  23  41  70 103 142 186 232 286 335 407
#     4  10  22  42  62  94 131 163 208 284 343 387
#     4  12  27  49  71  98 137 181 231 293 349 409
#     4  10  22  37  68  96 128 163 218 275 329 400
#     4  10  23  43  65  98 149 184 225 281 342 403
#     4  12  25  43  74 101 131 182 240 276 343 424
#
# _framework density 22.628111000000001
#
# number of rings (size 3 to 8) (size 9 to 14) (size 15 to 20)
#    0.000    1.250    2.500    2.625    7.000    3.000 
#    4.500    0.000    0.000    0.000    0.000    0.000 
#    0.000    0.000    0.000    0.000    0.000    0.000 
#
# Total GULP energy -198341.108644 kJ/mol
# GULP energy per Si atom -12396.319290 kJ/mol
# Density = 2.257661 g / cm^3
# Si number density = 22.628111 Si / 1000 Ang^3
#
#
#
# Elastic Constant Matrix: (Units=GPa)
#
#
# Indices 1 2 3 4 5 6 
#
# 1 116.2057 18.4304 45.1728 -7.6129 -1.6110 -20.5366
# 2 18.4304 91.5854 33.3016 -14.9822 -1.4564 -23.8990
# 3 45.1728 33.3016 171.4830 -30.3276 5.9697 -11.0664
# 4 -7.6129 -14.9822 -30.3276 35.6948 -2.7816 -1.8995
# 5 -1.6110 -1.4564 5.9697 -2.7816 24.0185 6.0456
# 6 -20.5366 -23.8990 -11.0664 -1.8995 6.0456 41.1756
#
#
#
# Elastic Compliance Matrix: (Units=1/GPa)
#
#
# Indices 1 2 3 4 5 6 
#
# 1 0.010356 0.000044 -0.002366 0.000474 0.000196 0.004548
# 2 0.000044 0.014439 -0.001318 0.005372 -0.000270 0.008336
# 3 -0.002366 -0.001318 0.007776 0.005450 -0.001703 0.000646
# 4 0.000474 0.005372 0.005450 0.035454 0.001541 0.006229
# 5 0.000196 -0.000270 -0.001703 0.001541 0.043970 -0.006902
# 6 0.004548 0.008336 0.000646 0.006229 -0.006902 0.032867
#
#
# Mechanical properties :
#
#
# Convention : Reuss Voigt Hill
#
# Bulk Modulus (GPa) = 39.54196 63.67598 51.60897
# Shear Modulus (GPa) = 31.13883 39.00241 35.07062
#
# Velocity S-wave (km/s) = 3.71362 4.15616 3.94111
# Velocity P-wave (km/s) = 5.99171 7.15771 6.60051
#
# Compressibility (1/GPa) = 0.02528959
#
# Stress axis : x y z
#
# Youngs Moduli (GPa) = 96.56560 69.25705 128.60808
#
# Poissons Ratio (x) = -0.00302 0.30428
# Poissons Ratio (y) = -0.00422 0.16951
# Poissons Ratio (z) = 0.22847 0.09128
#
# Static dielectric constant tensor:
#      x y z
#    x 3.954680 -0.169180 0.043190 
#    y -0.169180 4.101320 -0.441300 
#    z 0.043190 -0.441300 4.657770 
# 
# 
# High freq. dielectric constant tensor:
#      x y z
#    x 1.904320 -0.014850 -0.002460 
#    y -0.014850 1.892920 -0.013580 
#    z -0.002460 -0.013580 1.881450 
# 
# From -- ./inp_files/484355.got.cif
#   From: 2010.06.25/outbox.cif.g09.slc.cpg/sg2_243_cif.got.tgz:484355.got - 2010.06.27 13:26:56.
