data_PCOD8017933
_publ_section_title
;
Structure prediction by ZEFSAII (Michael W. Deem and Ramdas Pophale) SiO2 
 PCOD8017933
Probable space group: P -1
;
_chemical_formula_sum "Si O2"
_cell_formula_units_Z 16
_cell_length_a 5.875657
_cell_length_b 11.858717
_cell_length_c 16.928573
_cell_angle_alpha 48.718512
_cell_angle_beta 128.534591
_cell_angle_gamma 112.949615
_cell_volume 692.924804
_symmetry_space_group_name_H-M "P -1"
_symmetry_group_IT_number 2
_symmetry_cell_setting 'triclinic'
loop_
_space_group_symop_operation_xyz
x,y,z
-x,-y,-z
loop_
_atom_site_type_symbol
_atom_site_label
_atom_site_fract_x
_atom_site_fract_y
_atom_site_fract_z
Si Si1 0.381126 0.843839 0.022662
Si Si2 0.145487 0.319986 0.983998
Si Si3 0.204552 0.358826 0.153428
Si Si4 0.718856 0.558236 0.203121
Si Si5 0.570497 0.067613 0.400704
Si Si6 0.152877 0.120887 0.572220
Si Si7 0.174847 0.445796 0.480523
Si Si8 0.255404 0.832621 0.824751
O O1 0.662009 0.730766 0.135447
O O2 0.222270 0.862511 0.896414
O O3 0.133263 0.776458 0.056674
O O4 0.500000 0.000000 0.000000
O O5 0.105494 0.410073 0.017975
O O6 0.410889 0.200422 0.109401
O O7 0.192164 0.444044 0.868971
O O8 0.413355 0.475025 0.187133
O O9 0.364767 0.194649 0.259047
O O10 0.921462 0.319029 0.163028
O O11 0.971335 0.488861 0.343330
O O12 0.878144 0.148299 0.442019
O O13 0.500000 0.000000 0.500000
O O14 0.581011 0.927097 0.406447
O O15 0.211680 0.264948 0.572967
O O16 0.107140 0.977767 0.684625
O O17 0.500000 0.500000 0.500000
O O18 0.000000 0.500000 0.500000
#
# Coordination Sequence:
#
# PCOD8017933 Si02
#       8
#     2   2   2   2   2   2   2   2
#     4  10  25  44  69  95 134 188 244 298 357 431
#     4  10  23  43  68 104 135 182 235 300 375 437
#     4  11  21  41  67 106 146 178 236 297 386 449
#     4  11  26  46  70 101 142 190 239 308 368 447
#     4  11  22  40  71 105 141 191 235 303 375 452
#     4  11  24  43  70 105 142 192 244 302 373 440
#     4  12  32  52  76 110 152 207 258 311 369 448
#     4  10  22  39  69 104 136 182 235 300 362 446
#
# _framework density 23.090529
#
# number of rings (size 3 to 8) (size 9 to 14) (size 15 to 20)
#    0.000    1.250    3.750    0.375    5.250    8.500 
#    0.000    0.000    0.000    0.000    0.000    0.000 
#    0.000    0.000    0.000    0.000    0.000    0.000 
#
# Total GULP energy -198215.809021 kJ/mol
# GULP energy per Si atom -12388.488064 kJ/mol
# Density = 2.303797 g / cm^3
# Si number density = 23.090529 Si / 1000 Ang^3
#
#
#
# Elastic Constant Matrix: (Units=GPa)
#
#
# Indices 1 2 3 4 5 6 
#
# 1 106.6168 54.1810 21.2580 -3.8843 -7.9793 5.5240
# 2 54.1810 149.4426 23.2975 -12.5025 -1.8036 5.7035
# 3 21.2580 23.2975 109.7257 -0.4456 -9.5631 11.7584
# 4 -3.8843 -12.5025 -0.4456 29.8492 8.0019 6.8507
# 5 -7.9793 -1.8036 -9.5631 8.0019 36.3908 0.5324
# 6 5.5240 5.7035 11.7584 6.8507 0.5324 39.8989
#
#
#
# Elastic Compliance Matrix: (Units=1/GPa)
#
#
# Indices 1 2 3 4 5 6 
#
# 1 0.011889 -0.004133 -0.001165 -0.000660 0.002250 -0.000629
# 2 -0.004133 0.008685 -0.001060 0.003726 -0.001559 -0.000976
# 3 -0.001165 -0.001060 0.010057 -0.000516 0.002486 -0.002596
# 4 -0.000660 0.003726 -0.000516 0.038827 -0.008533 -0.006842
# 5 0.002250 -0.001559 0.002486 -0.008533 0.030422 0.000238
# 6 -0.000629 -0.000976 -0.002596 -0.006842 0.000238 0.027226
#
#
# Mechanical properties :
#
#
# Convention : Reuss Voigt Hill
#
# Bulk Modulus (GPa) = 55.81497 62.58423 59.19960
# Shear Modulus (GPa) = 34.29515 39.03101 36.66308
#
# Velocity S-wave (km/s) = 3.85807 4.11584 3.98904
# Velocity P-wave (km/s) = 6.63860 7.05334 6.84911
#
# Compressibility (1/GPa) = 0.01791634
#
# Stress axis : x y z
#
# Youngs Moduli (GPa) = 84.11256 115.13748 99.43242
#
# Poissons Ratio (x) = 0.47584 0.11584
# Poissons Ratio (y) = 0.34762 0.10536
# Poissons Ratio (z) = 0.09799 0.12200
#
# Static dielectric constant tensor:
#      x y z
#    x 4.786290 0.239810 0.136820 
#    y 0.239810 4.212600 -0.029210 
#    z 0.136820 -0.029210 4.412090 
# 
# 
# High freq. dielectric constant tensor:
#      x y z
#    x 1.927620 0.005530 0.009880 
#    y 0.005530 1.896120 -0.013790 
#    z 0.009880 -0.013790 1.928940 
# 
# From -- ./inp_files/549473.got.cif
#   From: 2010.06.25/outbox.cif.g09.slc.cpg/sg2_275_cif.got.tgz:549473.got - 2010.06.27 13:26:56.
