data_PCOD8017628
_publ_section_title
;
Structure prediction by ZEFSAII (Michael W. Deem and Ramdas Pophale) SiO2 
 PCOD8017628
Probable space group: P -1
;
_chemical_formula_sum "Si O2"
_cell_formula_units_Z 14
_cell_length_a 13.983595
_cell_length_b 14.437774
_cell_length_c 9.298970
_cell_angle_alpha 65.838627
_cell_angle_beta 85.539734
_cell_angle_gamma 28.097586
_cell_volume 606.589252
_symmetry_space_group_name_H-M "P -1"
_symmetry_group_IT_number 2
_symmetry_cell_setting 'triclinic'
loop_
_space_group_symop_operation_xyz
x,y,z
-x,-y,-z
loop_
_atom_site_type_symbol
_atom_site_label
_atom_site_fract_x
_atom_site_fract_y
_atom_site_fract_z
Si Si1 0.963576 0.749178 0.715203
Si Si2 0.139241 0.933656 0.825118
Si Si3 0.722549 0.513149 0.431432
Si Si4 0.426100 0.167642 0.536538
Si Si5 0.220750 0.352337 0.141391
Si Si6 0.329832 0.737010 0.240544
Si Si7 0.253180 0.820359 0.571897
O O1 0.167527 0.550510 0.687017
O O2 0.161282 0.520865 0.969704
O O3 0.719584 0.913500 0.604384
O O4 0.823958 0.995775 0.602869
O O5 0.941890 0.224901 0.662820
O O6 0.952793 0.015313 0.808311
O O7 0.338564 0.740650 0.783249
O O8 0.315374 0.770242 0.050067
O O9 0.672494 0.660422 0.439378
O O10 0.445932 0.725017 0.302225
O O11 0.205886 0.382963 0.296871
O O12 0.486978 0.992764 0.701673
O O13 0.000000 0.500000 0.000000
O O14 0.539230 0.432876 0.408996
O O15 0.000000 0.000000 0.500000
#
# Coordination Sequence:
#
# PCOD8017628 Si02
#       7
#     2   2   2   2   2   2   2
#     4  10  22  39  63  93 122 163 205 249 306 361
#     4  10  23  37  57  86 122 170 214 249 297 353
#     4  11  23  38  60  93 125 157 205 258 301 366
#     4  10  22  42  67  91 122 155 200 258 313 367
#     4   9  21  45  67  90 119 157 200 253 316 375
#     4  11  22  39  58  84 126 167 211 251 299 355
#     4  11  21  39  60  86 129 169 204 251 294 353
#
# _framework density 23.079871000000001
#
# number of rings (size 3 to 8) (size 9 to 14) (size 15 to 20)
#    0.000    1.714    2.857    1.714    2.000    5.143 
#    5.143    6.429    0.000    0.000    0.000    0.000 
#    0.000    0.000    0.000    0.000    0.000    0.000 
#
# Total GULP energy -173438.428207 kJ/mol
# GULP energy per Si atom -12388.459158 kJ/mol
# Density = 2.302734 g / cm^3
# Si number density = 23.079871 Si / 1000 Ang^3
#
#
#
# Elastic Constant Matrix: (Units=GPa)
#
#
# Indices 1 2 3 4 5 6 
#
# 1 47.2669 20.8010 34.6982 0.2268 -5.6342 14.9503
# 2 20.8010 113.5360 6.9902 19.6189 1.3168 14.6206
# 3 34.6982 6.9902 115.2693 12.1320 -4.0909 7.7315
# 4 0.2268 19.6189 12.1320 14.4534 -2.5737 1.5529
# 5 -5.6342 1.3168 -4.0909 -2.5737 35.8468 4.2222
# 6 14.9503 14.6206 7.7315 1.5529 4.2222 40.8664
#
#
#
# Elastic Compliance Matrix: (Units=1/GPa)
#
#
# Indices 1 2 3 4 5 6 
#
# 1 0.038830 -0.009537 -0.012842 0.025637 0.008026 -0.010167
# 2 -0.009537 0.014610 0.004476 -0.023841 -0.003076 -0.001361
# 3 -0.012842 0.004476 0.014017 -0.018149 -0.002045 0.001346
# 4 0.025637 -0.023841 -0.018149 0.118807 0.011734 -0.003143
# 5 0.008026 -0.003076 -0.002045 0.011734 0.030474 -0.005043
# 6 -0.010167 -0.001361 0.001346 -0.003143 -0.005043 0.029062
#
#
# Mechanical properties :
#
#
# Convention : Reuss Voigt Hill
#
# Bulk Modulus (GPa) = 31.59419 44.56123 38.07771
# Shear Modulus (GPa) = 17.11407 32.47216 24.79312
#
# Velocity S-wave (km/s) = 2.72603 3.75500 3.28110
# Velocity P-wave (km/s) = 4.86077 6.17651 5.55772
#
# Compressibility (1/GPa) = 0.03165139
#
# Stress axis : x y z
#
# Youngs Moduli (GPa) = 25.75314 68.44559 71.34296
#
# Poissons Ratio (x) = 0.65279 0.91617
# Poissons Ratio (y) = 0.24562 -0.31935
# Poissons Ratio (z) = 0.33072 -0.30638
#
# Static dielectric constant tensor:
#      x y z
#    x 4.181180 -0.037120 -0.319370 
#    y -0.037120 4.502590 0.436120 
#    z -0.319370 0.436120 4.986470 
# 
# 
# High freq. dielectric constant tensor:
#      x y z
#    x 1.902450 0.015940 -0.008270 
#    y 0.015940 1.902030 0.013480 
#    z -0.008270 0.013480 1.935820 
# 
# From -- ./inp_files/314891.got.cif
#   From: 2010.06.25/outbox.cif.g09.slc.cpg/sg2_158_cif.got.tgz:314891.got - 2010.06.27 13:26:56.
