data_PCOD8017121
_publ_section_title
;
Structure prediction by ZEFSAII (Michael W. Deem and Ramdas Pophale) SiO2 
 PCOD8017121
Probable space group: P -1
;
_chemical_formula_sum "Si O2"
_cell_formula_units_Z 16
_cell_length_a 16.166587
_cell_length_b 9.297419
_cell_length_c 8.996101
_cell_angle_alpha 132.633726
_cell_angle_beta 120.371319
_cell_angle_gamma 66.614270
_cell_volume 855.112683
_symmetry_space_group_name_H-M "P -1"
_symmetry_group_IT_number 2
_symmetry_cell_setting 'triclinic'
loop_
_space_group_symop_operation_xyz
x,y,z
-x,-y,-z
loop_
_atom_site_type_symbol
_atom_site_label
_atom_site_fract_x
_atom_site_fract_y
_atom_site_fract_z
Si Si1 0.374236 0.766450 0.421360
Si Si2 0.244091 0.138549 0.586177
Si Si3 0.578903 0.892725 0.701910
Si Si4 0.585442 0.337871 0.933633
Si Si5 0.701272 0.583027 0.406138
Si Si6 0.109587 0.955980 0.527112
Si Si7 0.739031 0.825148 0.050245
Si Si8 0.223924 0.568791 0.331861
O O1 0.477352 0.822505 0.614927
O O2 0.383947 0.633471 0.189421
O O3 0.323751 0.654679 0.430547
O O4 0.306201 0.955901 0.441297
O O5 0.233750 0.313822 0.582510
O O6 0.300060 0.190308 0.826552
O O7 0.136611 0.082266 0.494519
O O8 0.617074 0.742623 0.500954
O O9 0.560622 0.113751 0.778078
O O10 0.651891 0.884719 0.901191
O O11 0.500000 0.500000 0.000000
O O12 0.666332 0.391570 0.160514
O O13 0.768844 0.502845 0.543199
O O14 0.132318 0.726901 0.348105
O O15 0.180943 0.013976 0.767116
O O16 0.000000 0.000000 0.500000
O O17 0.795311 0.616368 0.915909
#
# Coordination Sequence:
#
# PCOD8017121 Si02
#       8
#     2   2   2   2   2   2   2   2
#     4  11  21  38  54  82 122 157 201 229 277 330
#     4   9  20  39  58  84 113 154 188 238 285 337
#     4  11  22  37  54  83 121 155 192 245 269 331
#     4  12  22  34  56  80 114 166 202 227 281 327
#     4  11  21  38  55  83 119 149 197 238 281 327
#     4   9  20  41  63  86 114 144 187 239 295 350
#     4   9  21  38  60  85 112 150 191 230 296 331
#     4  10  22  38  60  88 114 152 194 237 281 346
#
# _framework density 18.710984
#
# number of rings (size 3 to 8) (size 9 to 14) (size 15 to 20)
#    0.750    1.000    2.500    2.625    0.000    3.000 
#    2.250    0.625    0.000    3.000    0.000    0.000 
#    0.000    0.000    0.000    0.000    0.000    0.000 
#
# Total GULP energy -198275.286686 kJ/mol
# GULP energy per Si atom -12392.205418 kJ/mol
# Density = 1.866840 g / cm^3
# Si number density = 18.710984 Si / 1000 Ang^3
#
#
#
# Elastic Constant Matrix: (Units=GPa)
#
#
# Indices 1 2 3 4 5 6 
#
# 1 111.3337 33.2765 27.5239 -6.0078 -9.1200 -4.5956
# 2 33.2765 75.7448 22.0744 1.6774 -13.0903 10.0528
# 3 27.5239 22.0744 84.3816 4.5779 -16.2312 -0.9416
# 4 -6.0078 1.6774 4.5779 29.7246 -0.9190 -8.9821
# 5 -9.1200 -13.0903 -16.2312 -0.9190 22.1132 1.2523
# 6 -4.5956 10.0528 -0.9416 -8.9821 1.2523 25.0917
#
#
#
# Elastic Compliance Matrix: (Units=1/GPa)
#
#
# Indices 1 2 3 4 5 6 
#
# 1 0.011717 -0.005332 -0.002711 0.004870 -0.000448 0.005946
# 2 -0.005332 0.018960 -0.001467 -0.004930 0.008355 -0.010810
# 3 -0.002711 -0.001467 0.014978 -0.002728 0.008937 -0.000770
# 4 0.004870 -0.004930 -0.002728 0.040507 -0.002213 0.017375
# 5 -0.000448 0.008355 0.008937 -0.002213 0.056832 -0.006723
# 6 0.005946 -0.010810 -0.000770 0.017375 -0.006723 0.051800
#
#
# Mechanical properties :
#
#
# Convention : Reuss Voigt Hill
#
# Bulk Modulus (GPa) = 37.54472 48.57884 43.06178
# Shear Modulus (GPa) = 22.45251 27.95826 25.20539
#
# Velocity S-wave (km/s) = 3.46781 3.86970 3.67425
# Velocity P-wave (km/s) = 6.01194 6.78124 6.40815
#
# Compressibility (1/GPa) = 0.02663490
#
# Stress axis : x y z
#
# Youngs Moduli (GPa) = 85.34253 52.74274 66.76663
#
# Poissons Ratio (x) = 0.28123 0.18102
# Poissons Ratio (y) = 0.45506 0.09793
# Poissons Ratio (z) = 0.23138 0.07736
#
# Static dielectric constant tensor:
#      x y z
#    x 3.170310 0.135580 -0.245440 
#    y 0.135580 3.317960 0.299590 
#    z -0.245440 0.299590 3.722530 
# 
# 
# High freq. dielectric constant tensor:
#      x y z
#    x 1.701780 0.012240 -0.023400 
#    y 0.012240 1.719400 0.019820 
#    z -0.023400 0.019820 1.732040 
# 
# From -- ./inp_files/328118.got.cif
#   From: 2010.06.25/outbox.cif.g09.slc.cpg/sg2_165_cif.got.tgz:328118.got - 2010.06.27 13:26:56.
