data_PCOD8017182
_publ_section_title
;
Structure prediction by ZEFSAII (Michael W. Deem and Ramdas Pophale) SiO2 
 PCOD8017182
Probable space group: P -1
;
_chemical_formula_sum "Si O2"
_cell_formula_units_Z 14
_cell_length_a 7.680424
_cell_length_b 9.348128
_cell_length_c 9.285850
_cell_angle_alpha 93.640848
_cell_angle_beta 85.702342
_cell_angle_gamma 72.090078
_cell_volume 629.973261
_symmetry_space_group_name_H-M "P -1"
_symmetry_group_IT_number 2
_symmetry_cell_setting 'triclinic'
loop_
_space_group_symop_operation_xyz
x,y,z
-x,-y,-z
loop_
_atom_site_type_symbol
_atom_site_label
_atom_site_fract_x
_atom_site_fract_y
_atom_site_fract_z
Si Si1 0.943315 0.871060 0.657138
Si Si2 0.421473 0.638919 0.820132
Si Si3 0.149908 0.551096 0.645184
Si Si4 0.568691 0.109606 0.682224
Si Si5 0.671143 0.091313 0.351705
Si Si6 0.677167 0.335277 0.860760
Si Si7 0.028214 0.689911 0.377335
O O1 0.987415 0.704144 0.716735
O O2 0.112326 0.934766 0.688745
O O3 0.747456 0.979751 0.727208
O O4 0.069146 0.153257 0.519364
O O5 0.334356 0.543365 0.714218
O O6 0.449575 0.778677 0.740611
O O7 0.610458 0.516920 0.853698
O O8 0.297133 0.701229 0.973823
O O9 0.170531 0.572661 0.471961
O O10 0.114374 0.394065 0.672790
O O11 0.612930 0.150521 0.520446
O O12 0.536058 0.254596 0.796032
O O13 0.385937 0.057669 0.690889
O O14 0.871343 0.267839 0.763307
#
# Coordination Sequence:
#
# PCOD8017182 Si02
#       7
#     2   2   2   2   2   2   2
#     4   9  18  38  59  90 120 140 188 257 279 355
#     4  10  23  41  56  78 127 148 202 241 275 354
#     4   8  18  36  59  90 110 151 189 249 290 338
#     4  11  22  37  64  89 116 151 197 238 306 341
#     4  10  22  38  62  88 116 155 191 246 295 342
#     4  11  23  38  57  85 113 166 189 237 294 343
#     4   9  18  34  61  86 113 147 196 233 303 329
#
# _framework density 22.223165999999999
#
# number of rings (size 3 to 8) (size 9 to 14) (size 15 to 20)
#    0.857    1.429    1.429    0.429    2.000    5.714 
#    0.000    2.857    0.000    0.000    0.000    0.000 
#    0.000    0.000    0.000    0.000    0.000    0.000 
#
# Total GULP energy -173472.135705 kJ/mol
# GULP energy per Si atom -12390.866836 kJ/mol
# Density = 2.217259 g / cm^3
# Si number density = 22.223166 Si / 1000 Ang^3
#
#
#
# Elastic Constant Matrix: (Units=GPa)
#
#
# Indices 1 2 3 4 5 6 
#
# 1 50.4790 6.5130 -0.4331 6.3438 0.2240 24.6580
# 2 6.5130 69.3772 6.3667 -5.5376 -4.7502 10.3033
# 3 -0.4331 6.3667 57.4370 -3.2218 -1.9394 12.8582
# 4 6.3438 -5.5376 -3.2218 24.3558 -6.7676 7.0660
# 5 0.2240 -4.7502 -1.9394 -6.7676 13.1888 3.8132
# 6 24.6580 10.3033 12.8582 7.0660 3.8132 40.1066
#
#
#
# Elastic Compliance Matrix: (Units=1/GPa)
#
#
# Indices 1 2 3 4 5 6 
#
# 1 0.029894 0.000394 0.005171 0.001014 0.006981 -0.020981
# 2 0.000394 0.017253 0.000939 0.010149 0.013890 -0.008084
# 3 0.005171 0.000939 0.021066 0.008527 0.011413 -0.012761
# 4 0.001014 0.010149 0.008527 0.062247 0.042908 -0.021010
# 5 0.006981 0.013890 0.011413 0.042908 0.113025 -0.029825
# 6 -0.020981 -0.008084 -0.012761 -0.021010 -0.029825 0.050538
#
#
# Mechanical properties :
#
#
# Convention : Reuss Voigt Hill
#
# Bulk Modulus (GPa) = 12.31233 22.46516 17.38874
# Shear Modulus (GPa) = 16.22910 26.52001 21.37455
#
# Velocity S-wave (km/s) = 2.70530 3.45824 3.10468
# Velocity P-wave (km/s) = 3.91287 5.10654 4.54902
#
# Compressibility (1/GPa) = 0.08121942
#
# Stress axis : x y z
#
# Youngs Moduli (GPa) = 33.45150 57.96258 47.47024
#
# Poissons Ratio (x) = -0.02282 -0.24548
# Poissons Ratio (y) = -0.01317 -0.04455
# Poissons Ratio (z) = -0.17298 -0.05440
#
# Static dielectric constant tensor:
#      x y z
#    x 3.590070 0.202540 0.206910 
#    y 0.202540 4.039350 -0.040770 
#    z 0.206910 -0.040770 3.769520 
# 
# 
# High freq. dielectric constant tensor:
#      x y z
#    x 1.846940 0.011830 0.020040 
#    y 0.011830 1.886750 -0.003480 
#    z 0.020040 -0.003480 1.837490 
# 
# From -- ./inp_files/154769.got.cif
#   From: 2010.06.25/outbox.cif.g09.slc.cpg/sg2_78_cif.got.tgz:154769.got - 2010.06.27 13:26:56.
