data_PCOD8017087
_publ_section_title
;
Structure prediction by ZEFSAII (Michael W. Deem and Ramdas Pophale) SiO2 
 PCOD8017087
Probable space group: P -1
;
_chemical_formula_sum "Si O2"
_cell_formula_units_Z 14
_cell_length_a 10.578321
_cell_length_b 4.987464
_cell_length_c 22.360550
_cell_angle_alpha 102.412563
_cell_angle_beta 36.601887
_cell_angle_gamma 115.903734
_cell_volume 612.132049
_symmetry_space_group_name_H-M "P -1"
_symmetry_group_IT_number 2
_symmetry_cell_setting 'triclinic'
loop_
_space_group_symop_operation_xyz
x,y,z
-x,-y,-z
loop_
_atom_site_type_symbol
_atom_site_label
_atom_site_fract_x
_atom_site_fract_y
_atom_site_fract_z
Si Si1 0.371295 0.827958 0.276803
Si Si2 0.866789 0.739576 0.441432
Si Si3 0.472530 0.905901 0.074749
Si Si4 0.166041 0.853139 0.951343
Si Si5 0.627341 0.149007 0.583268
Si Si6 0.272275 0.781516 0.614066
Si Si7 0.237357 0.323657 0.209157
O O1 0.342847 0.524438 0.238100
O O2 0.150477 0.894477 0.348443
O O3 0.623197 0.097161 0.172742
O O4 0.376407 0.784786 0.343045
O O5 0.810882 0.024888 0.485273
O O6 0.795170 0.573322 0.394963
O O7 0.718577 0.481907 0.534467
O O8 0.726533 0.026985 0.017326
O O9 0.320223 0.060202 0.169184
O O10 0.500000 0.000000 0.000000
O O11 0.328860 0.537650 0.124423
O O12 0.000000 0.500000 0.000000
O O13 0.000000 0.000000 0.000000
O O14 0.361218 0.885304 0.653261
O O15 0.048342 0.845395 0.688601
O O16 0.500000 0.000000 0.500000
#
# Coordination Sequence:
#
# PCOD8017087 Si02
#       7
#     2   2   2   2   2   2   2
#     4  10  23  40  62  86 121 160 200 248 303 367
#     4  10  22  38  58  86 122 159 200 245 297 360
#     4  11  24  44  69  92 120 162 211 256 308 375
#     4  11  25  43  63  91 124 159 201 259 317 360
#     4  11  22  36  60  91 119 159 203 244 298 360
#     4   9  21  38  59  88 126 160 198 250 298 351
#     4  10  23  41  63  92 123 161 202 250 309 365
#
# _framework density 22.87088
#
# number of rings (size 3 to 8) (size 9 to 14) (size 15 to 20)
#    0.000    1.714    0.000    3.429    0.000   19.429 
#    0.000    0.000    0.000    0.000    0.000    0.000 
#    0.000    0.000    0.000    0.000    0.000    0.000 
#
# Total GULP energy -173521.096264 kJ/mol
# GULP energy per Si atom -12394.364019 kJ/mol
# Density = 2.281883 g / cm^3
# Si number density = 22.870880 Si / 1000 Ang^3
#
#
#
# Elastic Constant Matrix: (Units=GPa)
#
#
# Indices 1 2 3 4 5 6 
#
# 1 118.9867 26.2341 49.5384 -3.9691 -13.6003 16.4357
# 2 26.2341 51.9345 22.8843 -16.9949 -10.4162 -7.6294
# 3 49.5384 22.8843 98.7429 -20.8273 -20.8472 16.3479
# 4 -3.9691 -16.9949 -20.8273 39.8812 4.8510 -1.9321
# 5 -13.6003 -10.4162 -20.8472 4.8510 39.7091 5.8096
# 6 16.4357 -7.6294 16.3479 -1.9321 5.8096 34.1632
#
#
#
# Elastic Compliance Matrix: (Units=1/GPa)
#
#
# Indices 1 2 3 4 5 6 
#
# 1 0.012460 -0.006261 -0.004360 -0.004194 0.001702 -0.005833
# 2 -0.006261 0.029104 -0.003061 0.010623 0.000914 0.011422
# 3 -0.004360 -0.003061 0.017012 0.005924 0.007021 -0.007586
# 4 -0.004194 0.010623 0.005924 0.032442 0.000001 0.003390
# 5 0.001702 0.000914 0.007021 0.000001 0.031046 -0.009254
# 6 -0.005833 0.011422 -0.007586 0.003390 -0.009254 0.040024
#
#
# Mechanical properties :
#
#
# Convention : Reuss Voigt Hill
#
# Bulk Modulus (GPa) = 32.03940 51.88641 41.96291
# Shear Modulus (GPa) = 25.01803 34.15119 29.58461
#
# Velocity S-wave (km/s) = 3.31098 3.86841 3.60050
# Velocity P-wave (km/s) = 5.35313 6.53366 5.97263
#
# Compressibility (1/GPa) = 0.03121157
#
# Stress axis : x y z
#
# Youngs Moduli (GPa) = 80.25505 34.35930 58.78272
#
# Poissons Ratio (x) = 0.21513 0.25627
# Poissons Ratio (y) = 0.50250 0.17996
# Poissons Ratio (z) = 0.34989 0.10519
#
# Static dielectric constant tensor:
#      x y z
#    x 4.809700 0.418580 -0.122810 
#    y 0.418580 4.244840 -0.185740 
#    z -0.122810 -0.185740 4.312170 
# 
# 
# High freq. dielectric constant tensor:
#      x y z
#    x 1.910780 0.001240 -0.008130 
#    y 0.001240 1.904720 -0.008470 
#    z -0.008130 -0.008470 1.900550 
# 
# From -- ./inp_files/609203.got.cif
#   From: 2010.06.25/outbox.cif.g09.slc.cpg/sg2_305_cif.got.tgz:609203.got - 2010.06.27 13:26:56.
