data_PCOD8017560
_publ_section_title
;
Structure prediction by ZEFSAII (Michael W. Deem and Ramdas Pophale) SiO2 
 PCOD8017560
Probable space group: P -1
;
_chemical_formula_sum "Si O2"
_cell_formula_units_Z 16
_cell_length_a 15.390894
_cell_length_b 6.897258
_cell_length_c 9.717679
_cell_angle_alpha 113.369827
_cell_angle_beta 64.901238
_cell_angle_gamma 111.423442
_cell_volume 833.111689
_symmetry_space_group_name_H-M "P -1"
_symmetry_group_IT_number 2
_symmetry_cell_setting 'triclinic'
loop_
_space_group_symop_operation_xyz
x,y,z
-x,-y,-z
loop_
_atom_site_type_symbol
_atom_site_label
_atom_site_fract_x
_atom_site_fract_y
_atom_site_fract_z
Si Si1 0.908137 0.454641 0.449954
Si Si2 0.393241 0.366816 0.884057
Si Si3 0.257742 0.933323 0.433477
Si Si4 0.902303 0.425245 0.134731
Si Si5 0.216766 0.232144 0.315896
Si Si6 0.233881 0.272937 0.764584
Si Si7 0.609612 0.384017 0.773798
Si Si8 0.208816 0.047099 0.982582
O O1 0.831707 0.259822 0.517322
O O2 0.934408 0.392170 0.260387
O O3 0.866430 0.670273 0.528063
O O4 0.000000 0.500000 0.500000
O O5 0.334118 0.425968 0.806653
O O6 0.502084 0.344787 0.764587
O O7 0.398268 0.560181 0.044437
O O8 0.329489 0.131546 0.919488
O O9 0.354938 0.839168 0.326936
O O10 0.233778 0.025470 0.328924
O O11 0.273973 0.119822 0.588945
O O12 0.835467 0.599227 0.230230
O O13 0.000000 0.500000 0.000000
O O14 0.831737 0.210354 0.057126
O O15 0.318332 0.416716 0.296135
O O16 0.173992 0.153012 0.171639
O O17 0.168265 0.137594 0.895404
#
# Coordination Sequence:
#
# PCOD8017560 Si02
#       8
#     2   2   2   2   2   2   2   2
#     4  11  25  41  60  88 122 156 197 257 301 356
#     4   8  18  41  62  88 125 157 197 250 292 356
#     4  11  22  40  62  86 129 158 194 251 303 353
#     4  12  26  40  63  89 116 158 208 245 300 362
#     4  10  22  39  62  91 121 158 203 241 301 362
#     4  10  22  42  59  84 123 159 193 250 299 349
#     4   9  19  38  63  93 121 157 203 244 293 354
#     4   9  22  41  60  85 120 161 192 248 298 348
#
# _framework density 19.205109
#
# number of rings (size 3 to 8) (size 9 to 14) (size 15 to 20)
#    0.750    1.250    2.500    0.000    5.250    2.500 
#    2.250    2.500    0.000    0.000    0.000    0.000 
#    0.000    0.000    0.000    0.000    0.000    0.000 
#
# Total GULP energy -198297.760348 kJ/mol
# GULP energy per Si atom -12393.610022 kJ/mol
# Density = 1.916140 g / cm^3
# Si number density = 19.205109 Si / 1000 Ang^3
#
#
#
# Elastic Constant Matrix: (Units=GPa)
#
#
# Indices 1 2 3 4 5 6 
#
# 1 120.6169 35.8736 42.8562 8.2834 -5.4258 -0.9900
# 2 35.8736 88.3678 32.2406 6.9004 -5.2666 -5.5735
# 3 42.8562 32.2406 96.0104 6.9097 4.5869 2.4156
# 4 8.2834 6.9004 6.9097 28.6289 -3.4353 4.8361
# 5 -5.4258 -5.2666 4.5869 -3.4353 29.2887 -0.3447
# 6 -0.9900 -5.5735 2.4156 4.8361 -0.3447 24.6291
#
#
#
# Elastic Compliance Matrix: (Units=1/GPa)
#
#
# Indices 1 2 3 4 5 6 
#
# 1 0.010638 -0.002655 -0.003865 -0.001356 0.001945 0.000499
# 2 -0.002655 0.014300 -0.003677 -0.002164 0.002448 0.003949
# 3 -0.003865 -0.003677 0.013706 -0.001392 -0.003712 -0.002110
# 4 -0.001356 -0.002164 -0.001392 0.037972 0.003939 -0.007809
# 5 0.001945 0.002448 -0.003712 0.003939 0.035995 0.000726
# 6 0.000499 0.003949 -0.002110 -0.007809 0.000726 0.043267
#
#
# Mechanical properties :
#
#
# Convention : Reuss Voigt Hill
#
# Bulk Modulus (GPa) = 54.79587 58.54844 56.67216
# Shear Modulus (GPa) = 27.41885 29.44430 28.43158
#
# Velocity S-wave (km/s) = 3.78257 3.91979 3.85179
# Velocity P-wave (km/s) = 6.90442 7.14412 7.02529
#
# Compressibility (1/GPa) = 0.01824955
#
# Stress axis : x y z
#
# Youngs Moduli (GPa) = 93.99881 69.93054 72.95967
#
# Poissons Ratio (x) = 0.18569 0.28198
# Poissons Ratio (y) = 0.24960 0.26829
# Poissons Ratio (z) = 0.36330 0.25715
#
# Static dielectric constant tensor:
#      x y z
#    x 3.455280 0.091960 0.021950 
#    y 0.091960 3.505910 0.036940 
#    z 0.021950 0.036940 3.585280 
# 
# 
# High freq. dielectric constant tensor:
#      x y z
#    x 1.736850 0.003860 0.007550 
#    y 0.003860 1.735100 0.005320 
#    z 0.007550 0.005320 1.756790 
# 
# From -- ./inp_files/289000.got.cif
#   From: 2010.06.25/outbox.cif.g09.slc.cpg/sg2_145_cif.got.tgz:289000.got - 2010.06.27 13:26:56.
