data_PCOD8017432
_publ_section_title
;
Structure prediction by ZEFSAII (Michael W. Deem and Ramdas Pophale) SiO2 
 PCOD8017432
Probable space group: P -1
;
_chemical_formula_sum "Si O2"
_cell_formula_units_Z 16
_cell_length_a 14.417903
_cell_length_b 10.632211
_cell_length_c 8.561101
_cell_angle_alpha 42.049398
_cell_angle_beta 93.140018
_cell_angle_gamma 109.274414
_cell_volume 791.221946
_symmetry_space_group_name_H-M "P -1"
_symmetry_group_IT_number 2
_symmetry_cell_setting 'triclinic'
loop_
_space_group_symop_operation_xyz
x,y,z
-x,-y,-z
loop_
_atom_site_type_symbol
_atom_site_label
_atom_site_fract_x
_atom_site_fract_y
_atom_site_fract_z
Si Si1 0.552551 0.348947 0.601030
Si Si2 0.881278 0.136510 0.558692
Si Si3 0.765415 0.273053 0.200759
Si Si4 0.741592 0.483636 0.297080
Si Si5 0.940187 0.413455 0.842180
Si Si6 0.952983 0.865935 0.964199
Si Si7 0.381512 0.909130 0.920774
Si Si8 0.792010 0.201259 0.774105
O O1 0.500000 0.500000 0.500000
O O2 0.638161 0.488284 0.352379
O O3 0.477747 0.132421 0.710553
O O4 0.595465 0.275215 0.827291
O O5 0.790779 0.100257 0.458468
O O6 0.839071 0.075123 0.791199
O O7 0.955602 0.379948 0.329552
O O8 0.941885 0.993107 0.691603
O O9 0.742033 0.434328 0.157989
O O10 0.662987 0.158357 0.194475
O O11 0.867330 0.404881 0.987255
O O12 0.739342 0.281979 0.565547
O O13 0.841449 0.688464 0.163525
O O14 0.879320 0.399634 0.688605
O O15 0.968991 0.219153 0.020500
O O16 0.000000 0.000000 0.000000
O O17 0.294305 0.945280 0.978094
#
# Coordination Sequence:
#
# PCOD8017432 Si02
#       8
#     2   2   2   2   2   2   2   2
#     4  10  22  42  68  89 112 146 196 251 293 351
#     4  11  21  34  56  83 121 161 194 238 285 339
#     4  10  22  41  60  83 126 158 185 244 295 352
#     4  10  22  39  59  88 120 153 196 241 295 345
#     4  11  20  38  57  82 121 160 200 233 287 337
#     4  12  23  34  59  89 118 159 207 237 274 343
#     4   9  21  41  64  89 113 149 196 241 301 350
#     4   9  17  35  60  82 113 155 196 239 277 341
#
# _framework density 20.221886999999999
#
# number of rings (size 3 to 8) (size 9 to 14) (size 15 to 20)
#    0.000    1.750    3.750    1.500    1.750    1.000 
#    2.250    0.625    0.000    0.000    0.000    0.000 
#    0.000    0.000    0.000    0.000    0.000    0.000 
#
# Total GULP energy -198211.470059 kJ/mol
# GULP energy per Si atom -12388.216879 kJ/mol
# Density = 2.017586 g / cm^3
# Si number density = 20.221887 Si / 1000 Ang^3
#
#
#
# Elastic Constant Matrix: (Units=GPa)
#
#
# Indices 1 2 3 4 5 6 
#
# 1 113.4311 58.6249 37.3995 6.1033 -2.1388 -2.0368
# 2 58.6249 106.7681 41.3269 11.1365 -7.6512 10.8872
# 3 37.3995 41.3269 54.5697 5.2819 1.5020 -0.6851
# 4 6.1033 11.1365 5.2819 29.5248 0.7966 0.9276
# 5 -2.1388 -7.6512 1.5020 0.7966 38.3234 1.8631
# 6 -2.0368 10.8872 -0.6851 0.9276 1.8631 39.5550
#
#
#
# Elastic Compliance Matrix: (Units=1/GPa)
#
#
# Indices 1 2 3 4 5 6 
#
# 1 0.013404 -0.005773 -0.004798 0.000204 -0.000328 0.002207
# 2 -0.005773 0.017146 -0.008848 -0.003628 0.003779 -0.005263
# 3 -0.004798 -0.008848 0.028515 -0.000773 -0.003275 0.002855
# 4 0.000204 -0.003628 -0.000773 0.035366 -0.001429 0.000234
# 5 -0.000328 0.003779 -0.003275 -0.001429 0.027103 -0.002357
# 6 0.002207 -0.005263 0.002855 0.000234 -0.002357 0.026998
#
#
# Mechanical properties :
#
#
# Convention : Reuss Voigt Hill
#
# Bulk Modulus (GPa) = 49.43512 61.05238 55.24375
# Shear Modulus (GPa) = 25.75846 30.64181 28.20013
#
# Velocity S-wave (km/s) = 3.57289 3.89688 3.73840
# Velocity P-wave (km/s) = 6.44361 7.10664 6.78323
#
# Compressibility (1/GPa) = 0.02022853
#
# Stress axis : x y z
#
# Youngs Moduli (GPa) = 74.60665 58.32105 35.06933
#
# Poissons Ratio (x) = 0.33666 0.16825
# Poissons Ratio (y) = 0.43067 0.31030
# Poissons Ratio (z) = 0.35793 0.51603
#
# Static dielectric constant tensor:
#      x y z
#    x 4.134920 -0.132660 -0.087810 
#    y -0.132660 3.715650 0.286760 
#    z -0.087810 0.286760 3.585400 
# 
# 
# High freq. dielectric constant tensor:
#      x y z
#    x 1.801190 0.002730 -0.002460 
#    y 0.002730 1.781240 0.012420 
#    z -0.002460 0.012420 1.772000 
# 
# From -- ./inp_files/306257.got.cif
#   From: 2010.06.25/outbox.cif.g09.slc.cpg/sg2_154_cif.got.tgz:306257.got - 2010.06.27 13:26:56.
