data_PCOD8017133
_publ_section_title
;
Structure prediction by ZEFSAII (Michael W. Deem and Ramdas Pophale) SiO2 
 PCOD8017133
Probable space group: P -1
;
_chemical_formula_sum "Si O2"
_cell_formula_units_Z 16
_cell_length_a 14.246695
_cell_length_b 19.974932
_cell_length_c 9.160129
_cell_angle_alpha 58.972572
_cell_angle_beta 109.948050
_cell_angle_gamma 158.074550
_cell_volume 753.776906
_symmetry_space_group_name_H-M "P -1"
_symmetry_group_IT_number 2
_symmetry_cell_setting 'triclinic'
loop_
_space_group_symop_operation_xyz
x,y,z
-x,-y,-z
loop_
_atom_site_type_symbol
_atom_site_label
_atom_site_fract_x
_atom_site_fract_y
_atom_site_fract_z
Si Si1 0.596224 0.568808 0.638035
Si Si2 0.809907 0.043312 0.405950
Si Si3 0.315094 0.208333 0.926671
Si Si4 0.814637 0.213869 0.098080
Si Si5 0.245952 0.453875 0.699898
Si Si6 0.602459 0.337554 0.186233
Si Si7 0.634270 0.002428 0.945863
Si Si8 0.535000 0.775925 0.288296
O O1 0.500000 0.500000 0.500000
O O2 0.498692 0.417411 0.830215
O O3 0.462508 0.543868 0.678275
O O4 0.930497 0.812798 0.547817
O O5 0.851255 0.167111 0.279035
O O6 0.536725 0.831806 0.599453
O O7 0.774666 0.977944 0.301585
O O8 0.362674 0.214942 0.779227
O O9 0.386377 0.196915 0.099877
O O10 0.000000 0.000000 0.000000
O O11 0.572993 0.097608 0.154336
O O12 0.724961 0.120454 0.996905
O O13 0.105548 0.473878 0.946194
O O14 0.327199 0.536830 0.814624
O O15 0.281009 0.553205 0.496052
O O16 0.924378 0.190842 0.807295
O O17 0.457068 0.796744 0.132046
#
# Coordination Sequence:
#
# PCOD8017133 Si02
#       8
#     2   2   2   2   2   2   2   2
#     4  12  23  39  62  88 127 163 196 253 302 362
#     4  10  22  39  64  89 122 164 204 246 303 365
#     4  12  24  38  59  87 127 163 202 248 304 355
#     4   9  18  39  62  92 121 156 203 259 301 357
#     4  10  22  38  61  92 122 162 208 244 302 365
#     4  10  22  38  60  91 121 159 207 250 298 364
#     4   9  19  37  64  90 122 156 205 255 305 353
#     4  10  22  40  59  90 124 159 204 252 299 361
#
# _framework density 21.22644
#
# number of rings (size 3 to 8) (size 9 to 14) (size 15 to 20)
#    0.000    1.750    2.500    1.500    1.750    2.500 
#    0.000    5.625    0.000    3.750    0.000    0.000 
#    0.000    0.000    0.000    0.000    0.000    0.000 
#
# Total GULP energy -198316.938971 kJ/mol
# GULP energy per Si atom -12394.808686 kJ/mol
# Density = 2.117813 g / cm^3
# Si number density = 21.226440 Si / 1000 Ang^3
#
#
#
# Elastic Constant Matrix: (Units=GPa)
#
#
# Indices 1 2 3 4 5 6 
#
# 1 53.1869 45.7361 29.4409 -3.8481 12.5939 22.8327
# 2 45.7361 85.8116 43.6835 -7.7358 0.0293 24.5927
# 3 29.4409 43.6835 109.6167 -12.3754 10.9653 12.6610
# 4 -3.8481 -7.7358 -12.3754 34.6073 -3.5443 -4.0191
# 5 12.5939 0.0293 10.9653 -3.5443 27.5524 2.1331
# 6 22.8327 24.5927 12.6610 -4.0191 2.1331 36.7861
#
#
#
# Elastic Compliance Matrix: (Units=1/GPa)
#
#
# Indices 1 2 3 4 5 6 
#
# 1 0.049337 -0.021800 -0.001128 -0.003704 -0.021408 -0.014824
# 2 -0.021800 0.027297 -0.005633 0.002595 0.012761 -0.003236
# 3 -0.001128 -0.005633 0.012294 0.002682 -0.004085 0.000765
# 4 -0.003704 0.002595 0.002682 0.030790 0.004371 0.002752
# 5 -0.021408 0.012761 -0.004085 0.004371 0.047956 0.003859
# 6 -0.014824 -0.003236 0.000765 0.002752 0.003859 0.038362
#
#
# Mechanical properties :
#
#
# Convention : Reuss Voigt Hill
#
# Bulk Modulus (GPa) = 31.44083 54.03735 42.73909
# Shear Modulus (GPa) = 18.26429 28.43947 23.35188
#
# Velocity S-wave (km/s) = 2.93652 3.66432 3.32042
# Velocity P-wave (km/s) = 5.13243 6.58907 5.90583
#
# Compressibility (1/GPa) = 0.03180578
#
# Stress axis : x y z
#
# Youngs Moduli (GPa) = 20.26882 36.63440 81.34326
#
# Poissons Ratio (x) = 0.79862 0.09175
# Poissons Ratio (y) = 0.44185 0.45821
# Poissons Ratio (z) = 0.02286 0.20636
#
# Static dielectric constant tensor:
#      x y z
#    x 3.811880 0.138430 0.057980 
#    y 0.138430 3.774040 -0.132290 
#    z 0.057980 -0.132290 4.063520 
# 
# 
# High freq. dielectric constant tensor:
#      x y z
#    x 1.812520 0.001260 0.007590 
#    y 0.001260 1.826790 -0.007990 
#    z 0.007590 -0.007990 1.838750 
# 
# From -- ./inp_files/206715.got.cif
#   From: 2010.06.25/outbox.cif.g09.slc.cpg/sg2_104_cif.got.tgz:206715.got - 2010.06.27 13:26:56.
