data_PCOD8017150
_publ_section_title
;
Structure prediction by ZEFSAII (Michael W. Deem and Ramdas Pophale) SiO2 
 PCOD8017150
Probable space group: P -1
;
_chemical_formula_sum "Si O2"
_cell_formula_units_Z 16
_cell_length_a 16.487323
_cell_length_b 14.928124
_cell_length_c 6.993758
_cell_angle_alpha 133.796313
_cell_angle_beta 69.875922
_cell_angle_gamma 135.957953
_cell_volume 822.371151
_symmetry_space_group_name_H-M "P -1"
_symmetry_group_IT_number 2
_symmetry_cell_setting 'triclinic'
loop_
_space_group_symop_operation_xyz
x,y,z
-x,-y,-z
loop_
_atom_site_type_symbol
_atom_site_label
_atom_site_fract_x
_atom_site_fract_y
_atom_site_fract_z
Si Si1 0.110465 0.731839 0.897881
Si Si2 0.766658 0.105997 0.564440
Si Si3 0.078065 0.898666 0.853130
Si Si4 0.468442 0.280955 0.813595
Si Si5 0.267220 0.460824 0.959741
Si Si6 0.164279 0.264358 0.372663
Si Si7 0.840049 0.388717 0.650067
Si Si8 0.364042 0.434338 0.179128
O O1 0.079531 0.821544 0.931378
O O2 0.184796 0.709175 0.673209
O O3 0.985597 0.543096 0.796384
O O4 0.192034 0.853124 0.189682
O O5 0.841011 0.078937 0.346200
O O6 0.782382 0.257091 0.681993
O O7 0.622123 0.927661 0.420238
O O8 0.938450 0.761109 0.690226
O O9 0.129513 0.085270 0.138409
O O10 0.513802 0.362501 0.679355
O O11 0.590222 0.374311 0.978491
O O12 0.397700 0.326040 0.027532
O O13 0.175691 0.328086 0.670955
O O14 0.220656 0.539466 0.210243
O O15 0.266403 0.350776 0.958700
O O16 0.297858 0.419596 0.398704
#
# Coordination Sequence:
#
# PCOD8017150 Si02
#       8
#     2   2   2   2   2   2   2   2
#     4  10  22  39  64  82 118 161 187 246 303 330
#     4  11  21  41  61  86 121 154 195 245 284 345
#     4  10  23  35  59  97 119 142 204 239 287 363
#     4   9  21  40  58  87 118 155 198 240 277 356
#     4  10  22  38  61  85 120 160 187 242 293 337
#     4  11  21  37  61  91 120 156 185 244 300 344
#     4  10  22  40  58  89 114 153 207 236 282 362
#     4   9  20  40  56  85 125 150 196 236 279 363
#
# _framework density 19.455935
#
# number of rings (size 3 to 8) (size 9 to 14) (size 15 to 20)
#    0.750    1.250    1.250    1.875    1.750    4.000 
#    4.500    3.750    0.000    0.000    0.000    0.000 
#    0.000    0.000    0.000    0.000    0.000    0.000 
#
# Total GULP energy -198331.856834 kJ/mol
# GULP energy per Si atom -12395.741052 kJ/mol
# Density = 1.941165 g / cm^3
# Si number density = 19.455935 Si / 1000 Ang^3
#
#
#
# Elastic Constant Matrix: (Units=GPa)
#
#
# Indices 1 2 3 4 5 6 
#
# 1 88.0436 12.5753 44.8641 -1.5353 -6.4509 1.9520
# 2 12.5753 71.8433 26.4192 -0.9346 4.0358 5.5436
# 3 44.8641 26.4192 91.6690 0.9475 7.6095 -7.0128
# 4 -1.5353 -0.9346 0.9475 20.4529 2.1299 3.6162
# 5 -6.4509 4.0358 7.6095 2.1299 28.8048 -1.2110
# 6 1.9520 5.5436 -7.0128 3.6162 -1.2110 21.6155
#
#
#
# Elastic Compliance Matrix: (Units=1/GPa)
#
#
# Indices 1 2 3 4 5 6 
#
# 1 0.016433 0.000498 -0.009023 0.001887 0.005664 -0.004537
# 2 0.000498 0.016410 -0.005391 0.002304 -0.001205 -0.006456
# 3 -0.009023 -0.005391 0.017985 -0.002630 -0.005479 0.008165
# 4 0.001887 0.002304 -0.002630 0.051462 -0.003449 -0.010417
# 5 0.005664 -0.001205 -0.005479 -0.003449 0.037886 0.000720
# 6 -0.004537 -0.006456 0.008165 -0.010417 0.000720 0.052761
#
#
# Mechanical properties :
#
#
# Convention : Reuss Voigt Hill
#
# Bulk Modulus (GPa) = 43.48389 46.58592 45.03491
# Shear Modulus (GPa) = 21.88808 25.35447 23.62128
#
# Velocity S-wave (km/s) = 3.35775 3.61387 3.48816
# Velocity P-wave (km/s) = 6.11810 6.43504 6.27857
#
# Compressibility (1/GPa) = 0.02299702
#
# Stress axis : x y z
#
# Youngs Moduli (GPa) = 60.85269 60.93777 55.60163
#
# Poissons Ratio (x) = -0.03035 0.50169
# Poissons Ratio (y) = -0.03031 0.29974
# Poissons Ratio (z) = 0.54907 0.32851
#
# Static dielectric constant tensor:
#      x y z
#    x 3.493300 0.067840 -0.111540 
#    y 0.067840 3.583450 -0.009570 
#    z -0.111540 -0.009570 3.321520 
# 
# 
# High freq. dielectric constant tensor:
#      x y z
#    x 1.756280 0.002270 -0.011020 
#    y 0.002270 1.760070 -0.004620 
#    z -0.011020 -0.004620 1.739600 
# 
# From -- ./inp_files/110428.got.cif
#   From: 2010.06.25/outbox.cif.g09.slc.cpg/sg2_56_cif.got.tgz:110428.got - 2010.06.27 13:26:56.
