data_PCOD8017316
_publ_section_title
;
Structure prediction by ZEFSAII (Michael W. Deem and Ramdas Pophale) SiO2 
 PCOD8017316
Probable space group: P -1
;
_chemical_formula_sum "Si O2"
_cell_formula_units_Z 14
_cell_length_a 9.175792
_cell_length_b 8.340294
_cell_length_c 8.209933
_cell_angle_alpha 81.797763
_cell_angle_beta 82.012077
_cell_angle_gamma 82.360344
_cell_volume 611.720801
_symmetry_space_group_name_H-M "P -1"
_symmetry_group_IT_number 2
_symmetry_cell_setting 'triclinic'
loop_
_space_group_symop_operation_xyz
x,y,z
-x,-y,-z
loop_
_atom_site_type_symbol
_atom_site_label
_atom_site_fract_x
_atom_site_fract_y
_atom_site_fract_z
Si Si1 0.522764 0.048336 0.762708
Si Si2 0.097594 0.330022 0.786700
Si Si3 0.354867 0.865940 0.587740
Si Si4 0.101611 0.131796 0.516412
Si Si5 0.177283 0.429301 0.259736
Si Si6 0.677511 0.471689 0.455745
Si Si7 0.697195 0.803002 0.967991
O O1 0.537513 0.156573 0.584216
O O2 0.436678 0.892419 0.743068
O O3 0.678129 0.963866 0.830062
O O4 0.440359 0.170594 0.889828
O O5 0.035009 0.215319 0.678967
O O6 0.246809 0.399315 0.684653
O O7 0.959531 0.465191 0.824900
O O8 0.147285 0.219997 0.953359
O O9 0.275670 0.701228 0.620108
O O10 0.260009 0.037654 0.545910
O O11 0.110792 0.269423 0.359915
O O12 0.000000 0.000000 0.500000
O O13 0.250356 0.528979 0.375055
O O14 0.301020 0.363548 0.115340
O O15 0.500000 0.500000 0.500000
#
# Coordination Sequence:
#
# PCOD8017316 Si02
#       7
#     2   2   2   2   2   2   2
#     4  10  22  38  66  94 122 166 212 264 312 370
#     4  11  23  42  63  95 130 170 207 260 322 379
#     4  11  20  40  65  92 121 160 220 261 301 362
#     4  11  21  39  67  91 117 166 224 257 302 369
#     4  11  23  42  63  95 130 170 207 260 322 379
#     4  11  23  39  67  97 125 165 217 266 312 367
#     4  11  21  40  62  92 131 167 202 256 327 384
#
# _framework density 22.886257000000001
#
# number of rings (size 3 to 8) (size 9 to 14) (size 15 to 20)
#    0.000    1.143    2.857    5.571    4.000    0.000 
#    0.000    8.571    0.000    0.000    0.000    0.000 
#    0.000    0.000    0.000    0.000    0.000    0.000 
#
# Total GULP energy -173440.138906 kJ/mol
# GULP energy per Si atom -12388.581350 kJ/mol
# Density = 2.283417 g / cm^3
# Si number density = 22.886257 Si / 1000 Ang^3
#
#
#
# Elastic Constant Matrix: (Units=GPa)
#
#
# Indices 1 2 3 4 5 6 
#
# 1 96.1204 43.8097 28.0522 -3.1182 21.2580 -13.9635
# 2 43.8097 121.6074 40.6045 15.8783 19.0389 -9.5055
# 3 28.0522 40.6045 103.5226 15.0687 21.3555 -8.5936
# 4 -3.1182 15.8783 15.0687 36.4380 -12.9683 6.4181
# 5 21.2580 19.0389 21.3555 -12.9683 28.7205 -1.3041
# 6 -13.9635 -9.5055 -8.5936 6.4181 -1.3041 52.5947
#
#
#
# Elastic Compliance Matrix: (Units=1/GPa)
#
#
# Indices 1 2 3 4 5 6 
#
# 1 0.014306 -0.003445 -0.000609 -0.000339 -0.007872 0.002922
# 2 -0.003445 0.012489 -0.000480 -0.009289 -0.009468 0.002163
# 3 -0.000609 -0.000480 0.015512 -0.012674 -0.016331 0.003428
# 4 -0.000339 -0.009289 -0.012674 0.052207 0.038986 -0.009244
# 5 -0.007872 -0.009468 -0.016331 0.038986 0.076245 -0.009337
# 6 0.002922 0.002163 0.003428 -0.009244 -0.009337 0.021637
#
#
# Mechanical properties :
#
#
# Convention : Reuss Voigt Hill
#
# Bulk Modulus (GPa) = 30.08696 60.68702 45.38699
# Shear Modulus (GPa) = 23.52454 37.46958 30.49706
#
# Velocity S-wave (km/s) = 3.20955 4.05063 3.65437
# Velocity P-wave (km/s) = 5.18746 6.96069 6.13844
#
# Compressibility (1/GPa) = 0.03323699
#
# Stress axis : x y z
#
# Youngs Moduli (GPa) = 69.89911 80.07100 64.46829
#
# Poissons Ratio (x) = 0.27587 0.03929
# Poissons Ratio (y) = 0.24082 0.03095
# Poissons Ratio (z) = 0.04260 0.03844
#
# Static dielectric constant tensor:
#      x y z
#    x 4.225320 -0.521260 0.333540 
#    y -0.521260 4.444920 0.195400 
#    z 0.333540 0.195400 4.375000 
# 
# 
# High freq. dielectric constant tensor:
#      x y z
#    x 1.881170 -0.034960 0.023390 
#    y -0.034960 1.910620 0.020800 
#    z 0.023390 0.020800 1.903100 
# 
# From -- ./inp_files/154768.got.cif
#   From: 2010.06.25/outbox.cif.g09.slc.cpg/sg2_78_cif.got.tgz:154768.got - 2010.06.27 13:26:56.
