data_PCOD8017989
_publ_section_title
;
Structure prediction by ZEFSAII (Michael W. Deem and Ramdas Pophale) SiO2 
 PCOD8017989
Probable space group: P -1
;
_chemical_formula_sum "Si O2"
_cell_formula_units_Z 16
_cell_length_a 12.041545
_cell_length_b 15.053206
_cell_length_c 15.449432
_cell_angle_alpha 161.372802
_cell_angle_beta 115.141191
_cell_angle_gamma 68.489119
_cell_volume 803.469651
_symmetry_space_group_name_H-M "P -1"
_symmetry_group_IT_number 2
_symmetry_cell_setting 'triclinic'
loop_
_space_group_symop_operation_xyz
x,y,z
-x,-y,-z
loop_
_atom_site_type_symbol
_atom_site_label
_atom_site_fract_x
_atom_site_fract_y
_atom_site_fract_z
Si Si1 0.111935 0.793120 0.082032
Si Si2 0.573952 0.560265 0.391208
Si Si3 0.772016 0.305929 0.305122
Si Si4 0.179047 0.014076 0.632413
Si Si5 0.707388 0.182856 0.990104
Si Si6 0.852876 0.744583 0.870625
Si Si7 0.712716 0.517116 0.777569
Si Si8 0.907391 0.811825 0.411263
O O1 0.082519 0.512584 0.869245
O O2 0.993094 0.852290 0.042227
O O3 0.227729 0.773989 0.040656
O O4 0.148903 0.052253 0.397990
O O5 0.631561 0.394646 0.337812
O O6 0.645122 0.869058 0.693266
O O7 0.430852 0.569871 0.368822
O O8 0.601017 0.391956 0.156177
O O9 0.858185 0.559003 0.614063
O O10 0.807813 0.267452 0.179626
O O11 0.778990 0.012823 0.084921
O O12 0.231858 0.720014 0.367287
O O13 0.041862 0.979421 0.594028
O O14 0.180638 0.159972 0.673974
O O15 0.267660 0.199302 0.899072
O O16 0.783000 0.544399 0.734824
#
# Coordination Sequence:
#
# PCOD8017989 Si02
#       8
#     2   2   2   2   2   2   2   2
#     4  12  23  39  65  91 123 157 199 250 298 361
#     4  10  22  43  59  84 118 175 205 236 294 347
#     4  10  22  40  54  88 122 162 204 242 296 342
#     4  11  22  40  63  94 126 150 189 244 318 373
#     4  10  22  43  59  84 118 175 205 236 294 347
#     4  12  22  36  59  94 122 148 207 250 302 348
#     4  12  23  39  65  91 123 157 199 250 298 361
#     4  11  22  40  63  94 126 150 189 244 318 373
#
# _framework density 19.913634999999999
#
# number of rings (size 3 to 8) (size 9 to 14) (size 15 to 20)
#    0.750    0.250    3.750    3.750    0.000    4.000 
#    0.000    0.000    0.000   15.000    0.000    0.000 
#    0.000    0.000    0.000    0.000    0.000    0.000 
#
# Total GULP energy -198358.665069 kJ/mol
# GULP energy per Si atom -12397.416567 kJ/mol
# Density = 1.986831 g / cm^3
# Si number density = 19.913635 Si / 1000 Ang^3
#
#
#
# Elastic Constant Matrix: (Units=GPa)
#
#
# Indices 1 2 3 4 5 6 
#
# 1 38.5228 -10.4102 2.6008 0.2478 -6.0241 3.2018
# 2 -10.4102 50.8450 11.9539 7.1676 0.0714 -3.9214
# 3 2.6008 11.9539 101.5931 7.5467 -8.0326 -0.2330
# 4 0.2478 7.1676 7.5467 28.1185 0.7835 -6.6572
# 5 -6.0241 0.0714 -8.0326 0.7835 26.7375 1.4509
# 6 3.2018 -3.9214 -0.2330 -6.6572 1.4509 13.9501
#
#
#
# Elastic Compliance Matrix: (Units=1/GPa)
#
#
# Indices 1 2 3 4 5 6 
#
# 1 0.029376 0.006093 -0.000673 -0.003594 0.006911 -0.007474
# 2 0.006093 0.022314 -0.002396 -0.004492 0.000582 0.002630
# 3 -0.000673 -0.002396 0.010601 -0.002795 0.003231 -0.002012
# 4 -0.003594 -0.004492 -0.002795 0.042372 -0.003972 0.020149
# 5 0.006911 0.000582 0.003231 -0.003972 0.040449 -0.007471
# 6 -0.007474 0.002630 -0.002012 0.020149 -0.007471 0.084498
#
#
# Mechanical properties :
#
#
# Convention : Reuss Voigt Hill
#
# Bulk Modulus (GPa) = 14.63287 22.13889 18.38588
# Shear Modulus (GPa) = 20.29725 26.21564 23.25644
#
# Velocity S-wave (km/s) = 3.19605 3.63225 3.42111
# Velocity P-wave (km/s) = 4.58081 5.36028 4.98580
#
# Compressibility (1/GPa) = 0.06833931
#
# Stress axis : x y z
#
# Youngs Moduli (GPa) = 34.04172 44.81571 94.33314
#
# Poissons Ratio (x) = -0.27306 0.06346
# Poissons Ratio (y) = -0.20742 0.22599
# Poissons Ratio (z) = 0.02290 0.10737
#
# Static dielectric constant tensor:
#      x y z
#    x 3.351680 -0.030590 -0.170630 
#    y -0.030590 3.636700 -0.010650 
#    z -0.170630 -0.010650 3.710680 
# 
# 
# High freq. dielectric constant tensor:
#      x y z
#    x 1.741560 -0.003860 -0.013300 
#    y -0.003860 1.773410 0.004190 
#    z -0.013300 0.004190 1.798880 
# 
# From -- ./inp_files/522049.got.cif
#   From: 2010.06.25/outbox.cif.g09.slc.cpg/sg2_262_cif.got.tgz:522049.got - 2010.06.27 13:26:56.
