data_PCOD8017201
_publ_section_title
;
Structure prediction by ZEFSAII (Michael W. Deem and Ramdas Pophale) SiO2 
 PCOD8017201
Probable space group: P -1
;
_chemical_formula_sum "Si O2"
_cell_formula_units_Z 14
_cell_length_a 8.497863
_cell_length_b 5.224692
_cell_length_c 21.745720
_cell_angle_alpha 117.039027
_cell_angle_beta 140.997603
_cell_angle_gamma 67.245031
_cell_volume 540.245174
_symmetry_space_group_name_H-M "P -1"
_symmetry_group_IT_number 2
_symmetry_cell_setting 'triclinic'
loop_
_space_group_symop_operation_xyz
x,y,z
-x,-y,-z
loop_
_atom_site_type_symbol
_atom_site_label
_atom_site_fract_x
_atom_site_fract_y
_atom_site_fract_z
Si Si1 0.720435 0.777521 0.138931
Si Si2 0.326514 0.390920 0.024886
Si Si3 0.940339 0.256159 0.329060
Si Si4 0.421951 0.102666 0.390474
Si Si5 0.260750 0.476130 0.264955
Si Si6 0.019083 0.887777 0.425433
Si Si7 0.832064 0.736865 0.913394
O O1 0.496160 0.665201 0.100363
O O2 0.964255 0.555175 0.195152
O O3 0.625144 0.810040 0.042690
O O4 0.781890 0.095905 0.212655
O O5 0.373175 0.246841 0.090916
O O6 0.026378 0.458289 0.943010
O O7 0.233161 0.198320 0.397512
O O8 0.870585 0.596665 0.342177
O O9 0.889873 0.125428 0.366752
O O10 0.365835 0.280901 0.330928
O O11 0.688602 0.173573 0.507460
O O12 0.411489 0.763326 0.335550
O O13 0.310715 0.283020 0.197301
O O14 0.000000 0.000000 0.500000
O O15 0.000000 0.000000 0.000000
#
# Coordination Sequence:
#
# PCOD8017201 Si02
#       7
#     2   2   2   2   2   2   2
#     4   9  20  42  66  97 127 175 228 276 324 381
#     4   9  20  42  62  92 137 173 222 274 324 387
#     4  11  23  43  72  96 132 174 223 272 332 406
#     4  11  23  45  70  96 130 178 222 270 334 398
#     4  10  23  40  68  97 132 173 223 271 320 400
#     4  12  26  46  67 100 135 168 217 283 340 399
#     4  10  22  38  62  93 135 179 216 262 335 394
#
# _framework density 25.914159999999999
#
# number of rings (size 3 to 8) (size 9 to 14) (size 15 to 20)
#    0.000    1.714    0.000    3.857    8.000    1.143 
#   10.286    2.143    0.000    0.000    0.000    0.000 
#    0.000    0.000    0.000    0.000    0.000    0.000 
#
# Total GULP energy -173603.641253 kJ/mol
# GULP energy per Si atom -12400.260090 kJ/mol
# Density = 2.585518 g / cm^3
# Si number density = 25.914160 Si / 1000 Ang^3
#
#
#
# Elastic Constant Matrix: (Units=GPa)
#
#
# Indices 1 2 3 4 5 6 
#
# 1 129.0368 31.2589 27.4875 14.6063 -17.5964 27.7560
# 2 31.2589 113.7574 47.5123 17.8952 -10.0397 49.8595
# 3 27.4875 47.5123 75.0763 33.6595 -3.0026 12.3318
# 4 14.6063 17.8952 33.6595 55.6207 -6.2909 2.3039
# 5 -17.5964 -10.0397 -3.0026 -6.2909 45.7075 -2.8693
# 6 27.7560 49.8595 12.3318 2.3039 -2.8693 37.0204
#
#
#
# Elastic Compliance Matrix: (Units=1/GPa)
#
#
# Indices 1 2 3 4 5 6 
#
# 1 0.011015 0.005347 -0.004697 -0.000740 0.004155 -0.013527
# 2 0.005347 0.033333 -0.015608 -0.000258 0.005604 -0.043252
# 3 -0.004697 -0.015608 0.027233 -0.011336 -0.004012 0.015866
# 4 -0.000740 -0.000258 -0.011336 0.025274 0.002600 0.003307
# 5 0.004155 0.005604 -0.004012 0.002600 0.024326 -0.007603
# 6 -0.013527 -0.043252 0.015866 0.003307 -0.007603 0.089327
#
#
# Mechanical properties :
#
#
# Convention : Reuss Voigt Hill
#
# Bulk Modulus (GPa) = 24.00096 58.93201 41.46649
# Shear Modulus (GPa) = 19.66088 41.77717 30.71903
#
# Velocity S-wave (km/s) = 2.75743 4.01950 3.44672
# Velocity P-wave (km/s) = 4.40678 6.65826 5.64589
#
# Compressibility (1/GPa) = 0.04166499
#
# Stress axis : x y z
#
# Youngs Moduli (GPa) = 90.78389 30.00043 36.71991
#
# Poissons Ratio (x) = -0.16042 0.17247
# Poissons Ratio (y) = -0.48543 0.57314
# Poissons Ratio (z) = 0.42639 0.46826
#
# Static dielectric constant tensor:
#      x y z
#    x 5.377310 -0.154440 0.108450 
#    y -0.154440 4.658710 0.024950 
#    z 0.108450 0.024950 4.853030 
# 
# 
# High freq. dielectric constant tensor:
#      x y z
#    x 2.046320 0.004260 -0.002870 
#    y 0.004260 2.030900 -0.000200 
#    z -0.002870 -0.000200 2.045230 
# 
# From -- ./inp_files/38120.got.cif
#   From: 2010.06.25/outbox.cif.g09.slc.cpg/sg2_20_cif.got.tgz:38120.got - 2010.06.27 13:26:56.
