data_PCOD8017993
_publ_section_title
;
Structure prediction by ZEFSAII (Michael W. Deem and Ramdas Pophale) SiO2 
 PCOD8017993
Probable space group: P -1
;
_chemical_formula_sum "Si O2"
_cell_formula_units_Z 16
_cell_length_a 8.753844
_cell_length_b 15.091882
_cell_length_c 9.314666
_cell_angle_alpha 135.796875
_cell_angle_beta 98.437632
_cell_angle_gamma 68.975879
_cell_volume 789.231007
_symmetry_space_group_name_H-M "P -1"
_symmetry_group_IT_number 2
_symmetry_cell_setting 'triclinic'
loop_
_space_group_symop_operation_xyz
x,y,z
-x,-y,-z
loop_
_atom_site_type_symbol
_atom_site_label
_atom_site_fract_x
_atom_site_fract_y
_atom_site_fract_z
Si Si1 0.678186 0.508783 0.041511
Si Si2 0.499616 0.908489 0.758344
Si Si3 0.297513 0.148728 0.843307
Si Si4 0.464635 0.301879 0.253120
Si Si5 0.082358 0.599561 0.309437
Si Si6 0.240055 0.609749 0.616128
Si Si7 0.041485 0.633950 0.885640
Si Si8 0.271933 0.221579 0.606034
O O1 0.791594 0.393138 0.031149
O O2 0.653411 0.660225 0.264724
O O3 0.500000 0.500000 0.000000
O O4 0.771770 0.484915 0.875174
O O5 0.490687 0.772423 0.671249
O O6 0.661619 0.873974 0.636390
O O7 0.344357 0.995276 0.735534
O O8 0.500000 0.000000 0.000000
O O9 0.338311 0.140762 0.669841
O O10 0.403966 0.222030 0.030477
O O11 0.101821 0.226300 0.925533
O O12 0.320868 0.445984 0.431786
O O13 0.628069 0.323246 0.241217
O O14 0.162731 0.667668 0.517785
O O15 0.016328 0.493021 0.252978
O O16 0.929318 0.715774 0.344808
O O17 0.084408 0.653116 0.750815
#
# Coordination Sequence:
#
# PCOD8017993 Si02
#       8
#     2   2   2   2   2   2   2   2
#     4  11  23  36  62  96 134 154 190 259 321 374
#     4  10  24  40  65  86 121 168 218 249 292 359
#     4  11  21  41  63  84 124 161 216 249 287 374
#     4  10  22  40  57  92 123 161 207 252 312 361
#     4  11  21  38  60  96 127 155 201 255 310 377
#     4  11  23  34  63  90 128 156 197 262 319 361
#     4  11  21  36  58  92 121 166 202 248 309 362
#     4  11  21  40  65  90 120 162 209 252 308 360
#
# _framework density 20.272898000000001
#
# number of rings (size 3 to 8) (size 9 to 14) (size 15 to 20)
#    0.000    1.250    3.750    3.000   10.500    0.000 
#    0.000    0.625    0.000    1.500    0.000    0.000 
#    0.000    0.000    0.000    0.000    0.000    0.000 
#
# Total GULP energy -198348.263620 kJ/mol
# GULP energy per Si atom -12396.766476 kJ/mol
# Density = 2.022676 g / cm^3
# Si number density = 20.272898 Si / 1000 Ang^3
#
#
#
# Elastic Constant Matrix: (Units=GPa)
#
#
# Indices 1 2 3 4 5 6 
#
# 1 101.4379 31.0603 40.1403 -4.9312 -6.5893 -14.4742
# 2 31.0603 130.3223 31.9823 -12.2689 -2.8313 -14.0341
# 3 40.1403 31.9823 91.7489 -24.3792 -19.6435 3.1463
# 4 -4.9312 -12.2689 -24.3792 25.4991 0.2588 -6.3667
# 5 -6.5893 -2.8313 -19.6435 0.2588 29.7510 -7.2875
# 6 -14.4742 -14.0341 3.1463 -6.3667 -7.2875 29.1723
#
#
#
# Elastic Compliance Matrix: (Units=1/GPa)
#
#
# Indices 1 2 3 4 5 6 
#
# 1 0.013528 -0.001216 -0.006280 -0.002388 0.000313 0.006361
# 2 -0.001216 0.009309 -0.001709 0.003871 0.000698 0.005079
# 3 -0.006280 -0.001709 0.022159 0.019311 0.013199 0.001184
# 4 -0.002388 0.003871 0.019311 0.063001 0.016047 0.016353
# 5 0.000313 0.000698 0.013199 0.016047 0.045752 0.013999
# 6 0.006361 0.005079 0.001184 0.016353 0.013999 0.046817
#
#
# Mechanical properties :
#
#
# Convention : Reuss Voigt Hill
#
# Bulk Modulus (GPa) = 37.61473 58.87499 48.24486
# Shear Modulus (GPa) = 21.94538 31.57290 26.75914
#
# Velocity S-wave (km/s) = 3.29370 3.95066 3.63705
# Velocity P-wave (km/s) = 5.74971 7.06503 6.44103
#
# Compressibility (1/GPa) = 0.02658533
#
# Stress axis : x y z
#
# Youngs Moduli (GPa) = 73.92264 107.42296 45.12773
#
# Poissons Ratio (x) = 0.13061 0.28342
# Poissons Ratio (y) = 0.08988 0.07713
# Poissons Ratio (z) = 0.46426 0.18360
#
# Static dielectric constant tensor:
#      x y z
#    x 3.567000 -0.219370 -0.113240 
#    y -0.219370 4.151110 -0.110530 
#    z -0.113240 -0.110530 3.646910 
# 
# 
# High freq. dielectric constant tensor:
#      x y z
#    x 1.774120 -0.015520 -0.020580 
#    y -0.015520 1.801940 -0.021200 
#    z -0.020580 -0.021200 1.784030 
# 
# From -- ./inp_files/175180.got.cif
#   From: 2010.06.25/outbox.cif.g09.slc.cpg/sg2_88_cif.got.tgz:175180.got - 2010.06.27 13:26:56.
