data_PCOD8017512
_publ_section_title
;
Structure prediction by ZEFSAII (Michael W. Deem and Ramdas Pophale) SiO2 
 PCOD8017512
Probable space group: P -1
;
_chemical_formula_sum "Si O2"
_cell_formula_units_Z 16
_cell_length_a 10.167545
_cell_length_b 8.824969
_cell_length_c 12.822737
_cell_angle_alpha 112.684495
_cell_angle_beta 112.198814
_cell_angle_gamma 109.230839
_cell_volume 816.855403
_symmetry_space_group_name_H-M "P -1"
_symmetry_group_IT_number 2
_symmetry_cell_setting 'triclinic'
loop_
_space_group_symop_operation_xyz
x,y,z
-x,-y,-z
loop_
_atom_site_type_symbol
_atom_site_label
_atom_site_fract_x
_atom_site_fract_y
_atom_site_fract_z
Si Si1 0.850112 0.433285 0.750064
Si Si2 0.839736 0.465997 0.265520
Si Si3 0.443922 0.649571 0.001503
Si Si4 0.947168 0.145816 0.048878
Si Si5 0.222399 0.929875 0.805367
Si Si6 0.690742 0.177973 0.836592
Si Si7 0.921131 0.116431 0.468521
Si Si8 0.611709 0.103322 0.460481
O O1 0.794805 0.284597 0.790906
O O2 0.717916 0.336569 0.586100
O O3 0.038061 0.501037 0.786094
O O4 0.876527 0.636409 0.850220
O O5 0.770811 0.263806 0.255287
O O6 0.935117 0.649339 0.421741
O O7 0.677592 0.448680 0.160596
O O8 0.350063 0.676384 0.078758
O O9 0.594136 0.869609 0.072299
O O10 0.500000 0.500000 0.000000
O O11 0.889730 0.098712 0.137380
O O12 0.797614 0.121701 0.924308
O O13 0.000000 0.000000 0.000000
O O14 0.130654 0.946528 0.682258
O O15 0.512508 0.969189 0.696688
O O16 0.754066 0.053593 0.470772
O O17 0.000000 0.000000 0.500000
O O18 0.500000 0.000000 0.500000
#
# Coordination Sequence:
#
# PCOD8017512 Si02
#       8
#     2   2   2   2   2   2   2   2
#     4   9  20  40  64  87 120 159 212 247 303 369
#     4  10  22  39  61  90 124 170 196 256 320 364
#     4  12  24  36  61  93 123 160 211 257 311 365
#     4  11  25  40  63  92 123 166 204 256 315 368
#     4  11  23  42  59  87 132 159 207 253 318 383
#     4  11  21  40  64  89 122 164 207 254 311 367
#     4  11  22  39  64  94 122 161 215 262 305 374
#     4   9  20  38  63  86 120 160 201 253 313 358
#
# _framework density 19.587311
#
# number of rings (size 3 to 8) (size 9 to 14) (size 15 to 20)
#    0.000    1.500    3.750    1.875    1.750    3.000 
#    0.000    0.625    0.000    0.000    0.000    0.000 
#    0.000    0.000    0.000    0.000    0.000    0.000 
#
# Total GULP energy -198282.013602 kJ/mol
# GULP energy per Si atom -12392.625850 kJ/mol
# Density = 1.954273 g / cm^3
# Si number density = 19.587311 Si / 1000 Ang^3
#
#
#
# Elastic Constant Matrix: (Units=GPa)
#
#
# Indices 1 2 3 4 5 6 
#
# 1 87.3709 55.6539 55.3050 2.1599 9.2176 -15.7732
# 2 55.6539 98.5470 41.4997 8.8864 10.5614 -8.0865
# 3 55.3050 41.4997 141.9967 9.7307 15.2716 -6.9700
# 4 2.1599 8.8864 9.7307 39.5474 4.7120 -2.6520
# 5 9.2176 10.5614 15.2716 4.7120 27.7578 1.4589
# 6 -15.7732 -8.0865 -6.9700 -2.6520 1.4589 36.3105
#
#
#
# Elastic Compliance Matrix: (Units=1/GPa)
#
#
# Indices 1 2 3 4 5 6 
#
# 1 0.022693 -0.009997 -0.005627 0.003029 -0.001510 0.006833
# 2 -0.009997 0.016423 -0.000530 -0.002823 -0.002110 -0.000908
# 3 -0.005627 -0.000530 0.009792 -0.001672 -0.002997 -0.000684
# 4 0.003029 -0.002823 -0.001672 0.026771 -0.003686 0.002470
# 5 -0.001510 -0.002110 -0.002997 -0.003686 0.039793 -0.003569
# 6 0.006833 -0.000908 -0.000684 0.002470 -0.003569 0.030499
#
#
# Mechanical properties :
#
#
# Convention : Reuss Voigt Hill
#
# Bulk Modulus (GPa) = 60.23994 70.31465 65.27729
# Shear Modulus (GPa) = 27.20183 32.42022 29.81102
#
# Velocity S-wave (km/s) = 3.73063 4.07278 3.90546
# Velocity P-wave (km/s) = 7.02696 7.62186 7.33045
#
# Compressibility (1/GPa) = 0.01660028
#
# Stress axis : x y z
#
# Youngs Moduli (GPa) = 44.06658 60.89168 102.12244
#
# Poissons Ratio (x) = 0.60873 0.57460
# Poissons Ratio (y) = 0.44053 0.05415
# Poissons Ratio (z) = 0.24794 0.03229
#
# Static dielectric constant tensor:
#      x y z
#    x 3.544060 0.153450 0.024870 
#    y 0.153450 4.295820 0.732350 
#    z 0.024870 0.732350 4.436670 
# 
# 
# High freq. dielectric constant tensor:
#      x y z
#    x 1.751900 0.016170 0.000520 
#    y 0.016170 1.751290 0.014300 
#    z 0.000520 0.014300 1.791310 
# 
# From -- ./inp_files/382988.got.cif
#   From: 2010.06.25/outbox.cif.g09.slc.cpg/sg2_192_cif.got.tgz:382988.got - 2010.06.27 13:26:56.
