data_PCOD8017330
_publ_section_title
;
Structure prediction by ZEFSAII (Michael W. Deem and Ramdas Pophale) SiO2 
 PCOD8017330
Probable space group: P -1
;
_chemical_formula_sum "Si O2"
_cell_formula_units_Z 16
_cell_length_a 9.985437
_cell_length_b 15.337975
_cell_length_c 9.131774
_cell_angle_alpha 142.752414
_cell_angle_beta 63.962972
_cell_angle_gamma 106.633923
_cell_volume 755.451674
_symmetry_space_group_name_H-M "P -1"
_symmetry_group_IT_number 2
_symmetry_cell_setting 'triclinic'
loop_
_space_group_symop_operation_xyz
x,y,z
-x,-y,-z
loop_
_atom_site_type_symbol
_atom_site_label
_atom_site_fract_x
_atom_site_fract_y
_atom_site_fract_z
Si Si1 0.937935 0.275078 0.664441
Si Si2 0.387397 0.801090 0.237936
Si Si3 0.871640 0.593271 0.022370
Si Si4 0.394642 0.268808 0.480204
Si Si5 0.554757 0.511816 0.652949
Si Si6 0.200620 0.169845 0.200623
Si Si7 0.464937 0.966277 0.700229
Si Si8 0.855918 0.612064 0.725871
O O1 0.792812 0.192832 0.654312
O O2 0.994520 0.326805 0.864240
O O3 0.063405 0.160723 0.369220
O O4 0.911316 0.418300 0.765385
O O5 0.456589 0.849141 0.420381
O O6 0.441300 0.903708 0.221479
O O7 0.453969 0.637679 0.956299
O O8 0.725030 0.628707 0.234335
O O9 0.832287 0.658192 0.967404
O O10 0.538846 0.355777 0.523985
O O11 0.326398 0.255360 0.332530
O O12 0.439713 0.110414 0.314686
O O13 0.500000 0.500000 0.500000
O O14 0.727204 0.529846 0.607234
O O15 0.133871 0.245319 0.185067
O O16 0.293686 0.017976 0.903846
O O17 0.000000 0.500000 0.500000
#
# Coordination Sequence:
#
# PCOD8017330 Si02
#       8
#     2   2   2   2   2   2   2   2
#     4  10  22  42  68  98 136 183 222 287 342 409
#     4  11  24  43  68 101 136 180 234 280 341 400
#     4  10  22  38  67 100 137 171 225 286 352 398
#     4  11  23  42  73  98 132 178 233 283 341 401
#     4  12  24  41  71 106 133 174 238 294 331 403
#     4  11  23  45  65 100 142 181 220 284 346 407
#     4  11  25  43  69  95 142 185 228 279 337 414
#     4  12  24  38  65 103 141 173 219 289 352 394
#
# _framework density 21.179383999999999
#
# number of rings (size 3 to 8) (size 9 to 14) (size 15 to 20)
#    0.000    1.000    5.000    1.125    5.250    1.500 
#    0.000    2.500    2.750    0.000    0.000    0.000 
#    0.000    0.000    0.000    0.000    0.000    0.000 
#
# Total GULP energy -198371.281411 kJ/mol
# GULP energy per Si atom -12398.205088 kJ/mol
# Density = 2.113118 g / cm^3
# Si number density = 21.179384 Si / 1000 Ang^3
#
#
#
# Elastic Constant Matrix: (Units=GPa)
#
#
# Indices 1 2 3 4 5 6 
#
# 1 117.9836 42.4175 24.5663 -4.9377 -6.4825 0.7057
# 2 42.4175 84.3901 27.6883 2.3917 5.5675 -11.4737
# 3 24.5663 27.6883 99.7796 -9.0616 -6.6831 -7.3949
# 4 -4.9377 2.3917 -9.0616 25.0255 -7.8008 1.3564
# 5 -6.4825 5.5675 -6.6831 -7.8008 35.1242 -5.3914
# 6 0.7057 -11.4737 -7.3949 1.3564 -5.3914 45.0041
#
#
#
# Elastic Compliance Matrix: (Units=1/GPa)
#
#
# Indices 1 2 3 4 5 6 
#
# 1 0.011079 -0.005892 -0.000638 0.003672 0.003446 -0.001478
# 2 -0.005892 0.017092 -0.003959 -0.006091 -0.005390 0.003337
# 3 -0.000638 -0.003959 0.012212 0.005962 0.004365 0.001350
# 4 0.003672 -0.006091 0.005962 0.047588 0.013274 -0.000475
# 5 0.003446 -0.005390 0.004365 0.013274 0.034197 0.002986
# 6 -0.001478 0.003337 0.001350 -0.000475 0.002986 0.023688
#
#
# Mechanical properties :
#
#
# Convention : Reuss Voigt Hill
#
# Bulk Modulus (GPa) = 51.53418 54.61083 53.07250
# Shear Modulus (GPa) = 28.85143 34.86282 31.85712
#
# Velocity S-wave (km/s) = 3.69486 4.06158 3.88255
# Velocity P-wave (km/s) = 6.52593 6.91637 6.72398
#
# Compressibility (1/GPa) = 0.01940460
#
# Stress axis : x y z
#
# Youngs Moduli (GPa) = 90.26414 58.50674 81.88882
#
# Poissons Ratio (x) = 0.34470 0.05225
# Poissons Ratio (y) = 0.53180 0.32422
# Poissons Ratio (z) = 0.05759 0.23164
#
# Static dielectric constant tensor:
#      x y z
#    x 4.304550 0.027590 -0.028400 
#    y 0.027590 3.316580 0.268630 
#    z -0.028400 0.268630 3.502600 
# 
# 
# High freq. dielectric constant tensor:
#      x y z
#    x 1.831310 -0.006050 -0.004420 
#    y -0.006050 1.819770 -0.017070 
#    z -0.004420 -0.017070 1.838920 
# 
# From -- ./inp_files/209186.got.cif
#   From: 2010.06.25/outbox.cif.g09.slc.cpg/sg2_105_cif.got.tgz:209186.got - 2010.06.27 13:26:56.
