data_PCOD8017844
_publ_section_title
;
Structure prediction by ZEFSAII (Michael W. Deem and Ramdas Pophale) SiO2 
 PCOD8017844
Probable space group: P -1
;
_chemical_formula_sum "Si O2"
_cell_formula_units_Z 16
_cell_length_a 8.922414
_cell_length_b 17.132753
_cell_length_c 11.894378
_cell_angle_alpha 146.793871
_cell_angle_beta 130.268064
_cell_angle_gamma 49.693801
_cell_volume 734.919073
_symmetry_space_group_name_H-M "P -1"
_symmetry_group_IT_number 2
_symmetry_cell_setting 'triclinic'
loop_
_space_group_symop_operation_xyz
x,y,z
-x,-y,-z
loop_
_atom_site_type_symbol
_atom_site_label
_atom_site_fract_x
_atom_site_fract_y
_atom_site_fract_z
Si Si1 0.295637 0.815465 0.981343
Si Si2 0.738021 0.779951 0.225895
Si Si3 0.865578 0.032301 0.692157
Si Si4 0.623858 0.831500 0.857566
Si Si5 0.051617 0.332689 0.356705
Si Si6 0.928552 0.609754 0.321605
Si Si7 0.970168 0.730496 0.064196
Si Si8 0.772810 0.204774 0.328726
O O1 0.244695 0.867546 0.890576
O O2 0.170497 0.694994 0.797783
O O3 0.537638 0.753733 0.038602
O O4 0.221871 0.939702 0.190289
O O5 0.772549 0.675987 0.227208
O O6 0.938226 0.734126 0.187537
O O7 0.717610 0.949884 0.455708
O O8 0.877583 0.175772 0.797428
O O9 0.089555 0.923705 0.682399
O O10 0.785879 0.781726 0.777062
O O11 0.451715 0.740580 0.660310
O O12 0.744581 0.800320 0.994351
O O13 0.500000 0.000000 0.000000
O O14 0.148387 0.310807 0.501911
O O15 0.000000 0.500000 0.500000
O O16 0.144423 0.648798 0.452369
O O17 0.948376 0.437233 0.137881
#
# Coordination Sequence:
#
# PCOD8017844 Si02
#       8
#     2   2   2   2   2   2   2   2
#     4  11  21  39  65  94 132 170 213 269 319 386
#     4  11  25  41  62  93 130 173 220 255 322 389
#     4  11  22  42  62  94 129 174 214 266 324 383
#     4  12  22  39  68 100 127 165 220 270 325 373
#     4  11  22  43  69  96 133 169 213 272 330 380
#     4  10  24  44  66  95 128 173 212 266 324 389
#     4  12  22  43  67  89 136 166 217 266 327 377
#     4  10  22  39  66  98 126 163 219 268 326 380
#
# _framework density 21.771106
#
# number of rings (size 3 to 8) (size 9 to 14) (size 15 to 20)
#    0.000    1.000    5.000    1.500    0.000    3.500 
#    2.250    2.500    0.000    0.000    0.000    0.000 
#    0.000    0.000    0.000    0.000    0.000    0.000 
#
# Total GULP energy -198283.674751 kJ/mol
# GULP energy per Si atom -12392.729672 kJ/mol
# Density = 2.172155 g / cm^3
# Si number density = 21.771106 Si / 1000 Ang^3
#
#
#
# Elastic Constant Matrix: (Units=GPa)
#
#
# Indices 1 2 3 4 5 6 
#
# 1 110.0597 36.8806 43.4332 -0.3126 7.2246 4.2366
# 2 36.8806 84.4856 40.1474 5.0583 4.9469 9.7732
# 3 43.4332 40.1474 115.0240 7.7064 4.0467 5.8341
# 4 -0.3126 5.0583 7.7064 38.9200 7.9164 0.2188
# 5 7.2246 4.9469 4.0467 7.9164 36.7455 -3.3138
# 6 4.2366 9.7732 5.8341 0.2188 -3.3138 27.4209
#
#
#
# Elastic Compliance Matrix: (Units=1/GPa)
#
#
# Indices 1 2 3 4 5 6 
#
# 1 0.011665 -0.003548 -0.003203 0.001557 -0.001806 -0.000087
# 2 -0.003548 0.015863 -0.003861 -0.001060 -0.001183 -0.004419
# 3 -0.003203 -0.003861 0.011390 -0.001826 0.000243 -0.000509
# 4 0.001557 -0.001060 -0.001826 0.027409 -0.005904 -0.000406
# 5 -0.001806 -0.001183 0.000243 -0.005904 0.029357 0.004244
# 6 -0.000087 -0.004419 -0.000509 -0.000406 0.004244 0.038681
#
#
# Mechanical properties :
#
#
# Convention : Reuss Voigt Hill
#
# Bulk Modulus (GPa) = 56.50701 61.16572 58.83637
# Shear Modulus (GPa) = 30.96241 33.22451 32.09346
#
# Velocity S-wave (km/s) = 3.77527 3.91075 3.84361
# Velocity P-wave (km/s) = 6.70932 6.96763 6.83969
#
# Compressibility (1/GPa) = 0.01769692
#
# Stress axis : x y z
#
# Youngs Moduli (GPa) = 85.72613 63.03821 87.79400
#
# Poissons Ratio (x) = 0.22363 0.28119
# Poissons Ratio (y) = 0.30412 0.33893
# Poissons Ratio (z) = 0.27457 0.24336
#
# Static dielectric constant tensor:
#      x y z
#    x 8.934890 1.492750 -0.920220 
#    y 1.492750 4.105670 -0.512230 
#    z -0.920220 -0.512230 4.299750 
# 
# 
# High freq. dielectric constant tensor:
#      x y z
#    x 1.863690 0.019100 0.004270 
#    y 0.019100 1.837550 -0.010970 
#    z 0.004270 -0.010970 1.862580 
# 
# From -- ./inp_files/403641.got.cif
#   From: 2010.06.25/outbox.cif.g09.slc.cpg/sg2_202_cif.got.tgz:403641.got - 2010.06.27 13:26:56.
