data_PCOD8017090
_publ_section_title
;
Structure prediction by ZEFSAII (Michael W. Deem and Ramdas Pophale) SiO2 
 PCOD8017090
Probable space group: P -1
;
_chemical_formula_sum "Si O2"
_cell_formula_units_Z 12
_cell_length_a 8.264521
_cell_length_b 18.056127
_cell_length_c 20.953763
_cell_angle_alpha 161.375679
_cell_angle_beta 37.806501
_cell_angle_gamma 134.267787
_cell_volume 591.249185
_symmetry_space_group_name_H-M "P -1"
_symmetry_group_IT_number 2
_symmetry_cell_setting 'triclinic'
loop_
_space_group_symop_operation_xyz
x,y,z
-x,-y,-z
loop_
_atom_site_type_symbol
_atom_site_label
_atom_site_fract_x
_atom_site_fract_y
_atom_site_fract_z
Si Si1 0.427203 0.486785 0.834656
Si Si2 0.953493 0.818327 0.313254
Si Si3 0.194677 0.333723 0.353841
Si Si4 0.173973 0.823742 0.982180
Si Si5 0.961604 0.573845 0.382645
Si Si6 0.856862 0.075648 0.787033
O O1 0.315582 0.274086 0.662906
O O2 0.735977 0.383953 0.675760
O O3 0.410607 0.708759 0.971578
O O4 0.222906 0.589351 0.041741
O O5 0.920908 0.940810 0.352542
O O6 0.000000 0.000000 0.500000
O O7 0.506276 0.301696 0.210673
O O8 0.150427 0.460526 0.540472
O O9 0.000000 0.500000 0.500000
O O10 0.124103 0.077034 0.168252
O O11 0.030688 0.657321 0.850381
O O12 0.033882 0.863670 0.128308
O O13 0.777486 0.820333 0.609489
#
# Coordination Sequence:
#
# PCOD8017090 Si02
#       6
#     2   2   2   2   2   2
#     4   9  21  38  56  85 117 146 198 232 278 339
#     4   9  20  39  60  81 115 156 191 235 284 334
#     4  10  22  40  59  84 117 152 189 233 281 344
#     4  10  22  38  58  87 120 145 191 237 281 339
#     4  11  22  36  61  89 112 154 189 231 291 336
#     4   9  21  37  57  85 116 150 189 238 275 337
#
# _framework density 20.296011
#
# number of rings (size 3 to 8) (size 9 to 14) (size 15 to 20)
#    1.000    1.333    0.000    1.500    2.333    5.333 
#    0.000    1.667    0.000    0.000    0.000    0.000 
#    0.000    0.000    0.000    0.000    0.000    0.000 
#
# Total GULP energy -148696.077040 kJ/mol
# GULP energy per Si atom -12391.339753 kJ/mol
# Density = 2.024982 g / cm^3
# Si number density = 20.296011 Si / 1000 Ang^3
#
#
#
# Elastic Constant Matrix: (Units=GPa)
#
#
# Indices 1 2 3 4 5 6 
#
# 1 103.5430 59.1693 64.9569 10.6150 19.6335 1.4543
# 2 59.1693 89.3993 39.0192 3.6122 4.6828 -10.1884
# 3 64.9569 39.0192 90.5278 10.7481 23.5107 -0.7837
# 4 10.6150 3.6122 10.7481 28.4774 -2.1846 1.2436
# 5 19.6335 4.6828 23.5107 -2.1846 47.6296 6.4593
# 6 1.4543 -10.1884 -0.7837 1.2436 6.4593 34.2030
#
#
#
# Elastic Compliance Matrix: (Units=1/GPa)
#
#
# Indices 1 2 3 4 5 6 
#
# 1 0.024117 -0.011154 -0.011403 -0.003316 -0.002832 -0.003954
# 2 -0.011154 0.019570 -0.001324 0.002130 0.002653 0.005695
# 3 -0.011403 -0.001324 0.022044 -0.004489 -0.006527 0.001991
# 4 -0.003316 0.002130 -0.004489 0.038263 0.005363 -0.001732
# 5 -0.002832 0.002653 -0.006527 0.005363 0.025958 -0.004336
# 6 -0.003954 0.005695 0.001991 -0.001732 -0.004336 0.032029
#
#
# Mechanical properties :
#
#
# Convention : Reuss Voigt Hill
#
# Bulk Modulus (GPa) = 55.64734 67.75122 61.69928
# Shear Modulus (GPa) = 23.17681 30.08364 26.63022
#
# Velocity S-wave (km/s) = 3.38292 3.85417 3.62621
# Velocity P-wave (km/s) = 6.53730 7.29796 6.92808
#
# Compressibility (1/GPa) = 0.01797031
#
# Stress axis : x y z
#
# Youngs Moduli (GPa) = 41.46383 51.09886 45.36329
#
# Poissons Ratio (x) = 0.56994 0.51726
# Poissons Ratio (y) = 0.46247 0.06008
# Poissons Ratio (z) = 0.47280 0.06767
#
# Static dielectric constant tensor:
#      x y z
#    x 3.290620 -0.124680 0.095180 
#    y -0.124680 3.626440 0.082330 
#    z 0.095180 0.082330 3.757230 
# 
# 
# High freq. dielectric constant tensor:
#      x y z
#    x 1.764110 -0.011660 0.009260 
#    y -0.011660 1.788430 0.007520 
#    z 0.009260 0.007520 1.800690 
# 
# From -- ./inp_files/41653.got.cif
#   From: 2010.06.25/outbox.cif.g09.slc.cpg/sg2_21_cif.got.tgz:41653.got - 2010.06.27 13:26:56.
