data_PCOD8017924
_publ_section_title
;
Structure prediction by ZEFSAII (Michael W. Deem and Ramdas Pophale) SiO2 
 PCOD8017924
Probable space group: P -1
;
_chemical_formula_sum "Si O2"
_cell_formula_units_Z 16
_cell_length_a 16.423846
_cell_length_b 22.896507
_cell_length_c 28.197376
_cell_angle_alpha 168.857198
_cell_angle_beta 21.041647
_cell_angle_gamma 158.212904
_cell_volume 723.041343
_symmetry_space_group_name_H-M "P -1"
_symmetry_group_IT_number 2
_symmetry_cell_setting 'triclinic'
loop_
_space_group_symop_operation_xyz
x,y,z
-x,-y,-z
loop_
_atom_site_type_symbol
_atom_site_label
_atom_site_fract_x
_atom_site_fract_y
_atom_site_fract_z
Si Si1 0.024498 0.341277 0.962932
Si Si2 0.927528 0.732067 0.761926
Si Si3 0.248467 0.640896 0.163477
Si Si4 0.410009 0.853305 0.756491
Si Si5 0.029924 0.333545 0.570051
Si Si6 0.338850 0.277408 0.571892
Si Si7 0.737867 0.394738 0.039854
Si Si8 0.227567 0.355647 0.120849
O O1 0.257504 0.449554 0.890559
O O2 0.904753 0.996663 0.739328
O O3 0.100065 0.353384 0.986507
O O4 0.851282 0.574660 0.234354
O O5 0.825204 0.564527 0.732470
O O6 0.000000 0.500000 0.500000
O O7 0.732274 0.875605 0.956061
O O8 0.144666 0.994951 0.867170
O O9 0.134765 0.684276 0.309750
O O10 0.238843 0.930721 0.365709
O O11 0.501567 0.570467 0.978277
O O12 0.449317 0.717422 0.574965
O O13 0.268922 0.573529 0.641084
O O14 0.648935 0.022882 0.787232
O O15 0.899812 0.436641 0.677629
O O16 0.425828 0.472437 0.727587
O O17 0.000000 0.500000 0.000000
#
# Coordination Sequence:
#
# PCOD8017924 Si02
#       8
#     2   2   2   2   2   2   2   2
#     4  11  24  41  68 100 127 178 227 274 326 401
#     4  10  22  39  68  98 133 173 225 273 327 397
#     4  12  23  42  70  95 134 181 222 283 325 390
#     4  11  24  44  65 101 133 173 217 281 333 390
#     4  11  27  43  63 100 147 169 218 278 344 391
#     4  11  23  41  73  93 129 173 233 271 322 398
#     4  10  22  39  70  99 121 174 229 266 321 397
#     4  10  23  42  64 101 134 176 220 276 332 395
#
# _framework density 22.128748000000002
#
# number of rings (size 3 to 8) (size 9 to 14) (size 15 to 20)
#    0.000    1.250    3.750    0.750    3.500    5.000 
#    0.000    4.375    0.000    0.000    0.000    0.000 
#    0.000    0.000    0.000    0.000    0.000    0.000 
#
# Total GULP energy -198357.774414 kJ/mol
# GULP energy per Si atom -12397.360901 kJ/mol
# Density = 2.207838 g / cm^3
# Si number density = 22.128748 Si / 1000 Ang^3
#
#
#
# Elastic Constant Matrix: (Units=GPa)
#
#
# Indices 1 2 3 4 5 6 
#
# 1 65.6846 24.9633 24.6869 -1.3335 17.6443 0.1483
# 2 24.9633 101.3660 45.6817 3.5259 0.1740 -2.2739
# 3 24.6869 45.6817 98.9578 -7.6704 21.9353 -3.1589
# 4 -1.3335 3.5259 -7.6704 33.4375 -8.3813 11.8266
# 5 17.6443 0.1740 21.9353 -8.3813 34.3183 -3.5969
# 6 0.1483 -2.2739 -3.1589 11.8266 -3.5969 35.2156
#
#
#
# Elastic Compliance Matrix: (Units=1/GPa)
#
#
# Indices 1 2 3 4 5 6 
#
# 1 0.019931 -0.004543 -0.000749 -0.001034 -0.010117 -0.001131
# 2 -0.004543 0.014230 -0.006963 -0.002305 0.006333 0.001734
# 3 -0.000749 -0.006963 0.015682 0.002275 -0.009125 -0.000736
# 4 -0.001034 -0.002305 0.002275 0.036384 0.006773 -0.011468
# 5 -0.010117 0.006333 -0.009125 0.006773 0.041967 0.001645
# 6 -0.001131 0.001734 -0.000736 -0.011468 0.001645 0.032467
#
#
# Mechanical properties :
#
#
# Convention : Reuss Voigt Hill
#
# Bulk Modulus (GPa) = 39.47239 50.74136 45.10687
# Shear Modulus (GPa) = 25.82451 31.97273 28.89862
#
# Velocity S-wave (km/s) = 3.41986 3.80524 3.61769
# Velocity P-wave (km/s) = 5.78535 6.50279 6.15454
#
# Compressibility (1/GPa) = 0.02533416
#
# Stress axis : x y z
#
# Youngs Moduli (GPa) = 50.17193 70.27363 63.76864
#
# Poissons Ratio (x) = 0.31926 0.04775
# Poissons Ratio (y) = 0.22794 0.44400
# Poissons Ratio (z) = 0.03757 0.48929
#
# Static dielectric constant tensor:
#      x y z
#    x 4.175230 -0.170990 0.290140 
#    y -0.170990 4.189970 -0.115870 
#    z 0.290140 -0.115870 4.021380 
# 
# 
# High freq. dielectric constant tensor:
#      x y z
#    x 1.877120 -0.004680 0.018180 
#    y -0.004680 1.864530 -0.006510 
#    z 0.018180 -0.006510 1.865910 
# 
# From -- ./inp_files/623942.got.cif
#   From: 2010.06.25/outbox.cif.g09.slc.cpg/sg2_312_cif.got.tgz:623942.got - 2010.06.27 13:26:56.
