data_PCOD8017230
_publ_section_title
;
Structure prediction by ZEFSAII (Michael W. Deem and Ramdas Pophale) SiO2 
 PCOD8017230
Probable space group: P -1
;
_chemical_formula_sum "Si O2"
_cell_formula_units_Z 16
_cell_length_a 21.343909
_cell_length_b 5.302691
_cell_length_c 24.208756
_cell_angle_alpha 72.217850
_cell_angle_beta 163.207830
_cell_angle_gamma 107.544078
_cell_volume 753.347445
_symmetry_space_group_name_H-M "P -1"
_symmetry_group_IT_number 2
_symmetry_cell_setting 'triclinic'
loop_
_space_group_symop_operation_xyz
x,y,z
-x,-y,-z
loop_
_atom_site_type_symbol
_atom_site_label
_atom_site_fract_x
_atom_site_fract_y
_atom_site_fract_z
Si Si1 0.403084 0.526187 0.138510
Si Si2 0.820184 0.423065 0.566043
Si Si3 0.446796 0.893701 0.793285
Si Si4 0.914418 0.464718 0.762563
Si Si5 0.189241 0.946610 0.205452
Si Si6 0.623856 0.751098 0.563855
Si Si7 0.031532 0.984582 0.367350
Si Si8 0.442553 0.198994 0.986726
O O1 0.578603 0.463192 0.337550
O O2 0.428504 0.334571 0.119641
O O3 0.418025 0.830836 0.113227
O O4 0.170697 0.497907 0.972254
O O5 0.816851 0.333368 0.633175
O O6 0.927629 0.181119 0.642161
O O7 0.965021 0.699541 0.663905
O O8 0.207070 0.922608 0.565942
O O9 0.419853 0.833357 0.839124
O O10 0.865532 0.317785 0.788501
O O11 0.767765 0.724253 0.631033
O O12 0.425605 0.952151 0.373615
O O13 0.200624 0.170566 0.246424
O O14 0.000000 0.000000 0.000000
O O15 0.500000 0.500000 0.500000
O O16 0.808316 0.867154 0.210161
O O17 0.500000 0.500000 0.000000
O O18 0.500000 0.000000 0.000000
#
# Coordination Sequence:
#
# PCOD8017230 Si02
#       8
#     2   2   2   2   2   2   2   2
#     4  10  22  38  63  93 121 163 206 260 316 371
#     4  10  22  39  63  92 122 163 205 258 319 374
#     4  10  22  42  60  88 130 162 203 254 313 369
#     4  11  23  36  64  90 118 157 209 263 311 381
#     4  10  23  42  62  86 124 168 203 260 323 380
#     4   9  22  41  59  85 120 161 202 254 318 374
#     4  10  22  42  62  86 129 165 197 259 317 358
#     4  12  24  37  62  93 120 165 212 251 298 367
#
# _framework density 21.23854
#
# number of rings (size 3 to 8) (size 9 to 14) (size 15 to 20)
#    0.000    1.750    0.000    3.000    3.500    7.000 
#    2.250    0.000    0.000    0.000    0.000    0.000 
#    0.000    0.000    0.000    0.000    0.000    0.000 
#
# Total GULP energy -198246.286373 kJ/mol
# GULP energy per Si atom -12390.392898 kJ/mol
# Density = 2.119020 g / cm^3
# Si number density = 21.238540 Si / 1000 Ang^3
#
#
#
# Elastic Constant Matrix: (Units=GPa)
#
#
# Indices 1 2 3 4 5 6 
#
# 1 129.2923 29.5347 64.9200 -9.8433 -12.4885 -21.6119
# 2 29.5347 99.6074 19.9248 2.2809 -9.2637 -23.7142
# 3 64.9200 19.9248 101.6632 6.0472 -8.2173 -13.4074
# 4 -9.8433 2.2809 6.0472 22.6296 -5.1311 -2.9653
# 5 -12.4885 -9.2637 -8.2173 -5.1311 31.4848 -2.6045
# 6 -21.6119 -23.7142 -13.4074 -2.9653 -2.6045 36.2553
#
#
#
# Elastic Compliance Matrix: (Units=1/GPa)
#
#
# Indices 1 2 3 4 5 6 
#
# 1 0.014637 -0.000860 -0.008539 0.010832 0.005610 0.006294
# 2 -0.000860 0.012640 -0.000600 0.000435 0.003942 0.007852
# 3 -0.008539 -0.000600 0.015776 -0.008098 -0.000797 -0.000368
# 4 0.010832 0.000435 -0.008098 0.054940 0.012018 0.009104
# 5 0.005610 0.003942 -0.000797 0.012018 0.037668 0.009317
# 6 0.006294 0.007852 -0.000368 0.009104 0.009317 0.037748
#
#
# Mechanical properties :
#
#
# Convention : Reuss Voigt Hill
#
# Bulk Modulus (GPa) = 43.37407 62.14688 52.76048
# Shear Modulus (GPa) = 24.86420 32.48616 28.67518
#
# Velocity S-wave (km/s) = 3.42528 3.91523 3.67842
# Velocity P-wave (km/s) = 6.00916 7.05434 6.55262
#
# Compressibility (1/GPa) = 0.02305525
#
# Stress axis : x y z
#
# Youngs Moduli (GPa) = 68.31903 79.11083 63.38838
#
# Poissons Ratio (x) = 0.06802 0.54129
# Poissons Ratio (y) = 0.05874 0.03803
# Poissons Ratio (z) = 0.58340 0.04747
#
# Static dielectric constant tensor:
#      x y z
#    x 4.227840 -0.523590 0.374660 
#    y -0.523590 4.363290 -0.290560 
#    z 0.374660 -0.290560 4.274990 
# 
# 
# High freq. dielectric constant tensor:
#      x y z
#    x 1.832970 -0.015770 0.000580 
#    y -0.015770 1.844860 0.004660 
#    z 0.000580 0.004660 1.844800 
# 
# From -- ./inp_files/581941.got.cif
#   From: 2010.06.25/outbox.cif.g09.slc.cpg/sg2_291_cif.got.tgz:581941.got - 2010.06.27 13:26:56.
