data_PCOD8017076
_publ_section_title
;
Structure prediction by ZEFSAII (Michael W. Deem and Ramdas Pophale) SiO2 
 PCOD8017076
Probable space group: P -1
;
_chemical_formula_sum "Si O2"
_cell_formula_units_Z 16
_cell_length_a 6.781627
_cell_length_b 15.782142
_cell_length_c 25.769137
_cell_angle_alpha 161.922190
_cell_angle_beta 112.233549
_cell_angle_gamma 68.713321
_cell_volume 792.155276
_symmetry_space_group_name_H-M "P -1"
_symmetry_group_IT_number 2
_symmetry_cell_setting 'triclinic'
loop_
_space_group_symop_operation_xyz
x,y,z
-x,-y,-z
loop_
_atom_site_type_symbol
_atom_site_label
_atom_site_fract_x
_atom_site_fract_y
_atom_site_fract_z
Si Si1 0.639719 0.222548 0.078487
Si Si2 0.797418 0.863350 0.797650
Si Si3 0.177367 0.423268 0.932486
Si Si4 0.724138 0.176526 0.176422
Si Si5 0.582438 0.115045 0.826775
Si Si6 0.304176 0.180507 0.605270
Si Si7 0.865774 0.001880 0.409681
Si Si8 0.430298 0.612849 0.456207
O O1 0.744524 0.256626 0.164934
O O2 0.629792 0.508375 0.214497
O O3 0.787221 0.010004 0.937850
O O4 0.399927 0.107289 0.993344
O O5 0.713142 0.554739 0.614880
O O6 0.038420 0.858769 0.797642
O O7 0.643869 0.033887 0.843726
O O8 0.368262 0.295847 0.911380
O O9 0.102315 0.209361 0.757146
O O10 0.233000 0.706531 0.075819
O O11 0.000000 0.500000 0.000000
O O12 0.606866 0.420614 0.336184
O O13 0.558243 0.844406 0.633083
O O14 0.096604 0.107720 0.509366
O O15 0.500000 0.000000 0.500000
O O16 0.257036 0.140398 0.638009
O O17 0.723302 0.261547 0.529945
#
# Coordination Sequence:
#
# PCOD8017076 Si02
#       8
#     2   2   2   2   2   2   2   2
#     4  10  22  38  57  86 120 152 193 238 288 347
#     4  11  22  38  61  86 118 152 190 244 291 339
#     4  10  23  42  63  84 119 162 193 239 299 348
#     4  10  22  38  60  86 116 157 194 232 292 356
#     4  10  23  40  60  90 117 147 201 246 284 350
#     4  11  23  38  63  90 119 156 195 245 296 346
#     4  10  23  40  59  89 120 153 201 244 289 354
#     4  10  22  40  59  84 119 154 193 241 291 343
#
# _framework density 20.198060000000002
#
# number of rings (size 3 to 8) (size 9 to 14) (size 15 to 20)
#    0.000    1.750    0.000    3.000    0.000   14.500 
#    0.000    0.000    0.000    0.000    0.000    0.000 
#    0.000    0.000    0.000    0.000    0.000    0.000 
#
# Total GULP energy -198473.372820 kJ/mol
# GULP energy per Si atom -12404.585801 kJ/mol
# Density = 2.015209 g / cm^3
# Si number density = 20.198060 Si / 1000 Ang^3
#
#
#
# Elastic Constant Matrix: (Units=GPa)
#
#
# Indices 1 2 3 4 5 6 
#
# 1 99.1495 45.5312 28.0239 4.2058 -7.9789 6.7359
# 2 45.5312 112.7507 27.8739 14.2464 6.9267 5.9494
# 3 28.0239 27.8739 83.6004 18.4819 5.1808 9.8192
# 4 4.2058 14.2464 18.4819 36.0098 9.8164 3.5864
# 5 -7.9789 6.9267 5.1808 9.8164 27.7540 -0.0787
# 6 6.7359 5.9494 9.8192 3.5864 -0.0787 27.8022
#
#
#
# Elastic Compliance Matrix: (Units=1/GPa)
#
#
# Indices 1 2 3 4 5 6 
#
# 1 0.013898 -0.005169 -0.003301 0.000691 0.005654 -0.001168
# 2 -0.005169 0.011841 -0.001423 -0.002395 -0.003330 -0.000479
# 3 -0.003301 -0.001423 0.015423 -0.006270 -0.001265 -0.003537
# 4 0.000691 -0.002395 -0.006270 0.034880 -0.010375 -0.001969
# 5 0.005654 -0.003330 -0.001265 -0.010375 0.042397 0.001248
# 6 -0.001168 -0.000479 -0.003537 -0.001969 0.001248 0.037861
#
#
# Mechanical properties :
#
#
# Convention : Reuss Voigt Hill
#
# Bulk Modulus (GPa) = 46.78475 55.37317 51.07896
# Shear Modulus (GPa) = 27.29115 31.25132 29.27124
#
# Velocity S-wave (km/s) = 3.67982 3.93777 3.81098
# Velocity P-wave (km/s) = 6.42402 6.93897 6.68646
#
# Compressibility (1/GPa) = 0.02137449
#
# Stress axis : x y z
#
# Youngs Moduli (GPa) = 71.95498 84.45387 64.83933
#
# Poissons Ratio (x) = 0.43655 0.21404
# Poissons Ratio (y) = 0.37194 0.09227
# Poissons Ratio (z) = 0.23753 0.12018
#
# Static dielectric constant tensor:
#      x y z
#    x 3.318150 0.169620 0.041240 
#    y 0.169620 3.692830 0.153380 
#    z 0.041240 0.153380 3.717560 
# 
# 
# High freq. dielectric constant tensor:
#      x y z
#    x 1.791880 0.003720 0.005760 
#    y 0.003720 1.794640 0.006150 
#    z 0.005760 0.006150 1.800070 
# 
# From -- ./inp_files/66228.got.cif
#   From: 2010.06.25/outbox.cif.g09.slc.cpg/sg2_34_cif.got.tgz:66228.got - 2010.06.27 13:26:56.
