data_PCOD8017536
_publ_section_title
;
Structure prediction by ZEFSAII (Michael W. Deem and Ramdas Pophale) SiO2 
 PCOD8017536
Probable space group: P -1
;
_chemical_formula_sum "Si O2"
_cell_formula_units_Z 14
_cell_length_a 10.359515
_cell_length_b 7.806122
_cell_length_c 9.406263
_cell_angle_alpha 130.402521
_cell_angle_beta 93.821199
_cell_angle_gamma 86.044362
_cell_volume 577.631013
_symmetry_space_group_name_H-M "P -1"
_symmetry_group_IT_number 2
_symmetry_cell_setting 'triclinic'
loop_
_space_group_symop_operation_xyz
x,y,z
-x,-y,-z
loop_
_atom_site_type_symbol
_atom_site_label
_atom_site_fract_x
_atom_site_fract_y
_atom_site_fract_z
Si Si1 0.999251 0.217431 0.713729
Si Si2 0.348802 0.989824 0.248412
Si Si3 0.731328 0.389047 0.751776
Si Si4 0.401726 0.778752 0.604492
Si Si5 0.346636 0.646411 0.844017
Si Si6 0.285734 0.272875 0.822885
Si Si7 0.106511 0.904046 0.060156
O O1 0.886602 0.386922 0.734066
O O2 0.140531 0.316862 0.777805
O O3 0.968783 0.183488 0.858033
O O4 0.000000 0.000000 0.500000
O O5 0.212946 0.086672 0.219892
O O6 0.307544 0.846992 0.305889
O O7 0.447141 0.182658 0.398340
O O8 0.420776 0.820755 0.047127
O O9 0.651923 0.405375 0.607361
O O10 0.691502 0.603834 0.959053
O O11 0.318681 0.010856 0.706373
O O12 0.393226 0.667527 0.698366
O O13 0.372339 0.391785 0.770750
O O14 0.191768 0.705917 0.881690
O O15 0.000000 0.000000 0.000000
#
# Coordination Sequence:
#
# PCOD8017536 Si02
#       7
#     2   2   2   2   2   2   2
#     4  11  20  38  64  94 123 172 217 259 323 384
#     4   8  20  38  63  93 132 167 212 273 306 389
#     4  10  22  39  61  99 128 165 225 261 315 393
#     4  12  21  41  70  91 129 179 213 252 337 378
#     4   9  22  39  59 100 126 164 222 263 305 400
#     4  11  23  41  66  91 134 173 202 280 322 363
#     4   9  19  37  61  95 126 161 216 260 323 374
#
# _framework density 24.236924999999999
#
# number of rings (size 3 to 8) (size 9 to 14) (size 15 to 20)
#    0.857    1.143    2.857    2.143    0.000    2.286 
#    0.000    6.429    0.000    3.429    0.000    0.000 
#    0.000    0.000    0.000    0.000    0.000    0.000 
#
# Total GULP energy -173437.072559 kJ/mol
# GULP energy per Si atom -12388.362326 kJ/mol
# Density = 2.418176 g / cm^3
# Si number density = 24.236925 Si / 1000 Ang^3
#
#
#
# Elastic Constant Matrix: (Units=GPa)
#
#
# Indices 1 2 3 4 5 6 
#
# 1 79.5448 0.8980 1.0914 10.6837 17.1850 -7.0658
# 2 0.8980 48.8336 8.1331 6.1963 0.4031 -0.0262
# 3 1.0914 8.1331 75.0169 -1.1471 13.2471 6.5948
# 4 10.6837 6.1963 -1.1471 23.3687 1.2925 -1.5083
# 5 17.1850 0.4031 13.2471 1.2925 29.8232 -1.7445
# 6 -7.0658 -0.0262 6.5948 -1.5083 -1.7445 29.3488
#
#
#
# Elastic Compliance Matrix: (Units=1/GPa)
#
#
# Indices 1 2 3 4 5 6 
#
# 1 0.015612 0.000456 0.000978 -0.006541 -0.008997 0.002668
# 2 0.000456 0.021679 -0.002653 -0.006107 0.000915 0.000466
# 3 0.000978 -0.002653 0.015275 0.001194 -0.007574 -0.003588
# 4 -0.006541 -0.006107 0.001194 0.047431 0.001305 0.000667
# 5 -0.008997 0.000915 -0.007574 0.001305 0.042134 0.002108
# 6 0.002668 0.000466 -0.003588 0.000667 0.002108 0.035682
#
#
# Mechanical properties :
#
#
# Convention : Reuss Voigt Hill
#
# Bulk Modulus (GPa) = 19.94935 24.84892 22.39913
# Shear Modulus (GPa) = 25.38575 29.39299 27.38937
#
# Velocity S-wave (km/s) = 3.23987 3.48621 3.36530
# Velocity P-wave (km/s) = 4.71641 5.14584 4.93580
#
# Compressibility (1/GPa) = 0.05012696
#
# Stress axis : x y z
#
# Youngs Moduli (GPa) = 64.05238 46.12805 65.46691
#
# Poissons Ratio (x) = -0.02102 -0.06400
# Poissons Ratio (y) = -0.02919 0.17367
# Poissons Ratio (z) = -0.06262 0.12237
#
# Static dielectric constant tensor:
#      x y z
#    x 3.901990 0.252090 0.272090 
#    y 0.252090 3.872180 -0.175950 
#    z 0.272090 -0.175950 4.312460 
# 
# 
# High freq. dielectric constant tensor:
#      x y z
#    x 1.973770 -0.001310 0.008340 
#    y -0.001310 1.931200 -0.011820 
#    z 0.008340 -0.011820 1.962630 
# 
# From -- ./inp_files/245960.got.cif
#   From: 2010.06.25/outbox.cif.g09.slc.cpg/sg2_123_cif.got.tgz:245960.got - 2010.06.27 13:26:56.
