data_PCOD8017324
_publ_section_title
;
Structure prediction by ZEFSAII (Michael W. Deem and Ramdas Pophale) SiO2 
 PCOD8017324
Probable space group: P -1
;
_chemical_formula_sum "Si O2"
_cell_formula_units_Z 14
_cell_length_a 10.943997
_cell_length_b 9.106928
_cell_length_c 6.316589
_cell_angle_alpha 99.040232
_cell_angle_beta 103.750578
_cell_angle_gamma 84.029907
_cell_volume 602.451368
_symmetry_space_group_name_H-M "P -1"
_symmetry_group_IT_number 2
_symmetry_cell_setting 'triclinic'
loop_
_space_group_symop_operation_xyz
x,y,z
-x,-y,-z
loop_
_atom_site_type_symbol
_atom_site_label
_atom_site_fract_x
_atom_site_fract_y
_atom_site_fract_z
Si Si1 0.177979 0.034633 0.979574
Si Si2 0.683841 0.242869 0.859774
Si Si3 0.783104 0.757799 0.305458
Si Si4 0.882241 0.454738 0.076515
Si Si5 0.547083 0.394534 0.187944
Si Si6 0.990732 0.811172 0.716140
Si Si7 0.567841 0.678724 0.481872
O O1 0.087577 0.939448 0.776441
O O2 0.260761 0.124650 0.869570
O O3 0.259835 0.928376 0.153101
O O4 0.099362 0.159511 0.111436
O O5 0.567573 0.261065 0.655419
O O6 0.789351 0.358872 0.871728
O O7 0.643933 0.271719 0.096939
O O8 0.799298 0.593154 0.174500
O O9 0.914457 0.805305 0.465443
O O10 0.677166 0.771603 0.449536
O O11 0.935348 0.349827 0.264900
O O12 0.000000 0.500000 0.000000
O O13 0.606403 0.504572 0.405687
O O14 0.441345 0.310392 0.261620
O O15 0.500000 0.500000 0.000000
#
# Coordination Sequence:
#
# PCOD8017324 Si02
#       7
#     2   2   2   2   2   2   2
#     4  10  23  43  62  89 133 179 209 266 325 382
#     4  10  22  42  64  92 135 172 209 260 328 387
#     4  12  23  40  67  98 126 170 221 269 321 381
#     4  11  22  41  66  98 127 165 217 278 321 372
#     4   9  19  39  61  92 127 164 207 259 317 375
#     4  10  23  42  62  90 131 170 219 267 326 382
#     4  10  22  38  66  97 128 168 214 263 323 387
#
# _framework density 23.238389000000002
#
# number of rings (size 3 to 8) (size 9 to 14) (size 15 to 20)
#    0.000    1.714    2.857    0.857    0.000    7.429 
#    5.143    1.429    0.000    0.000    0.000    0.000 
#    0.000    0.000    0.000    0.000    0.000    0.000 
#
# Total GULP energy -173502.603635 kJ/mol
# GULP energy per Si atom -12393.043117 kJ/mol
# Density = 2.318550 g / cm^3
# Si number density = 23.238389 Si / 1000 Ang^3
#
#
#
# Elastic Constant Matrix: (Units=GPa)
#
#
# Indices 1 2 3 4 5 6 
#
# 1 110.5625 38.9773 30.5875 -21.1048 -18.6280 4.6097
# 2 38.9773 111.9373 36.7414 -16.6101 -1.6501 2.7864
# 3 30.5875 36.7414 65.1100 -18.8590 -6.2993 6.4936
# 4 -21.1048 -16.6101 -18.8590 28.3900 6.8702 -5.0816
# 5 -18.6280 -1.6501 -6.2993 6.8702 48.7283 -14.5814
# 6 4.6097 2.7864 6.4936 -5.0816 -14.5814 25.4291
#
#
#
# Elastic Compliance Matrix: (Units=1/GPa)
#
#
# Indices 1 2 3 4 5 6 
#
# 1 0.012313 -0.002654 -0.002573 0.005266 0.004192 0.002172
# 2 -0.002654 0.011758 -0.004961 0.001979 -0.001546 -0.000031
# 3 -0.002573 -0.004961 0.022420 0.009655 -0.000541 -0.003096
# 4 0.005266 0.001979 0.009655 0.048057 -0.002006 0.004816
# 5 0.004192 -0.001546 -0.000541 -0.002006 0.026593 0.014395
# 6 0.002172 -0.000031 -0.003096 0.004816 0.014395 0.048942
#
#
# Mechanical properties :
#
#
# Convention : Reuss Voigt Hill
#
# Bulk Modulus (GPa) = 38.29249 55.58023 46.93636
# Shear Modulus (GPa) = 25.10505 32.59639 28.85072
#
# Velocity S-wave (km/s) = 3.29040 3.74932 3.52733
# Velocity P-wave (km/s) = 5.56323 6.53548 6.06886
#
# Compressibility (1/GPa) = 0.02611478
#
# Stress axis : x y z
#
# Youngs Moduli (GPa) = 81.21571 85.04981 44.60353
#
# Poissons Ratio (x) = 0.22571 0.11474
# Poissons Ratio (y) = 0.21554 0.22129
# Poissons Ratio (z) = 0.20893 0.42196
#
# Static dielectric constant tensor:
#      x y z
#    x 4.385070 -0.067560 -0.332620 
#    y -0.067560 4.268580 0.138700 
#    z -0.332620 0.138700 4.161930 
# 
# 
# High freq. dielectric constant tensor:
#      x y z
#    x 1.915900 0.003280 -0.008340 
#    y 0.003280 1.918390 -0.006100 
#    z -0.008340 -0.006100 1.901340 
# 
# From -- ./inp_files/61050.got.cif
#   From: 2010.06.25/outbox.cif.g09.slc.cpg/sg2_31_cif.got.tgz:61050.got - 2010.06.27 13:26:56.
