data_PCOD8017869
_publ_section_title
;
Structure prediction by ZEFSAII (Michael W. Deem and Ramdas Pophale) SiO2 
 PCOD8017869
Probable space group: P -1
;
_chemical_formula_sum "Si O2"
_cell_formula_units_Z 14
_cell_length_a 9.053717
_cell_length_b 11.555293
_cell_length_c 11.184302
_cell_angle_alpha 126.271545
_cell_angle_beta 82.845168
_cell_angle_gamma 131.169322
_cell_volume 638.905280
_symmetry_space_group_name_H-M "P -1"
_symmetry_group_IT_number 2
_symmetry_cell_setting 'triclinic'
loop_
_space_group_symop_operation_xyz
x,y,z
-x,-y,-z
loop_
_atom_site_type_symbol
_atom_site_label
_atom_site_fract_x
_atom_site_fract_y
_atom_site_fract_z
Si Si1 0.383755 0.598002 0.754924
Si Si2 0.828883 0.750830 0.844236
Si Si3 0.326453 0.765129 0.065262
Si Si4 0.894175 0.631845 0.003194
Si Si5 0.191038 0.520961 0.475246
Si Si6 0.011833 0.163382 0.652019
Si Si7 0.470457 0.063046 0.421692
O O1 0.591661 0.642025 0.766759
O O2 0.342122 0.615777 0.634769
O O3 0.161037 0.366309 0.677118
O O4 0.433382 0.769958 0.939814
O O5 0.902803 0.699376 0.695020
O O6 0.803413 0.635214 0.893426
O O7 0.000000 0.000000 0.000000
O O8 0.127689 0.723162 0.013525
O O9 0.501225 0.985914 0.252692
O O10 0.261104 0.599299 0.068098
O O11 0.899341 0.768814 0.179932
O O12 0.350978 0.686134 0.453508
O O13 0.000000 0.500000 0.500000
O O14 0.000000 0.000000 0.500000
O O15 0.772495 0.054600 0.616867
O O16 0.500000 0.000000 0.500000
#
# Coordination Sequence:
#
# PCOD8017869 Si02
#       7
#     2   2   2   2   2   2   2
#     4  11  25  43  67 101 137 175 224 282 344 401
#     4  12  28  42  67  99 146 182 221 278 346 410
#     4   9  20  40  70  94 129 174 231 281 330 395
#     4   9  20  41  63  96 131 174 224 277 329 398
#     4  12  27  46  70  99 139 179 230 283 333 414
#     4  10  22  39  67  93 129 173 219 274 331 400
#     4  11  23  40  70  97 130 173 226 281 335 395
#
# _framework density 21.912481
#
# number of rings (size 3 to 8) (size 9 to 14) (size 15 to 20)
#    0.000    1.429    0.000    4.714    8.000    4.000 
#    0.000    0.000    0.000    0.000    0.000    0.000 
#    0.000    0.000    0.000    0.000    0.000    0.000 
#
# Total GULP energy -173573.143121 kJ/mol
# GULP energy per Si atom -12398.081652 kJ/mol
# Density = 2.186261 g / cm^3
# Si number density = 21.912481 Si / 1000 Ang^3
#
#
#
# Elastic Constant Matrix: (Units=GPa)
#
#
# Indices 1 2 3 4 5 6 
#
# 1 126.7732 42.9031 62.2013 -13.4650 0.5407 -7.7839
# 2 42.9031 91.1701 30.2034 -3.3490 8.9369 -3.7727
# 3 62.2013 30.2034 145.3820 -9.3748 -25.2109 -7.3300
# 4 -13.4650 -3.3490 -9.3748 40.1018 -1.6618 9.8944
# 5 0.5407 8.9369 -25.2109 -1.6618 45.5936 -8.3626
# 6 -7.7839 -3.7727 -7.3300 9.8944 -8.3626 36.1762
#
#
#
# Elastic Compliance Matrix: (Units=1/GPa)
#
#
# Indices 1 2 3 4 5 6 
#
# 1 0.011532 -0.003753 -0.004272 0.002449 -0.001642 0.000175
# 2 -0.003753 0.013725 -0.001979 -0.000613 -0.003854 -0.000500
# 3 -0.004272 -0.001979 0.010426 0.000526 0.006660 0.002383
# 4 0.002449 -0.000613 0.000526 0.027547 0.000113 -0.006939
# 5 -0.001642 -0.003854 0.006660 0.000113 0.027671 0.006960
# 6 0.000175 -0.000500 0.002383 -0.006939 0.006960 0.031617
#
#
# Mechanical properties :
#
#
# Convention : Reuss Voigt Hill
#
# Bulk Modulus (GPa) = 63.79606 70.43786 67.11696
# Shear Modulus (GPa) = 33.84030 39.57547 36.70789
#
# Velocity S-wave (km/s) = 3.93407 4.25440 4.09737
# Velocity P-wave (km/s) = 7.05784 7.50654 7.28564
#
# Compressibility (1/GPa) = 0.01567495
#
# Stress axis : x y z
#
# Youngs Moduli (GPa) = 86.71190 72.86073 95.91092
#
# Poissons Ratio (x) = 0.27348 0.40977
# Poissons Ratio (y) = 0.32547 0.18976
# Poissons Ratio (z) = 0.37047 0.14416
#
# Static dielectric constant tensor:
#      x y z
#    x 3.917390 -0.031110 -0.266990 
#    y -0.031110 3.838050 -0.079830 
#    z -0.266990 -0.079830 4.347660 
# 
# 
# High freq. dielectric constant tensor:
#      x y z
#    x 1.860680 -0.003380 -0.006020 
#    y -0.003380 1.854360 -0.005350 
#    z -0.006020 -0.005350 1.885530 
# 
# From -- ./inp_files/237629.got.cif
#   From: 2010.06.25/outbox.cif.g09.slc.cpg/sg2_119_cif.got.tgz:237629.got - 2010.06.27 13:26:56.
