data_PCOD8017122
_publ_section_title
;
Structure prediction by ZEFSAII (Michael W. Deem and Ramdas Pophale) SiO2 
 PCOD8017122
Probable space group: P -1
;
_chemical_formula_sum "Si O2"
_cell_formula_units_Z 14
_cell_length_a 10.067670
_cell_length_b 8.935976
_cell_length_c 12.418147
_cell_angle_alpha 117.425051
_cell_angle_beta 104.850639
_cell_angle_gamma 43.760484
_cell_volume 680.534531
_symmetry_space_group_name_H-M "P -1"
_symmetry_group_IT_number 2
_symmetry_cell_setting 'triclinic'
loop_
_space_group_symop_operation_xyz
x,y,z
-x,-y,-z
loop_
_atom_site_type_symbol
_atom_site_label
_atom_site_fract_x
_atom_site_fract_y
_atom_site_fract_z
Si Si1 0.402243 0.822048 0.657982
Si Si2 0.755027 0.387579 0.481227
Si Si3 0.257125 0.576141 0.899117
Si Si4 0.702122 0.223418 0.835960
Si Si5 0.027406 0.694066 0.697940
Si Si6 0.750906 0.453036 0.738079
Si Si7 0.903419 0.625452 0.228004
O O1 0.541361 0.660767 0.530297
O O2 0.258301 0.787594 0.630943
O O3 0.541599 0.721186 0.759399
O O4 0.278990 0.094470 0.703237
O O5 0.837296 0.305875 0.593755
O O6 0.895078 0.376175 0.431034
O O7 0.485162 0.357527 0.859819
O O8 0.167998 0.474239 0.889869
O O9 0.163997 0.695889 0.802489
O O10 0.206717 0.765333 0.036207
O O11 0.719254 0.331768 0.774533
O O12 0.812119 0.955428 0.743944
O O13 0.029199 0.501652 0.681659
O O14 0.911066 0.446914 0.813769
#
# Coordination Sequence:
#
# PCOD8017122 Si02
#       7
#     2   2   2   2   2   2   2
#     4   9  20  39  56  87 121 152 191 241 273 364
#     4   9  20  39  60  86 119 154 200 223 294 339
#     4   9  24  40  59  91 108 160 192 247 284 343
#     4  11  21  41  67  78 118 153 207 228 290 344
#     4  10  22  38  60  88 116 154 188 249 278 354
#     4  10  22  38  60  90 112 158 190 240 283 352
#     4  10  23  36  59  87 125 145 195 236 307 317
#
# _framework density 20.572066
#
# number of rings (size 3 to 8) (size 9 to 14) (size 15 to 20)
#    1.714    0.571    0.000    2.143    2.000    4.000 
#    0.000    0.714    0.000    0.000    0.000    0.000 
#    0.000    0.000    0.000    0.000    0.000    0.000 
#
# Total GULP energy -173455.721612 kJ/mol
# GULP energy per Si atom -12389.694401 kJ/mol
# Density = 2.052524 g / cm^3
# Si number density = 20.572066 Si / 1000 Ang^3
#
#
#
# Elastic Constant Matrix: (Units=GPa)
#
#
# Indices 1 2 3 4 5 6 
#
# 1 66.9012 26.1229 -1.6454 -1.9984 14.0600 -1.1641
# 2 26.1229 96.9116 14.7479 7.3503 -9.2662 10.5477
# 3 -1.6454 14.7479 33.3229 -11.8025 -7.7679 1.6321
# 4 -1.9984 7.3503 -11.8025 27.9897 1.2367 3.6144
# 5 14.0600 -9.2662 -7.7679 1.2367 18.6357 -8.2549
# 6 -1.1641 10.5477 1.6321 3.6144 -8.2549 27.2219
#
#
#
# Elastic Compliance Matrix: (Units=1/GPa)
#
#
# Indices 1 2 3 4 5 6 
#
# 1 0.023564 -0.009017 0.002170 0.006459 -0.023368 -0.003572
# 2 -0.009017 0.015797 -0.007669 -0.008334 0.011351 -0.001498
# 3 0.002170 -0.007669 0.043174 0.019658 0.011893 0.001472
# 4 0.006459 -0.008334 0.019658 0.047740 -0.006663 -0.006032
# 5 -0.023368 0.011351 0.011893 -0.006663 0.092436 0.022805
# 6 -0.003572 -0.001498 0.001472 -0.006032 0.022805 0.044791
#
#
# Mechanical properties :
#
#
# Convention : Reuss Voigt Hill
#
# Bulk Modulus (GPa) = 18.69129 30.62073 24.65601
# Shear Modulus (GPa) = 15.90495 25.29682 20.60088
#
# Velocity S-wave (km/s) = 2.78354 3.51047 3.16792
# Velocity P-wave (km/s) = 4.40866 5.59894 5.03907
#
# Compressibility (1/GPa) = 0.05350086
#
# Stress axis : x y z
#
# Youngs Moduli (GPa) = 42.43842 63.30383 23.16224
#
# Poissons Ratio (x) = 0.57083 -0.05026
# Poissons Ratio (y) = 0.38268 0.17763
# Poissons Ratio (z) = -0.09208 0.48548
#
# Static dielectric constant tensor:
#      x y z
#    x 3.600970 -0.134680 0.084150 
#    y -0.134680 3.552890 -0.094520 
#    z 0.084150 -0.094520 3.402530 
# 
# 
# High freq. dielectric constant tensor:
#      x y z
#    x 1.804140 -0.010290 0.002730 
#    y -0.010290 1.799780 -0.003530 
#    z 0.002730 -0.003530 1.775020 
# 
# From -- ./inp_files/495452.got.cif
#   From: 2010.06.25/outbox.cif.g09.slc.cpg/sg2_248_cif.got.tgz:495452.got - 2010.06.27 13:26:56.
