data_PCOD8017999
_publ_section_title
;
Structure prediction by ZEFSAII (Michael W. Deem and Ramdas Pophale) SiO2 
 PCOD8017999
Probable space group: P -1
;
_chemical_formula_sum "Si O2"
_cell_formula_units_Z 10
_cell_length_a 15.793327
_cell_length_b 9.152397
_cell_length_c 10.146018
_cell_angle_alpha 136.833564
_cell_angle_beta 142.850168
_cell_angle_gamma 28.366503
_cell_volume 418.778031
_symmetry_space_group_name_H-M "P -1"
_symmetry_group_IT_number 2
_symmetry_cell_setting 'triclinic'
loop_
_space_group_symop_operation_xyz
x,y,z
-x,-y,-z
loop_
_atom_site_type_symbol
_atom_site_label
_atom_site_fract_x
_atom_site_fract_y
_atom_site_fract_z
Si Si1 0.889520 0.148463 0.702501
Si Si2 0.833715 0.821571 0.589604
Si Si3 0.422163 0.137657 0.189944
Si Si4 0.191301 0.168136 0.141983
Si Si5 0.130106 0.227681 0.723799
O O1 0.693068 0.510722 0.715208
O O2 0.905207 0.976327 0.735269
O O3 0.863438 0.033788 0.461815
O O4 0.096424 0.055748 0.890526
O O5 0.729125 0.963233 0.697240
O O6 0.028298 0.444161 0.605374
O O7 0.661975 0.919929 0.339949
O O8 0.375070 0.045857 0.200492
O O9 0.352414 0.079528 0.935387
O O10 0.011483 0.549049 0.179333
#
# Coordination Sequence:
#
# PCOD8017999 Si02
#       5
#     2   2   2   2   2
#     4  11  20  40  62  83 113 154 190 231 283 335
#     4  10  22  40  59  84 118 148 189 236 281 334
#     4  11  22  40  58  87 115 149 190 235 281 336
#     4   9  22  38  61  81 119 149 186 234 286 332
#     4   9  22  37  61  82 118 147 190 233 283 331
#
# _framework density 23.878997999999999
#
# number of rings (size 3 to 8) (size 9 to 14) (size 15 to 20)
#    1.200    0.800    0.000    4.800    0.000    4.000 
#    3.600    1.000    0.000    0.000    0.000    0.000 
#    0.000    0.000    0.000    0.000    0.000    0.000 
#
# Total GULP energy -123982.468412 kJ/mol
# GULP energy per Si atom -12398.246841 kJ/mol
# Density = 2.382465 g / cm^3
# Si number density = 23.878998 Si / 1000 Ang^3
#
#
#
# Elastic Constant Matrix: (Units=GPa)
#
#
# Indices 1 2 3 4 5 6 
#
# 1 49.3781 31.4165 24.9247 1.3482 6.0650 21.2272
# 2 31.4165 84.8964 60.1327 8.0170 5.2683 2.3396
# 3 24.9247 60.1327 194.1697 16.5669 -14.8660 -6.4221
# 4 1.3482 8.0170 16.5669 45.3801 -1.4121 2.6479
# 5 6.0650 5.2683 -14.8660 -1.4121 39.5189 0.1138
# 6 21.2272 2.3396 -6.4221 2.6479 0.1138 28.9382
#
#
#
# Elastic Compliance Matrix: (Units=1/GPa)
#
#
# Indices 1 2 3 4 5 6 
#
# 1 0.045777 -0.013399 -0.003680 0.004116 -0.006380 -0.033664
# 2 -0.013399 0.019816 -0.004162 -0.002091 -0.002247 0.007503
# 3 -0.003680 -0.004162 0.007546 -0.002075 0.003870 0.004885
# 4 0.004116 -0.002091 -0.002075 0.023350 -0.000284 -0.005446
# 5 -0.006380 -0.002247 0.003870 -0.000284 0.028013 0.005636
# 6 -0.033664 0.007503 0.004885 -0.005446 0.005636 0.060204
#
#
# Mechanical properties :
#
#
# Convention : Reuss Voigt Hill
#
# Bulk Modulus (GPa) = 32.61833 62.37688 47.49760
# Shear Modulus (GPa) = 21.06086 36.89881 28.97984
#
# Velocity S-wave (km/s) = 2.97304 3.93522 3.48747
# Velocity P-wave (km/s) = 5.04726 6.84301 6.01255
#
# Compressibility (1/GPa) = 0.03065761
#
# Stress axis : x y z
#
# Youngs Moduli (GPa) = 21.84479 50.46481 132.51256
#
# Poissons Ratio (x) = 0.67618 0.48762
# Poissons Ratio (y) = 0.29270 0.55156
# Poissons Ratio (z) = 0.08038 0.21005
#
# Static dielectric constant tensor:
#      x y z
#    x 4.201750 0.158750 -0.230100 
#    y 0.158750 3.891280 0.008960 
#    z -0.230100 0.008960 4.326800 
# 
# 
# High freq. dielectric constant tensor:
#      x y z
#    x 1.971940 0.008500 -0.018030 
#    y 0.008500 1.916530 -0.000150 
#    z -0.018030 -0.000150 1.962220 
# 
# From -- ./inp_files/48984.got.cif
#   From: 2010.06.25/outbox.cif.g09.slc.cpg/sg2_25_cif.got.tgz:48984.got - 2010.06.27 13:26:56.
