data_PCOD8017930
_publ_section_title
;
Structure prediction by ZEFSAII (Michael W. Deem and Ramdas Pophale) SiO2 
 PCOD8017930
Probable space group: P -1
;
_chemical_formula_sum "Si O2"
_cell_formula_units_Z 12
_cell_length_a 6.131980
_cell_length_b 9.014381
_cell_length_c 11.783682
_cell_angle_alpha 89.922636
_cell_angle_beta 60.190867
_cell_angle_gamma 70.381550
_cell_volume 521.326838
_symmetry_space_group_name_H-M "P -1"
_symmetry_group_IT_number 2
_symmetry_cell_setting 'triclinic'
loop_
_space_group_symop_operation_xyz
x,y,z
-x,-y,-z
loop_
_atom_site_type_symbol
_atom_site_label
_atom_site_fract_x
_atom_site_fract_y
_atom_site_fract_z
Si Si1 0.317918 0.154974 0.182719
Si Si2 0.437901 0.465899 0.671920
Si Si3 0.149328 0.118864 0.978491
Si Si4 0.366457 0.610178 0.928379
Si Si5 0.771669 0.618260 0.477108
Si Si6 0.993620 0.174961 0.486239
O O1 0.466905 0.279658 0.144448
O O2 0.086795 0.200280 0.336697
O O3 0.540976 0.971373 0.146982
O O4 0.159312 0.164353 0.107008
O O5 0.372726 0.495474 0.820891
O O6 0.489122 0.616234 0.600371
O O7 0.192824 0.443059 0.663486
O O8 0.691432 0.298185 0.589569
O O9 0.955277 0.282344 0.963870
O O10 0.000000 0.000000 0.000000
O O11 0.500000 0.500000 0.000000
O O12 0.795853 0.791515 0.480081
O O13 0.000000 0.500000 0.500000
O O14 0.000000 0.000000 0.500000
#
# Coordination Sequence:
#
# PCOD8017930 Si02
#       6
#     2   2   2   2   2   2
#     4  10  22  44  66  94 136 179 224 277 342 400
#     4  10  22  39  69 100 128 170 223 277 344 390
#     4   9  22  41  68  93 129 181 224 273 338 403
#     4  11  24  42  69 100 132 177 230 281 335 403
#     4   9  20  40  65  95 127 168 217 276 333 394
#     4  11  24  40  66 100 135 174 219 276 338 413
#
# _framework density 23.018191000000002
#
# number of rings (size 3 to 8) (size 9 to 14) (size 15 to 20)
#    0.000    2.000    1.667    0.000    7.000    5.333 
#    0.000    5.000    0.000    0.000    0.000    0.000 
#    0.000    0.000    0.000    0.000    0.000    0.000 
#
# Total GULP energy -148669.673965 kJ/mol
# GULP energy per Si atom -12389.139497 kJ/mol
# Density = 2.296580 g / cm^3
# Si number density = 23.018191 Si / 1000 Ang^3
#
#
#
# Elastic Constant Matrix: (Units=GPa)
#
#
# Indices 1 2 3 4 5 6 
#
# 1 155.4287 64.2427 40.6856 12.4975 39.7361 6.3689
# 2 64.2427 141.4243 44.7388 9.9702 4.9827 -3.2602
# 3 40.6856 44.7388 86.9808 15.1457 27.3723 -8.8644
# 4 12.4975 9.9702 15.1457 28.9403 1.9867 -4.5158
# 5 39.7361 4.9827 27.3723 1.9867 46.4621 11.7990
# 6 6.3689 -3.2602 -8.8644 -4.5158 11.7990 58.0310
#
#
#
# Elastic Compliance Matrix: (Units=1/GPa)
#
#
# Indices 1 2 3 4 5 6 
#
# 1 0.010625 -0.004528 0.000684 -0.002725 -0.008962 0.000294
# 2 -0.004528 0.010575 -0.005466 0.000600 0.006175 -0.000953
# 3 0.000684 -0.005466 0.019594 -0.007101 -0.012402 0.004580
# 4 -0.002725 0.000600 -0.007101 0.039154 0.004421 0.001396
# 5 -0.008962 0.006175 -0.012402 0.004421 0.037642 -0.007873
# 6 0.000294 -0.000953 0.004580 0.001396 -0.007873 0.019555
#
#
# Mechanical properties :
#
#
# Convention : Reuss Voigt Hill
#
# Bulk Modulus (GPa) = 45.09813 75.90756 60.50285
# Shear Modulus (GPa) = 30.64520 42.29780 36.47150
#
# Velocity S-wave (km/s) = 3.65272 4.29135 3.98485
# Velocity P-wave (km/s) = 6.11758 7.58967 6.89303
#
# Compressibility (1/GPa) = 0.02217387
#
# Stress axis : x y z
#
# Youngs Moduli (GPa) = 94.12159 94.56109 51.03506
#
# Poissons Ratio (x) = 0.42818 -0.03492
# Poissons Ratio (y) = 0.42619 0.27897
# Poissons Ratio (z) = -0.06439 0.51689
#
# Static dielectric constant tensor:
#      x y z
#    x 5.159210 0.233410 0.226980 
#    y 0.233410 4.653580 0.265400 
#    z 0.226980 0.265400 4.205050 
# 
# 
# High freq. dielectric constant tensor:
#      x y z
#    x 1.937630 0.006840 0.012270 
#    y 0.006840 1.896580 0.031260 
#    z 0.012270 0.031260 1.885110 
# 
# From -- ./inp_files/36868.got.cif
#   From: 2010.06.25/outbox.cif.g09.slc.cpg/sg2_19_cif.got.tgz:36868.got - 2010.06.27 13:26:56.
