data_PCOD8017696
_publ_section_title
;
Structure prediction by ZEFSAII (Michael W. Deem and Ramdas Pophale) SiO2 
 PCOD8017696
Probable space group: P -1
;
_chemical_formula_sum "Si O2"
_cell_formula_units_Z 16
_cell_length_a 14.345426
_cell_length_b 15.740531
_cell_length_c 17.478876
_cell_angle_alpha 154.116084
_cell_angle_beta 30.921399
_cell_angle_gamma 131.238458
_cell_volume 765.716874
_symmetry_space_group_name_H-M "P -1"
_symmetry_group_IT_number 2
_symmetry_cell_setting 'triclinic'
loop_
_space_group_symop_operation_xyz
x,y,z
-x,-y,-z
loop_
_atom_site_type_symbol
_atom_site_label
_atom_site_fract_x
_atom_site_fract_y
_atom_site_fract_z
Si Si1 0.121122 0.979394 0.676975
Si Si2 0.212611 0.545688 0.178816
Si Si3 0.208625 0.894608 0.719586
Si Si4 0.732191 0.392592 0.218886
Si Si5 0.535797 0.878208 0.238763
Si Si6 0.614263 0.204048 0.020751
Si Si7 0.497107 0.386300 0.084916
Si Si8 0.207897 0.296860 0.474380
O O1 0.158831 0.731345 0.432479
O O2 0.153959 0.999919 0.759501
O O3 0.286229 0.022031 0.547276
O O4 0.884810 0.161314 0.968283
O O5 0.004625 0.553378 0.301325
O O6 0.363906 0.302077 0.909671
O O7 0.327756 0.585346 0.059350
O O8 0.301903 0.627971 0.438757
O O9 0.372303 0.954710 0.692495
O O10 0.000000 0.000000 0.000000
O O11 0.500000 0.500000 0.500000
O O12 0.723138 0.335662 0.089779
O O13 0.804969 0.574018 0.332239
O O14 0.582089 0.752436 0.022688
O O15 0.597820 0.246926 0.977580
O O16 0.390481 0.277803 0.275555
O O17 0.768681 0.940142 0.712511
#
# Coordination Sequence:
#
# PCOD8017696 Si02
#       8
#     2   2   2   2   2   2   2   2
#     4  11  21  44  69  93 129 172 216 258 319 389
#     4  11  21  43  71  92 127 174 215 258 321 388
#     4  12  27  40  65 102 130 165 211 270 324 380
#     4  10  22  39  64  92 124 168 215 259 308 381
#     4  11  24  45  67  94 131 173 211 259 326 388
#     4  10  23  43  60  91 130 163 221 263 311 375
#     4  11  25  43  63  97 133 162 216 271 312 378
#     4  10  22  40  67  89 120 179 209 257 324 375
#
# _framework density 20.895451999999999
#
# number of rings (size 3 to 8) (size 9 to 14) (size 15 to 20)
#    0.000    1.250    3.750    1.875    7.000    3.000 
#    0.000    0.625    0.000    0.000    0.000    0.000 
#    0.000    0.000    0.000    0.000    0.000    0.000 
#
# Total GULP energy -198437.601471 kJ/mol
# GULP energy per Si atom -12402.350092 kJ/mol
# Density = 2.084789 g / cm^3
# Si number density = 20.895452 Si / 1000 Ang^3
#
#
#
# Elastic Constant Matrix: (Units=GPa)
#
#
# Indices 1 2 3 4 5 6 
#
# 1 152.1782 38.6145 34.3053 0.6771 17.6395 6.9282
# 2 38.6145 43.9240 15.7843 0.9162 16.1830 3.7913
# 3 34.3053 15.7843 104.7135 0.8846 2.7781 5.2722
# 4 0.6771 0.9162 0.8846 13.1766 0.9067 -5.3265
# 5 17.6395 16.1830 2.7781 0.9067 43.5142 2.8653
# 6 6.9282 3.7913 5.2722 -5.3265 2.8653 36.1005
#
#
#
# Elastic Compliance Matrix: (Units=1/GPa)
#
#
# Indices 1 2 3 4 5 6 
#
# 1 0.008819 -0.006701 -0.001821 -0.000068 -0.000922 -0.000660
# 2 -0.006701 0.033131 -0.002470 -0.001695 -0.009324 -0.001343
# 3 -0.001821 -0.002470 0.010557 -0.000989 0.001080 -0.001165
# 4 -0.000068 -0.001695 -0.000989 0.081242 -0.001792 0.012465
# 5 -0.000922 -0.009324 0.001080 -0.001792 0.026883 -0.001400
# 6 -0.000660 -0.001343 -0.001165 0.012465 -0.001400 0.030088
#
#
# Mechanical properties :
#
#
# Convention : Reuss Voigt Hill
#
# Bulk Modulus (GPa) = 32.76014 53.13601 42.94807
# Shear Modulus (GPa) = 22.43374 32.69903 27.56639
#
# Velocity S-wave (km/s) = 3.28017 3.96016 3.63609
# Velocity P-wave (km/s) = 5.48253 6.81140 6.18277
#
# Compressibility (1/GPa) = 0.03052490
#
# Stress axis : x y z
#
# Youngs Moduli (GPa) = 113.38865 30.18296 94.72360
#
# Poissons Ratio (x) = 0.20225 0.17249
# Poissons Ratio (y) = 0.75979 0.23393
# Poissons Ratio (z) = 0.20648 0.07454
#
# Static dielectric constant tensor:
#      x y z
#    x 4.167830 0.296530 0.186820 
#    y 0.296530 3.470740 0.125660 
#    z 0.186820 0.125660 4.034680 
# 
# 
# High freq. dielectric constant tensor:
#      x y z
#    x 1.836620 0.016740 0.004740 
#    y 0.016740 1.784960 0.007370 
#    z 0.004740 0.007370 1.834840 
# 
# From -- ./inp_files/315390.got.cif
#   From: 2010.06.25/outbox.cif.g09.slc.cpg/sg2_158_cif.got.tgz:315390.got - 2010.06.27 13:26:56.
