data_PCOD8017643
_publ_section_title
;
Structure prediction by ZEFSAII (Michael W. Deem and Ramdas Pophale) SiO2 
 PCOD8017643
Probable space group: P -1
;
_chemical_formula_sum "Si O2"
_cell_formula_units_Z 14
_cell_length_a 12.231156
_cell_length_b 21.768801
_cell_length_c 20.994430
_cell_angle_alpha 158.362746
_cell_angle_beta 160.660016
_cell_angle_gamma 33.311662
_cell_volume 642.201238
_symmetry_space_group_name_H-M "P -1"
_symmetry_group_IT_number 2
_symmetry_cell_setting 'triclinic'
loop_
_space_group_symop_operation_xyz
x,y,z
-x,-y,-z
loop_
_atom_site_type_symbol
_atom_site_label
_atom_site_fract_x
_atom_site_fract_y
_atom_site_fract_z
Si Si1 0.144395 0.200116 0.790981
Si Si2 0.970097 0.262394 0.897361
Si Si3 0.339339 0.126579 0.069576
Si Si4 0.799567 0.980037 0.733351
Si Si5 0.910460 0.650478 0.682758
Si Si6 0.221206 0.632624 0.350595
Si Si7 0.042985 0.693287 0.656188
O O1 0.039004 0.201246 0.807135
O O2 0.970959 0.309558 0.756690
O O3 0.554804 0.275813 0.077042
O O4 0.000000 0.000000 0.500000
O O5 0.607596 0.132456 0.601323
O O6 0.279590 0.263247 0.117141
O O7 0.958611 0.461174 0.077266
O O8 0.621130 0.215138 0.364357
O O9 0.958925 0.023821 0.792531
O O10 0.500000 0.000000 0.000000
O O11 0.010411 0.860966 0.763921
O O12 0.852236 0.162137 0.976261
O O13 0.535161 0.575890 0.439030
O O14 0.090329 0.495846 0.638104
O O15 0.838498 0.678201 0.595762
#
# Coordination Sequence:
#
# PCOD8017643 Si02
#       7
#     2   2   2   2   2   2   2
#     4  12  23  39  68 103 134 170 221 275 328 395
#     4  12  24  43  67  98 134 171 220 274 335 390
#     4  11  25  47  68  92 130 179 224 271 333 399
#     4  11  24  43  66  93 135 175 223 270 337 387
#     4  10  22  39  63  93 138 172 214 266 337 390
#     4  11  24  43  68  97 134 174 217 275 337 388
#     4  11  22  38  65  99 136 173 220 268 332 394
#
# _framework density 21.800018999999999
#
# number of rings (size 3 to 8) (size 9 to 14) (size 15 to 20)
#    0.000    0.857    1.429    6.857    4.000    0.000 
#    0.000    0.714    0.000    0.000    0.000    0.000 
#    0.000    0.000    0.000    0.000    0.000    0.000 
#
# Total GULP energy -173580.094466 kJ/mol
# GULP energy per Si atom -12398.578176 kJ/mol
# Density = 2.175040 g / cm^3
# Si number density = 21.800019 Si / 1000 Ang^3
#
#
#
# Elastic Constant Matrix: (Units=GPa)
#
#
# Indices 1 2 3 4 5 6 
#
# 1 128.3094 38.4498 33.4593 10.2006 -10.0686 -1.0384
# 2 38.4498 71.8992 24.3316 14.9593 -5.2705 6.8832
# 3 33.4593 24.3316 91.8492 16.7096 10.3116 -8.7011
# 4 10.2006 14.9593 16.7096 37.8242 6.1026 -4.6429
# 5 -10.0686 -5.2705 10.3116 6.1026 22.1336 6.2561
# 6 -1.0384 6.8832 -8.7011 -4.6429 6.2561 40.8705
#
#
#
# Elastic Compliance Matrix: (Units=1/GPa)
#
#
# Indices 1 2 3 4 5 6 
#
# 1 0.010291 -0.003679 -0.003348 -0.000886 0.005843 -0.000827
# 2 -0.003679 0.020157 -0.004304 -0.007348 0.009028 -0.006621
# 3 -0.003348 -0.004304 0.015272 -0.001765 -0.010681 0.005325
# 4 -0.000886 -0.007348 -0.001765 0.033144 -0.012303 0.006488
# 5 0.005843 0.009028 -0.010681 -0.012303 0.062485 -0.014608
# 6 -0.000827 -0.006621 0.005325 0.006488 -0.014608 0.029668
#
#
# Mechanical properties :
#
#
# Convention : Reuss Voigt Hill
#
# Bulk Modulus (GPa) = 43.36611 53.83769 48.60190
# Shear Modulus (GPa) = 24.83076 33.22015 29.02545
#
# Velocity S-wave (km/s) = 3.37861 3.90790 3.65285
# Velocity P-wave (km/s) = 5.92924 6.71655 6.33513
#
# Compressibility (1/GPa) = 0.02305948
#
# Stress axis : x y z
#
# Youngs Moduli (GPa) = 97.16979 49.61159 65.48128
#
# Poissons Ratio (x) = 0.18252 0.21920
# Poissons Ratio (y) = 0.35748 0.28180
# Poissons Ratio (z) = 0.32528 0.21350
#
# Static dielectric constant tensor:
#      x y z
#    x 4.156670 0.026110 -0.001550 
#    y 0.026110 4.033870 0.120680 
#    z -0.001550 0.120680 4.201210 
# 
# 
# High freq. dielectric constant tensor:
#      x y z
#    x 1.866840 -0.002090 0.008070 
#    y -0.002090 1.858780 0.018630 
#    z 0.008070 0.018630 1.863230 
# 
# From -- ./inp_files/280152.got.cif
#   From: 2010.06.25/outbox.cif.g09.slc.cpg/sg2_141_cif.got.tgz:280152.got - 2010.06.27 13:26:56.
