data_PCOD8017559
_publ_section_title
;
Structure prediction by ZEFSAII (Michael W. Deem and Ramdas Pophale) SiO2 
 PCOD8017559
Probable space group: P -1
;
_chemical_formula_sum "Si O2"
_cell_formula_units_Z 16
_cell_length_a 14.296876
_cell_length_b 19.213690
_cell_length_c 14.222816
_cell_angle_alpha 131.246087
_cell_angle_beta 159.190201
_cell_angle_gamma 39.987242
_cell_volume 863.800162
_symmetry_space_group_name_H-M "P -1"
_symmetry_group_IT_number 2
_symmetry_cell_setting 'triclinic'
loop_
_space_group_symop_operation_xyz
x,y,z
-x,-y,-z
loop_
_atom_site_type_symbol
_atom_site_label
_atom_site_fract_x
_atom_site_fract_y
_atom_site_fract_z
Si Si1 0.256608 0.199711 0.824879
Si Si2 0.074855 0.258633 0.907835
Si Si3 0.722953 0.496949 0.785114
Si Si4 0.654284 0.177415 0.500726
Si Si5 0.724596 0.614308 0.538344
Si Si6 0.982857 0.051598 0.426295
Si Si7 0.231915 0.595182 0.556252
Si Si8 0.422098 0.530984 0.061806
O O1 0.083793 0.277803 0.822580
O O2 0.185106 0.105419 0.665932
O O3 0.106375 0.287012 0.673336
O O4 0.630725 0.142070 0.137643
O O5 0.890441 0.378929 0.893220
O O6 0.897341 0.198979 0.701714
O O7 0.424960 0.184774 0.210989
O O8 0.500000 0.500000 0.500000
O O9 0.499200 0.590760 0.735508
O O10 0.000000 0.500000 0.000000
O O11 0.466799 0.261622 0.485376
O O12 0.862467 0.044155 0.596290
O O13 0.790508 0.513128 0.580872
O O14 0.511375 0.618573 0.254590
O O15 0.051932 0.588501 0.783030
O O16 0.000000 0.000000 0.500000
O O17 0.356303 0.583267 0.769833
O O18 0.500000 0.500000 0.000000
#
# Coordination Sequence:
#
# PCOD8017559 Si02
#       8
#     2   2   2   2   2   2   2   2
#     4  12  24  36  53  82 112 166 201 252 279 335
#     4  12  21  33  53  74 111 156 209 232 289 312
#     4  12  24  32  50  82 119 163 186 225 291 347
#     4  12  22  38  57  79 113 161 200 253 268 342
#     4  10  22  39  62  91 119 144 195 242 313 356
#     4  12  24  39  54  75 115 168 223 240 278 321
#     4  10  25  37  60  87 127 146 203 242 300 364
#     4  10  22  41  67  93 122 147 184 244 320 381
#
# _framework density 18.522801999999999
#
# number of rings (size 3 to 8) (size 9 to 14) (size 15 to 20)
#    0.750    0.000    5.000    3.750    5.250    0.000 
#    0.000    0.000    0.000    0.000    0.000    5.250 
#    0.000    0.000    0.000    0.000    0.000    0.000 
#
# Total GULP energy -198219.392246 kJ/mol
# GULP energy per Si atom -12388.712015 kJ/mol
# Density = 1.848064 g / cm^3
# Si number density = 18.522802 Si / 1000 Ang^3
#
#
#
# Elastic Constant Matrix: (Units=GPa)
#
#
# Indices 1 2 3 4 5 6 
#
# 1 90.7252 25.8674 43.9523 -8.2315 -7.6809 -15.4384
# 2 25.8674 93.9416 27.6655 -5.3274 -2.5053 -13.1813
# 3 43.9523 27.6655 130.7738 3.5947 10.7024 -3.3771
# 4 -8.2315 -5.3274 3.5947 36.0774 0.2029 2.4177
# 5 -7.6809 -2.5053 10.7024 0.2029 24.5360 -0.3225
# 6 -15.4384 -13.1813 -3.3771 2.4177 -0.3225 17.5960
#
#
#
# Elastic Compliance Matrix: (Units=1/GPa)
#
#
# Indices 1 2 3 4 5 6 
#
# 1 0.017490 -0.000717 -0.006155 0.003561 0.008232 0.013288
# 2 -0.000717 0.012897 -0.002496 0.001414 0.002280 0.008400
# 3 -0.006155 -0.002496 0.010748 -0.002470 -0.006915 -0.004994
# 4 0.003561 0.001414 -0.002470 0.028990 0.002094 -0.000235
# 5 0.008232 0.002280 -0.006915 0.002094 0.046672 0.008171
# 6 0.013288 0.008400 -0.004994 -0.000235 0.008171 0.074006
#
#
# Mechanical properties :
#
#
# Convention : Reuss Voigt Hill
#
# Bulk Modulus (GPa) = 44.64462 56.71234 50.67848
# Shear Modulus (GPa) = 23.04082 30.17223 26.60652
#
# Velocity S-wave (km/s) = 3.53075 4.04037 3.79412
# Velocity P-wave (km/s) = 6.38564 7.24225 6.82739
#
# Compressibility (1/GPa) = 0.02239911
#
# Stress axis : x y z
#
# Youngs Moduli (GPa) = 57.17623 77.53669 93.03836
#
# Poissons Ratio (x) = 0.05562 0.57264
# Poissons Ratio (y) = 0.04101 0.23221
# Poissons Ratio (z) = 0.35191 0.19352
#
# Static dielectric constant tensor:
#      x y z
#    x 3.127750 -0.145110 0.188550 
#    y -0.145110 3.560080 -0.050750 
#    z 0.188550 -0.050750 3.847770 
# 
# 
# High freq. dielectric constant tensor:
#      x y z
#    x 1.661960 -0.008320 0.013740 
#    y -0.008320 1.713830 0.004190 
#    z 0.013740 0.004190 1.748570 
# 
# From -- ./inp_files/535255.got.cif
#   From: 2010.06.25/outbox.cif.g09.slc.cpg/sg2_268_cif.got.tgz:535255.got - 2010.06.27 13:26:56.
