data_PCOD8017467
_publ_section_title
;
Structure prediction by ZEFSAII (Michael W. Deem and Ramdas Pophale) SiO2 
 PCOD8017467
Probable space group: P -1
;
_chemical_formula_sum "Si O2"
_cell_formula_units_Z 12
_cell_length_a 15.099576
_cell_length_b 9.156531
_cell_length_c 6.122544
_cell_angle_alpha 77.426758
_cell_angle_beta 80.130388
_cell_angle_gamma 131.032656
_cell_volume 563.583518
_symmetry_space_group_name_H-M "P -1"
_symmetry_group_IT_number 2
_symmetry_cell_setting 'triclinic'
loop_
_space_group_symop_operation_xyz
x,y,z
-x,-y,-z
loop_
_atom_site_type_symbol
_atom_site_label
_atom_site_fract_x
_atom_site_fract_y
_atom_site_fract_z
Si Si1 0.769866 0.921052 0.121746
Si Si2 0.893702 0.977819 0.446536
Si Si3 0.638443 0.586821 0.933170
Si Si4 0.329931 0.941596 0.593791
Si Si5 0.566052 0.168885 0.117302
Si Si6 0.882958 0.253682 0.579645
O O1 0.883702 0.967146 0.189814
O O2 0.686256 0.915425 0.334462
O O3 0.685099 0.688241 0.123562
O O4 0.825856 0.108689 0.867721
O O5 0.747335 0.779176 0.660874
O O6 0.943421 0.201023 0.416228
O O7 0.000000 0.000000 0.500000
O O8 0.500000 0.500000 0.000000
O O9 0.632826 0.403597 0.938879
O O10 0.325520 0.807664 0.825609
O O11 0.224989 0.784201 0.499159
O O12 0.468171 0.105021 0.366228
O O13 0.500000 0.000000 0.000000
O O14 0.000000 0.500000 0.500000
#
# Coordination Sequence:
#
# PCOD8017467 Si02
#       6
#     2   2   2   2   2   2
#     4  10  22  42  62  86 124 160 206 256 305 367
#     4  10  24  40  60  92 124 160 205 253 308 366
#     4  11  23  40  64  91 123 165 205 251 309 368
#     4  10  22  39  60  90 121 158 206 255 306 361
#     4  11  23  38  61  92 125 158 202 256 308 364
#     4  10  22  39  61  86 119 162 203 249 307 365
#
# _framework density 21.292318999999999
#
# number of rings (size 3 to 8) (size 9 to 14) (size 15 to 20)
#    0.000    1.667    0.000    5.000    0.000   16.000 
#    0.000    0.000    0.000    0.000    0.000    0.000 
#    0.000    0.000    0.000    0.000    0.000    0.000 
#
# Total GULP energy -148687.537224 kJ/mol
# GULP energy per Si atom -12390.628102 kJ/mol
# Density = 2.124386 g / cm^3
# Si number density = 21.292319 Si / 1000 Ang^3
#
#
#
# Elastic Constant Matrix: (Units=GPa)
#
#
# Indices 1 2 3 4 5 6 
#
# 1 150.4248 58.0869 43.6593 9.6387 41.4177 21.2533
# 2 58.0869 178.2071 49.3884 10.7858 21.8159 -1.4766
# 3 43.6593 49.3884 80.0499 20.1089 24.0720 12.7746
# 4 9.6387 10.7858 20.1089 33.5003 6.9260 5.0769
# 5 41.4177 21.8159 24.0720 6.9260 42.5707 7.2770
# 6 21.2533 -1.4766 12.7746 5.0769 7.2770 37.4322
#
#
#
# Elastic Compliance Matrix: (Units=1/GPa)
#
#
# Indices 1 2 3 4 5 6 
#
# 1 0.010620 -0.002129 -0.001723 0.000885 -0.007702 -0.004149
# 2 -0.002129 0.007399 -0.003878 0.000138 -0.000030 0.002811
# 3 -0.001723 -0.003878 0.020358 -0.008702 -0.005780 -0.003819
# 4 0.000885 0.000138 -0.008702 0.035378 -0.001417 -0.002050
# 5 -0.007702 -0.000030 -0.005780 -0.001417 0.034528 -0.000176
# 6 -0.004149 0.002811 -0.003819 -0.002050 -0.000176 0.030797
#
#
# Mechanical properties :
#
#
# Convention : Reuss Voigt Hill
#
# Bulk Modulus (GPa) = 43.63571 78.99457 61.31514
# Shear Modulus (GPa) = 30.83017 39.87045 35.35031
#
# Velocity S-wave (km/s) = 3.80932 4.33197 4.07902
# Velocity P-wave (km/s) = 6.31554 7.88681 7.14450
#
# Compressibility (1/GPa) = 0.02291701
#
# Stress axis : x y z
#
# Youngs Moduli (GPa) = 94.16012 135.15640 49.12152
#
# Poissons Ratio (x) = 0.28779 0.08462
# Poissons Ratio (y) = 0.20050 0.19049
# Poissons Ratio (z) = 0.16221 0.52411
#
# Static dielectric constant tensor:
#      x y z
#    x 4.036680 -0.040050 0.181340 
#    y -0.040050 3.945840 0.258390 
#    z 0.181340 0.258390 3.922000 
# 
# 
# High freq. dielectric constant tensor:
#      x y z
#    x 1.845420 -0.002060 0.016160 
#    y -0.002060 1.834430 0.018220 
#    z 0.016160 0.018220 1.833960 
# 
# From -- ./inp_files/18747.got.cif
#   From: 2010.06.25/outbox.cif.g09.slc.cpg/sg2_10_cif.got.tgz:18747.got - 2010.06.27 13:26:56.
