data_PCOD8017832
_publ_section_title
;
Structure prediction by ZEFSAII (Michael W. Deem and Ramdas Pophale) SiO2 
 PCOD8017832
Probable space group: P -1
;
_chemical_formula_sum "Si O2"
_cell_formula_units_Z 12
_cell_length_a 11.927262
_cell_length_b 12.826258
_cell_length_c 9.418232
_cell_angle_alpha 61.192877
_cell_angle_beta 112.678907
_cell_angle_gamma 155.243746
_cell_volume 523.351184
_symmetry_space_group_name_H-M "P -1"
_symmetry_group_IT_number 2
_symmetry_cell_setting 'triclinic'
loop_
_space_group_symop_operation_xyz
x,y,z
-x,-y,-z
loop_
_atom_site_type_symbol
_atom_site_label
_atom_site_fract_x
_atom_site_fract_y
_atom_site_fract_z
Si Si1 0.211828 0.752355 0.338836
Si Si2 0.045313 0.927252 0.755429
Si Si3 0.478804 0.203238 0.605839
Si Si4 0.675267 0.915118 0.697545
Si Si5 0.900556 0.686236 0.134176
Si Si6 0.777887 0.676210 0.507377
O O1 0.411658 0.834960 0.304375
O O2 0.000000 0.500000 0.500000
O O3 0.036395 0.674077 0.188699
O O4 0.394254 0.007413 0.348813
O O5 0.856741 0.708967 0.684207
O O6 0.338178 0.122719 0.736366
O O7 0.027680 0.056407 0.650896
O O8 0.940387 0.800373 0.940563
O O9 0.270226 0.037206 0.478616
O O10 0.736216 0.517502 0.500194
O O11 0.420835 0.607117 0.806717
O O12 0.943280 0.111599 0.789703
O O13 0.500000 0.500000 0.500000
#
# Coordination Sequence:
#
# PCOD8017832 Si02
#       6
#     2   2   2   2   2   2
#     4  10  22  39  66  95 134 170 207 257 321 382
#     4  10  23  42  65  92 126 166 219 268 316 374
#     4  11  21  38  69  93 122 175 217 254 313 391
#     4  10  23  40  63  95 130 171 206 257 321 375
#     4  10  24  40  65  93 138 167 204 268 321 370
#     4   9  22  41  66  88 124 166 217 265 324 374
#
# _framework density 22.929151999999998
#
# number of rings (size 3 to 8) (size 9 to 14) (size 15 to 20)
#    1.000    1.000    1.667    0.500    9.333    0.667 
#    0.000    3.333    0.000    0.000    0.000    0.000 
#    0.000    0.000    0.000    0.000    0.000    0.000 
#
# Total GULP energy -148656.753659 kJ/mol
# GULP energy per Si atom -12388.062805 kJ/mol
# Density = 2.287696 g / cm^3
# Si number density = 22.929152 Si / 1000 Ang^3
#
#
#
# Elastic Constant Matrix: (Units=GPa)
#
#
# Indices 1 2 3 4 5 6 
#
# 1 44.6365 -3.9503 -8.7897 3.3965 0.1462 -7.8853
# 2 -3.9503 139.1586 35.1864 3.1184 -1.4141 -9.6956
# 3 -8.7897 35.1864 96.6381 3.2236 8.4129 1.8180
# 4 3.3965 3.1184 3.2236 26.4247 4.9356 -1.6856
# 5 0.1462 -1.4141 8.4129 4.9356 29.4190 -0.6526
# 6 -7.8853 -9.6956 1.8180 -1.6856 -0.6526 37.6703
#
#
#
# Elastic Compliance Matrix: (Units=1/GPa)
#
#
# Indices 1 2 3 4 5 6 
#
# 1 0.023950 0.000593 0.001975 -0.003069 -0.000031 0.004933
# 2 0.000593 0.008176 -0.003068 -0.000787 0.001452 0.002366
# 3 0.001975 -0.003068 0.011993 -0.000772 -0.003481 -0.001050
# 4 -0.003069 -0.000787 -0.000772 0.039683 -0.006440 0.000856
# 5 -0.000031 0.001452 -0.003481 -0.006440 0.036157 0.000873
# 6 0.004933 0.002366 -0.001050 0.000856 0.000873 0.028292
#
#
# Mechanical properties :
#
#
# Convention : Reuss Voigt Hill
#
# Bulk Modulus (GPa) = 23.19220 36.14731 29.66975
# Shear Modulus (GPa) = 30.55819 35.90191 33.23005
#
# Velocity S-wave (km/s) = 3.65461 3.96128 3.81103
# Velocity P-wave (km/s) = 5.28629 6.05981 5.68622
#
# Compressibility (1/GPa) = 0.04311795
#
# Stress axis : x y z
#
# Youngs Moduli (GPa) = 41.75451 122.31266 83.38250
#
# Poissons Ratio (x) = -0.07249 -0.16466
# Poissons Ratio (y) = -0.02475 0.25578
# Poissons Ratio (z) = -0.08246 0.37520
#
# Static dielectric constant tensor:
#      x y z
#    x 4.309510 -0.033240 0.096060 
#    y -0.033240 5.584990 -0.712420 
#    z 0.096060 -0.712420 4.089760 
# 
# 
# High freq. dielectric constant tensor:
#      x y z
#    x 1.911470 0.000870 0.003310 
#    y 0.000870 1.923920 -0.002160 
#    z 0.003310 -0.002160 1.871330 
# 
# From -- ./inp_files/192567.got.cif
#   From: 2010.06.25/outbox.cif.g09.slc.cpg/sg2_97_cif.got.tgz:192567.got - 2010.06.27 13:26:56.
