data_PCOD8017428
_publ_section_title
;
Structure prediction by ZEFSAII (Michael W. Deem and Ramdas Pophale) SiO2 
 PCOD8017428
Probable space group: P -1
;
_chemical_formula_sum "Si O2"
_cell_formula_units_Z 12
_cell_length_a 15.502681
_cell_length_b 6.182150
_cell_length_c 16.212560
_cell_angle_alpha 57.758810
_cell_angle_beta 154.976263
_cell_angle_gamma 114.645697
_cell_volume 546.251603
_symmetry_space_group_name_H-M "P -1"
_symmetry_group_IT_number 2
_symmetry_cell_setting 'triclinic'
loop_
_space_group_symop_operation_xyz
x,y,z
-x,-y,-z
loop_
_atom_site_type_symbol
_atom_site_label
_atom_site_fract_x
_atom_site_fract_y
_atom_site_fract_z
Si Si1 0.561030 0.242817 0.920009
Si Si2 0.330737 0.338430 0.859115
Si Si3 0.413652 0.236497 0.486912
Si Si4 0.948258 0.283983 0.356443
Si Si5 0.299139 0.429587 0.516120
Si Si6 0.208540 0.976742 0.236303
O O1 0.352421 0.288100 0.788966
O O2 0.504993 0.417086 0.753777
O O3 0.751390 0.319372 0.117896
O O4 0.619057 0.946159 0.998244
O O5 0.106984 0.499116 0.662608
O O6 0.500000 0.500000 0.000000
O O7 0.500000 0.500000 0.500000
O O8 0.342977 0.215513 0.524069
O O9 0.606845 0.014840 0.671491
O O10 0.219244 0.212636 0.262244
O O11 0.131016 0.339583 0.446712
O O12 0.000000 0.000000 0.500000
O O13 0.231908 0.715822 0.363774
O O14 0.000000 0.000000 0.000000
#
# Coordination Sequence:
#
# PCOD8017428 Si02
#       6
#     2   2   2   2   2   2
#     4  10  22  39  59  85 123 169 214 264 316 368
#     4   9  19  38  59  80 120 168 212 260 308 363
#     4   9  22  43  64  90 126 160 206 268 328 391
#     4  11  24  39  60  93 129 171 217 261 313 377
#     4  11  24  38  61  95 125 163 213 263 323 387
#     4  10  23  43  68  94 123 165 212 267 332 391
#
# _framework density 21.9679
#
# number of rings (size 3 to 8) (size 9 to 14) (size 15 to 20)
#    0.000    2.000    0.000    3.000    0.000   17.333 
#    0.000    0.000    0.000    0.000    0.000    0.000 
#    0.000    0.000    0.000    0.000    0.000    0.000 
#
# Total GULP energy -148681.423595 kJ/mol
# GULP energy per Si atom -12390.118633 kJ/mol
# Density = 2.191790 g / cm^3
# Si number density = 21.967900 Si / 1000 Ang^3
#
#
#
# Elastic Constant Matrix: (Units=GPa)
#
#
# Indices 1 2 3 4 5 6 
#
# 1 150.9105 54.0834 63.6055 -0.7643 4.7801 -19.8746
# 2 54.0834 109.9192 50.2312 3.2925 -11.5415 -16.0802
# 3 63.6055 50.2312 142.6540 9.6947 -31.1980 -13.1048
# 4 -0.7643 3.2925 9.6947 43.8053 -4.8672 -1.7950
# 5 4.7801 -11.5415 -31.1980 -4.8672 36.9754 -1.7991
# 6 -19.8746 -16.0802 -13.1048 -1.7950 -1.7991 40.8661
#
#
#
# Elastic Compliance Matrix: (Units=1/GPa)
#
#
# Indices 1 2 3 4 5 6 
#
# 1 0.010185 -0.003290 -0.004570 0.000851 -0.005992 0.001967
# 2 -0.003290 0.012325 -0.002031 -0.000126 0.002674 0.002711
# 3 -0.004570 -0.002031 0.012190 -0.001449 0.010113 0.001269
# 4 0.000851 -0.000126 -0.001449 0.023410 0.001758 0.001005
# 5 -0.005992 0.002674 0.010113 0.001758 0.037570 0.003112
# 6 0.001967 0.002711 0.001269 0.001005 0.003112 0.027081
#
#
# Mechanical properties :
#
#
# Convention : Reuss Voigt Hill
#
# Bulk Modulus (GPa) = 67.03221 82.14709 74.58965
# Shear Modulus (GPa) = 33.89477 40.03359 36.96418
#
# Velocity S-wave (km/s) = 3.93227 4.27355 4.10646
# Velocity P-wave (km/s) = 7.15520 7.86297 7.51742
#
# Compressibility (1/GPa) = 0.01491820
#
# Stress axis : x y z
#
# Youngs Moduli (GPa) = 98.18534 81.13356 82.03742
#
# Poissons Ratio (x) = 0.26689 0.37495
# Poissons Ratio (y) = 0.32299 0.16660
# Poissons Ratio (z) = 0.44875 0.16477
#
# Static dielectric constant tensor:
#      x y z
#    x 4.798360 -0.669060 0.105470 
#    y -0.669060 4.264420 0.045690 
#    z 0.105470 0.045690 4.186570 
# 
# 
# High freq. dielectric constant tensor:
#      x y z
#    x 1.869650 -0.019150 -0.000170 
#    y -0.019150 1.867330 0.015440 
#    z -0.000170 0.015440 1.858950 
# 
# From -- ./inp_files/525231.got.cif
#   From: 2010.06.25/outbox.cif.g09.slc.cpg/sg2_263_cif.got.tgz:525231.got - 2010.06.27 13:26:56.
