data_PCOD8017556
_publ_section_title
;
Structure prediction by ZEFSAII (Michael W. Deem and Ramdas Pophale) SiO2 
 PCOD8017556
Probable space group: P -1
;
_chemical_formula_sum "Si O2"
_cell_formula_units_Z 16
_cell_length_a 19.004774
_cell_length_b 7.968222
_cell_length_c 6.550316
_cell_angle_alpha 66.059039
_cell_angle_beta 116.704299
_cell_angle_gamma 121.344937
_cell_volume 737.319284
_symmetry_space_group_name_H-M "P -1"
_symmetry_group_IT_number 2
_symmetry_cell_setting 'triclinic'
loop_
_space_group_symop_operation_xyz
x,y,z
-x,-y,-z
loop_
_atom_site_type_symbol
_atom_site_label
_atom_site_fract_x
_atom_site_fract_y
_atom_site_fract_z
Si Si1 0.607491 0.284284 0.485938
Si Si2 0.242068 0.800749 0.414097
Si Si3 0.246332 0.154153 0.008881
Si Si4 0.452853 0.029197 0.118899
Si Si5 0.834960 0.106002 0.353048
Si Si6 0.902297 0.873165 0.865475
Si Si7 0.402413 0.368773 0.875740
Si Si8 0.904365 0.453748 0.957267
O O1 0.689024 0.294678 0.456999
O O2 0.520097 0.157346 0.313811
O O3 0.617708 0.516078 0.400353
O O4 0.606345 0.190556 0.754445
O O5 0.227696 0.835568 0.613674
O O6 0.154107 0.661311 0.253060
O O7 0.282201 0.015893 0.248826
O O8 0.168335 0.176582 0.019137
O O9 0.333893 0.355525 0.975685
O O10 0.214845 0.067368 0.786240
O O11 0.392760 0.143901 0.917125
O O12 0.500000 0.000000 0.000000
O O13 0.889971 0.314902 0.206675
O O14 0.889779 0.016358 0.606079
O O15 0.890310 0.656005 0.875642
O O16 0.000000 0.000000 0.000000
O O17 0.500000 0.500000 0.000000
O O18 0.000000 0.500000 0.000000
#
# Coordination Sequence:
#
# PCOD8017556 Si02
#       8
#     2   2   2   2   2   2   2   2
#     4  10  22  39  62  90 124 165 209 265 320 374
#     4  10  22  41  65  94 128 164 220 261 317 391
#     4  10  22  43  65  94 134 165 218 268 318 387
#     4  10  22  41  63  89 125 167 211 266 316 380
#     4  10  24  42  66  94 128 174 204 270 326 371
#     4  11  25  44  68  98 128 169 216 265 321 390
#     4  10  22  41  61  92 131 165 211 269 315 380
#     4  11  25  43  65  96 132 166 213 266 319 392
#
# _framework density 21.700232
#
# number of rings (size 3 to 8) (size 9 to 14) (size 15 to 20)
#    0.000    1.750    1.250    2.250    5.250    4.500 
#    2.250    0.000    0.000    0.000    0.000    0.000 
#    0.000    0.000    0.000    0.000    0.000    0.000 
#
# Total GULP energy -198258.192717 kJ/mol
# GULP energy per Si atom -12391.137045 kJ/mol
# Density = 2.165084 g / cm^3
# Si number density = 21.700232 Si / 1000 Ang^3
#
#
#
# Elastic Constant Matrix: (Units=GPa)
#
#
# Indices 1 2 3 4 5 6 
#
# 1 154.3177 41.2792 56.0866 -22.8752 -5.0026 -6.2567
# 2 41.2792 73.0352 43.0137 -30.2637 -6.7858 -5.8021
# 3 56.0866 43.0137 112.0705 -33.9343 -8.2998 -19.9393
# 4 -22.8752 -30.2637 -33.9343 42.6653 -9.0963 4.9994
# 5 -5.0026 -6.7858 -8.2998 -9.0963 35.9063 -4.0267
# 6 -6.2567 -5.8021 -19.9393 4.9994 -4.0267 43.2792
#
#
#
# Elastic Compliance Matrix: (Units=1/GPa)
#
#
# Indices 1 2 3 4 5 6 
#
# 1 0.008398 -0.002984 -0.003254 -0.000179 -0.000269 -0.000690
# 2 -0.002984 0.023648 -0.002506 0.014661 0.007252 0.000565
# 3 -0.003254 -0.002506 0.015958 0.009727 0.005895 0.005970
# 4 -0.000179 0.014661 0.009727 0.044696 0.016632 0.002805
# 5 -0.000269 0.007252 0.005895 0.016632 0.035322 0.005014
# 6 -0.000690 0.000565 0.005970 0.002805 0.005014 0.025975
#
#
# Mechanical properties :
#
#
# Convention : Reuss Voigt Hill
#
# Bulk Modulus (GPa) = 32.77044 68.90913 50.83978
# Shear Modulus (GPa) = 27.52454 37.63975 32.58215
#
# Velocity S-wave (km/s) = 3.56532 4.16929 3.87908
# Velocity P-wave (km/s) = 5.66418 7.41628 6.59864
#
# Compressibility (1/GPa) = 0.03051531
#
# Stress axis : x y z
#
# Youngs Moduli (GPa) = 119.07779 42.28634 62.66630
#
# Poissons Ratio (x) = 0.12617 0.20394
# Poissons Ratio (y) = 0.35528 0.15706
# Poissons Ratio (z) = 0.38752 0.10598
#
# Static dielectric constant tensor:
#      x y z
#    x 4.192480 -0.090030 -0.042500 
#    y -0.090030 4.187820 -0.315120 
#    z -0.042500 -0.315120 4.982300 
# 
# 
# High freq. dielectric constant tensor:
#      x y z
#    x 1.869560 0.004790 0.006080 
#    y 0.004790 1.844330 -0.025670 
#    z 0.006080 -0.025670 1.855640 
# 
# From -- ./inp_files/46506.got.cif
#   From: 2010.06.25/outbox.cif.g09.slc.cpg/sg2_24_cif.got.tgz:46506.got - 2010.06.27 13:26:56.
