data_PCOD8017476
_publ_section_title
;
Structure prediction by ZEFSAII (Michael W. Deem and Ramdas Pophale) SiO2 
 PCOD8017476
Probable space group: P -1
;
_chemical_formula_sum "Si O2"
_cell_formula_units_Z 16
_cell_length_a 6.705794
_cell_length_b 24.303104
_cell_length_c 9.331806
_cell_angle_alpha 140.094434
_cell_angle_beta 131.819821
_cell_angle_gamma 67.699537
_cell_volume 698.816262
_symmetry_space_group_name_H-M "P -1"
_symmetry_group_IT_number 2
_symmetry_cell_setting 'triclinic'
loop_
_space_group_symop_operation_xyz
x,y,z
-x,-y,-z
loop_
_atom_site_type_symbol
_atom_site_label
_atom_site_fract_x
_atom_site_fract_y
_atom_site_fract_z
Si Si1 0.464454 0.128037 0.137571
Si Si2 0.704203 0.840952 0.197998
Si Si3 0.743052 0.272704 0.059001
Si Si4 0.839609 0.262640 0.780257
Si Si5 0.332194 0.393069 0.546472
Si Si6 0.102645 0.985310 0.864762
Si Si7 0.639251 0.428072 0.479306
Si Si8 0.823608 0.452325 0.107837
O O1 0.637869 0.225125 0.474654
O O2 0.663687 0.064561 0.095416
O O3 0.328203 0.138642 0.942365
O O4 0.221233 0.081379 0.038375
O O5 0.884579 0.770485 0.160523
O O6 0.857621 0.930439 0.534503
O O7 0.395043 0.803491 0.043728
O O8 0.620322 0.355677 0.200422
O O9 0.081317 0.304782 0.285635
O O10 0.660227 0.232558 0.780031
O O11 0.947736 0.371456 0.058248
O O12 0.501998 0.378702 0.459071
O O13 0.530471 0.404878 0.801578
O O14 0.228221 0.483412 0.659616
O O15 0.000000 0.000000 0.000000
O O16 0.500000 0.500000 0.500000
O O17 0.963703 0.482420 0.770609
#
# Coordination Sequence:
#
# PCOD8017476 Si02
#       8
#     2   2   2   2   2   2   2   2
#     4  10  24  43  68  99 133 167 212 262 318 391
#     4  11  24  43  66 101 132 172 213 261 326 384
#     4  11  23  38  60  92 129 168 219 267 325 385
#     4  11  24  41  63  94 132 171 217 271 326 381
#     4  10  22  40  60  89 127 174 225 274 329 379
#     4  10  22  45  72 101 131 168 210 257 320 389
#     4  11  21  37  62  85 123 171 221 274 329 378
#     4  10  22  39  60  92 122 175 225 274 322 388
#
# _framework density 22.895862999999999
#
# number of rings (size 3 to 8) (size 9 to 14) (size 15 to 20)
#    0.000    1.500    0.000    4.500    3.500    3.500 
#    4.500    0.000    0.000    0.000    0.000    0.000 
#    0.000    0.000    0.000    0.000    0.000    0.000 
#
# Total GULP energy -198345.257279 kJ/mol
# GULP energy per Si atom -12396.578580 kJ/mol
# Density = 2.284375 g / cm^3
# Si number density = 22.895863 Si / 1000 Ang^3
#
#
#
# Elastic Constant Matrix: (Units=GPa)
#
#
# Indices 1 2 3 4 5 6 
#
# 1 143.1665 25.6848 54.3057 -0.8940 5.7421 31.8036
# 2 25.6848 59.8750 34.9648 -4.9743 10.7166 19.3364
# 3 54.3057 34.9648 131.2658 -9.5452 1.1086 9.6135
# 4 -0.8940 -4.9743 -9.5452 34.2552 6.9998 -0.7471
# 5 5.7421 10.7166 1.1086 6.9998 40.8062 0.2857
# 6 31.8036 19.3364 9.6135 -0.7471 0.2857 32.2658
#
#
#
# Elastic Compliance Matrix: (Units=1/GPa)
#
#
# Indices 1 2 3 4 5 6 
#
# 1 0.010545 0.001253 -0.003995 -0.000559 -0.001539 -0.009954
# 2 0.001253 0.026127 -0.006081 0.003305 -0.007335 -0.014939
# 3 -0.003995 -0.006081 0.010682 0.001772 0.001534 0.004427
# 4 -0.000559 0.003305 0.001772 0.031396 -0.006215 -0.001176
# 5 -0.001539 -0.007335 0.001534 -0.006215 0.027638 0.005067
# 6 -0.009954 -0.014939 0.004427 -0.001176 0.005067 0.048365
#
#
# Mechanical properties :
#
#
# Convention : Reuss Voigt Hill
#
# Bulk Modulus (GPa) = 33.66108 62.69085 48.17597
# Shear Modulus (GPa) = 27.42679 36.08889 31.75784
#
# Velocity S-wave (km/s) = 3.46481 3.97447 3.72836
# Velocity P-wave (km/s) = 5.54439 6.96435 6.29454
#
# Compressibility (1/GPa) = 0.02970790
#
# Stress axis : x y z
#
# Youngs Moduli (GPa) = 94.83354 38.27411 93.61161
#
# Poissons Ratio (x) = -0.04795 0.37396
# Poissons Ratio (y) = -0.11882 0.56929
# Poissons Ratio (z) = 0.37885 0.23276
#
# Static dielectric constant tensor:
#      x y z
#    x 4.585310 -0.001960 0.063700 
#    y -0.001960 3.811760 0.152050 
#    z 0.063700 0.152050 4.369810 
# 
# 
# High freq. dielectric constant tensor:
#      x y z
#    x 1.917450 -0.000460 -0.000480 
#    y -0.000460 1.878370 0.005660 
#    z -0.000480 0.005660 1.919890 
# 
# From -- ./inp_files/143173.got.cif
#   From: 2010.06.25/outbox.cif.g09.slc.cpg/sg2_72_cif.got.tgz:143173.got - 2010.06.27 13:26:56.
