data_PCOD8017232
_publ_section_title
;
Structure prediction by ZEFSAII (Michael W. Deem and Ramdas Pophale) SiO2 
 PCOD8017232
Probable space group: P -1
;
_chemical_formula_sum "Si O2"
_cell_formula_units_Z 16
_cell_length_a 14.219033
_cell_length_b 22.338435
_cell_length_c 14.063902
_cell_angle_alpha 158.616490
_cell_angle_beta 148.750670
_cell_angle_gamma 30.333539
_cell_volume 790.095347
_symmetry_space_group_name_H-M "P -1"
_symmetry_group_IT_number 2
_symmetry_cell_setting 'triclinic'
loop_
_space_group_symop_operation_xyz
x,y,z
-x,-y,-z
loop_
_atom_site_type_symbol
_atom_site_label
_atom_site_fract_x
_atom_site_fract_y
_atom_site_fract_z
Si Si1 0.237694 0.138297 0.281552
Si Si2 0.796912 0.567985 0.974655
Si Si3 0.520180 0.304180 0.707516
Si Si4 0.727328 0.899086 0.534125
Si Si5 0.212798 0.792922 0.525263
Si Si6 0.541830 0.814561 0.970248
Si Si7 0.090698 0.928477 0.202417
Si Si8 0.624826 0.060429 0.273027
O O1 0.337850 0.283669 0.574257
O O2 0.166725 0.140562 0.331339
O O3 0.053812 0.173129 0.103863
O O4 0.403975 0.952491 0.128873
O O5 0.773275 0.406256 0.773059
O O6 0.651325 0.641188 0.868559
O O7 0.772070 0.716975 0.250115
O O8 0.000000 0.500000 0.000000
O O9 0.735312 0.190930 0.760314
O O10 0.505366 0.244290 0.496543
O O11 0.500000 0.500000 0.000000
O O12 0.500000 0.000000 0.500000
O O13 0.821344 0.019865 0.739063
O O14 0.417004 0.767468 0.712681
O O15 0.201742 0.901848 0.577850
O O16 0.028866 0.897028 0.584388
O O17 0.684798 0.904852 0.175697
O O18 0.500000 0.000000 0.000000
#
# Coordination Sequence:
#
# PCOD8017232 Si02
#       8
#     2   2   2   2   2   2   2   2
#     4  10  22  41  67  92 127 172 216 260 328 390
#     4  12  23  37  60  95 131 159 216 272 319 376
#     4  11  24  42  66  94 132 170 218 275 324 383
#     4  12  21  40  66  91 129 172 213 262 331 392
#     4  10  22  38  63  93 125 165 214 265 326 384
#     4   9  19  41  62  88 127 168 206 266 321 387
#     4  11  23  43  66  93 128 172 217 265 326 396
#     4   9  20  41  67  91 123 170 217 256 329 397
#
# _framework density 20.250720000000001
#
# number of rings (size 3 to 8) (size 9 to 14) (size 15 to 20)
#    0.000    1.500    3.750    2.250    1.750    1.000 
#    0.000    2.500    0.000    0.000    0.000    0.000 
#    0.000    0.000    0.000    0.000    0.000    0.000 
#
# Total GULP energy -198263.449167 kJ/mol
# GULP energy per Si atom -12391.465573 kJ/mol
# Density = 2.020463 g / cm^3
# Si number density = 20.250720 Si / 1000 Ang^3
#
#
#
# Elastic Constant Matrix: (Units=GPa)
#
#
# Indices 1 2 3 4 5 6 
#
# 1 119.9147 32.2499 33.2676 2.6867 2.6893 -2.6814
# 2 32.2499 82.5737 52.5500 -4.9328 5.8105 -2.8272
# 3 33.2676 52.5500 128.9740 10.4511 -2.6413 -5.1713
# 4 2.6867 -4.9328 10.4511 24.6973 2.1493 0.1981
# 5 2.6893 5.8105 -2.6413 2.1493 41.6893 -3.7280
# 6 -2.6814 -2.8272 -5.1713 0.1981 -3.7280 24.3954
#
#
#
# Elastic Compliance Matrix: (Units=1/GPa)
#
#
# Indices 1 2 3 4 5 6 
#
# 1 0.009506 -0.003059 -0.001096 -0.001171 -0.000156 0.000444
# 2 -0.003059 0.018794 -0.007564 0.007579 -0.003322 -0.000331
# 3 -0.001096 -0.007564 0.011779 -0.006599 0.002383 0.001917
# 4 -0.001171 0.007579 -0.006599 0.045274 -0.003877 -0.001609
# 5 -0.000156 -0.003322 0.002383 -0.003877 0.025167 0.003980
# 6 0.000444 -0.000331 0.001917 -0.001609 0.003980 0.042029
#
#
# Mechanical properties :
#
#
# Convention : Reuss Voigt Hill
#
# Bulk Modulus (GPa) = 60.09463 63.06636 61.58050
# Shear Modulus (GPa) = 27.54327 32.38274 29.96301
#
# Velocity S-wave (km/s) = 3.69197 4.00320 3.85073
# Velocity P-wave (km/s) = 6.92199 7.25106 7.08844
#
# Compressibility (1/GPa) = 0.01664042
#
# Stress axis : x y z
#
# Youngs Moduli (GPa) = 105.20077 53.20890 84.90035
#
# Poissons Ratio (x) = 0.16275 0.09306
# Poissons Ratio (y) = 0.32178 0.64218
# Poissons Ratio (z) = 0.11532 0.40247
#
# Static dielectric constant tensor:
#      x y z
#    x 4.178160 0.207380 0.310350 
#    y 0.207380 3.701380 0.222870 
#    z 0.310350 0.222870 4.353900 
# 
# 
# High freq. dielectric constant tensor:
#      x y z
#    x 1.804550 0.003780 0.001940 
#    y 0.003780 1.765790 -0.010690 
#    z 0.001940 -0.010690 1.800610 
# 
# From -- ./inp_files/535463.got.cif
#   From: 2010.06.25/outbox.cif.g09.slc.cpg/sg2_268_cif.got.tgz:535463.got - 2010.06.27 13:26:56.
