data_PCOD8017722
_publ_section_title
;
Structure prediction by ZEFSAII (Michael W. Deem and Ramdas Pophale) SiO2 
 PCOD8017722
Probable space group: P -1
;
_chemical_formula_sum "Si O2"
_cell_formula_units_Z 14
_cell_length_a 11.881623
_cell_length_b 9.228316
_cell_length_c 12.716563
_cell_angle_alpha 79.745772
_cell_angle_beta 117.597499
_cell_angle_gamma 48.129912
_cell_volume 620.655641
_symmetry_space_group_name_H-M "P -1"
_symmetry_group_IT_number 2
_symmetry_cell_setting 'triclinic'
loop_
_space_group_symop_operation_xyz
x,y,z
-x,-y,-z
loop_
_atom_site_type_symbol
_atom_site_label
_atom_site_fract_x
_atom_site_fract_y
_atom_site_fract_z
Si Si1 0.209548 0.095242 0.695527
Si Si2 0.470563 0.884029 0.436055
Si Si3 0.669961 0.695976 0.325627
Si Si4 0.587468 0.535059 0.829767
Si Si5 0.026614 0.802266 0.811689
Si Si6 0.517362 0.656653 0.075792
Si Si7 0.287037 0.632643 0.328932
O O1 0.260419 0.218253 0.706494
O O2 0.915134 0.364255 0.516119
O O3 0.343490 0.882914 0.680323
O O4 0.313993 0.921699 0.871369
O O5 0.485414 0.904250 0.316883
O O6 0.704271 0.548588 0.615923
O O7 0.500000 0.000000 0.500000
O O8 0.209887 0.065481 0.326223
O O9 0.514380 0.757184 0.166707
O O10 0.547262 0.446335 0.910007
O O11 0.656687 0.399383 0.765537
O O12 0.813264 0.410197 0.989983
O O13 0.198351 0.621954 0.806600
O O14 0.962131 0.037732 0.783543
O O15 0.500000 0.500000 0.500000
#
# Coordination Sequence:
#
# PCOD8017722 Si02
#       7
#     2   2   2   2   2   2   2
#     4  10  24  43  68  99 134 172 227 274 328 392
#     4  11  25  44  65  96 133 173 223 265 332 396
#     4  11  25  43  70  94 136 180 218 272 334 393
#     4  11  23  44  68  96 135 172 221 276 331 390
#     4  10  23  42  64  96 132 169 216 276 327 388
#     4  11  24  43  72  99 134 170 226 277 328 393
#     4  10  22  39  64  95 134 169 216 269 323 394
#
# _framework density 22.556791
#
# number of rings (size 3 to 8) (size 9 to 14) (size 15 to 20)
#    0.000    1.429    0.000    5.143   12.000    0.571 
#    0.000    3.571    0.000    0.000    0.000    0.000 
#    0.000    0.000    0.000    0.000    0.000    0.000 
#
# Total GULP energy -173555.852126 kJ/mol
# GULP energy per Si atom -12396.846580 kJ/mol
# Density = 2.250545 g / cm^3
# Si number density = 22.556791 Si / 1000 Ang^3
#
#
#
# Elastic Constant Matrix: (Units=GPa)
#
#
# Indices 1 2 3 4 5 6 
#
# 1 62.6222 24.7184 32.2875 0.3883 -4.8725 5.5888
# 2 24.7184 136.5773 41.1427 13.2424 -5.1017 3.5574
# 3 32.2875 41.1427 95.5205 6.6732 -6.8775 0.4119
# 4 0.3883 13.2424 6.6732 37.9434 0.9100 -8.8229
# 5 -4.8725 -5.1017 -6.8775 0.9100 30.9131 3.3640
# 6 5.5888 3.5574 0.4119 -8.8229 3.3640 38.1406
#
#
#
# Elastic Compliance Matrix: (Units=1/GPa)
#
#
# Indices 1 2 3 4 5 6 
#
# 1 0.020116 -0.001790 -0.005941 0.000794 0.001823 -0.002694
# 2 -0.001790 0.008876 -0.002958 -0.002871 0.000747 -0.001264
# 3 -0.005941 -0.002958 0.013957 -0.001272 0.001657 0.000555
# 4 0.000794 -0.002871 -0.001272 0.029287 -0.002271 0.007140
# 5 0.001823 0.000747 0.001657 -0.002271 0.033613 -0.003845
# 6 -0.002694 -0.001264 0.000555 0.007140 -0.003845 0.028716
#
#
# Mechanical properties :
#
#
# Convention : Reuss Voigt Hill
#
# Bulk Modulus (GPa) = 46.35923 54.55745 50.45834
# Shear Modulus (GPa) = 30.64954 34.50421 32.57687
#
# Velocity S-wave (km/s) = 3.69015 3.91533 3.80441
# Velocity P-wave (km/s) = 6.22520 6.68423 6.45880
#
# Compressibility (1/GPa) = 0.02157068
#
# Stress axis : x y z
#
# Youngs Moduli (GPa) = 49.71235 112.66186 71.64737
#
# Poissons Ratio (x) = 0.20162 0.42567
# Poissons Ratio (y) = 0.08896 0.21197
# Poissons Ratio (z) = 0.29535 0.33330
#
# Static dielectric constant tensor:
#      x y z
#    x 3.741610 0.128370 -0.065270 
#    y 0.128370 6.520320 -2.281650 
#    z -0.065270 -2.281650 5.958940 
# 
# 
# High freq. dielectric constant tensor:
#      x y z
#    x 1.877110 -0.002860 -0.000490 
#    y -0.002860 1.906210 0.000170 
#    z -0.000490 0.000170 1.894830 
# 
# From -- ./inp_files/417178.got.cif
#   From: 2010.06.25/outbox.cif.g09.slc.cpg/sg2_209_cif.got.tgz:417178.got - 2010.06.27 13:26:56.
