data_PCOD8017647
_publ_section_title
;
Structure prediction by ZEFSAII (Michael W. Deem and Ramdas Pophale) SiO2 
 PCOD8017647
Probable space group: P -1
;
_chemical_formula_sum "Si O2"
_cell_formula_units_Z 16
_cell_length_a 7.247507
_cell_length_b 14.078765
_cell_length_c 22.396983
_cell_angle_alpha 160.183991
_cell_angle_beta 66.229928
_cell_angle_gamma 111.634995
_cell_volume 708.591824
_symmetry_space_group_name_H-M "P -1"
_symmetry_group_IT_number 2
_symmetry_cell_setting 'triclinic'
loop_
_space_group_symop_operation_xyz
x,y,z
-x,-y,-z
loop_
_atom_site_type_symbol
_atom_site_label
_atom_site_fract_x
_atom_site_fract_y
_atom_site_fract_z
Si Si1 0.084637 0.266753 0.616171
Si Si2 0.495948 0.307265 0.294597
Si Si3 0.407303 0.294309 0.938270
Si Si4 0.519241 0.314874 0.064769
Si Si5 0.963300 0.431186 0.084405
Si Si6 0.069652 0.959223 0.609452
Si Si7 0.463045 0.650538 0.389579
Si Si8 0.302225 0.229189 0.393053
O O1 0.036853 0.534797 0.822996
O O2 0.323751 0.217929 0.546439
O O3 0.978732 0.286517 0.577370
O O4 0.000000 0.000000 0.500000
O O5 0.413243 0.410754 0.302355
O O6 0.321105 0.322923 0.377140
O O7 0.679022 0.498576 0.405883
O O8 0.574168 0.985739 0.086143
O O9 0.514621 0.988027 0.740828
O O10 0.500000 0.500000 0.000000
O O11 0.432318 0.430183 0.081343
O O12 0.167521 0.264987 0.939145
O O13 0.762780 0.267809 0.997233
O O14 0.460764 0.534071 0.253510
O O15 0.954670 0.731785 0.230912
O O16 0.298116 0.903617 0.568386
O O17 0.910678 0.919714 0.660262
#
# Coordination Sequence:
#
# PCOD8017647 Si02
#       8
#     2   2   2   2   2   2   2   2
#     4   9  20  37  61  91 129 159 201 258 311 372
#     4  10  22  45  64  85 130 171 214 262 299 368
#     4  11  22  42  66  90 128 169 200 260 325 367
#     4  10  24  43  62  97 126 160 215 261 308 377
#     4  10  22  39  63  94 127 160 207 261 318 375
#     4  11  21  38  63  98 126 163 209 255 319 379
#     4  11  22  40  68  94 125 170 204 262 321 362
#     4  10  22  43  65  91 127 169 216 256 304 380
#
# _framework density 22.579993999999999
#
# number of rings (size 3 to 8) (size 9 to 14) (size 15 to 20)
#    0.000    1.750    2.500    1.125    0.000    8.500 
#   11.250    0.625    0.000    0.000    0.000    0.000 
#    0.000    0.000    0.000    0.000    0.000    0.000 
#
# Total GULP energy -198346.856392 kJ/mol
# GULP energy per Si atom -12396.678525 kJ/mol
# Density = 2.252860 g / cm^3
# Si number density = 22.579994 Si / 1000 Ang^3
#
#
#
# Elastic Constant Matrix: (Units=GPa)
#
#
# Indices 1 2 3 4 5 6 
#
# 1 115.2328 35.1176 25.2616 10.5169 -25.8170 23.2134
# 2 35.1176 132.3257 15.5546 11.0997 -6.4100 -1.8827
# 3 25.2616 15.5546 49.3488 15.2099 -3.1761 11.4564
# 4 10.5169 11.0997 15.2099 21.2328 2.7425 1.2389
# 5 -25.8170 -6.4100 -3.1761 2.7425 31.0144 -8.3546
# 6 23.2134 -1.8827 11.4564 1.2389 -8.3546 37.6092
#
#
#
# Elastic Compliance Matrix: (Units=1/GPa)
#
#
# Indices 1 2 3 4 5 6 
#
# 1 0.013728 -0.002549 -0.003066 -0.004181 0.009496 -0.005420
# 2 -0.002549 0.008651 -0.001175 -0.002627 0.000466 0.002555
# 3 -0.003066 -0.001175 0.029453 -0.018601 0.000115 -0.006500
# 4 -0.004181 -0.002627 -0.018601 0.065040 -0.010712 0.003594
# 5 0.009496 0.000466 0.000115 -0.010712 0.042244 0.003864
# 6 -0.005420 0.002555 -0.006500 0.003594 0.003864 0.032782
#
#
# Mechanical properties :
#
#
# Convention : Reuss Voigt Hill
#
# Bulk Modulus (GPa) = 26.14233 49.86386 38.00310
# Shear Modulus (GPa) = 22.91161 32.70287 27.80724
#
# Velocity S-wave (km/s) = 3.18887 3.80980 3.51308
# Velocity P-wave (km/s) = 5.01610 6.44080 5.77257
#
# Compressibility (1/GPa) = 0.03825213
#
# Stress axis : x y z
#
# Youngs Moduli (GPa) = 72.84335 115.59247 33.95211
#
# Poissons Ratio (x) = 0.29467 0.10409
# Poissons Ratio (y) = 0.18570 0.03990
# Poissons Ratio (z) = 0.22332 0.13584
#
# Static dielectric constant tensor:
#      x y z
#    x 4.179020 -0.065420 0.235370 
#    y -0.065420 4.541380 -0.300530 
#    z 0.235370 -0.300530 3.974530 
# 
# 
# High freq. dielectric constant tensor:
#      x y z
#    x 1.877650 0.006220 0.014070 
#    y 0.006220 1.907560 -0.009900 
#    z 0.014070 -0.009900 1.871270 
# 
# From -- ./inp_files/604778.got.cif
#   From: 2010.06.25/outbox.cif.g09.slc.cpg/sg2_303_cif.got.tgz:604778.got - 2010.06.27 13:26:56.
