data_PCOD8017261
_publ_section_title
;
Structure prediction by ZEFSAII (Michael W. Deem and Ramdas Pophale) SiO2 
 PCOD8017261
Probable space group: P -1
;
_chemical_formula_sum "Si O2"
_cell_formula_units_Z 16
_cell_length_a 16.593503
_cell_length_b 9.178006
_cell_length_c 12.269900
_cell_angle_alpha 74.224320
_cell_angle_beta 65.786385
_cell_angle_gamma 132.201986
_cell_volume 739.997085
_symmetry_space_group_name_H-M "P -1"
_symmetry_group_IT_number 2
_symmetry_cell_setting 'triclinic'
loop_
_space_group_symop_operation_xyz
x,y,z
-x,-y,-z
loop_
_atom_site_type_symbol
_atom_site_label
_atom_site_fract_x
_atom_site_fract_y
_atom_site_fract_z
Si Si1 0.531118 0.171650 0.233949
Si Si2 0.389192 0.527391 0.249322
Si Si3 0.887323 0.550996 0.312091
Si Si4 0.914333 0.906046 0.328590
Si Si5 0.760693 0.465755 0.838756
Si Si6 0.189071 0.794818 0.193975
Si Si7 0.088088 0.275915 0.956066
Si Si8 0.359932 0.196372 0.219126
O O1 0.690445 0.416966 0.191454
O O2 0.484746 0.273283 0.207763
O O3 0.340654 0.797799 0.461020
O O4 0.612854 0.208810 0.074130
O O5 0.308945 0.436407 0.434319
O O6 0.353632 0.616251 0.173028
O O7 0.272817 0.196213 0.343746
O O8 0.623541 0.860445 0.050379
O O9 0.976470 0.839013 0.257868
O O10 0.913412 0.589200 0.157822
O O11 0.993793 0.566153 0.296700
O O12 0.055662 0.152694 0.302435
O O13 0.951359 0.091909 0.177126
O O14 0.832446 0.418481 0.756591
O O15 0.201469 0.863774 0.300829
O O16 0.000000 0.000000 0.000000
O O17 0.500000 0.500000 0.000000
#
# Coordination Sequence:
#
# PCOD8017261 Si02
#       8
#     2   2   2   2   2   2   2   2
#     4  11  22  41  69  93 127 168 212 254 320 376
#     4  11  22  40  61  88 133 171 202 254 317 380
#     4  11  24  42  66  94 125 167 217 264 308 370
#     4  10  23  41  65  89 124 172 216 251 320 371
#     4  11  22  40  60  95 132 169 204 258 313 385
#     4  11  24  38  63  97 134 162 211 258 314 371
#     4   9  22  43  70  90 120 164 220 266 309 371
#     4  10  22  38  64  94 130 165 209 253 311 376
#
# _framework density 21.621707000000001
#
# number of rings (size 3 to 8) (size 9 to 14) (size 15 to 20)
#    0.000    1.500    2.500    2.625   12.250    0.500 
#    0.000    3.125    2.750    0.000    0.000    0.000 
#    0.000    0.000    0.000    0.000    0.000    0.000 
#
# Total GULP energy -198347.372844 kJ/mol
# GULP energy per Si atom -12396.710803 kJ/mol
# Density = 2.157250 g / cm^3
# Si number density = 21.621707 Si / 1000 Ang^3
#
#
#
# Elastic Constant Matrix: (Units=GPa)
#
#
# Indices 1 2 3 4 5 6 
#
# 1 106.6410 52.1326 0.5638 7.6039 -2.5945 2.9808
# 2 52.1326 95.3101 21.8686 -5.1743 -3.7279 4.0392
# 3 0.5638 21.8686 73.6771 2.3806 -6.0391 9.5844
# 4 7.6039 -5.1743 2.3806 33.2310 2.4100 -1.9347
# 5 -2.5945 -3.7279 -6.0391 2.4100 26.5910 -1.3734
# 6 2.9808 4.0392 9.5844 -1.9347 -1.3734 37.7667
#
#
#
# Elastic Compliance Matrix: (Units=1/GPa)
#
#
# Indices 1 2 3 4 5 6 
#
# 1 0.013871 -0.008394 0.002783 -0.004831 0.001189 -0.001107
# 2 -0.008394 0.016486 -0.005048 0.004880 -0.000075 0.000428
# 3 0.002783 -0.005048 0.015902 -0.003017 0.003255 -0.003752
# 4 -0.004831 0.004880 -0.003017 0.032540 -0.003309 0.002172
# 5 0.001189 -0.000075 0.003255 -0.003309 0.038769 0.000328
# 6 -0.001107 0.000428 -0.003752 0.002172 0.000328 0.027595
#
#
# Mechanical properties :
#
#
# Convention : Reuss Voigt Hill
#
# Bulk Modulus (GPa) = 40.09755 47.19537 43.64646
# Shear Modulus (GPa) = 28.60496 32.92194 30.76345
#
# Velocity S-wave (km/s) = 3.64122 3.90633 3.77610
# Velocity P-wave (km/s) = 6.02190 6.49777 6.26435
#
# Compressibility (1/GPa) = 0.02493918
#
# Stress axis : x y z
#
# Youngs Moduli (GPa) = 72.09529 60.65836 62.88435
#
# Poissons Ratio (x) = 0.50918 -0.17501
# Poissons Ratio (y) = 0.60519 0.31747
# Poissons Ratio (z) = -0.20065 0.30623
#
# Static dielectric constant tensor:
#      x y z
#    x 5.575210 -2.532340 0.569120 
#    y -2.532340 7.958520 -0.338400 
#    z 0.569120 -0.338400 4.247680 
# 
# 
# High freq. dielectric constant tensor:
#      x y z
#    x 1.824120 -0.004080 0.007810 
#    y -0.004080 1.849020 -0.005140 
#    z 0.007810 -0.005140 1.861150 
# 
# From -- ./inp_files/342581.got.cif
#   From: 2010.06.25/outbox.cif.g09.slc.cpg/sg2_172_cif.got.tgz:342581.got - 2010.06.27 13:26:56.
