data_PCOD8017530
_publ_section_title
;
Structure prediction by ZEFSAII (Michael W. Deem and Ramdas Pophale) SiO2 
 PCOD8017530
Probable space group: P -1
;
_chemical_formula_sum "Si O2"
_cell_formula_units_Z 16
_cell_length_a 12.767882
_cell_length_b 9.274633
_cell_length_c 9.170459
_cell_angle_alpha 133.129295
_cell_angle_beta 74.078630
_cell_angle_gamma 110.118672
_cell_volume 742.959303
_symmetry_space_group_name_H-M "P -1"
_symmetry_group_IT_number 2
_symmetry_cell_setting 'triclinic'
loop_
_space_group_symop_operation_xyz
x,y,z
-x,-y,-z
loop_
_atom_site_type_symbol
_atom_site_label
_atom_site_fract_x
_atom_site_fract_y
_atom_site_fract_z
Si Si1 0.527210 0.933117 0.605534
Si Si2 0.517681 0.524760 0.239683
Si Si3 0.712994 0.450402 0.271281
Si Si4 0.046401 0.845211 0.273391
Si Si5 0.336344 0.977876 0.898675
Si Si6 0.720209 0.891216 0.685890
Si Si7 0.322861 0.318149 0.969946
Si Si8 0.864694 0.529098 0.988468
O O1 0.482894 0.689978 0.473222
O O2 0.461393 0.031071 0.819230
O O3 0.659116 0.980298 0.634688
O O4 0.500000 0.000000 0.500000
O O5 0.589201 0.387831 0.201815
O O6 0.405253 0.403562 0.129445
O O7 0.604218 0.667678 0.193738
O O8 0.722183 0.260426 0.238213
O O9 0.726027 0.657774 0.500042
O O10 0.809319 0.475560 0.131047
O O11 0.078559 0.652945 0.212801
O O12 0.156349 0.974408 0.244347
O O13 0.000000 0.000000 0.500000
O O14 0.954771 0.743779 0.117752
O O15 0.347030 0.087908 0.127170
O O16 0.268064 0.087577 0.883506
O O17 0.226447 0.442552 0.076309
#
# Coordination Sequence:
#
# PCOD8017530 Si02
#       8
#     2   2   2   2   2   2   2   2
#     4  11  24  39  61  97 136 174 217 256 320 398
#     4   9  21  38  60  91 132 174 217 256 309 395
#     4  10  22  40  64  94 134 167 219 266 315 392
#     4  11  22  41  74  94 121 172 229 270 326 380
#     4  12  25  39  66  98 137 178 207 265 335 387
#     4  11  25  41  63 100 131 170 222 272 320 389
#     4  10  22  39  61  94 135 168 213 267 325 381
#     4  10  22  43  67  99 123 167 224 276 317 391
#
# _framework density 21.535499000000002
#
# number of rings (size 3 to 8) (size 9 to 14) (size 15 to 20)
#    0.000    1.500    3.750    0.375    7.000    1.000 
#    0.000    0.625    0.000    1.500    0.000    0.000 
#    0.000    0.000    0.000    0.000    0.000    0.000 
#
# Total GULP energy -198236.842840 kJ/mol
# GULP energy per Si atom -12389.802678 kJ/mol
# Density = 2.148648 g / cm^3
# Si number density = 21.535499 Si / 1000 Ang^3
#
#
#
# Elastic Constant Matrix: (Units=GPa)
#
#
# Indices 1 2 3 4 5 6 
#
# 1 112.6089 46.4277 42.4246 10.0223 -3.3021 -0.8063
# 2 46.4277 122.3508 37.4366 13.4886 -0.6007 -11.4312
# 3 42.4246 37.4366 122.0470 16.4221 -16.8900 -2.7208
# 4 10.0223 13.4886 16.4221 35.8653 -0.7292 -5.1290
# 5 -3.3021 -0.6007 -16.8900 -0.7292 26.9598 8.8333
# 6 -0.8063 -11.4312 -2.7208 -5.1290 8.8333 23.6159
#
#
#
# Elastic Compliance Matrix: (Units=1/GPa)
#
#
# Indices 1 2 3 4 5 6 
#
# 1 0.011478 -0.003585 -0.002793 -0.000851 0.000181 -0.001918
# 2 -0.003585 0.010919 -0.002301 -0.001269 -0.003631 0.005980
# 3 -0.002793 -0.002301 0.011406 -0.003944 0.007855 -0.003690
# 4 -0.000851 -0.001269 -0.003944 0.031357 -0.004134 0.007259
# 5 0.000181 -0.003631 0.007855 -0.004134 0.048338 -0.019825
# 6 -0.001918 0.005980 -0.003690 0.007259 -0.019825 0.053740
#
#
# Mechanical properties :
#
#
# Convention : Reuss Voigt Hill
#
# Bulk Modulus (GPa) = 60.81688 67.73163 64.27426
# Shear Modulus (GPa) = 26.30482 32.66938 29.48710
#
# Velocity S-wave (km/s) = 3.49874 3.89910 3.70433
# Velocity P-wave (km/s) = 6.68005 7.19653 6.94310
#
# Compressibility (1/GPa) = 0.01644280
#
# Stress axis : x y z
#
# Youngs Moduli (GPa) = 87.12180 91.58558 87.67375
#
# Poissons Ratio (x) = 0.32837 0.24490
# Poissons Ratio (y) = 0.31237 0.20176
# Poissons Ratio (z) = 0.24336 0.21077
#
# Static dielectric constant tensor:
#      x y z
#    x 3.953600 -0.120970 -0.210520 
#    y -0.120970 3.936510 0.223730 
#    z -0.210520 0.223730 3.983470 
# 
# 
# High freq. dielectric constant tensor:
#      x y z
#    x 1.830120 -0.006500 -0.016970 
#    y -0.006500 1.838420 0.023800 
#    z -0.016970 0.023800 1.850650 
# 
# From -- ./inp_files/245872.got.cif
#   From: 2010.06.25/outbox.cif.g09.slc.cpg/sg2_123_cif.got.tgz:245872.got - 2010.06.27 13:26:56.
