data_PCOD8017529
_publ_section_title
;
Structure prediction by ZEFSAII (Michael W. Deem and Ramdas Pophale) SiO2 
 PCOD8017529
Probable space group: P -1
;
_chemical_formula_sum "Si O2"
_cell_formula_units_Z 12
_cell_length_a 11.469934
_cell_length_b 13.833289
_cell_length_c 17.481876
_cell_angle_alpha 34.280064
_cell_angle_beta 147.360473
_cell_angle_gamma 159.127107
_cell_volume 521.668659
_symmetry_space_group_name_H-M "P -1"
_symmetry_group_IT_number 2
_symmetry_cell_setting 'triclinic'
loop_
_space_group_symop_operation_xyz
x,y,z
-x,-y,-z
loop_
_atom_site_type_symbol
_atom_site_label
_atom_site_fract_x
_atom_site_fract_y
_atom_site_fract_z
Si Si1 0.381714 0.735882 0.589580
Si Si2 0.264837 0.502197 0.401306
Si Si3 0.619685 0.614561 0.907194
Si Si4 0.416601 0.212479 0.937818
Si Si5 0.442455 0.404791 0.347581
Si Si6 0.778469 0.119387 0.253365
O O1 0.398149 0.641365 0.739505
O O2 0.618161 0.779060 0.630120
O O3 0.000000 0.500000 0.500000
O O4 0.500000 0.000000 0.500000
O O5 0.500000 0.500000 0.500000
O O6 0.245815 0.460200 0.510326
O O7 0.896608 0.262305 0.309519
O O8 0.435243 0.792460 0.289181
O O9 0.525758 0.390398 0.953906
O O10 0.500000 0.500000 0.000000
O O11 0.025852 0.906245 0.933566
O O12 0.450968 0.344904 0.792761
O O13 0.675465 0.210505 0.080097
O O14 0.080268 0.195202 0.330508
#
# Coordination Sequence:
#
# PCOD8017529 Si02
#       6
#     2   2   2   2   2   2
#     4  11  25  43  65  94 123 169 221 262 317 377
#     4  10  22  39  61  94 133 172 210 255 313 380
#     4  11  25  46  65  92 130 167 215 274 318 374
#     4  11  24  42  67  97 127 170 215 259 325 388
#     4  10  23  43  66  95 136 169 209 273 319 379
#     4  11  23  41  66 100 133 171 212 257 324 392
#
# _framework density 23.003105999999999
#
# number of rings (size 3 to 8) (size 9 to 14) (size 15 to 20)
#    0.000    1.333    0.000    6.000    0.000   16.000 
#    0.000    8.333    0.000    0.000    0.000    0.000 
#    0.000    0.000    0.000    0.000    0.000    0.000 
#
# Total GULP energy -148797.049466 kJ/mol
# GULP energy per Si atom -12399.754122 kJ/mol
# Density = 2.295075 g / cm^3
# Si number density = 23.003106 Si / 1000 Ang^3
#
#
#
# Elastic Constant Matrix: (Units=GPa)
#
#
# Indices 1 2 3 4 5 6 
#
# 1 87.5815 36.5833 57.6105 -11.1462 -16.5632 -17.8318
# 2 36.5833 135.5683 36.1028 -2.9734 4.2193 -31.6326
# 3 57.6105 36.1028 173.6206 -4.2300 -6.3812 -14.6351
# 4 -11.1462 -2.9734 -4.2300 41.3480 -1.3746 6.1568
# 5 -16.5632 4.2193 -6.3812 -1.3746 43.0956 -5.6711
# 6 -17.8318 -31.6326 -14.6351 6.1568 -5.6711 32.4415
#
#
#
# Elastic Compliance Matrix: (Units=1/GPa)
#
#
# Indices 1 2 3 4 5 6 
#
# 1 0.018875 -0.002463 -0.004833 0.003715 0.007746 0.006442
# 2 -0.002463 0.010163 -0.000661 -0.001273 -0.000984 0.008327
# 3 -0.004833 -0.000661 0.007465 -0.000619 -0.000699 0.000062
# 4 0.003715 -0.001273 -0.000619 0.025693 0.001747 -0.004050
# 5 0.007746 -0.000984 -0.000699 0.001747 0.027205 0.007407
# 6 0.006442 0.008327 0.000062 -0.004050 0.007407 0.044576
#
#
# Mechanical properties :
#
#
# Convention : Reuss Voigt Hill
#
# Bulk Modulus (GPa) = 48.56917 73.04040 60.80478
# Shear Modulus (GPa) = 31.89727 41.14194 36.51961
#
# Velocity S-wave (km/s) = 3.72782 4.23370 3.98879
# Velocity P-wave (km/s) = 6.29991 7.46460 6.90685
#
# Compressibility (1/GPa) = 0.02058919
#
# Stress axis : x y z
#
# Youngs Moduli (GPa) = 52.98017 98.39901 133.95452
#
# Poissons Ratio (x) = 0.24234 0.64736
# Poissons Ratio (y) = 0.13048 0.08859
# Poissons Ratio (z) = 0.25604 0.06507
#
# Static dielectric constant tensor:
#      x y z
#    x 4.446530 -0.382260 -0.280920 
#    y -0.382260 4.201260 0.199390 
#    z -0.280920 0.199390 4.797700 
# 
# 
# High freq. dielectric constant tensor:
#      x y z
#    x 1.900880 -0.020910 -0.005680 
#    y -0.020910 1.909350 -0.000540 
#    z -0.005680 -0.000540 1.932760 
# 
# From -- ./inp_files/465999.got.cif
#   From: 2010.06.25/outbox.cif.g09.slc.cpg/sg2_233_cif.got.tgz:465999.got - 2010.06.27 13:26:56.
