data_PCOD8017239
_publ_section_title
;
Structure prediction by ZEFSAII (Michael W. Deem and Ramdas Pophale) SiO2 
 PCOD8017239
Probable space group: P -1
;
_chemical_formula_sum "Si O2"
_cell_formula_units_Z 14
_cell_length_a 19.969961
_cell_length_b 5.190567
_cell_length_c 16.271066
_cell_angle_alpha 113.690422
_cell_angle_beta 25.191581
_cell_angle_gamma 110.743980
_cell_volume 657.201087
_symmetry_space_group_name_H-M "P -1"
_symmetry_group_IT_number 2
_symmetry_cell_setting 'triclinic'
loop_
_space_group_symop_operation_xyz
x,y,z
-x,-y,-z
loop_
_atom_site_type_symbol
_atom_site_label
_atom_site_fract_x
_atom_site_fract_y
_atom_site_fract_z
Si Si1 0.410198 0.793607 0.130852
Si Si2 0.799185 0.252118 0.210994
Si Si3 0.091930 0.377241 0.004099
Si Si4 0.099475 0.716161 0.367717
Si Si5 0.761967 0.418146 0.977564
Si Si6 0.547247 0.279379 0.620029
Si Si7 0.462493 0.109534 0.274283
O O1 0.240097 0.774104 0.279774
O O2 0.399229 0.910119 0.249258
O O3 0.500000 0.500000 0.000000
O O4 0.500000 0.000000 0.000000
O O5 0.796024 0.469175 0.166505
O O6 0.622535 0.223092 0.439482
O O7 0.856243 0.944968 0.078927
O O8 0.912419 0.378343 0.172061
O O9 0.103727 0.558901 0.098730
O O10 0.157636 0.574058 0.199828
O O11 0.000000 0.500000 0.500000
O O12 0.000000 0.000000 0.500000
O O13 0.643307 0.686782 0.163044
O O14 0.654875 0.137038 0.064543
O O15 0.615537 0.580464 0.612447
O O16 0.597181 0.023876 0.591402
#
# Coordination Sequence:
#
# PCOD8017239 Si02
#       7
#     2   2   2   2   2   2   2
#     4  12  22  43  71  90 130 175 223 272 327 397
#     4  10  22  42  59  98 120 170 210 250 326 390
#     4  10  23  39  66  86 134 162 202 264 322 393
#     4  12  28  44  66 101 136 171 224 281 340 398
#     4  10  25  42  64  92 128 167 217 267 332 373
#     4  10  22  39  66  90 131 155 225 260 310 390
#     4  10  22  38  63  95 119 169 213 265 312 384
#
# _framework density 21.30246
#
# number of rings (size 3 to 8) (size 9 to 14) (size 15 to 20)
#    0.857    0.571    1.429    3.429    4.000    3.429 
#    0.000    0.000    0.000    0.000    0.000    0.000 
#    0.000    0.000    0.000    0.000    0.000    0.000 
#
# Total GULP energy -173495.386557 kJ/mol
# GULP energy per Si atom -12392.527611 kJ/mol
# Density = 2.125397 g / cm^3
# Si number density = 21.302460 Si / 1000 Ang^3
#
#
#
# Elastic Constant Matrix: (Units=GPa)
#
#
# Indices 1 2 3 4 5 6 
#
# 1 119.8182 45.0244 27.8947 -17.4952 -2.8673 20.5998
# 2 45.0244 112.4216 27.6901 -23.3671 -4.5781 -17.2997
# 3 27.8947 27.6901 100.7890 -17.6821 6.8042 -3.7390
# 4 -17.4952 -23.3671 -17.6821 33.6102 -10.1467 5.3471
# 5 -2.8673 -4.5781 6.8042 -10.1467 35.9238 -3.7565
# 6 20.5998 -17.2997 -3.7390 5.3471 -3.7565 44.4586
#
#
#
# Elastic Compliance Matrix: (Units=1/GPa)
#
#
# Indices 1 2 3 4 5 6 
#
# 1 0.012703 -0.005129 -0.001831 0.003682 0.000868 -0.008405
# 2 -0.005129 0.013884 -0.001282 0.006414 0.004173 0.007253
# 3 -0.001831 -0.001282 0.011550 0.003696 -0.001374 0.000760
# 4 0.003682 0.006414 0.003696 0.042171 0.012013 -0.002956
# 5 0.000868 0.004173 -0.001374 0.012013 0.032341 0.002394
# 6 -0.008405 0.007253 0.000760 -0.002956 0.002394 0.029831
#
#
# Mechanical properties :
#
#
# Convention : Reuss Voigt Hill
#
# Bulk Modulus (GPa) = 46.18362 59.36077 52.77219
# Shear Modulus (GPa) = 30.08709 38.29317 34.19013
#
# Velocity S-wave (km/s) = 3.76224 4.24440 4.01057
# Velocity P-wave (km/s) = 6.37178 7.20737 6.80242
#
# Compressibility (1/GPa) = 0.02165270
#
# Stress axis : x y z
#
# Youngs Moduli (GPa) = 78.71972 72.02327 86.57899
#
# Poissons Ratio (x) = 0.36943 0.15853
# Poissons Ratio (y) = 0.40378 0.11102
# Poissons Ratio (z) = 0.14414 0.09235
#
# Static dielectric constant tensor:
#      x y z
#    x 3.853460 -0.034350 -0.026850 
#    y -0.034350 3.874550 -0.098690 
#    z -0.026850 -0.098690 3.743440 
# 
# 
# High freq. dielectric constant tensor:
#      x y z
#    x 1.833700 -0.001670 0.008590 
#    y -0.001670 1.847310 -0.010240 
#    z 0.008590 -0.010240 1.822720 
# 
# From -- ./inp_files/536394.got.cif
#   From: 2010.06.25/outbox.cif.g09.slc.cpg/sg2_269_cif.got.tgz:536394.got - 2010.06.27 13:26:56.
