data_PCOD8017084
_publ_section_title
;
Structure prediction by ZEFSAII (Michael W. Deem and Ramdas Pophale) SiO2 
 PCOD8017084
Probable space group: P -1
;
_chemical_formula_sum "Si O2"
_cell_formula_units_Z 16
_cell_length_a 5.433827
_cell_length_b 11.743626
_cell_length_c 15.733550
_cell_angle_alpha 44.998602
_cell_angle_beta 72.927168
_cell_angle_gamma 79.909248
_cell_volume 677.855242
_symmetry_space_group_name_H-M "P -1"
_symmetry_group_IT_number 2
_symmetry_cell_setting 'triclinic'
loop_
_space_group_symop_operation_xyz
x,y,z
-x,-y,-z
loop_
_atom_site_type_symbol
_atom_site_label
_atom_site_fract_x
_atom_site_fract_y
_atom_site_fract_z
Si Si1 0.734076 0.162651 0.720306
Si Si2 0.969320 0.940178 0.939092
Si Si3 0.417251 0.961784 0.744120
Si Si4 0.348275 0.613654 0.895245
Si Si5 0.134851 0.488583 0.282549
Si Si6 0.550527 0.566223 0.328272
Si Si7 0.051289 0.410530 0.915513
Si Si8 0.777958 0.735777 0.469062
O O1 0.492803 0.277355 0.692376
O O2 0.985544 0.277801 0.613496
O O3 0.765514 0.055679 0.857389
O O4 0.685221 0.040648 0.710640
O O5 0.232842 0.945589 0.854494
O O6 0.858019 0.753616 0.050940
O O7 0.000000 0.000000 0.000000
O O8 0.478063 0.793873 0.780535
O O9 0.311455 0.081508 0.620080
O O10 0.296065 0.534618 0.848426
O O11 0.500000 0.500000 0.000000
O O12 0.074233 0.638948 0.955552
O O13 0.852833 0.562658 0.283111
O O14 0.153962 0.495282 0.173887
O O15 0.369717 0.593842 0.247322
O O16 0.134814 0.309575 0.419030
O O17 0.443572 0.396365 0.470790
#
# Coordination Sequence:
#
# PCOD8017084 Si02
#       8
#     2   2   2   2   2   2   2   2
#     4  11  21  36  59  88 127 170 211 262 311 381
#     4  10  22  38  57  91 129 163 207 260 325 379
#     4  10  22  38  61  91 123 164 215 262 317 376
#     4  10  22  41  66  91 119 169 219 263 318 376
#     4  10  23  40  62  94 127 167 212 262 316 381
#     4  10  23  37  62  92 131 173 210 253 317 386
#     4  10  22  41  64  88 128 165 215 263 319 381
#     4   9  22  38  60  87 129 163 216 259 315 380
#
# _framework density 23.603859
#
# number of rings (size 3 to 8) (size 9 to 14) (size 15 to 20)
#    0.750    1.250    0.000    2.625    7.000    2.500 
#    0.000    0.625    0.000    2.250    0.000    0.000 
#    0.000    0.000    0.000    0.000    0.000    0.000 
#
# Total GULP energy -198221.237292 kJ/mol
# GULP energy per Si atom -12388.827331 kJ/mol
# Density = 2.355014 g / cm^3
# Si number density = 23.603859 Si / 1000 Ang^3
#
#
#
# Elastic Constant Matrix: (Units=GPa)
#
#
# Indices 1 2 3 4 5 6 
#
# 1 61.3492 17.5931 9.2709 -6.5052 13.2748 13.0764
# 2 17.5931 117.1134 48.5712 -26.8188 3.4888 28.7994
# 3 9.2709 48.5712 138.5501 -12.9961 26.3135 12.0680
# 4 -6.5052 -26.8188 -12.9961 40.3469 3.4883 0.7572
# 5 13.2748 3.4888 26.3135 3.4883 34.6435 2.1655
# 6 13.0764 28.7994 12.0680 0.7572 2.1655 32.2301
#
#
#
# Elastic Compliance Matrix: (Units=1/GPa)
#
#
# Indices 1 2 3 4 5 6 
#
# 1 0.020266 -0.000511 0.001604 0.004360 -0.008879 -0.007872
# 2 -0.000511 0.015135 -0.003609 0.008935 0.001279 -0.012262
# 3 0.001604 -0.003609 0.010150 0.001843 -0.008101 -0.000726
# 4 0.004360 0.008935 0.001843 0.032794 -0.006599 -0.010771
# 5 -0.008879 0.001279 -0.008101 -0.006599 0.038766 0.003043
# 6 -0.007872 -0.012262 -0.000726 -0.010771 0.003043 0.045498
#
#
# Mechanical properties :
#
#
# Convention : Reuss Voigt Hill
#
# Bulk Modulus (GPa) = 24.67883 51.98701 38.33292
# Shear Modulus (GPa) = 27.60189 37.54928 32.57559
#
# Velocity S-wave (km/s) = 3.42333 3.99282 3.71899
# Velocity P-wave (km/s) = 5.10918 6.58251 5.89208
#
# Compressibility (1/GPa) = 0.04052056
#
# Stress axis : x y z
#
# Youngs Moduli (GPa) = 49.34419 66.06984 98.52222
#
# Poissons Ratio (x) = 0.03375 -0.15803
# Poissons Ratio (y) = 0.02521 0.35553
# Poissons Ratio (z) = -0.07915 0.23842
#
# Static dielectric constant tensor:
#      x y z
#    x 4.143320 0.184760 -0.014440 
#    y 0.184760 4.223090 -0.004080 
#    z -0.014440 -0.004080 4.511250 
# 
# 
# High freq. dielectric constant tensor:
#      x y z
#    x 1.932500 0.013320 0.007780 
#    y 0.013320 1.904790 -0.007180 
#    z 0.007780 -0.007180 1.942380 
# 
# From -- ./inp_files/549046.got.cif
#   From: 2010.06.25/outbox.cif.g09.slc.cpg/sg2_275_cif.got.tgz:549046.got - 2010.06.27 13:26:56.
