data_PCOD8017194
_publ_section_title
;
Structure prediction by ZEFSAII (Michael W. Deem and Ramdas Pophale) SiO2 
 PCOD8017194
Probable space group: P -1
;
_chemical_formula_sum "Si O2"
_cell_formula_units_Z 14
_cell_length_a 9.456364
_cell_length_b 8.989402
_cell_length_c 11.104475
_cell_angle_alpha 86.194910
_cell_angle_beta 98.332335
_cell_angle_gamma 137.755969
_cell_volume 626.725874
_symmetry_space_group_name_H-M "P -1"
_symmetry_group_IT_number 2
_symmetry_cell_setting 'triclinic'
loop_
_space_group_symop_operation_xyz
x,y,z
-x,-y,-z
loop_
_atom_site_type_symbol
_atom_site_label
_atom_site_fract_x
_atom_site_fract_y
_atom_site_fract_z
Si Si1 0.918665 0.190833 0.976469
Si Si2 0.595592 0.223569 0.611652
Si Si3 0.250518 0.194243 0.534821
Si Si4 0.340934 0.751533 0.648707
Si Si5 0.969302 0.519249 0.803800
Si Si6 0.535918 0.593656 0.692658
Si Si7 0.296216 0.273174 0.045705
O O1 0.941710 0.289822 0.102841
O O2 0.104770 0.218037 0.966307
O O3 0.913150 0.316471 0.869006
O O4 0.718166 0.919473 0.966734
O O5 0.368600 0.127412 0.564642
O O6 0.725799 0.312818 0.497148
O O7 0.754448 0.418296 0.719630
O O8 0.529183 0.015615 0.669835
O O9 0.316139 0.332740 0.657447
O O10 0.330861 0.335233 0.415572
O O11 0.000000 0.000000 0.500000
O O12 0.460759 0.699002 0.711619
O O13 0.140526 0.629092 0.714217
O O14 0.688541 0.665688 0.816217
O O15 0.500000 0.500000 0.000000
#
# Coordination Sequence:
#
# PCOD8017194 Si02
#       7
#     2   2   2   2   2   2   2
#     4  10  25  40  63  95 121 164 216 254 302 371
#     4  10  22  39  62  94 125 163 208 248 308 382
#     4  10  23  40  62  91 123 157 199 255 311 363
#     4  10  22  38  62  92 123 165 204 251 311 367
#     4  11  22  42  63  91 132 164 204 260 309 363
#     4  10  22  40  62  91 122 159 206 249 303 375
#     4  11  23  43  64  89 125 165 210 259 308 359
#
# _framework density 22.338314
#
# number of rings (size 3 to 8) (size 9 to 14) (size 15 to 20)
#    0.000    1.714    0.000    3.000    0.000   13.714 
#    0.000    3.571    0.000    0.000    0.000    0.000 
#    0.000    0.000    0.000    0.000    0.000    0.000 
#
# Total GULP energy -173436.158891 kJ/mol
# GULP energy per Si atom -12388.297064 kJ/mol
# Density = 2.228747 g / cm^3
# Si number density = 22.338314 Si / 1000 Ang^3
#
#
#
# Elastic Constant Matrix: (Units=GPa)
#
#
# Indices 1 2 3 4 5 6 
#
# 1 80.8859 44.6803 30.5146 0.0282 -10.6037 4.3548
# 2 44.6803 132.2386 61.7718 14.8505 -7.5683 -8.0687
# 3 30.5146 61.7718 104.7584 23.6354 -10.3587 -0.5982
# 4 0.0282 14.8505 23.6354 32.5175 4.5602 4.2023
# 5 -10.6037 -7.5683 -10.3587 4.5602 22.6924 4.0903
# 6 4.3548 -8.0687 -0.5982 4.2023 4.0903 40.2243
#
#
#
# Elastic Compliance Matrix: (Units=1/GPa)
#
#
# Indices 1 2 3 4 5 6 
#
# 1 0.016853 -0.004955 -0.002348 0.003728 0.005079 -0.003759
# 2 -0.004955 0.012077 -0.005312 -0.001935 -0.000895 0.003173
# 3 -0.002348 -0.005312 0.016370 -0.010392 0.006722 -0.000166
# 4 0.003728 -0.001935 -0.010392 0.041290 -0.011202 -0.004121
# 5 0.005079 -0.000895 0.006722 -0.011202 0.052324 -0.004780
# 6 -0.003759 0.003173 -0.000166 -0.004121 -0.004780 0.026818
#
#
# Mechanical properties :
#
#
# Convention : Reuss Voigt Hill
#
# Bulk Modulus (GPa) = 49.82287 65.75738 57.79013
# Shear Modulus (GPa) = 25.29700 31.14790 28.22245
#
# Velocity S-wave (km/s) = 3.36884 3.73818 3.55830
# Velocity P-wave (km/s) = 6.12244 6.93779 6.54283
#
# Compressibility (1/GPa) = 0.02007110
#
# Stress axis : x y z
#
# Youngs Moduli (GPa) = 59.33759 82.80013 61.08602
#
# Poissons Ratio (x) = 0.41026 0.14341
# Poissons Ratio (y) = 0.29401 0.32450
# Poissons Ratio (z) = 0.13930 0.43984
#
# Static dielectric constant tensor:
#      x y z
#    x 3.807880 -0.207360 0.133580 
#    y -0.207360 4.345020 0.202450 
#    z 0.133580 0.202450 4.215170 
# 
# 
# High freq. dielectric constant tensor:
#      x y z
#    x 1.874410 -0.013830 0.008830 
#    y -0.013830 1.884230 0.008710 
#    z 0.008830 0.008710 1.887230 
# 
# From -- ./inp_files/382048.got.cif
#   From: 2010.06.25/outbox.cif.g09.slc.cpg/sg2_192_cif.got.tgz:382048.got - 2010.06.27 13:26:56.
