data_PCOD8017199
_publ_section_title
;
Structure prediction by ZEFSAII (Michael W. Deem and Ramdas Pophale) SiO2 
 PCOD8017199
Probable space group: P -1
;
_chemical_formula_sum "Si O2"
_cell_formula_units_Z 14
_cell_length_a 9.059887
_cell_length_b 14.229997
_cell_length_c 13.024260
_cell_angle_alpha 30.248059
_cell_angle_beta 122.535172
_cell_angle_gamma 128.698454
_cell_volume 660.126856
_symmetry_space_group_name_H-M "P -1"
_symmetry_group_IT_number 2
_symmetry_cell_setting 'triclinic'
loop_
_space_group_symop_operation_xyz
x,y,z
-x,-y,-z
loop_
_atom_site_type_symbol
_atom_site_label
_atom_site_fract_x
_atom_site_fract_y
_atom_site_fract_z
Si Si1 0.279908 0.764264 0.879984
Si Si2 0.399130 0.049222 0.013649
Si Si3 0.155040 0.007501 0.467072
Si Si4 0.792375 0.333874 0.565851
Si Si5 0.070789 0.662459 0.597241
Si Si6 0.139308 0.398075 0.036108
Si Si7 0.315749 0.410920 0.582062
O O1 0.439127 0.818158 0.973693
O O2 0.279280 0.572965 0.995830
O O3 0.318266 0.959740 0.635347
O O4 0.073469 0.702134 0.909099
O O5 0.250205 0.852413 0.196811
O O6 0.276483 0.179925 0.812614
O O7 0.500000 0.000000 0.000000
O O8 0.074442 0.835205 0.514091
O O9 0.227451 0.223821 0.232077
O O10 0.000000 0.000000 0.500000
O O11 0.778132 0.254910 0.517724
O O12 0.653469 0.450014 0.434793
O O13 0.000000 0.500000 0.500000
O O14 0.126312 0.488106 0.834863
O O15 0.856571 0.569472 0.564414
O O16 0.500000 0.500000 0.500000
#
# Coordination Sequence:
#
# PCOD8017199 Si02
#       7
#     2   2   2   2   2   2   2
#     4   9  20  36  56  94 125 156 220 264 309 377
#     4  12  25  40  66  96 130 172 216 273 321 383
#     4   9  19  34  62  92 120 168 212 261 314 376
#     4  10  25  44  60  94 137 172 216 266 324 390
#     4  10  22  38  62  93 129 164 215 265 318 386
#     4   9  18  36  62  88 125 168 205 266 317 374
#     4  11  23  39  64  95 127 172 215 263 324 382
#
# _framework density 21.208044999999998
#
# number of rings (size 3 to 8) (size 9 to 14) (size 15 to 20)
#    0.000    2.000    1.429    1.714    6.000    4.571 
#    0.000    2.857    0.000    5.143    0.000    0.000 
#    0.000    0.000    0.000    0.000    0.000    0.000 
#
# Total GULP energy -173478.196688 kJ/mol
# GULP energy per Si atom -12391.299763 kJ/mol
# Density = 2.115977 g / cm^3
# Si number density = 21.208045 Si / 1000 Ang^3
#
#
#
# Elastic Constant Matrix: (Units=GPa)
#
#
# Indices 1 2 3 4 5 6 
#
# 1 104.8407 32.8740 47.7047 -1.7541 -14.8330 -31.5023
# 2 32.8740 91.1066 40.5705 7.6699 -6.2639 -9.5207
# 3 47.7047 40.5705 184.3554 -14.2998 -1.7534 -15.4673
# 4 -1.7541 7.6699 -14.2998 32.5104 -6.7085 0.8213
# 5 -14.8330 -6.2639 -1.7534 -6.7085 32.2235 1.1150
# 6 -31.5023 -9.5207 -15.4673 0.8213 1.1150 35.0445
#
#
#
# Elastic Compliance Matrix: (Units=1/GPa)
#
#
# Indices 1 2 3 4 5 6 
#
# 1 0.016333 -0.003262 -0.002259 0.001720 0.006685 0.012546
# 2 -0.003262 0.013635 -0.002523 -0.004478 0.000088 -0.000239
# 3 -0.002259 -0.002523 0.006842 0.003381 -0.000462 0.000239
# 4 0.001720 -0.004478 0.003381 0.034892 0.007342 0.000770
# 5 0.006685 0.000088 -0.000462 0.007342 0.035474 0.004529
# 6 0.012546 -0.000239 0.000239 0.000770 0.004529 0.039692
#
#
# Mechanical properties :
#
#
# Convention : Reuss Voigt Hill
#
# Bulk Modulus (GPa) = 48.25692 69.17791 58.71742
# Shear Modulus (GPa) = 29.43543 37.23259 33.33401
#
# Velocity S-wave (km/s) = 3.72954 4.19452 3.96885
# Velocity P-wave (km/s) = 6.43035 7.49321 6.98204
#
# Compressibility (1/GPa) = 0.02072242
#
# Stress axis : x y z
#
# Youngs Moduli (GPa) = 61.22395 73.34241 146.15395
#
# Poissons Ratio (x) = 0.23921 0.33018
# Poissons Ratio (y) = 0.19969 0.36877
# Poissons Ratio (z) = 0.13831 0.18505
#
# Static dielectric constant tensor:
#      x y z
#    x 2.702300 0.074250 -1.038100 
#    y 0.074250 3.561330 0.539150 
#    z -1.038100 0.539150 3.662380 
# 
# 
# High freq. dielectric constant tensor:
#      x y z
#    x 1.813820 -0.025760 0.005020 
#    y -0.025760 1.822980 -0.000810 
#    z 0.005020 -0.000810 1.849560 
# 
# From -- ./inp_files/185513.got.cif
#   From: 2010.06.25/outbox.cif.g09.slc.cpg/sg2_93_cif.got.tgz:185513.got - 2010.06.27 13:26:56.
