data_PCOD8017922
_publ_section_title
;
Structure prediction by ZEFSAII (Michael W. Deem and Ramdas Pophale) SiO2 
 PCOD8017922
Probable space group: P -1
;
_chemical_formula_sum "Si O2"
_cell_formula_units_Z 16
_cell_length_a 8.505287
_cell_length_b 20.236090
_cell_length_c 25.587022
_cell_angle_alpha 161.911933
_cell_angle_beta 145.285835
_cell_angle_gamma 34.428487
_cell_volume 754.779384
_symmetry_space_group_name_H-M "P -1"
_symmetry_group_IT_number 2
_symmetry_cell_setting 'triclinic'
loop_
_space_group_symop_operation_xyz
x,y,z
-x,-y,-z
loop_
_atom_site_type_symbol
_atom_site_label
_atom_site_fract_x
_atom_site_fract_y
_atom_site_fract_z
Si Si1 0.108210 0.958662 0.266335
Si Si2 0.993035 0.677272 0.266331
Si Si3 0.531847 0.099756 0.425722
Si Si4 0.849605 0.745885 0.661174
Si Si5 0.192076 0.630280 0.944447
Si Si6 0.766052 0.926846 0.979498
Si Si7 0.828179 0.439831 0.955231
Si Si8 0.483977 0.256255 0.325234
O O1 0.185351 0.814683 0.232546
O O2 0.330460 0.110152 0.429834
O O3 0.143618 0.807199 0.110489
O O4 0.800326 0.109908 0.303453
O O5 0.311475 0.702213 0.381522
O O6 0.859898 0.605457 0.229197
O O7 0.785822 0.880458 0.332874
O O8 0.019905 0.472418 0.081382
O O9 0.346604 0.119386 0.337079
O O10 0.000000 0.500000 0.500000
O O11 0.657886 0.742519 0.656500
O O12 0.093524 0.868343 0.834457
O O13 0.513183 0.595925 0.986317
O O14 0.984815 0.715484 0.904049
O O15 0.684926 0.849557 0.843000
O O16 0.500000 0.000000 0.000000
O O17 0.000000 0.500000 0.000000
O O18 0.500000 0.500000 0.500000
#
# Coordination Sequence:
#
# PCOD8017922 Si02
#       8
#     2   2   2   2   2   2   2   2
#     4  11  21  43  71  92 137 177 223 288 342 415
#     4  10  22  39  68  97 131 175 221 272 342 418
#     4  11  21  42  67  97 129 175 227 275 347 406
#     4  12  27  46  73  98 140 185 234 294 350 412
#     4  11  21  44  71  97 137 179 227 280 349 422
#     4  12  24  46  75 102 136 188 235 285 360 417
#     4  11  23  41  66 103 136 178 228 282 348 418
#     4  12  28  47  66 105 140 182 240 293 341 420
#
# _framework density 21.198249000000001
#
# number of rings (size 3 to 8) (size 9 to 14) (size 15 to 20)
#    0.000    0.750    5.000    2.625    7.000    0.000 
#    4.500    0.625    0.000    0.000    0.000    0.000 
#    0.000    0.000    0.000    0.000    0.000    0.000 
#
# Total GULP energy -198335.186779 kJ/mol
# GULP energy per Si atom -12395.949174 kJ/mol
# Density = 2.115000 g / cm^3
# Si number density = 21.198249 Si / 1000 Ang^3
#
#
#
# Elastic Constant Matrix: (Units=GPa)
#
#
# Indices 1 2 3 4 5 6 
#
# 1 192.1391 67.9179 58.1708 4.5854 31.4324 -14.2445
# 2 67.9179 100.8786 46.5528 10.5371 -0.3782 -13.1106
# 3 58.1708 46.5528 108.0669 -5.4108 24.7227 -10.5144
# 4 4.5854 10.5371 -5.4108 32.9928 -3.1884 6.0852
# 5 31.4324 -0.3782 24.7227 -3.1884 37.7182 0.5235
# 6 -14.2445 -13.1106 -10.5144 6.0852 0.5235 37.8093
#
#
#
# Elastic Compliance Matrix: (Units=1/GPa)
#
#
# Indices 1 2 3 4 5 6 
#
# 1 0.008449 -0.005163 -0.000681 -0.000541 -0.006712 0.001383
# 2 -0.005163 0.017480 -0.006637 -0.005719 0.008302 0.003076
# 3 -0.000681 -0.006637 0.014806 0.003577 -0.008917 0.001107
# 4 -0.000541 -0.005719 0.003577 0.034133 0.001027 -0.006700
# 5 -0.006712 0.008302 -0.008917 0.001027 0.038159 -0.002823
# 6 0.001383 0.003076 0.001107 -0.006700 -0.002823 0.029462
#
#
# Mechanical properties :
#
#
# Convention : Reuss Voigt Hill
#
# Bulk Modulus (GPa) = 63.40102 82.92976 73.16539
# Shear Modulus (GPa) = 28.95034 36.93358 32.94196
#
# Velocity S-wave (km/s) = 3.69954 4.17861 3.94635
# Velocity P-wave (km/s) = 6.94423 7.90487 7.44007
#
# Compressibility (1/GPa) = 0.01577262
#
# Stress axis : x y z
#
# Youngs Moduli (GPa) = 118.35360 57.20749 67.54028
#
# Poissons Ratio (x) = 0.29537 0.04599
# Poissons Ratio (y) = 0.61109 0.44828
# Poissons Ratio (z) = 0.08060 0.37970
#
# Static dielectric constant tensor:
#      x y z
#    x 1.719340 1.197230 0.795320 
#    y 1.197230 4.151350 0.450840 
#    z 0.795320 0.450840 4.596950 
# 
# 
# High freq. dielectric constant tensor:
#      x y z
#    x 1.835110 -0.000320 0.031500 
#    y -0.000320 1.840970 0.005140 
#    z 0.031500 0.005140 1.830270 
# 
# From -- ./inp_files/617529.got.cif
#   From: 2010.06.25/outbox.cif.g09.slc.cpg/sg2_309_cif.got.tgz:617529.got - 2010.06.27 13:26:56.
