data_PCOD8017756
_publ_section_title
;
Structure prediction by ZEFSAII (Michael W. Deem and Ramdas Pophale) SiO2 
 PCOD8017756
Probable space group: P -1
;
_chemical_formula_sum "Si O2"
_cell_formula_units_Z 16
_cell_length_a 17.904558
_cell_length_b 20.880308
_cell_length_c 9.513376
_cell_angle_alpha 136.799428
_cell_angle_beta 51.484885
_cell_angle_gamma 161.698279
_cell_volume 723.643225
_symmetry_space_group_name_H-M "P -1"
_symmetry_group_IT_number 2
_symmetry_cell_setting 'triclinic'
loop_
_space_group_symop_operation_xyz
x,y,z
-x,-y,-z
loop_
_atom_site_type_symbol
_atom_site_label
_atom_site_fract_x
_atom_site_fract_y
_atom_site_fract_z
Si Si1 0.765260 0.138290 0.322811
Si Si2 0.650360 0.970355 0.647671
Si Si3 0.004761 0.860501 0.622572
Si Si4 0.241683 0.461541 0.362355
Si Si5 0.089772 0.788481 0.008333
Si Si6 0.323105 0.735477 0.409794
Si Si7 0.122053 0.207677 0.642277
Si Si8 0.495992 0.580517 0.026886
O O1 0.829902 0.306412 0.488603
O O2 0.996825 0.304200 0.400182
O O3 0.510944 0.896085 0.317292
O O4 0.719239 0.041734 0.075435
O O5 0.865068 0.119177 0.537654
O O6 0.489305 0.745820 0.562299
O O7 0.472781 0.872864 0.602459
O O8 0.787409 0.151642 0.902933
O O9 0.222946 0.125835 0.850698
O O10 0.862286 0.776045 0.519745
O O11 0.799905 0.656876 0.660243
O O12 0.294733 0.469404 0.155970
O O13 0.036995 0.847697 0.206546
O O14 0.850287 0.512599 0.793064
O O15 0.000000 0.000000 0.500000
O O16 0.398014 0.464246 0.800464
O O17 0.500000 0.500000 0.000000
#
# Coordination Sequence:
#
# PCOD8017756 Si02
#       8
#     2   2   2   2   2   2   2   2
#     4  11  23  41  68  96 131 167 217 268 317 382
#     4  10  22  39  65  92 127 169 211 261 313 379
#     4  10  22  41  63  90 129 168 208 262 323 374
#     4  11  22  42  65  94 129 172 213 262 321 384
#     4  11  23  42  68  92 128 176 210 263 327 384
#     4  11  23  44  65  96 130 170 215 269 318 376
#     4  11  22  41  66  92 127 165 212 266 317 375
#     4  11  22  42  67  89 126 169 213 267 322 379
#
# _framework density 22.110344000000001
#
# number of rings (size 3 to 8) (size 9 to 14) (size 15 to 20)
#    0.000    1.250    5.000    1.125    0.000    3.000 
#    0.000    1.875    0.000    0.000    0.000    0.000 
#    0.000    0.000    0.000    0.000    0.000    0.000 
#
# Total GULP energy -198340.349659 kJ/mol
# GULP energy per Si atom -12396.271854 kJ/mol
# Density = 2.206002 g / cm^3
# Si number density = 22.110344 Si / 1000 Ang^3
#
#
#
# Elastic Constant Matrix: (Units=GPa)
#
#
# Indices 1 2 3 4 5 6 
#
# 1 111.1446 15.9273 38.9606 6.8206 13.5306 -8.0822
# 2 15.9273 52.4086 17.5734 -1.4994 3.6571 -20.3743
# 3 38.9606 17.5734 106.6548 4.9861 26.9872 -0.4155
# 4 6.8206 -1.4994 4.9861 13.2359 6.2995 8.2523
# 5 13.5306 3.6571 26.9872 6.2995 47.3948 -1.9600
# 6 -8.0822 -20.3743 -0.4155 8.2523 -1.9600 35.7382
#
#
#
# Elastic Compliance Matrix: (Units=1/GPa)
#
#
# Indices 1 2 3 4 5 6 
#
# 1 0.011037 -0.001046 -0.003527 -0.006553 -0.000052 0.003369
# 2 -0.001046 0.026964 -0.004250 -0.006201 0.002150 0.016636
# 3 -0.003527 -0.004250 0.012883 0.001954 -0.006421 -0.003874
# 4 -0.006553 -0.006201 0.001954 0.102246 -0.013567 -0.029348
# 5 -0.000052 0.002150 -0.006421 -0.013567 0.026645 0.005734
# 6 0.003369 0.016636 -0.003874 -0.029348 0.005734 0.045274
#
#
# Mechanical properties :
#
#
# Convention : Reuss Voigt Hill
#
# Bulk Modulus (GPa) = 30.08599 46.12564 38.10582
# Shear Modulus (GPa) = 19.70270 32.45686 26.07978
#
# Velocity S-wave (km/s) = 2.98838 3.83554 3.43815
# Velocity P-wave (km/s) = 5.05410 6.36569 5.74743
#
# Compressibility (1/GPa) = 0.03323806
#
# Stress axis : x y z
#
# Youngs Moduli (GPa) = 90.60517 37.08699 77.62198
#
# Poissons Ratio (x) = 0.03878 0.27377
# Poissons Ratio (y) = 0.09474 0.32991
# Poissons Ratio (z) = 0.31956 0.15763
#
# Static dielectric constant tensor:
#      x y z
#    x 4.181970 0.031760 0.129700 
#    y 0.031760 4.027340 -0.137520 
#    z 0.129700 -0.137520 4.196020 
# 
# 
# High freq. dielectric constant tensor:
#      x y z
#    x 1.881010 -0.000750 0.013290 
#    y -0.000750 1.862260 -0.004740 
#    z 0.013290 -0.004740 1.862920 
# 
# From -- ./inp_files/337818.got.cif
#   From: 2010.06.25/outbox.cif.g09.slc.cpg/sg2_169_cif.got.tgz:337818.got - 2010.06.27 13:26:56.
