data_PCOD8017874
_publ_section_title
;
Structure prediction by ZEFSAII (Michael W. Deem and Ramdas Pophale) SiO2 
 PCOD8017874
Probable space group: P -1
;
_chemical_formula_sum "Si O2"
_cell_formula_units_Z 12
_cell_length_a 14.462812
_cell_length_b 8.753482
_cell_length_c 11.755544
_cell_angle_alpha 94.426018
_cell_angle_beta 28.851993
_cell_angle_gamma 75.749006
_cell_volume 542.792816
_symmetry_space_group_name_H-M "P -1"
_symmetry_group_IT_number 2
_symmetry_cell_setting 'triclinic'
loop_
_space_group_symop_operation_xyz
x,y,z
-x,-y,-z
loop_
_atom_site_type_symbol
_atom_site_label
_atom_site_fract_x
_atom_site_fract_y
_atom_site_fract_z
Si Si1 0.836949 0.219072 0.637129
Si Si2 0.238990 0.810624 0.637928
Si Si3 0.690922 0.090773 0.204630
Si Si4 0.605801 0.607718 0.026821
Si Si5 0.884802 0.727849 0.840789
Si Si6 0.175130 0.502949 0.724277
O O1 0.569147 0.286758 0.890417
O O2 0.962734 0.224163 0.389892
O O3 0.797011 0.366939 0.786878
O O4 0.000000 0.000000 0.500000
O O5 0.351045 0.874901 0.611061
O O6 0.451728 0.658609 0.310106
O O7 0.166110 0.688906 0.774066
O O8 0.978133 0.009125 0.872334
O O9 0.467501 0.299077 0.396331
O O10 0.686454 0.919987 0.149082
O O11 0.754177 0.688850 0.886227
O O12 0.071249 0.531905 0.709280
O O13 0.000000 0.500000 0.000000
#
# Coordination Sequence:
#
# PCOD8017874 Si02
#       6
#     2   2   2   2   2   2
#     4  11  26  47  71  99 132 183 230 282 347 391
#     4  10  22  41  64 102 137 186 218 277 335 405
#     4  10  22  39  67  94 147 172 226 264 341 405
#     4  11  24  45  73  96 143 171 229 291 331 400
#     4  11  25  45  68 107 134 178 228 280 334 407
#     4  11  23  40  63 101 142 182 220 273 338 403
#
# _framework density 22.107882
#
# number of rings (size 3 to 8) (size 9 to 14) (size 15 to 20)
#    0.000    1.333    3.333    2.000    2.333    9.333 
#    0.000    0.000    0.000    0.000    0.000    0.000 
#    0.000    0.000    0.000    0.000    0.000    0.000 
#
# Total GULP energy -148705.200509 kJ/mol
# GULP energy per Si atom -12392.100042 kJ/mol
# Density = 2.205756 g / cm^3
# Si number density = 22.107882 Si / 1000 Ang^3
#
#
#
# Elastic Constant Matrix: (Units=GPa)
#
#
# Indices 1 2 3 4 5 6 
#
# 1 146.5246 50.5042 43.9218 19.7513 2.3844 22.8280
# 2 50.5042 83.1532 62.3125 20.4449 -7.7505 -16.7271
# 3 43.9218 62.3125 102.7796 24.7587 4.7322 -5.9721
# 4 19.7513 20.4449 24.7587 41.6309 -1.1488 7.1041
# 5 2.3844 -7.7505 4.7322 -1.1488 46.9830 6.4687
# 6 22.8280 -16.7271 -5.9721 7.1041 6.4687 41.4302
#
#
#
# Elastic Compliance Matrix: (Units=1/GPa)
#
#
# Indices 1 2 3 4 5 6 
#
# 1 0.011505 -0.009235 -0.000073 0.000827 -0.000687 -0.010113
# 2 -0.009235 0.033756 -0.014187 -0.006526 0.004964 0.017016
# 3 -0.000073 -0.014187 0.019556 -0.004500 -0.004218 -0.001438
# 4 0.000827 -0.006526 -0.004500 0.031133 0.001375 -0.009292
# 5 -0.000687 0.004964 -0.004218 0.001375 0.022876 -0.002033
# 6 -0.010113 0.017016 -0.001438 -0.009292 -0.002033 0.038282
#
#
# Mechanical properties :
#
#
# Convention : Reuss Voigt Hill
#
# Bulk Modulus (GPa) = 56.08968 71.77049 63.93009
# Shear Modulus (GPa) = 23.80486 37.72341 30.76413
#
# Velocity S-wave (km/s) = 3.28496 4.13526 3.73439
# Velocity P-wave (km/s) = 6.30983 7.43873 6.89741
#
# Compressibility (1/GPa) = 0.01782859
#
# Stress axis : x y z
#
# Youngs Moduli (GPa) = 86.91971 29.62416 51.13391
#
# Poissons Ratio (x) = 0.27357 0.00373
# Poissons Ratio (y) = 0.80267 0.72544
# Poissons Ratio (z) = 0.00634 0.42028
#
# Static dielectric constant tensor:
#      x y z
#    x 4.599580 0.150540 0.042880 
#    y 0.150540 3.678410 0.181540 
#    z 0.042880 0.181540 4.144180 
# 
# 
# High freq. dielectric constant tensor:
#      x y z
#    x 1.885700 0.012810 0.000240 
#    y 0.012810 1.839080 0.015400 
#    z 0.000240 0.015400 1.878680 
# 
# From -- ./inp_files/443147.got.cif
#   From: 2010.06.25/outbox.cif.g09.slc.cpg/sg2_222_cif.got.tgz:443147.got - 2010.06.27 13:26:56.
