data_PCOD8017117
_publ_section_title
;
Structure prediction by ZEFSAII (Michael W. Deem and Ramdas Pophale) SiO2 
 PCOD8017117
Probable space group: P -1
;
_chemical_formula_sum "Si O2"
_cell_formula_units_Z 16
_cell_length_a 6.703940
_cell_length_b 9.251434
_cell_length_c 17.767991
_cell_angle_alpha 131.302113
_cell_angle_beta 89.964710
_cell_angle_gamma 91.478602
_cell_volume 827.385071
_symmetry_space_group_name_H-M "P -1"
_symmetry_group_IT_number 2
_symmetry_cell_setting 'triclinic'
loop_
_space_group_symop_operation_xyz
x,y,z
-x,-y,-z
loop_
_atom_site_type_symbol
_atom_site_label
_atom_site_fract_x
_atom_site_fract_y
_atom_site_fract_z
Si Si1 0.742036 0.995543 0.758037
Si Si2 0.524763 0.029801 0.389668
Si Si3 0.140086 0.183468 0.757991
Si Si4 0.230171 0.524226 0.772443
Si Si5 0.439441 0.279213 0.923255
Si Si6 0.841588 0.668913 0.762209
Si Si7 0.561977 0.310871 0.620168
Si Si8 0.434935 0.212739 0.066350
O O1 0.598902 0.913503 0.664113
O O2 0.809152 0.814952 0.744333
O O3 0.629739 0.149303 0.862031
O O4 0.928542 0.100610 0.754890
O O5 0.543907 0.215902 0.505854
O O6 0.746245 0.972274 0.345480
O O7 0.411798 0.850959 0.371067
O O8 0.107688 0.371294 0.771563
O O9 0.267091 0.238523 0.849920
O O10 0.360979 0.423855 0.674141
O O11 0.374901 0.646903 0.869509
O O12 0.077293 0.656514 0.773503
O O13 0.500000 0.500000 0.000000
O O14 0.351232 0.235557 0.990430
O O15 0.752482 0.456869 0.669507
O O16 0.744659 0.748271 0.864644
O O17 0.500000 0.000000 0.000000
#
# Coordination Sequence:
#
# PCOD8017117 Si02
#       8
#     2   2   2   2   2   2   2   2
#     4  11  24  38  58  89 119 152 191 239 289 343
#     4   9  20  41  65  86 113 152 194 240 288 338
#     4  10  22  38  60  87 116 149 195 244 282 340
#     4  10  22  38  60  87 115 153 193 237 288 343
#     4  11  23  41  60  85 115 155 199 240 286 336
#     4  11  24  38  58  87 121 154 189 237 290 347
#     4   9  20  41  65  86 114 151 193 240 289 343
#     4  11  23  41  58  83 119 157 193 236 289 344
#
# _framework density 19.338031999999998
#
# number of rings (size 3 to 8) (size 9 to 14) (size 15 to 20)
#    0.000    1.750    2.500    0.750    5.250    4.500 
#    0.000    5.000    0.000    0.000    0.000    0.000 
#    0.000    0.000    0.000    0.000    0.000    0.000 
#
# Total GULP energy -198444.867718 kJ/mol
# GULP energy per Si atom -12402.804232 kJ/mol
# Density = 1.929402 g / cm^3
# Si number density = 19.338032 Si / 1000 Ang^3
#
#
#
# Elastic Constant Matrix: (Units=GPa)
#
#
# Indices 1 2 3 4 5 6 
#
# 1 62.3617 8.2806 20.9481 -2.3951 -9.7034 -11.1856
# 2 8.2806 78.9539 30.0783 -9.4252 -6.1970 -19.3752
# 3 20.9481 30.0783 132.0053 -2.9338 0.5108 -7.9190
# 4 -2.3951 -9.4252 -2.9338 30.0461 0.5644 1.0078
# 5 -9.7034 -6.1970 0.5108 0.5644 12.7984 -0.5733
# 6 -11.1856 -19.3752 -7.9190 1.0078 -0.5733 36.3245
#
#
#
# Elastic Compliance Matrix: (Units=1/GPa)
#
#
# Indices 1 2 3 4 5 6 
#
# 1 0.020956 0.002461 -0.003486 0.001531 0.017476 0.007239
# 2 0.002461 0.017548 -0.003763 0.004819 0.010718 0.009333
# 3 -0.003486 -0.003763 0.008923 -0.000456 -0.004855 -0.001199
# 4 0.001531 0.004819 -0.000456 0.034765 0.002069 0.002011
# 5 0.017476 0.010718 -0.004855 0.002069 0.097192 0.011517
# 6 0.007239 0.009333 -0.001199 0.002011 0.011517 0.034601
#
#
# Mechanical properties :
#
#
# Convention : Reuss Voigt Hill
#
# Bulk Modulus (GPa) = 26.41962 43.54831 34.98396
# Shear Modulus (GPa) = 21.17039 30.10139 25.63589
#
# Velocity S-wave (km/s) = 3.31230 3.94965 3.64493
# Velocity P-wave (km/s) = 5.32166 6.58544 5.98699
#
# Compressibility (1/GPa) = 0.03785066
#
# Stress axis : x y z
#
# Youngs Moduli (GPa) = 47.71896 56.98634 112.07224
#
# Poissons Ratio (x) = -0.14024 0.39064
# Poissons Ratio (y) = -0.11743 0.42178
# Poissons Ratio (z) = 0.16633 0.21447
#
# Static dielectric constant tensor:
#      x y z
#    x 2.822720 0.091960 -0.276630 
#    y 0.091960 3.548800 0.084120 
#    z -0.276630 0.084120 3.585960 
# 
# 
# High freq. dielectric constant tensor:
#      x y z
#    x 1.744490 -0.003400 -0.002050 
#    y -0.003400 1.760980 -0.001820 
#    z -0.002050 -0.001820 1.763320 
# 
# From -- ./inp_files/37472.got.cif
#   From: 2010.06.25/outbox.cif.g09.slc.cpg/sg2_19_cif.got.tgz:37472.got - 2010.06.27 13:26:56.
