data_PCOD8017488
_publ_section_title
;
Structure prediction by ZEFSAII (Michael W. Deem and Ramdas Pophale) SiO2 
 PCOD8017488
Probable space group: P -1
;
_chemical_formula_sum "Si O2"
_cell_formula_units_Z 16
_cell_length_a 11.560313
_cell_length_b 8.915283
_cell_length_c 17.502536
_cell_angle_alpha 52.698745
_cell_angle_beta 40.850044
_cell_angle_gamma 83.670815
_cell_volume 697.458667
_symmetry_space_group_name_H-M "P -1"
_symmetry_group_IT_number 2
_symmetry_cell_setting 'triclinic'
loop_
_space_group_symop_operation_xyz
x,y,z
-x,-y,-z
loop_
_atom_site_type_symbol
_atom_site_label
_atom_site_fract_x
_atom_site_fract_y
_atom_site_fract_z
Si Si1 0.722680 0.190788 0.202753
Si Si2 0.859605 0.738280 0.106519
Si Si3 0.901848 0.487646 0.443655
Si Si4 0.988528 0.685075 0.844637
Si Si5 0.991229 0.862486 0.473263
Si Si6 0.234045 0.642290 0.615161
Si Si7 0.795126 0.944867 0.841450
Si Si8 0.552831 0.414922 0.752058
O O1 0.774218 0.221016 0.258511
O O2 0.468622 0.928765 0.391702
O O3 0.936453 0.224761 0.050476
O O4 0.748377 0.419551 0.083228
O O5 0.722819 0.506395 0.306326
O O6 0.664239 0.662842 0.166017
O O7 0.000000 0.000000 0.000000
O O8 0.839181 0.495577 0.386340
O O9 0.681519 0.350215 0.654841
O O10 0.001392 0.348579 0.439796
O O11 0.102752 0.778724 0.275697
O O12 0.032964 0.641853 0.749309
O O13 0.964747 0.892213 0.798855
O O14 0.746731 0.711045 0.591497
O O15 0.215406 0.074911 0.240251
O O16 0.000000 0.000000 0.500000
O O17 0.543732 0.748247 0.070758
#
# Coordination Sequence:
#
# PCOD8017488 Si02
#       8
#     2   2   2   2   2   2   2   2
#     4  10  22  39  60  96 138 177 233 271 327 417
#     4  11  23  40  65 107 144 179 232 276 337 420
#     4  11  26  45  65 105 133 173 236 281 334 417
#     4  10  22  40  61  96 132 178 229 278 329 410
#     4  11  27  49  71 102 134 171 235 290 335 413
#     4  11  24  40  69  94 143 189 216 284 347 394
#     4  11  23  44  74  95 134 178 222 286 347 400
#     4  11  24  43  72 100 135 183 222 282 345 402
#
# _framework density 22.940428000000001
#
# number of rings (size 3 to 8) (size 9 to 14) (size 15 to 20)
#    0.000    1.250    1.250    4.125    3.500    7.500 
#    0.000    0.000    0.000    0.000    0.000    0.000 
#    0.000    0.000    0.000    0.000    0.000    0.000 
#
# Total GULP energy -198301.691433 kJ/mol
# GULP energy per Si atom -12393.855715 kJ/mol
# Density = 2.288821 g / cm^3
# Si number density = 22.940428 Si / 1000 Ang^3
#
#
#
# Elastic Constant Matrix: (Units=GPa)
#
#
# Indices 1 2 3 4 5 6 
#
# 1 79.6882 47.7019 34.8262 -3.7300 14.1871 15.4993
# 2 47.7019 140.0273 38.5287 4.5266 13.3401 11.6376
# 3 34.8262 38.5287 108.3670 10.3138 21.0611 4.3154
# 4 -3.7300 4.5266 10.3138 29.9363 3.1478 16.1507
# 5 14.1871 13.3401 21.0611 3.1478 29.9246 2.6633
# 6 15.4993 11.6376 4.3154 16.1507 2.6633 43.5492
#
#
#
# Elastic Compliance Matrix: (Units=1/GPa)
#
#
# Indices 1 2 3 4 5 6 
#
# 1 0.020535 -0.004872 -0.004587 0.010255 -0.004607 -0.009073
# 2 -0.004872 0.009321 -0.001487 -0.001411 -0.000647 -0.000047
# 3 -0.004587 -0.001487 0.012798 -0.005932 -0.005842 0.003319
# 4 0.010255 -0.001411 -0.005932 0.048289 -0.003323 -0.020390
# 5 -0.004607 -0.000647 -0.005842 -0.003323 0.040247 0.001162
# 6 -0.009073 -0.000047 0.003319 -0.020390 0.001162 0.033366
#
#
# Mechanical properties :
#
#
# Convention : Reuss Voigt Hill
#
# Bulk Modulus (GPa) = 48.15983 63.35512 55.75747
# Shear Modulus (GPa) = 25.85743 34.48372 30.17058
#
# Velocity S-wave (km/s) = 3.36096 3.88130 3.63046
# Velocity P-wave (km/s) = 6.00836 6.91109 6.47547
#
# Compressibility (1/GPa) = 0.02076419
#
# Stress axis : x y z
#
# Youngs Moduli (GPa) = 48.69818 107.28136 78.13627
#
# Poissons Ratio (x) = 0.52267 0.35837
# Poissons Ratio (y) = 0.23725 0.11615
# Poissons Ratio (z) = 0.22335 0.15947
#
# Static dielectric constant tensor:
#      x y z
#    x 4.685290 0.708650 0.057700 
#    y 0.708650 4.961300 -0.186000 
#    z 0.057700 -0.186000 4.580290 
# 
# 
# High freq. dielectric constant tensor:
#      x y z
#    x 1.891170 0.006720 0.026430 
#    y 0.006720 1.921960 0.007840 
#    z 0.026430 0.007840 1.911200 
# 
# From -- ./inp_files/566530.got.cif
#   From: 2010.06.25/outbox.cif.g09.slc.cpg/sg2_284_cif.got.tgz:566530.got - 2010.06.27 13:26:56.
