data_PCOD8017429
_publ_section_title
;
Structure prediction by ZEFSAII (Michael W. Deem and Ramdas Pophale) SiO2 
 PCOD8017429
Probable space group: P -1
;
_chemical_formula_sum "Si O2"
_cell_formula_units_Z 16
_cell_length_a 25.158547
_cell_length_b 6.478848
_cell_length_c 5.994007
_cell_angle_alpha 133.259787
_cell_angle_beta 95.492391
_cell_angle_gamma 78.044082
_cell_volume 694.610789
_symmetry_space_group_name_H-M "P -1"
_symmetry_group_IT_number 2
_symmetry_cell_setting 'triclinic'
loop_
_space_group_symop_operation_xyz
x,y,z
-x,-y,-z
loop_
_atom_site_type_symbol
_atom_site_label
_atom_site_fract_x
_atom_site_fract_y
_atom_site_fract_z
Si Si1 0.564536 0.205403 0.334358
Si Si2 0.195212 0.687854 0.398008
Si Si3 0.899412 0.096884 0.793928
Si Si4 0.548934 0.831890 0.657163
Si Si5 0.813245 0.917933 0.923738
Si Si6 0.970850 0.535387 0.264449
Si Si7 0.717134 0.222037 0.825289
Si Si8 0.644656 0.809210 0.343065
O O1 0.569872 0.539067 0.592697
O O2 0.513572 0.164500 0.443985
O O3 0.623250 0.008223 0.269143
O O4 0.549555 0.116562 0.014496
O O5 0.198528 0.403522 0.339000
O O6 0.254045 0.676517 0.304547
O O7 0.146236 0.691370 0.208468
O O8 0.180894 0.985906 0.749364
O O9 0.869863 0.920003 0.825493
O O10 0.937585 0.862701 0.481113
O O11 0.933591 0.296188 0.086712
O O12 0.589799 0.832020 0.473951
O O13 0.762780 0.148824 0.978274
O O14 0.000000 0.500000 0.500000
O O15 0.000000 0.500000 0.000000
O O16 0.693181 0.934282 0.567442
O O17 0.667267 0.475648 0.055302
#
# Coordination Sequence:
#
# PCOD8017429 Si02
#       8
#     2   2   2   2   2   2   2   2
#     4  10  22  39  59  86 117 160 211 255 316 397
#     4  11  24  44  71  93 130 176 222 279 330 398
#     4  11  26  46  72 104 137 184 241 270 344 408
#     4  10  22  39  59  86 117 160 211 255 316 397
#     4  11  24  44  71  93 130 176 222 279 330 398
#     4  12  28  47  74 110 157 190 236 298 351 416
#     4  11  26  40  59 100 123 160 218 266 328 410
#     4  12  23  39  62  86 129 160 204 266 336 388
#
# _framework density 23.034483999999999
#
# number of rings (size 3 to 8) (size 9 to 14) (size 15 to 20)
#    0.000    1.000    0.000    5.625    5.250   10.000 
#    0.000    5.000    0.000    0.000    0.000    0.000 
#    0.000    0.000    0.000    0.000    0.000    0.000 
#
# Total GULP energy -198317.175134 kJ/mol
# GULP energy per Si atom -12394.823446 kJ/mol
# Density = 2.298206 g / cm^3
# Si number density = 23.034484 Si / 1000 Ang^3
#
#
#
# Elastic Constant Matrix: (Units=GPa)
#
#
# Indices 1 2 3 4 5 6 
#
# 1 104.6859 33.8958 33.7443 -4.1020 -2.3673 0.1575
# 2 33.8958 69.6191 19.9541 7.2603 -4.3355 6.9835
# 3 33.7443 19.9541 96.5074 6.9903 -1.1017 -0.2943
# 4 -4.1020 7.2603 6.9903 40.2229 2.1850 -2.1354
# 5 -2.3673 -4.3355 -1.1017 2.1850 38.2456 7.1850
# 6 0.1575 6.9835 -0.2943 -2.1354 7.1850 30.4308
#
#
#
# Elastic Compliance Matrix: (Units=1/GPa)
#
#
# Indices 1 2 3 4 5 6 
#
# 1 0.012596 -0.005631 -0.003458 0.003004 -0.000412 0.001502
# 2 -0.005631 0.018700 -0.001582 -0.004114 0.002949 -0.005263
# 3 -0.003458 -0.001582 0.012054 -0.002144 0.000012 0.000344
# 4 0.003004 -0.004114 -0.002144 0.026597 -0.002494 0.003363
# 5 -0.000412 0.002949 0.000012 -0.002494 0.028000 -0.007461
# 6 0.001502 -0.005263 0.000344 0.003363 -0.007461 0.036062
#
#
# Mechanical properties :
#
#
# Convention : Reuss Voigt Hill
#
# Bulk Modulus (GPa) = 45.43639 49.55564 47.49602
# Shear Modulus (GPa) = 30.73368 33.99442 32.36405
#
# Velocity S-wave (km/s) = 3.65670 3.84579 3.75243
# Velocity P-wave (km/s) = 6.13162 6.42499 6.28002
#
# Compressibility (1/GPa) = 0.02200879
#
# Stress axis : x y z
#
# Youngs Moduli (GPa) = 79.38726 53.47702 82.95672
#
# Poissons Ratio (x) = 0.30115 0.28685
# Poissons Ratio (y) = 0.44706 0.13121
# Poissons Ratio (z) = 0.27450 0.08458
#
# Static dielectric constant tensor:
#      x y z
#    x 4.285680 0.005090 -0.073540 
#    y 0.005090 4.076660 -0.001290 
#    z -0.073540 -0.001290 4.153350 
# 
# 
# High freq. dielectric constant tensor:
#      x y z
#    x 1.923590 0.001280 -0.001080 
#    y 0.001280 1.907120 0.012780 
#    z -0.001080 0.012780 1.915160 
# 
# From -- ./inp_files/11285.got.cif
#   From: 2010.06.25/outbox.cif.g09.slc.cpg/sg2_6_cif.got.tgz:11285.got - 2010.06.27 13:26:56.
