data_PCOD8017535
_publ_section_title
;
Structure prediction by ZEFSAII (Michael W. Deem and Ramdas Pophale) SiO2 
 PCOD8017535
Probable space group: P -1
;
_chemical_formula_sum "Si O2"
_cell_formula_units_Z 16
_cell_length_a 8.721264
_cell_length_b 18.698927
_cell_length_c 15.776686
_cell_angle_alpha 21.595395
_cell_angle_beta 127.889739
_cell_angle_gamma 118.049318
_cell_volume 700.866354
_symmetry_space_group_name_H-M "P -1"
_symmetry_group_IT_number 2
_symmetry_cell_setting 'triclinic'
loop_
_space_group_symop_operation_xyz
x,y,z
-x,-y,-z
loop_
_atom_site_type_symbol
_atom_site_label
_atom_site_fract_x
_atom_site_fract_y
_atom_site_fract_z
Si Si1 0.370335 0.017761 0.518802
Si Si2 0.929489 0.201629 0.325342
Si Si3 0.711939 0.537770 0.011686
Si Si4 0.341497 0.274373 0.932234
Si Si5 0.937922 0.399134 0.409771
Si Si6 0.017105 0.052772 0.044750
Si Si7 0.757338 0.196029 0.098057
Si Si8 0.255415 0.611075 0.294201
O O1 0.500000 0.000000 0.500000
O O2 0.157408 0.978343 0.473441
O O3 0.330308 0.246392 0.289471
O O4 0.499787 0.824789 0.830495
O O5 0.869044 0.383359 0.171024
O O6 0.849662 0.289197 0.107190
O O7 0.173265 0.054684 0.579591
O O8 0.826945 0.534813 0.142330
O O9 0.500000 0.500000 0.000000
O O10 0.193716 0.504481 0.655957
O O11 0.216698 0.121792 0.038704
O O12 0.503299 0.287633 0.900188
O O13 0.159372 0.426755 0.468200
O O14 0.953212 0.163050 0.658807
O O15 0.823491 0.232773 0.823985
O O16 0.000000 0.000000 0.000000
O O17 0.831100 0.255367 0.967695
O O18 0.500000 0.500000 0.500000
#
# Coordination Sequence:
#
# PCOD8017535 Si02
#       8
#     2   2   2   2   2   2   2   2
#     4  11  19  35  60  95 132 171 216 260 330 396
#     4  10  22  39  61  96 136 176 214 275 327 399
#     4  12  20  34  64  99 132 169 217 266 324 401
#     4  10  23  42  67  96 134 177 216 277 331 398
#     4  11  24  43  70 100 130 180 224 272 339 400
#     4  11  27  47  70  99 126 169 234 283 328 397
#     4  10  22  44  66  93 139 180 219 269 344 400
#     4  11  27  48  71  95 137 181 221 285 339 397
#
# _framework density 22.828889
#
# number of rings (size 3 to 8) (size 9 to 14) (size 15 to 20)
#    0.000    1.250    2.500    3.000    5.250    1.500 
#    2.250   11.250    0.000    0.000    0.000    0.000 
#    0.000    0.000    0.000    0.000    0.000    0.000 
#
# Total GULP energy -198232.053402 kJ/mol
# GULP energy per Si atom -12389.503338 kJ/mol
# Density = 2.277693 g / cm^3
# Si number density = 22.828889 Si / 1000 Ang^3
#
#
#
# Elastic Constant Matrix: (Units=GPa)
#
#
# Indices 1 2 3 4 5 6 
#
# 1 87.7921 34.7791 19.7651 0.0089 21.3732 -9.9798
# 2 34.7791 89.9591 27.6454 -15.3355 17.8478 -3.0635
# 3 19.7651 27.6454 73.0217 -15.3414 14.8184 2.6545
# 4 0.0089 -15.3355 -15.3414 41.6707 -0.8045 0.5949
# 5 21.3732 17.8478 14.8184 -0.8045 45.3722 2.7324
# 6 -9.9798 -3.0635 2.6545 0.5949 2.7324 40.2253
#
#
#
# Elastic Compliance Matrix: (Units=1/GPa)
#
#
# Indices 1 2 3 4 5 6 
#
# 1 0.015364 -0.004613 -0.002088 -0.002623 -0.005027 0.003979
# 2 -0.004613 0.015129 -0.003011 0.004403 -0.002737 0.000327
# 3 -0.002088 -0.003011 0.017215 0.005192 -0.003258 -0.001739
# 4 -0.002623 0.004403 0.005192 0.027512 -0.001647 -0.000953
# 5 -0.005027 -0.002737 -0.003258 -0.001647 0.026702 -0.003030
# 6 0.003979 0.000327 -0.001739 -0.000953 -0.003030 0.026207
#
#
# Mechanical properties :
#
#
# Convention : Reuss Voigt Hill
#
# Bulk Modulus (GPa) = 35.35379 46.12800 40.74089
# Shear Modulus (GPa) = 31.85108 36.69253 34.27180
#
# Velocity S-wave (km/s) = 3.73930 4.01345 3.87880
# Velocity P-wave (km/s) = 5.84493 6.45963 6.15995
#
# Compressibility (1/GPa) = 0.02828551
#
# Stress axis : x y z
#
# Youngs Moduli (GPa) = 65.08543 66.09636 58.08985
#
# Poissons Ratio (x) = 0.30488 0.12129
# Poissons Ratio (y) = 0.30022 0.17490
# Poissons Ratio (z) = 0.13590 0.19900
#
# Static dielectric constant tensor:
#      x y z
#    x 4.695990 0.209270 0.818480 
#    y 0.209270 4.175250 0.226950 
#    z 0.818480 0.226950 4.161990 
# 
# 
# High freq. dielectric constant tensor:
#      x y z
#    x 1.925060 -0.003000 0.008610 
#    y -0.003000 1.886100 -0.001520 
#    z 0.008610 -0.001520 1.901540 
# 
# From -- ./inp_files/562569.got.cif
#   From: 2010.06.25/outbox.cif.g09.slc.cpg/sg2_282_cif.got.tgz:562569.got - 2010.06.27 13:26:56.
