data_PCOD8017658
_publ_section_title
;
Structure prediction by ZEFSAII (Michael W. Deem and Ramdas Pophale) SiO2 
 PCOD8017658
Probable space group: P -1
;
_chemical_formula_sum "Si O2"
_cell_formula_units_Z 14
_cell_length_a 16.656268
_cell_length_b 8.812500
_cell_length_c 5.812090
_cell_angle_alpha 128.685127
_cell_angle_beta 109.729191
_cell_angle_gamma 82.767664
_cell_volume 622.627439
_symmetry_space_group_name_H-M "P -1"
_symmetry_group_IT_number 2
_symmetry_cell_setting 'triclinic'
loop_
_space_group_symop_operation_xyz
x,y,z
-x,-y,-z
loop_
_atom_site_type_symbol
_atom_site_label
_atom_site_fract_x
_atom_site_fract_y
_atom_site_fract_z
Si Si1 0.445664 0.086036 0.220948
Si Si2 0.297985 0.091975 0.788714
Si Si3 0.086227 0.486272 0.430305
Si Si4 0.993947 0.107220 0.845244
Si Si5 0.839968 0.238936 0.607294
Si Si6 0.389507 0.802651 0.279242
Si Si7 0.244669 0.479347 0.908406
O O1 0.513465 0.229433 0.572336
O O2 0.399415 0.898791 0.131555
O O3 0.367768 0.191731 0.136046
O O4 0.500000 0.000000 0.000000
O O5 0.260504 0.260065 0.770292
O O6 0.220102 0.957580 0.711781
O O7 0.343917 0.951439 0.533189
O O8 0.101038 0.681060 0.473555
O O9 0.170148 0.469019 0.641725
O O10 0.000000 0.500000 0.500000
O O11 0.069601 0.287407 0.076020
O O12 0.900560 0.187541 0.829938
O O13 0.000000 0.000000 0.500000
O O14 0.000000 0.000000 0.000000
O O15 0.783288 0.409683 0.787140
O O16 0.332683 0.594299 0.003727
#
# Coordination Sequence:
#
# PCOD8017658 Si02
#       7
#     2   2   2   2   2   2   2
#     4   9  18  39  66  92 132 171 214 268 343 403
#     4  10  22  39  63  96 131 172 224 279 340 414
#     4  12  25  45  67  94 138 186 233 293 356 417
#     4  12  27  45  73 103 136 184 242 298 356 425
#     4  11  25  43  67  94 136 177 231 288 351 414
#     4   9  20  40  65  94 130 173 215 278 335 416
#     4  11  24  42  66  97 133 176 229 282 349 411
#
# _framework density 22.485355999999999
#
# number of rings (size 3 to 8) (size 9 to 14) (size 15 to 20)
#    0.000    1.429    1.429    3.000    4.000    1.714 
#    0.000    6.429    0.000    0.000    0.000    0.000 
#    0.000    0.000    0.000    0.000    0.000    0.000 
#
# Total GULP energy -173494.425515 kJ/mol
# GULP energy per Si atom -12392.458965 kJ/mol
# Density = 2.243418 g / cm^3
# Si number density = 22.485356 Si / 1000 Ang^3
#
#
#
# Elastic Constant Matrix: (Units=GPa)
#
#
# Indices 1 2 3 4 5 6 
#
# 1 99.3648 72.9557 51.2176 0.2724 33.4328 28.4582
# 2 72.9557 159.0706 64.0406 -9.6526 26.3676 8.1987
# 3 51.2176 64.0406 119.7994 -1.1561 34.5072 2.7890
# 4 0.2724 -9.6526 -1.1561 43.0708 0.1863 7.6568
# 5 33.4328 26.3676 34.5072 0.1863 47.9225 -6.7377
# 6 28.4582 8.1987 2.7890 7.6568 -6.7377 42.2892
#
#
#
# Elastic Compliance Matrix: (Units=1/GPa)
#
#
# Indices 1 2 3 4 5 6 
#
# 1 0.029162 -0.008348 -0.002680 0.001642 -0.016752 -0.020796
# 2 -0.008348 0.010812 -0.003028 0.001703 0.002587 0.003825
# 3 -0.002680 -0.003028 0.012668 -0.000433 -0.005477 0.000761
# 4 0.001642 0.001703 -0.000433 0.024713 -0.002756 -0.006320
# 5 -0.016752 0.002587 -0.005477 -0.002756 0.037562 0.017616
# 6 -0.020796 0.003825 0.000761 -0.006320 0.017616 0.040800
#
#
# Mechanical properties :
#
#
# Convention : Reuss Voigt Hill
#
# Bulk Modulus (GPa) = 40.76717 83.85142 62.30929
# Shear Modulus (GPa) = 26.04092 39.32457 32.68274
#
# Velocity S-wave (km/s) = 3.40682 4.18652 3.81663
# Velocity P-wave (km/s) = 5.80044 7.79370 6.86975
#
# Compressibility (1/GPa) = 0.02452954
#
# Stress axis : x y z
#
# Youngs Moduli (GPa) = 34.29084 92.49229 78.94153
#
# Poissons Ratio (x) = 0.77209 0.21157
# Poissons Ratio (y) = 0.28625 0.23907
# Poissons Ratio (z) = 0.09190 0.28010
#
# Static dielectric constant tensor:
#      x y z
#    x 4.588520 -0.026060 0.590120 
#    y -0.026060 4.172600 -0.128560 
#    z 0.590120 -0.128560 4.494370 
# 
# 
# High freq. dielectric constant tensor:
#      x y z
#    x 1.896090 0.005900 0.024920 
#    y 0.005900 1.884400 -0.012310 
#    z 0.024920 -0.012310 1.886230 
# 
# From -- ./inp_files/107855.got.cif
#   From: 2010.06.25/outbox.cif.g09.slc.cpg/sg2_54_cif.got.tgz:107855.got - 2010.06.27 13:26:56.
