data_PCOD8017322
_publ_section_title
;
Structure prediction by ZEFSAII (Michael W. Deem and Ramdas Pophale) SiO2 
 PCOD8017322
Probable space group: P -1
;
_chemical_formula_sum "Si O2"
_cell_formula_units_Z 16
_cell_length_a 10.633150
_cell_length_b 9.561912
_cell_length_c 11.028741
_cell_angle_alpha 84.887517
_cell_angle_beta 141.249166
_cell_angle_gamma 97.263078
_cell_volume 696.165147
_symmetry_space_group_name_H-M "P -1"
_symmetry_group_IT_number 2
_symmetry_cell_setting 'triclinic'
loop_
_space_group_symop_operation_xyz
x,y,z
-x,-y,-z
loop_
_atom_site_type_symbol
_atom_site_label
_atom_site_fract_x
_atom_site_fract_y
_atom_site_fract_z
Si Si1 0.927628 0.629164 0.011229
Si Si2 0.658946 0.842037 0.726176
Si Si3 0.813048 0.627030 0.396893
Si Si4 0.795418 0.127712 0.680793
Si Si5 0.462675 0.781705 0.075111
Si Si6 0.435886 0.083189 0.096878
Si Si7 0.095960 0.881054 0.504391
Si Si8 0.150842 0.532343 0.796422
O O1 0.764751 0.697709 0.796104
O O2 0.829368 0.570799 0.067628
O O3 0.000000 0.500000 0.000000
O O4 0.104353 0.752304 0.163848
O O5 0.425814 0.823632 0.516452
O O6 0.690146 0.860424 0.893190
O O7 0.777929 0.974773 0.740954
O O8 0.615339 0.702897 0.283170
O O9 0.744318 0.524654 0.240818
O O10 0.999406 0.729950 0.482452
O O11 0.910551 0.546462 0.588561
O O12 0.925769 0.106271 0.658795
O O13 0.378181 0.914878 0.065269
O O14 0.609947 0.838232 0.069107
O O15 0.266291 0.683042 0.900245
O O16 0.672216 0.112064 0.290294
O O17 0.000000 0.000000 0.500000
#
# Coordination Sequence:
#
# PCOD8017322 Si02
#       8
#     2   2   2   2   2   2   2   2
#     4  12  27  46  68 100 134 182 231 279 331 401
#     4  10  24  47  70  96 133 180 228 279 334 401
#     4  11  22  40  62  92 135 173 213 273 337 398
#     4  10  24  46  72  98 134 180 227 279 337 395
#     4  11  22  38  61 100 129 172 219 275 339 394
#     4  10  22  38  66  96 134 170 221 282 337 394
#     4  11  20  39  67  99 132 169 215 278 340 393
#     4  11  25  41  61  92 135 179 219 268 338 403
#
# _framework density 22.983053000000002
#
# number of rings (size 3 to 8) (size 9 to 14) (size 15 to 20)
#    0.000    1.250    3.750    1.500    1.750    2.500 
#    2.250    0.000    0.000    0.000    0.000    0.000 
#    0.000    0.000    0.000    0.000    0.000    0.000 
#
# Total GULP energy -198373.912025 kJ/mol
# GULP energy per Si atom -12398.369502 kJ/mol
# Density = 2.293074 g / cm^3
# Si number density = 22.983053 Si / 1000 Ang^3
#
#
#
# Elastic Constant Matrix: (Units=GPa)
#
#
# Indices 1 2 3 4 5 6 
#
# 1 58.0648 24.0742 7.9044 -2.1934 -7.8668 -5.9419
# 2 24.0742 123.8156 46.0716 -3.7548 8.6877 -10.7606
# 3 7.9044 46.0716 82.5858 -9.6176 -3.5708 -2.9741
# 4 -2.1934 -3.7548 -9.6176 49.3972 4.8401 3.7423
# 5 -7.8668 8.6877 -3.5708 4.8401 17.2601 -0.8349
# 6 -5.9419 -10.7606 -2.9741 3.7423 -0.8349 28.8473
#
#
#
# Elastic Compliance Matrix: (Units=1/GPa)
#
#
# Indices 1 2 3 4 5 6 
#
# 1 0.021304 -0.005405 0.001573 -0.000668 0.013089 0.002999
# 2 -0.005405 0.012617 -0.006846 0.000187 -0.010159 0.002569
# 3 0.001573 -0.006846 0.016298 0.002092 0.006918 -0.000621
# 4 -0.000668 0.000187 0.002092 0.021448 -0.006116 -0.002812
# 5 0.013089 -0.010159 0.006918 -0.006116 0.072283 0.002505
# 6 0.002999 0.002569 -0.000621 -0.002812 0.002505 0.036615
#
#
# Mechanical properties :
#
#
# Convention : Reuss Voigt Hill
#
# Bulk Modulus (GPa) = 34.64920 46.72962 40.68941
# Shear Modulus (GPa) = 23.63591 31.52865 27.58228
#
# Velocity S-wave (km/s) = 3.21036 3.70783 3.46802
# Velocity P-wave (km/s) = 5.37127 6.22150 5.81195
#
# Compressibility (1/GPa) = 0.02886069
#
# Stress axis : x y z
#
# Youngs Moduli (GPa) = 46.93910 79.26066 61.35887
#
# Poissons Ratio (x) = 0.42844 -0.09649
# Poissons Ratio (y) = 0.25372 0.42006
# Poissons Ratio (z) = -0.07381 0.54261
#
# Static dielectric constant tensor:
#      x y z
#    x 2.519010 0.854910 -0.348370 
#    y 0.854910 3.920970 0.060740 
#    z -0.348370 0.060740 4.290120 
# 
# 
# High freq. dielectric constant tensor:
#      x y z
#    x 1.879120 0.003420 0.004470 
#    y 0.003420 1.922580 -0.004240 
#    z 0.004470 -0.004240 1.921000 
# 
# From -- ./inp_files/417460.got.cif
#   From: 2010.06.25/outbox.cif.g09.slc.cpg/sg2_209_cif.got.tgz:417460.got - 2010.06.27 13:26:56.
