data_PCOD8017416
_publ_section_title
;
Structure prediction by ZEFSAII (Michael W. Deem and Ramdas Pophale) SiO2 
 PCOD8017416
Probable space group: P -1
;
_chemical_formula_sum "Si O2"
_cell_formula_units_Z 16
_cell_length_a 23.414755
_cell_length_b 12.982316
_cell_length_c 15.324851
_cell_angle_alpha 27.181431
_cell_angle_beta 152.507675
_cell_angle_gamma 155.288913
_cell_volume 809.975709
_symmetry_space_group_name_H-M "P -1"
_symmetry_group_IT_number 2
_symmetry_cell_setting 'triclinic'
loop_
_space_group_symop_operation_xyz
x,y,z
-x,-y,-z
loop_
_atom_site_type_symbol
_atom_site_label
_atom_site_fract_x
_atom_site_fract_y
_atom_site_fract_z
Si Si1 0.917521 0.588231 0.259566
Si Si2 0.337407 0.285082 0.296365
Si Si3 0.295964 0.602432 0.135055
Si Si4 0.374147 0.958632 0.741542
Si Si5 0.101291 0.931665 0.103191
Si Si6 0.073368 0.226745 0.355628
Si Si7 0.659715 0.711581 0.421407
Si Si8 0.023840 0.653215 0.035395
O O1 0.735985 0.368950 0.176014
O O2 0.000000 0.500000 0.500000
O O3 0.987194 0.644533 0.214360
O O4 0.965191 0.884405 0.136499
O O5 0.262505 0.434133 0.125852
O O6 0.498370 0.529710 0.294602
O O7 0.346813 0.091302 0.522757
O O8 0.253458 0.109234 0.229960
O O9 0.343581 0.457353 0.374407
O O10 0.446776 0.917835 0.097849
O O11 0.146610 0.573853 0.989492
O O12 0.314258 0.011949 0.710771
O O13 0.127792 0.861771 0.095151
O O14 0.104583 0.507677 0.224292
O O15 0.221826 0.239227 0.527116
O O16 0.000000 0.000000 0.500000
O O17 0.978628 0.167645 0.182409
#
# Coordination Sequence:
#
# PCOD8017416 Si02
#       8
#     2   2   2   2   2   2   2   2
#     4  11  22  33  52  84 123 156 182 211 271 351
#     4   9  16  35  54  85 119 147 174 221 281 340
#     4   8  15  32  57  83 116 145 178 226 280 322
#     4   9  17  32  57  86 114 149 181 221 273 333
#     4  11  23  35  52  82 122 150 180 223 282 335
#     4  10  22  40  61  82 100 141 201 238 276 320
#     4   8  17  32  60  82 110 144 187 235 271 318
#     4  10  22  39  58  82 112 145 182 240 281 323
#
# _framework density 19.753679000000002
#
# number of rings (size 3 to 8) (size 9 to 14) (size 15 to 20)
#    0.000    2.500    1.250    3.000    5.250    0.000 
#    2.250    2.500    0.000    0.750    0.000    0.000 
#    0.000    0.000    0.000    0.000    0.000    0.000 
#
# Total GULP energy -198232.762259 kJ/mol
# GULP energy per Si atom -12389.547641 kJ/mol
# Density = 1.970872 g / cm^3
# Si number density = 19.753679 Si / 1000 Ang^3
#
#
#
# Elastic Constant Matrix: (Units=GPa)
#
#
# Indices 1 2 3 4 5 6 
#
# 1 126.4115 45.9511 35.6168 6.2588 -4.8189 -8.2174
# 2 45.9511 116.9802 19.6330 5.6736 -13.1903 -5.0263
# 3 35.6168 19.6330 56.5393 2.6478 -8.5360 2.2327
# 4 6.2588 5.6736 2.6478 25.5188 2.0500 -6.3454
# 5 -4.8189 -13.1903 -8.5360 2.0500 29.7535 3.7136
# 6 -8.2174 -5.0263 2.2327 -6.3454 3.7136 34.4314
#
#
#
# Elastic Compliance Matrix: (Units=1/GPa)
#
#
# Indices 1 2 3 4 5 6 
#
# 1 0.010973 -0.003347 -0.006093 -0.000524 -0.001745 0.002617
# 2 -0.003347 0.010547 -0.000870 -0.001744 0.003998 0.000045
# 3 -0.006093 -0.000870 0.022980 -0.002191 0.005884 -0.004110
# 4 -0.000524 -0.001744 -0.002191 0.042395 -0.005426 0.008161
# 5 -0.001745 0.003998 0.005884 -0.005426 0.037822 -0.005294
# 6 0.002617 0.000045 -0.004110 0.008161 -0.005294 0.032016
#
#
# Mechanical properties :
#
#
# Convention : Reuss Voigt Hill
#
# Bulk Modulus (GPa) = 41.87522 55.81476 48.84499
# Shear Modulus (GPa) = 26.98125 31.18941 29.08533
#
# Velocity S-wave (km/s) = 3.69980 3.97787 3.84135
# Velocity P-wave (km/s) = 6.28459 7.02955 6.66748
#
# Compressibility (1/GPa) = 0.02388047
#
# Stress axis : x y z
#
# Youngs Moduli (GPa) = 91.12886 94.81794 43.51528
#
# Poissons Ratio (x) = 0.31734 0.26513
# Poissons Ratio (y) = 0.30499 0.03787
# Poissons Ratio (z) = 0.55523 0.08253
#
# Static dielectric constant tensor:
#      x y z
#    x 3.638080 0.103160 -0.037170 
#    y 0.103160 3.678550 0.082060 
#    z -0.037170 0.082060 3.697570 
# 
# 
# High freq. dielectric constant tensor:
#      x y z
#    x 1.747600 0.002290 -0.024830 
#    y 0.002290 1.764490 0.002740 
#    z -0.024830 0.002740 1.777680 
# 
# From -- ./inp_files/524097.got.cif
#   From: 2010.06.25/outbox.cif.g09.slc.cpg/sg2_263_cif.got.tgz:524097.got - 2010.06.27 13:26:56.
