data_PCOD8017630
_publ_section_title
;
Structure prediction by ZEFSAII (Michael W. Deem and Ramdas Pophale) SiO2 
 PCOD8017630
Probable space group: P -1
;
_chemical_formula_sum "Si O2"
_cell_formula_units_Z 14
_cell_length_a 11.771046
_cell_length_b 12.213911
_cell_length_c 12.333363
_cell_angle_alpha 38.701082
_cell_angle_beta 38.280140
_cell_angle_gamma 41.434916
_cell_volume 642.389365
_symmetry_space_group_name_H-M "P -1"
_symmetry_group_IT_number 2
_symmetry_cell_setting 'triclinic'
loop_
_space_group_symop_operation_xyz
x,y,z
-x,-y,-z
loop_
_atom_site_type_symbol
_atom_site_label
_atom_site_fract_x
_atom_site_fract_y
_atom_site_fract_z
Si Si1 0.760287 0.908704 0.080163
Si Si2 0.817603 0.559750 0.169202
Si Si3 0.347848 0.165846 0.547402
Si Si4 0.402352 0.242840 0.009395
Si Si5 0.033248 0.826400 0.290804
Si Si6 0.993141 0.817926 0.584688
Si Si7 0.434052 0.523318 0.154943
O O1 0.842636 0.701900 0.129866
O O2 0.657024 0.902320 0.274937
O O3 0.600696 0.059536 0.005547
O O4 0.948099 0.973022 0.906777
O O5 0.824465 0.366561 0.370053
O O6 0.621573 0.668871 0.162572
O O7 0.000000 0.500000 0.000000
O O8 0.431003 0.333014 0.356204
O O9 0.142833 0.214897 0.602212
O O10 0.500000 0.000000 0.500000
O O11 0.217039 0.191308 0.222592
O O12 0.409424 0.407512 0.955471
O O13 0.220291 0.672968 0.216631
O O14 0.016493 0.822387 0.435516
O O15 0.000000 0.000000 0.500000
O O16 0.500000 0.500000 0.000000
#
# Coordination Sequence:
#
# PCOD8017630 Si02
#       7
#     2   2   2   2   2   2   2
#     4  11  23  42  65  95 129 168 213 264 319 381
#     4  10  22  39  63  93 124 165 210 257 318 379
#     4  12  25  41  65  97 127 168 216 265 323 383
#     4  10  23  43  64  91 130 169 212 267 319 379
#     4  11  23  42  65  93 130 170 211 266 321 380
#     4  11  23  42  66  96 128 167 213 266 323 383
#     4  11  24  43  64  91 128 173 217 265 319 379
#
# _framework density 21.793634000000001
#
# number of rings (size 3 to 8) (size 9 to 14) (size 15 to 20)
#    0.000    1.143    0.000    7.286    0.000    8.000 
#    0.000    4.286    0.000    0.000    0.000    0.000 
#    0.000    0.000    0.000    0.000    0.000    0.000 
#
# Total GULP energy -173575.426598 kJ/mol
# GULP energy per Si atom -12398.244757 kJ/mol
# Density = 2.174403 g / cm^3
# Si number density = 21.793634 Si / 1000 Ang^3
#
#
#
# Elastic Constant Matrix: (Units=GPa)
#
#
# Indices 1 2 3 4 5 6 
#
# 1 77.9187 40.9973 20.2185 -14.8871 -19.2486 5.3503
# 2 40.9973 132.3484 38.5040 -16.6652 -4.9342 23.0004
# 3 20.2185 38.5040 92.1027 -25.6604 -19.5215 0.0613
# 4 -14.8871 -16.6652 -25.6604 46.9452 3.6473 -3.4181
# 5 -19.2486 -4.9342 -19.5215 3.6473 40.5169 -7.4983
# 6 5.3503 23.0004 0.0613 -3.4181 -7.4983 33.3747
#
#
#
# Elastic Compliance Matrix: (Units=1/GPa)
#
#
# Indices 1 2 3 4 5 6 
#
# 1 0.018289 -0.005859 0.001472 0.004085 0.008971 0.003537
# 2 -0.005859 0.012062 -0.005018 -0.000536 -0.005277 -0.008604
# 3 0.001472 -0.005018 0.016502 0.007475 0.008450 0.005856
# 4 0.004085 -0.000536 0.007475 0.026441 0.003696 0.003239
# 5 0.008971 -0.005277 0.008450 0.003696 0.033923 0.010183
# 6 0.003537 -0.008604 0.005856 0.003239 0.010183 0.037934
#
#
# Mechanical properties :
#
#
# Convention : Reuss Voigt Hill
#
# Bulk Modulus (GPa) = 35.66203 55.75659 45.70931
# Shear Modulus (GPa) = 28.85005 37.67736 33.26371
#
# Velocity S-wave (km/s) = 3.64233 4.16242 3.91103
# Velocity P-wave (km/s) = 5.83848 6.98144 6.43538
#
# Compressibility (1/GPa) = 0.02804103
#
# Stress axis : x y z
#
# Youngs Moduli (GPa) = 54.67896 82.90507 60.59887
#
# Poissons Ratio (x) = 0.48577 -0.08920
# Poissons Ratio (y) = 0.32039 0.30410
# Poissons Ratio (z) = -0.08048 0.41604
#
# Static dielectric constant tensor:
#      x y z
#    x 4.188300 0.016270 0.101800 
#    y 0.016270 4.188360 -0.322570 
#    z 0.101800 -0.322570 4.312460 
# 
# 
# High freq. dielectric constant tensor:
#      x y z
#    x 1.860800 0.012750 0.002360 
#    y 0.012750 1.869970 -0.004770 
#    z 0.002360 -0.004770 1.869830 
# 
# From -- ./inp_files/218167.got.cif
#   From: 2010.06.25/outbox.cif.g09.slc.cpg/sg2_110_cif.got.tgz:218167.got - 2010.06.27 13:26:56.
