data_PCOD8017610
_publ_section_title
;
Structure prediction by ZEFSAII (Michael W. Deem and Ramdas Pophale) SiO2 
 PCOD8017610
Probable space group: P -1
;
_chemical_formula_sum "Si O2"
_cell_formula_units_Z 16
_cell_length_a 8.845810
_cell_length_b 15.571241
_cell_length_c 11.087821
_cell_angle_alpha 63.488548
_cell_angle_beta 80.580381
_cell_angle_gamma 36.879618
_cell_volume 765.143955
_symmetry_space_group_name_H-M "P -1"
_symmetry_group_IT_number 2
_symmetry_cell_setting 'triclinic'
loop_
_space_group_symop_operation_xyz
x,y,z
-x,-y,-z
loop_
_atom_site_type_symbol
_atom_site_label
_atom_site_fract_x
_atom_site_fract_y
_atom_site_fract_z
Si Si1 0.169550 0.591177 0.551424
Si Si2 0.374228 0.152230 0.661944
Si Si3 0.706171 0.806046 0.916577
Si Si4 0.290416 0.542661 0.066119
Si Si5 0.314027 0.322477 0.216478
Si Si6 0.517489 0.562439 0.629912
Si Si7 0.699953 0.122700 0.490296
Si Si8 0.218934 0.361454 0.771502
O O1 0.246535 0.636127 0.607204
O O2 0.279055 0.567108 0.422611
O O3 0.318506 0.417318 0.689733
O O4 0.843919 0.749088 0.480104
O O5 0.644784 0.064759 0.628705
O O6 0.229528 0.290431 0.696101
O O7 0.462477 0.005251 0.800174
O O8 0.773926 0.710911 0.847253
O O9 0.621938 0.775175 0.054562
O O10 0.976657 0.726170 0.962888
O O11 0.371237 0.394895 0.100426
O O12 0.326648 0.541632 0.203356
O O13 0.500000 0.500000 0.000000
O O14 0.578341 0.151370 0.360161
O O15 0.087305 0.465190 0.255513
O O16 0.446942 0.710026 0.539742
O O17 0.000000 0.000000 0.500000
#
# Coordination Sequence:
#
# PCOD8017610 Si02
#       8
#     2   2   2   2   2   2   2   2
#     4  11  22  41  72  92 125 167 223 265 314 391
#     4  12  24  41  70  97 129 175 211 271 332 378
#     4  11  26  40  64 102 130 165 222 269 320 385
#     4  10  22  39  63  89 131 171 210 259 322 383
#     4  10  23  42  65  94 124 173 221 264 307 397
#     4  10  24  41  64  99 121 167 222 267 311 386
#     4  11  24  40  62  93 137 163 210 272 332 376
#     4  11  21  43  69  92 126 170 224 257 319 389
#
# _framework density 20.911097999999999
#
# number of rings (size 3 to 8) (size 9 to 14) (size 15 to 20)
#    0.000    1.250    2.500    4.500    8.750    0.500 
#    0.000    0.000    0.000    3.000    0.000    0.000 
#    0.000    0.000    0.000    0.000    0.000    0.000 
#
# Total GULP energy -198312.013765 kJ/mol
# GULP energy per Si atom -12394.500860 kJ/mol
# Density = 2.086350 g / cm^3
# Si number density = 20.911098 Si / 1000 Ang^3
#
#
#
# Elastic Constant Matrix: (Units=GPa)
#
#
# Indices 1 2 3 4 5 6 
#
# 1 123.4399 36.1608 59.5887 10.4808 6.2909 3.9728
# 2 36.1608 59.1220 31.0166 5.1139 7.2686 -3.0081
# 3 59.5887 31.0166 116.2740 -13.5531 -2.8413 1.7812
# 4 10.4808 5.1139 -13.5531 25.1134 0.9045 -4.0313
# 5 6.2909 7.2686 -2.8413 0.9045 39.6509 3.9894
# 6 3.9728 -3.0081 1.7812 -4.0313 3.9894 30.5137
#
#
#
# Elastic Compliance Matrix: (Units=1/GPa)
#
#
# Indices 1 2 3 4 5 6 
#
# 1 0.013488 -0.003788 -0.006944 -0.008989 -0.001465 -0.002720
# 2 -0.003788 0.022905 -0.004911 -0.005119 -0.004125 0.002901
# 3 -0.006944 -0.004911 0.014920 0.011976 0.002720 0.000776
# 4 -0.008989 -0.005119 0.011976 0.052099 0.001363 0.006671
# 5 -0.001465 -0.004125 0.002720 0.001363 0.026744 -0.003691
# 6 -0.002720 0.002901 0.000776 0.006671 -0.003691 0.034731
#
#
# Mechanical properties :
#
#
# Convention : Reuss Voigt Hill
#
# Bulk Modulus (GPa) = 49.93122 61.37423 55.65273
# Shear Modulus (GPa) = 24.64915 30.52692 27.58803
#
# Velocity S-wave (km/s) = 3.43703 3.82493 3.63616
# Velocity P-wave (km/s) = 6.29925 6.99433 6.65587
#
# Compressibility (1/GPa) = 0.02002755
#
# Stress axis : x y z
#
# Youngs Moduli (GPa) = 74.13864 43.65938 67.02568
#
# Poissons Ratio (x) = 0.16536 0.46543
# Poissons Ratio (y) = 0.28081 0.32915
# Poissons Ratio (z) = 0.51483 0.21440
#
# Static dielectric constant tensor:
#      x y z
#    x 4.264920 0.193240 -0.392190 
#    y 0.193240 3.527140 -0.020570 
#    z -0.392190 -0.020570 4.467300 
# 
# 
# High freq. dielectric constant tensor:
#      x y z
#    x 1.826950 0.007660 -0.004970 
#    y 0.007660 1.794980 0.010390 
#    z -0.004970 0.010390 1.826660 
# 
# From -- ./inp_files/271172.got.cif
#   From: 2010.06.25/outbox.cif.g09.slc.cpg/sg2_136_cif.got.tgz:271172.got - 2010.06.27 13:26:56.
