data_PCOD8017570
_publ_section_title
;
Structure prediction by ZEFSAII (Michael W. Deem and Ramdas Pophale) SiO2 
 PCOD8017570
Probable space group: P -1
;
_chemical_formula_sum "Si O2"
_cell_formula_units_Z 14
_cell_length_a 8.920752
_cell_length_b 19.534165
_cell_length_c 5.049529
_cell_angle_alpha 90.423436
_cell_angle_beta 65.354464
_cell_angle_gamma 131.049899
_cell_volume 555.697670
_symmetry_space_group_name_H-M "P -1"
_symmetry_group_IT_number 2
_symmetry_cell_setting 'triclinic'
loop_
_space_group_symop_operation_xyz
x,y,z
-x,-y,-z
loop_
_atom_site_type_symbol
_atom_site_label
_atom_site_fract_x
_atom_site_fract_y
_atom_site_fract_z
Si Si1 0.434407 0.659271 0.826304
Si Si2 0.741771 0.779975 0.100659
Si Si3 0.681321 0.997503 0.664679
Si Si4 0.648646 0.519597 0.139907
Si Si5 0.832953 0.144370 0.929747
Si Si6 0.168786 0.713702 0.884165
Si Si7 0.379491 0.107325 0.771379
O O1 0.608653 0.717200 0.457973
O O2 0.302767 0.547398 0.901442
O O3 0.247640 0.666682 0.969523
O O4 0.597945 0.705615 0.964022
O O5 0.770567 0.869555 0.064727
O O6 0.004484 0.827476 0.939917
O O7 0.765595 0.979316 0.347788
O O8 0.877272 0.112676 0.624174
O O9 0.429020 0.958369 0.781063
O O10 0.613175 0.926477 0.953474
O O11 0.500000 0.500000 0.500000
O O12 0.500000 0.500000 0.000000
O O13 0.910825 0.629953 0.940375
O O14 0.847778 0.230947 0.879347
O O15 0.356904 0.793795 0.524552
#
# Coordination Sequence:
#
# PCOD8017570 Si02
#       7
#     2   2   2   2   2   2   2
#     4  11  24  44  65  94 127 164 206 252 312 373
#     4  11  23  40  66  93 126 163 211 260 307 365
#     4  10  23  40  61  89 127 166 211 256 311 370
#     4  12  26  44  68  99 128 158 206 258 308 369
#     4  10  22  39  62  92 125 166 210 260 309 362
#     4  10  23  43  67  90 128 169 205 251 313 374
#     4  10  22  42  62  90 124 167 210 255 310 369
#
# _framework density 25.193556000000001
#
# number of rings (size 3 to 8) (size 9 to 14) (size 15 to 20)
#    0.000    1.429    0.000    5.571    0.000   15.429 
#    0.000    5.000    0.000    0.000    0.000    0.000 
#    0.000    0.000    0.000    0.000    0.000    0.000 
#
# Total GULP energy -173538.669387 kJ/mol
# GULP energy per Si atom -12395.619242 kJ/mol
# Density = 2.513621 g / cm^3
# Si number density = 25.193556 Si / 1000 Ang^3
#
#
#
# Elastic Constant Matrix: (Units=GPa)
#
#
# Indices 1 2 3 4 5 6 
#
# 1 126.8929 69.6872 32.5104 1.0488 -13.0914 12.5866
# 2 69.6872 154.9334 29.3997 19.6422 -11.6378 4.7278
# 3 32.5104 29.3997 65.2751 10.6134 19.1494 9.7403
# 4 1.0488 19.6422 10.6134 44.0929 0.4485 -4.8774
# 5 -13.0914 -11.6378 19.1494 0.4485 31.9064 12.1592
# 6 12.5866 4.7278 9.7403 -4.8774 12.1592 56.8915
#
#
#
# Elastic Compliance Matrix: (Units=1/GPa)
#
#
# Indices 1 2 3 4 5 6 
#
# 1 0.013407 -0.004108 -0.007702 0.002917 0.009784 -0.003147
# 2 -0.004108 0.009555 -0.002662 -0.003612 0.003646 -0.000518
# 3 -0.007702 -0.002662 0.027035 -0.004779 -0.020798 0.001332
# 4 0.002917 -0.003612 -0.004779 0.025614 0.001492 0.002350
# 5 0.009784 0.003646 -0.020798 0.001492 0.052998 -0.010106
# 6 -0.003147 -0.000518 0.001332 0.002350 -0.010106 0.020450
#
#
# Mechanical properties :
#
#
# Convention : Reuss Voigt Hill
#
# Bulk Modulus (GPa) = 47.50246 67.81065 57.65656
# Shear Modulus (GPa) = 27.02369 40.94509 33.98439
#
# Velocity S-wave (km/s) = 3.27868 4.03578 3.67677
# Velocity P-wave (km/s) = 5.76445 6.97789 6.39999
#
# Compressibility (1/GPa) = 0.02105154
#
# Stress axis : x y z
#
# Youngs Moduli (GPa) = 74.58528 104.65828 36.98938
#
# Poissons Ratio (x) = 0.42992 0.28491
# Poissons Ratio (y) = 0.30638 0.09848
# Poissons Ratio (z) = 0.57449 0.27865
#
# Static dielectric constant tensor:
#      x y z
#    x 4.973980 -0.153170 -0.239640 
#    y -0.153170 4.893290 0.294890 
#    z -0.239640 0.294890 4.368130 
# 
# 
# High freq. dielectric constant tensor:
#      x y z
#    x 2.019980 -0.003940 -0.001070 
#    y -0.003940 2.019790 0.016040 
#    z -0.001070 0.016040 1.993520 
# 
# From -- ./inp_files/53209.got.cif
#   From: 2010.06.25/outbox.cif.g09.slc.cpg/sg2_27_cif.got.tgz:53209.got - 2010.06.27 13:26:56.
