data_PCOD8017004
_publ_section_title
;
Structure prediction by ZEFSAII (Michael W. Deem and Ramdas Pophale) SiO2 
 PCOD8017004
Probable space group: P -1
;
_chemical_formula_sum "Si O2"
_cell_formula_units_Z 14
_cell_length_a 13.961766
_cell_length_b 6.534713
_cell_length_c 11.346873
_cell_angle_alpha 58.865102
_cell_angle_beta 48.855404
_cell_angle_gamma 82.911892
_cell_volume 628.414339
_symmetry_space_group_name_H-M "P -1"
_symmetry_group_IT_number 2
_symmetry_cell_setting 'triclinic'
loop_
_space_group_symop_operation_xyz
x,y,z
-x,-y,-z
loop_
_atom_site_type_symbol
_atom_site_label
_atom_site_fract_x
_atom_site_fract_y
_atom_site_fract_z
Si Si1 0.592216 0.391556 0.377414
Si Si2 0.104090 0.388383 0.011775
Si Si3 0.050230 0.136636 0.615495
Si Si4 0.229451 0.592136 0.086808
Si Si5 0.707560 0.862521 0.723809
Si Si6 0.843406 0.308906 0.624402
Si Si7 0.502058 0.849301 0.707782
O O1 0.500000 0.500000 0.500000
O O2 0.751676 0.555850 0.187845
O O3 0.518439 0.351669 0.322232
O O4 0.592017 0.126575 0.510337
O O5 0.120307 0.503483 0.096870
O O6 0.000000 0.500000 0.000000
O O7 0.038893 0.081270 0.159964
O O8 0.167282 0.046193 0.494840
O O9 0.118053 0.409318 0.547455
O O10 0.964965 0.191097 0.556863
O O11 0.289759 0.365470 0.127057
O O12 0.172575 0.669600 0.228215
O O13 0.352671 0.839440 0.871374
O O14 0.571469 0.766282 0.787431
O O15 0.714467 0.111099 0.722743
#
# Coordination Sequence:
#
# PCOD8017004 Si02
#       7
#     2   2   2   2   2   2   2
#     4  10  24  45  66  91 129 173 217 265 317 377
#     4  11  23  44  67  93 132 172 213 270 323 379
#     4  10  22  38  62  92 127 163 207 260 321 374
#     4  10  23  39  64  93 131 163 208 265 323 380
#     4  11  21  40  64  94 130 165 206 262 326 380
#     4  10  22  37  63  96 125 166 202 264 322 381
#     4  10  23  42  64  91 129 168 215 264 313 383
#
# _framework density 22.278293000000001
#
# number of rings (size 3 to 8) (size 9 to 14) (size 15 to 20)
#    0.000    1.714    1.429    1.714    6.000    2.857 
#    2.571    0.714    0.000    0.000    0.000    0.000 
#    0.000    0.000    0.000    0.000    0.000    0.000 
#
# Total GULP energy -173517.246039 kJ/mol
# GULP energy per Si atom -12394.089003 kJ/mol
# Density = 2.222759 g / cm^3
# Si number density = 22.278293 Si / 1000 Ang^3
#
#
#
# Elastic Constant Matrix: (Units=GPa)
#
#
# Indices 1 2 3 4 5 6 
#
# 1 143.4627 50.5242 22.8788 -3.5672 3.9685 16.0906
# 2 50.5242 98.9766 31.7170 4.0702 -6.9348 8.0771
# 3 22.8788 31.7170 113.6982 -11.0808 -4.5236 -2.5772
# 4 -3.5672 4.0702 -11.0808 32.1003 -7.6269 -0.6067
# 5 3.9685 -6.9348 -4.5236 -7.6269 25.0745 -1.4381
# 6 16.0906 8.0771 -2.5772 -0.6067 -1.4381 25.1055
#
#
#
# Elastic Compliance Matrix: (Units=1/GPa)
#
#
# Indices 1 2 3 4 5 6 
#
# 1 0.009243 -0.004283 -0.000842 0.000495 -0.002924 -0.004788
# 2 -0.004283 0.013777 -0.003162 -0.002636 0.003007 -0.001903
# 3 -0.000842 -0.003162 0.010471 0.004623 0.002720 0.002899
# 4 0.000495 -0.002636 0.004623 0.035813 0.011064 0.002505
# 5 -0.002924 0.003007 0.002720 0.011064 0.045264 0.004046
# 6 -0.004788 -0.001903 0.002899 0.002505 0.004046 0.044103
#
#
# Mechanical properties :
#
#
# Convention : Reuss Voigt Hill
#
# Bulk Modulus (GPa) = 59.10751 62.93084 61.01918
# Shear Modulus (GPa) = 27.64191 33.19058 30.41624
#
# Velocity S-wave (km/s) = 3.52626 3.86400 3.69899
# Velocity P-wave (km/s) = 6.57026 6.94379 6.75961
#
# Compressibility (1/GPa) = 0.01691832
#
# Stress axis : x y z
#
# Youngs Moduli (GPa) = 108.18647 72.58278 95.50057
#
# Poissons Ratio (x) = 0.31088 0.08040
# Poissons Ratio (y) = 0.46337 0.30196
# Poissons Ratio (z) = 0.09108 0.22950
#
# Static dielectric constant tensor:
#      x y z
#    x 3.821450 0.144630 -0.076900 
#    y 0.144630 3.901060 -0.170960 
#    z -0.076900 -0.170960 4.244170 
# 
# 
# High freq. dielectric constant tensor:
#      x y z
#    x 1.861830 0.006460 -0.009110 
#    y 0.006460 1.864090 -0.009540 
#    z -0.009110 -0.009540 1.893660 
# 
# From -- ./inp_files/67492.got.cif
#   From: 2010.06.25/outbox.cif.g09.slc.cpg/sg2_34_cif.got.tgz:67492.got - 2010.06.27 13:26:56.
