data_PCOD8017092
_publ_section_title
;
Structure prediction by ZEFSAII (Michael W. Deem and Ramdas Pophale) SiO2 
 PCOD8017092
Probable space group: P -1
;
_chemical_formula_sum "Si O2"
_cell_formula_units_Z 14
_cell_length_a 8.745556
_cell_length_b 14.261487
_cell_length_c 14.539113
_cell_angle_alpha 31.303014
_cell_angle_beta 53.951987
_cell_angle_gamma 77.590175
_cell_volume 554.735146
_symmetry_space_group_name_H-M "P -1"
_symmetry_group_IT_number 2
_symmetry_cell_setting 'triclinic'
loop_
_space_group_symop_operation_xyz
x,y,z
-x,-y,-z
loop_
_atom_site_type_symbol
_atom_site_label
_atom_site_fract_x
_atom_site_fract_y
_atom_site_fract_z
Si Si1 0.333155 0.580675 0.240412
Si Si2 0.795544 0.442822 0.002143
Si Si3 0.700583 0.763352 0.793854
Si Si4 0.041364 0.501911 0.685311
Si Si5 0.254509 0.316497 0.673861
Si Si6 0.354723 0.885855 0.512482
Si Si7 0.405464 0.033446 0.830686
O O1 0.323935 0.434976 0.448769
O O2 0.076554 0.412909 0.406677
O O3 0.582240 0.686023 0.003758
O O4 0.342119 0.794743 0.094583
O O5 0.656694 0.543166 0.941761
O O6 0.875636 0.374141 0.944056
O O7 0.054993 0.674653 0.768420
O O8 0.603113 0.203939 0.336232
O O9 0.577185 0.856099 0.704979
O O10 0.000000 0.000000 0.500000
O O11 0.019164 0.289772 0.819444
O O12 0.337378 0.737214 0.400197
O O13 0.500000 0.500000 0.500000
O O14 0.194360 0.058638 0.905123
O O15 0.542847 0.945884 0.314015
#
# Coordination Sequence:
#
# PCOD8017092 Si02
#       7
#     2   2   2   2   2   2   2
#     4  11  22  40  62  85 119 154 190 247 295 334
#     4   9  16  31  51  76 114 146 176 234 283 321
#     4   9  18  32  55  83 109 148 191 225 283 349
#     4  10  22  38  58  89 120 151 198 240 284 350
#     4  10  22  40  62  87 114 154 202 237 286 354
#     4   8  15  30  54  78 105 145 188 226 275 339
#     4   9  20  40  61  84 115 154 197 238 289 345
#
# _framework density 25.237268
#
# number of rings (size 3 to 8) (size 9 to 14) (size 15 to 20)
#    0.000    2.571    0.000    2.143    0.000    6.857 
#    0.000    8.571    0.000    0.000    0.000    0.000 
#    0.000    0.000    0.000    0.000    0.000    0.000 
#
# Total GULP energy -173548.351245 kJ/mol
# GULP energy per Si atom -12396.310803 kJ/mol
# Density = 2.517983 g / cm^3
# Si number density = 25.237268 Si / 1000 Ang^3
#
#
#
# Elastic Constant Matrix: (Units=GPa)
#
#
# Indices 1 2 3 4 5 6 
#
# 1 98.2907 34.6887 29.4623 11.1939 16.6702 -10.6342
# 2 34.6887 162.1267 51.5257 -16.2408 12.5269 -23.6903
# 3 29.4623 51.5257 78.0630 4.3060 20.6852 -10.4424
# 4 11.1939 -16.2408 4.3060 47.5332 -2.9011 1.3762
# 5 16.6702 12.5269 20.6852 -2.9011 43.6334 7.3634
# 6 -10.6342 -23.6903 -10.4424 1.3762 7.3634 39.8080
#
#
#
# Elastic Compliance Matrix: (Units=1/GPa)
#
#
# Indices 1 2 3 4 5 6 
#
# 1 0.012830 -0.001764 -0.001997 -0.003777 -0.004164 0.002754
# 2 -0.001764 0.009041 -0.005110 0.003880 0.000185 0.003400
# 3 -0.001997 -0.005110 0.019640 -0.003625 -0.007854 0.003156
# 4 -0.003777 0.003880 -0.003625 0.023850 0.003833 -0.001184
# 5 -0.004164 0.000185 -0.007854 0.003833 0.029907 -0.008727
# 6 0.002754 0.003400 0.003156 -0.001184 -0.008727 0.030363
#
#
# Mechanical properties :
#
#
# Convention : Reuss Voigt Hill
#
# Bulk Modulus (GPa) = 42.07440 63.31489 52.69465
# Shear Modulus (GPa) = 33.04793 41.04849 37.04821
#
# Velocity S-wave (km/s) = 3.62261 4.03737 3.83560
# Velocity P-wave (km/s) = 5.84855 6.84661 6.36717
#
# Compressibility (1/GPa) = 0.02376742
#
# Stress axis : x y z
#
# Youngs Moduli (GPa) = 77.94434 110.61122 50.91654
#
# Poissons Ratio (x) = 0.19517 0.10170
# Poissons Ratio (y) = 0.13753 0.26017
# Poissons Ratio (z) = 0.15568 0.56518
#
# Static dielectric constant tensor:
#      x y z
#    x 5.022290 -0.283660 -0.206140 
#    y -0.283660 5.176240 -0.358870 
#    z -0.206140 -0.358870 4.610030 
# 
# 
# High freq. dielectric constant tensor:
#      x y z
#    x 2.036810 -0.001050 -0.034600 
#    y -0.001050 2.029030 -0.018320 
#    z -0.034600 -0.018320 2.008170 
# 
# From -- ./inp_files/197324.got.cif
#   From: 2010.06.25/outbox.cif.g09.slc.cpg/sg2_99_cif.got.tgz:197324.got - 2010.06.27 13:26:56.
