data_PCOD8017073
_publ_section_title
;
Structure prediction by ZEFSAII (Michael W. Deem and Ramdas Pophale) SiO2 
 PCOD8017073
Probable space group: P -1
;
_chemical_formula_sum "Si O2"
_cell_formula_units_Z 16
_cell_length_a 25.327821
_cell_length_b 14.071944
_cell_length_c 8.850302
_cell_angle_alpha 33.909880
_cell_angle_beta 55.738747
_cell_angle_gamma 32.598598
_cell_volume 845.136470
_symmetry_space_group_name_H-M "P -1"
_symmetry_group_IT_number 2
_symmetry_cell_setting 'triclinic'
loop_
_space_group_symop_operation_xyz
x,y,z
-x,-y,-z
loop_
_atom_site_type_symbol
_atom_site_label
_atom_site_fract_x
_atom_site_fract_y
_atom_site_fract_z
Si Si1 0.890729 0.652836 0.041334
Si Si2 0.435591 0.973144 0.683358
Si Si3 0.743970 0.797042 0.511939
Si Si4 0.508627 0.479482 0.337437
Si Si5 0.722006 0.161514 0.875540
Si Si6 0.735419 0.807420 0.849053
Si Si7 0.269719 0.467732 0.547615
Si Si8 0.096603 0.699625 0.324864
O O1 0.937114 0.398697 0.403610
O O2 0.811507 0.761398 0.891086
O O3 0.000000 0.500000 0.000000
O O4 0.815923 0.940593 0.885717
O O5 0.500000 0.000000 0.500000
O O6 0.376495 0.021710 0.566378
O O7 0.354248 0.191888 0.663401
O O8 0.520687 0.645444 0.036559
O O9 0.787002 0.678724 0.769212
O O10 0.820045 0.518757 0.653309
O O11 0.752566 0.977204 0.212916
O O12 0.500000 0.500000 0.500000
O O13 0.396760 0.637652 0.253281
O O14 0.616284 0.143604 0.559760
O O15 0.707324 0.385566 0.656799
O O16 0.723707 0.646374 0.153571
O O17 0.148877 0.714376 0.344100
O O18 0.000000 0.000000 0.000000
#
# Coordination Sequence:
#
# PCOD8017073 Si02
#       8
#     2   2   2   2   2   2   2   2
#     4  10  22  41  60  84 116 150 192 242 289 339
#     4  10  22  38  55  84 120 152 191 234 280 337
#     4   9  22  39  57  85 118 150 190 234 287 343
#     4  11  20  39  61  81 120 160 187 232 288 341
#     4  10  22  39  59  86 118 153 191 234 287 344
#     4  11  22  39  60  86 118 154 192 235 288 342
#     4  10  22  38  58  86 117 149 192 239 282 340
#     4   9  20  42  62  79 115 154 190 239 289 337
#
# _framework density 18.931854000000001
#
# number of rings (size 3 to 8) (size 9 to 14) (size 15 to 20)
#    0.000    2.000    2.500    1.500    3.500    5.500 
#    2.250    5.000    0.000    0.000    0.000    0.000 
#    0.000    0.000    0.000    0.000    0.000    0.000 
#
# Total GULP energy -198325.758821 kJ/mol
# GULP energy per Si atom -12395.359926 kJ/mol
# Density = 1.888876 g / cm^3
# Si number density = 18.931854 Si / 1000 Ang^3
#
#
#
# Elastic Constant Matrix: (Units=GPa)
#
#
# Indices 1 2 3 4 5 6 
#
# 1 77.3480 30.4478 59.9044 8.3857 -7.4921 5.4358
# 2 30.4478 72.6022 37.8920 14.1251 6.1106 -8.3392
# 3 59.9044 37.8920 144.6242 2.3960 5.9425 -2.5409
# 4 8.3857 14.1251 2.3960 31.8946 3.3483 7.1573
# 5 -7.4921 6.1106 5.9425 3.3483 33.8376 4.3739
# 6 5.4358 -8.3392 -2.5409 7.1573 4.3739 32.9374
#
#
#
# Elastic Compliance Matrix: (Units=1/GPa)
#
#
# Indices 1 2 3 4 5 6 
#
# 1 0.023790 -0.006688 -0.008566 -0.002022 0.009091 -0.007048
# 2 -0.006688 0.020866 -0.002186 -0.008754 -0.005136 0.008802
# 3 -0.008566 -0.002186 0.011187 0.002406 -0.003927 0.001722
# 4 -0.002022 -0.008754 0.002406 0.037947 -0.001790 -0.009705
# 5 0.009091 -0.005136 -0.003927 -0.001790 0.034300 -0.007270
# 6 -0.007048 0.008802 0.001722 -0.009705 -0.007270 0.036960
#
#
# Mechanical properties :
#
#
# Convention : Reuss Voigt Hill
#
# Bulk Modulus (GPa) = 47.70079 61.22918 54.46499
# Shear Modulus (GPa) = 24.16430 30.82260 27.49345
#
# Velocity S-wave (km/s) = 3.57653 4.03933 3.81495
# Velocity P-wave (km/s) = 6.50432 7.35982 6.94525
#
# Compressibility (1/GPa) = 0.02096401
#
# Stress axis : x y z
#
# Youngs Moduli (GPa) = 42.03395 47.92514 89.38968
#
# Poissons Ratio (x) = 0.32051 0.76569
# Poissons Ratio (y) = 0.28111 0.19541
# Poissons Ratio (z) = 0.36005 0.10477
#
# Static dielectric constant tensor:
#      x y z
#    x 2.713410 0.129960 -0.355540 
#    y 0.129960 3.403640 0.148300 
#    z -0.355540 0.148300 3.417010 
# 
# 
# High freq. dielectric constant tensor:
#      x y z
#    x 1.734430 0.005790 0.003710 
#    y 0.005790 1.734290 0.004840 
#    z 0.003710 0.004840 1.745120 
# 
# From -- ./inp_files/178669.got.cif
#   From: 2010.06.25/outbox.cif.g09.slc.cpg/sg2_90_cif.got.tgz:178669.got - 2010.06.27 13:26:56.
