data_PCOD8017171
_publ_section_title
;
Structure prediction by ZEFSAII (Michael W. Deem and Ramdas Pophale) SiO2 
 PCOD8017171
Probable space group: P -1
;
_chemical_formula_sum "Si O2"
_cell_formula_units_Z 16
_cell_length_a 18.215678
_cell_length_b 11.963908
_cell_length_c 21.310876
_cell_angle_alpha 149.964205
_cell_angle_beta 162.017408
_cell_angle_gamma 39.956032
_cell_volume 667.290857
_symmetry_space_group_name_H-M "P -1"
_symmetry_group_IT_number 2
_symmetry_cell_setting 'triclinic'
loop_
_space_group_symop_operation_xyz
x,y,z
-x,-y,-z
loop_
_atom_site_type_symbol
_atom_site_label
_atom_site_fract_x
_atom_site_fract_y
_atom_site_fract_z
Si Si1 0.224763 0.160762 0.643616
Si Si2 0.802719 0.437852 0.110277
Si Si3 0.263240 0.783383 0.176229
Si Si4 0.701047 0.047863 0.933822
Si Si5 0.800634 0.012878 0.135103
Si Si6 0.203881 0.506419 0.116422
Si Si7 0.241989 0.791812 0.564646
Si Si8 0.284858 0.335841 0.327442
O O1 0.347106 0.420535 0.904051
O O2 0.434354 0.088645 0.742169
O O3 0.098531 0.946613 0.487986
O O4 0.012867 0.195245 0.441437
O O5 0.079764 0.636178 0.414107
O O6 0.647732 0.327631 0.866409
O O7 0.853082 0.233704 0.093438
O O8 0.143880 0.593405 0.042695
O O9 0.500000 0.000000 0.500000
O O10 0.007045 0.830459 0.968986
O O11 0.663695 0.774131 0.750294
O O12 0.857774 0.101130 0.152191
O O13 0.828608 0.763911 0.050345
O O14 0.510648 0.985269 0.902930
O O15 0.495239 0.682312 0.455961
O O16 0.000000 0.500000 0.000000
O O17 0.313690 0.617524 0.488036
#
# Coordination Sequence:
#
# PCOD8017171 Si02
#       8
#     2   2   2   2   2   2   2   2
#     4  11  23  44  65  90 129 172 221 265 318 385
#     4  11  24  43  66  92 131 173 211 270 325 382
#     4  11  25  44  67  98 131 172 219 268 334 391
#     4  11  24  41  63  93 130 172 218 266 322 380
#     4  10  22  38  61  92 123 167 218 261 314 386
#     4  11  22  39  67  99 132 170 213 264 328 393
#     4   9  22  41  65  94 124 165 213 269 330 380
#     4  10  22  41  64  96 133 164 210 272 324 381
#
# _framework density 23.977551999999999
#
# number of rings (size 3 to 8) (size 9 to 14) (size 15 to 20)
#    0.000    1.500    0.000    4.500    0.000   15.500 
#    0.000   10.000    0.000    0.000    0.000    0.000 
#    0.000    0.000    0.000    0.000    0.000    0.000 
#
# Total GULP energy -198231.288718 kJ/mol
# GULP energy per Si atom -12389.455545 kJ/mol
# Density = 2.392298 g / cm^3
# Si number density = 23.977552 Si / 1000 Ang^3
#
#
#
# Elastic Constant Matrix: (Units=GPa)
#
#
# Indices 1 2 3 4 5 6 
#
# 1 104.2435 30.5957 37.2215 -3.0759 -18.5979 17.4099
# 2 30.5957 80.2993 31.6968 -3.0107 -16.3801 9.5969
# 3 37.2215 31.6968 126.9687 -20.6278 -22.5797 -5.4563
# 4 -3.0759 -3.0107 -20.6278 32.7744 0.0573 -1.6358
# 5 -18.5979 -16.3801 -22.5797 0.0573 34.2434 6.9694
# 6 17.4099 9.5969 -5.4563 -1.6358 6.9694 52.7341
#
#
#
# Elastic Compliance Matrix: (Units=1/GPa)
#
#
# Indices 1 2 3 4 5 6 
#
# 1 0.012909 -0.002275 -0.002657 -0.000920 0.005156 -0.004833
# 2 -0.002275 0.015746 -0.002551 -0.000536 0.005243 -0.003088
# 3 -0.002657 -0.002551 0.011234 0.006686 0.004297 0.002143
# 4 -0.000920 -0.000536 0.006686 0.034666 0.003241 0.001740
# 5 0.005156 0.005243 0.004297 0.003241 0.038813 -0.007241
# 6 -0.004833 -0.003088 0.002143 0.001740 -0.007241 0.022353
#
#
# Mechanical properties :
#
#
# Convention : Reuss Voigt Hill
#
# Bulk Modulus (GPa) = 40.12275 56.72661 48.42468
# Shear Modulus (GPa) = 31.44760 38.08355 34.76558
#
# Velocity S-wave (km/s) = 3.62545 3.98967 3.81191
# Velocity P-wave (km/s) = 5.85619 6.70320 6.29396
#
# Compressibility (1/GPa) = 0.02492351
#
# Stress axis : x y z
#
# Youngs Moduli (GPa) = 77.46471 63.50872 89.01370
#
# Poissons Ratio (x) = 0.14449 0.23647
# Poissons Ratio (y) = 0.17624 0.22709
# Poissons Ratio (z) = 0.20579 0.16202
#
# Static dielectric constant tensor:
#      x y z
#    x 4.398710 -0.023310 -0.084330 
#    y -0.023310 4.669160 -0.273790 
#    z -0.084330 -0.273790 4.597040 
# 
# 
# High freq. dielectric constant tensor:
#      x y z
#    x 1.951280 0.002310 -0.005520 
#    y 0.002310 1.947580 0.002080 
#    z -0.005520 0.002080 1.940880 
# 
# From -- ./inp_files/600148.got.cif
#   From: 2010.06.25/outbox.cif.g09.slc.cpg/sg2_301_cif.got.tgz:600148.got - 2010.06.27 13:26:56.
