data_PCOD8017913
_publ_section_title
;
Structure prediction by ZEFSAII (Michael W. Deem and Ramdas Pophale) SiO2 
 PCOD8017913
Probable space group: P -1
;
_chemical_formula_sum "Si O2"
_cell_formula_units_Z 16
_cell_length_a 17.284085
_cell_length_b 9.171819
_cell_length_c 10.375314
_cell_angle_alpha 127.690616
_cell_angle_beta 32.895034
_cell_angle_gamma 129.231336
_cell_volume 679.190930
_symmetry_space_group_name_H-M "P -1"
_symmetry_group_IT_number 2
_symmetry_cell_setting 'triclinic'
loop_
_space_group_symop_operation_xyz
x,y,z
-x,-y,-z
loop_
_atom_site_type_symbol
_atom_site_label
_atom_site_fract_x
_atom_site_fract_y
_atom_site_fract_z
Si Si1 0.569428 0.337997 0.482308
Si Si2 0.094039 0.052625 0.585783
Si Si3 0.700380 0.518279 0.129533
Si Si4 0.569654 0.947789 0.177265
Si Si5 0.723427 0.348798 0.536082
Si Si6 0.813453 0.764340 0.719789
Si Si7 0.989138 0.795968 0.965296
Si Si8 0.339882 0.883207 0.121000
O O1 0.656879 0.448869 0.298326
O O2 0.404290 0.362386 0.719753
O O3 0.656402 0.415125 0.534298
O O4 0.552005 0.109643 0.389427
O O5 0.148534 0.172507 0.446339
O O6 0.065858 0.202137 0.809616
O O7 0.220801 0.957813 0.409109
O O8 0.952272 0.870423 0.669505
O O9 0.870126 0.642709 0.963785
O O10 0.689118 0.344421 0.951421
O O11 0.407158 0.810195 0.292456
O O12 0.670916 0.814089 0.010889
O O13 0.669286 0.066735 0.988502
O O14 0.781207 0.534590 0.646332
O O15 0.856438 0.256031 0.273483
O O16 0.000000 0.000000 0.000000
O O17 0.500000 0.000000 0.000000
#
# Coordination Sequence:
#
# PCOD8017913 Si02
#       8
#     2   2   2   2   2   2   2   2
#     4  10  22  39  68  94 132 171 217 273 316 391
#     4  10  23  43  66  92 129 168 222 265 331 384
#     4  10  23  42  64  99 130 169 229 260 325 391
#     4  10  22  40  61  95 131 165 215 265 323 385
#     4  12  24  40  66  98 132 173 219 263 334 390
#     4  10  22  42  68  96 126 168 217 279 322 385
#     4  12  27  44  65  95 138 178 212 275 328 391
#     4  10  23  40  69  89 125 173 213 270 320 379
#
# _framework density 23.557441000000001
#
# number of rings (size 3 to 8) (size 9 to 14) (size 15 to 20)
#    0.000    1.500    0.000    3.750   10.500    5.000 
#    2.250    1.250    0.000    0.000    0.000    0.000 
#    0.000    0.000    0.000    0.000    0.000    0.000 
#
# Total GULP energy -198359.162781 kJ/mol
# GULP energy per Si atom -12397.447674 kJ/mol
# Density = 2.350382 g / cm^3
# Si number density = 23.557441 Si / 1000 Ang^3
#
#
#
# Elastic Constant Matrix: (Units=GPa)
#
#
# Indices 1 2 3 4 5 6 
#
# 1 64.5422 27.3362 30.2638 4.2339 -26.0261 11.1541
# 2 27.3362 134.1513 56.7702 9.1787 -9.9460 31.9027
# 3 30.2638 56.7702 165.5222 17.5465 -45.7443 12.1241
# 4 4.2339 9.1787 17.5465 38.8284 6.6085 -2.1226
# 5 -26.0261 -9.9460 -45.7443 6.6085 34.7420 -8.4144
# 6 11.1541 31.9027 12.1241 -2.1226 -8.4144 47.8300
#
#
#
# Elastic Compliance Matrix: (Units=1/GPa)
#
#
# Indices 1 2 3 4 5 6 
#
# 1 0.026689 -0.005133 0.005316 -0.008722 0.027244 0.000258
# 2 -0.005133 0.011544 -0.005277 0.001446 -0.009399 -0.006755
# 3 0.005316 -0.005277 0.014280 -0.009687 0.023697 0.002399
# 4 -0.008722 0.001446 -0.009687 0.035098 -0.025402 0.000614
# 5 0.027244 -0.009399 0.023697 -0.025402 0.084383 0.007627
# 6 0.000258 -0.006755 0.002399 0.000614 0.007627 0.026113
#
#
# Mechanical properties :
#
#
# Convention : Reuss Voigt Hill
#
# Bulk Modulus (GPa) = 23.62704 65.88400 44.75552
# Shear Modulus (GPa) = 22.48185 40.93645 31.70915
#
# Velocity S-wave (km/s) = 3.09259 4.17313 3.67282
# Velocity P-wave (km/s) = 4.77530 7.15878 6.08488
#
# Compressibility (1/GPa) = 0.04232438
#
# Stress axis : x y z
#
# Youngs Moduli (GPa) = 37.46902 86.62708 70.03043
#
# Poissons Ratio (x) = 0.44462 -0.37226
# Poissons Ratio (y) = 0.19231 0.36954
# Poissons Ratio (z) = -0.19917 0.45712
#
# Static dielectric constant tensor:
#      x y z
#    x 4.578460 -0.335930 0.209030 
#    y -0.335930 4.265780 0.118630 
#    z 0.209030 0.118630 4.482900 
# 
# 
# High freq. dielectric constant tensor:
#      x y z
#    x 1.923230 0.004830 -0.005250 
#    y 0.004830 1.941780 0.001430 
#    z -0.005250 0.001430 1.944010 
# 
# From -- ./inp_files/462410.got.cif
#   From: 2010.06.25/outbox.cif.g09.slc.cpg/sg2_232_cif.got.tgz:462410.got - 2010.06.27 13:26:56.
