data_PCOD8017804
_publ_section_title
;
Structure prediction by ZEFSAII (Michael W. Deem and Ramdas Pophale) SiO2 
 PCOD8017804
Probable space group: P -1
;
_chemical_formula_sum "Si O2"
_cell_formula_units_Z 16
_cell_length_a 10.447886
_cell_length_b 11.294599
_cell_length_c 6.613521
_cell_angle_alpha 67.366979
_cell_angle_beta 93.570392
_cell_angle_gamma 76.975339
_cell_volume 692.091720
_symmetry_space_group_name_H-M "P -1"
_symmetry_group_IT_number 2
_symmetry_cell_setting 'triclinic'
loop_
_space_group_symop_operation_xyz
x,y,z
-x,-y,-z
loop_
_atom_site_type_symbol
_atom_site_label
_atom_site_fract_x
_atom_site_fract_y
_atom_site_fract_z
Si Si1 0.534217 0.788382 0.206369
Si Si2 0.193993 0.866891 0.723317
Si Si3 0.409637 0.624129 0.028036
Si Si4 0.698940 0.554630 0.586468
Si Si5 0.110157 0.331075 0.190337
Si Si6 0.098555 0.494376 0.697236
Si Si7 0.099327 0.064334 0.247538
Si Si8 0.295640 0.019062 0.957449
O O1 0.503343 0.714617 0.050708
O O2 0.570159 0.681818 0.462643
O O3 0.662487 0.844036 0.146491
O O4 0.407815 0.911363 0.168805
O O5 0.059464 0.877450 0.830560
O O6 0.147660 0.922624 0.459066
O O7 0.276739 0.959112 0.777138
O O8 0.287970 0.715092 0.822591
O O9 0.345153 0.570497 0.250305
O O10 0.500000 0.500000 0.000000
O O11 0.795663 0.597665 0.726146
O O12 0.760666 0.513967 0.393470
O O13 0.156406 0.171222 0.309499
O O14 0.961644 0.377236 0.248086
O O15 0.107974 0.368367 0.927762
O O16 0.000000 0.500000 0.500000
O O17 0.156023 0.047780 0.039173
#
# Coordination Sequence:
#
# PCOD8017804 Si02
#       8
#     2   2   2   2   2   2   2   2
#     4  10  23  45  65  99 127 176 227 268 337 389
#     4  10  25  46  61 104 126 175 224 266 340 388
#     4  11  27  44  68  96 139 176 224 283 328 402
#     4  11  23  41  65  98 135 179 218 272 335 398
#     4  10  22  39  66 103 133 173 220 272 336 399
#     4   9  21  39  62  97 138 174 215 268 334 399
#     4  11  23  41  72  95 133 171 217 279 329 395
#     4  10  22  45  70  91 135 169 223 277 319 402
#
# _framework density 23.118323
#
# number of rings (size 3 to 8) (size 9 to 14) (size 15 to 20)
#    0.000    1.750    0.000    2.250   10.500    1.000 
#    9.000    2.500    0.000    0.000    0.000    0.000 
#    0.000    0.000    0.000    0.000    0.000    0.000 
#
# Total GULP energy -198330.383778 kJ/mol
# GULP energy per Si atom -12395.648986 kJ/mol
# Density = 2.306571 g / cm^3
# Si number density = 23.118323 Si / 1000 Ang^3
#
#
#
# Elastic Constant Matrix: (Units=GPa)
#
#
# Indices 1 2 3 4 5 6 
#
# 1 87.5837 30.9298 27.2205 0.7633 -1.4135 -6.7144
# 2 30.9298 106.5999 36.7055 -13.5028 -3.4323 -9.8020
# 3 27.2205 36.7055 95.8933 -13.0748 1.8622 -13.9670
# 4 0.7633 -13.5028 -13.0748 37.0052 -9.2029 7.9435
# 5 -1.4135 -3.4323 1.8622 -9.2029 39.6497 -2.0955
# 6 -6.7144 -9.8020 -13.9670 7.9435 -2.0955 32.8975
#
#
#
# Elastic Compliance Matrix: (Units=1/GPa)
#
#
# Indices 1 2 3 4 5 6 
#
# 1 0.013539 -0.003204 -0.002805 -0.002772 -0.000239 0.001272
# 2 -0.003204 0.011979 -0.003093 0.003650 0.001960 0.000845
# 3 -0.002805 -0.003093 0.013303 0.002851 -0.000148 0.003456
# 4 -0.002772 0.003650 0.002851 0.032449 0.007317 -0.005637
# 5 -0.000239 0.001960 -0.000148 0.007317 0.027110 0.000432
# 6 0.001272 0.000845 0.003456 -0.005637 0.000432 0.033765
#
#
# Mechanical properties :
#
#
# Convention : Reuss Voigt Hill
#
# Bulk Modulus (GPa) = 48.50336 53.30982 50.90659
# Shear Modulus (GPa) = 31.80232 34.92522 33.36377
#
# Velocity S-wave (km/s) = 3.71298 3.89101 3.80303
# Velocity P-wave (km/s) = 6.27755 6.57999 6.43055
#
# Compressibility (1/GPa) = 0.02061713
#
# Stress axis : x y z
#
# Youngs Moduli (GPa) = 73.86215 83.48102 75.16973
#
# Poissons Ratio (x) = 0.26751 0.21082
# Poissons Ratio (y) = 0.23668 0.23248
# Poissons Ratio (z) = 0.20716 0.25819
#
# Static dielectric constant tensor:
#      x y z
#    x 4.341670 -0.233550 -0.057170 
#    y -0.233550 4.196020 -0.166950 
#    z -0.057170 -0.166950 4.021870 
# 
# 
# High freq. dielectric constant tensor:
#      x y z
#    x 1.915090 -0.006840 0.007660 
#    y -0.006840 1.914200 -0.013950 
#    z 0.007660 -0.013950 1.903280 
# 
# From -- ./inp_files/69167.got.cif
#   From: 2010.06.25/outbox.cif.g09.slc.cpg/sg2_35_cif.got.tgz:69167.got - 2010.06.27 13:26:56.
