data_PCOD8017183
_publ_section_title
;
Structure prediction by ZEFSAII (Michael W. Deem and Ramdas Pophale) SiO2 
 PCOD8017183
Probable space group: P -1
;
_chemical_formula_sum "Si O2"
_cell_formula_units_Z 14
_cell_length_a 21.305024
_cell_length_b 9.025360
_cell_length_c 18.558251
_cell_angle_alpha 131.031618
_cell_angle_beta 18.845118
_cell_angle_gamma 119.187450
_cell_volume 727.112912
_symmetry_space_group_name_H-M "P -1"
_symmetry_group_IT_number 2
_symmetry_cell_setting 'triclinic'
loop_
_space_group_symop_operation_xyz
x,y,z
-x,-y,-z
loop_
_atom_site_type_symbol
_atom_site_label
_atom_site_fract_x
_atom_site_fract_y
_atom_site_fract_z
Si Si1 0.114721 0.445818 0.780402
Si Si2 0.290805 0.959547 0.212138
Si Si3 0.987378 0.176293 0.738082
Si Si4 0.562457 0.275917 0.312433
Si Si5 0.843982 0.899724 0.125228
Si Si6 0.186438 0.628486 0.156116
Si Si7 0.372474 0.121297 0.783874
O O1 0.376966 0.377425 0.481412
O O2 0.121358 0.230391 0.668333
O O3 0.000000 0.500000 0.000000
O O4 0.963018 0.656360 0.958772
O O5 0.193419 0.959197 0.398383
O O6 0.077850 0.177425 0.467777
O O7 0.355689 0.715044 0.025889
O O8 0.500000 0.000000 0.000000
O O9 0.820048 0.384170 0.928812
O O10 0.819185 0.129877 0.952600
O O11 0.500000 0.500000 0.500000
O O12 0.539828 0.088581 0.322179
O O13 0.822242 0.865384 0.052734
O O14 0.588946 0.082364 0.491017
O O15 0.000000 0.000000 0.000000
O O16 0.269121 0.372877 0.016062
#
# Coordination Sequence:
#
# PCOD8017183 Si02
#       7
#     2   2   2   2   2   2   2
#     4  12  22  38  56  91 122 163 202 236 294 374
#     4   9  20  40  66  92 111 151 210 263 302 358
#     4  10  22  38  62  88 116 163 198 246 308 360
#     4  12  24  38  60  86 134 165 197 238 302 369
#     4  11  23  35  57  82 123 163 206 241 294 350
#     4   9  21  39  64  88 116 148 214 251 306 351
#     4  11  23  39  55  90 121 162 201 256 294 353
#
# _framework density 19.254231000000001
#
# number of rings (size 3 to 8) (size 9 to 14) (size 15 to 20)
#    0.857    0.571    4.286    0.857    6.000    1.143 
#    0.000    0.714    0.000    1.714    0.000    0.000 
#    0.000    0.000    0.000    0.000    0.000    0.000 
#
# Total GULP energy -173466.210832 kJ/mol
# GULP energy per Si atom -12390.443631 kJ/mol
# Density = 1.921041 g / cm^3
# Si number density = 19.254231 Si / 1000 Ang^3
#
#
#
# Elastic Constant Matrix: (Units=GPa)
#
#
# Indices 1 2 3 4 5 6 
#
# 1 96.0362 27.0323 27.1265 -2.3242 -5.5644 26.9134
# 2 27.0323 96.4939 38.0707 5.9299 -3.1862 25.4275
# 3 27.1265 38.0707 75.0549 -12.1538 -1.3791 16.2978
# 4 -2.3242 5.9299 -12.1538 38.4411 1.9381 -7.1600
# 5 -5.5644 -3.1862 -1.3791 1.9381 33.2821 -5.5771
# 6 26.9134 25.4275 16.2978 -7.1600 -5.5771 40.4006
#
#
#
# Elastic Compliance Matrix: (Units=1/GPa)
#
#
# Indices 1 2 3 4 5 6 
#
# 1 0.013614 -0.000347 -0.003329 -0.001652 0.000915 -0.007675
# 2 -0.000347 0.015738 -0.007149 -0.006183 0.000196 -0.007860
# 3 -0.003329 -0.007149 0.019261 0.007049 -0.000840 0.000080
# 4 -0.001652 -0.006183 0.007049 0.030532 -0.001113 0.007405
# 5 0.000915 0.000196 -0.000840 -0.001113 0.030863 0.003669
# 6 -0.007675 -0.007860 0.000080 0.007405 0.003669 0.036598
#
#
# Mechanical properties :
#
#
# Convention : Reuss Voigt Hill
#
# Bulk Modulus (GPa) = 37.08383 50.22711 43.65547
# Shear Modulus (GPa) = 28.20970 34.11512 31.16241
#
# Velocity S-wave (km/s) = 3.83184 4.21387 4.02739
# Velocity P-wave (km/s) = 6.23532 7.05822 6.65949
#
# Compressibility (1/GPa) = 0.02696593
#
# Stress axis : x y z
#
# Youngs Moduli (GPa) = 73.45156 63.53872 51.91711
#
# Poissons Ratio (x) = 0.02202 0.17282
# Poissons Ratio (y) = 0.02545 0.37115
# Poissons Ratio (z) = 0.24451 0.45423
#
# Static dielectric constant tensor:
#      x y z
#    x 3.673970 0.219070 -0.141440 
#    y 0.219070 3.258680 -0.084500 
#    z -0.141440 -0.084500 3.424590 
# 
# 
# High freq. dielectric constant tensor:
#      x y z
#    x 1.748760 0.022360 -0.008150 
#    y 0.022360 1.736470 -0.009670 
#    z -0.008150 -0.009670 1.736260 
# 
# From -- ./inp_files/577396.got.cif
#   From: 2010.06.25/outbox.cif.g09.slc.cpg/sg2_289_cif.got.tgz:577396.got - 2010.06.27 13:26:56.
