data_PCOD8017142
_publ_section_title
;
Structure prediction by ZEFSAII (Michael W. Deem and Ramdas Pophale) SiO2 
 PCOD8017142
Probable space group: P -1
;
_chemical_formula_sum "Si O2"
_cell_formula_units_Z 14
_cell_length_a 12.005382
_cell_length_b 11.305465
_cell_length_c 11.322798
_cell_angle_alpha 137.589321
_cell_angle_beta 77.273124
_cell_angle_gamma 70.151748
_cell_volume 653.097931
_symmetry_space_group_name_H-M "P -1"
_symmetry_group_IT_number 2
_symmetry_cell_setting 'triclinic'
loop_
_space_group_symop_operation_xyz
x,y,z
-x,-y,-z
loop_
_atom_site_type_symbol
_atom_site_label
_atom_site_fract_x
_atom_site_fract_y
_atom_site_fract_z
Si Si1 0.907253 0.928096 0.498180
Si Si2 0.734289 0.645254 0.013093
Si Si3 0.312896 0.583325 0.944897
Si Si4 0.701690 0.072620 0.421452
Si Si5 0.547968 0.013861 0.126156
Si Si6 0.210275 0.601844 0.734297
Si Si7 0.182781 0.993486 0.904324
O O1 0.810275 0.969193 0.437573
O O2 0.000000 0.000000 0.500000
O O3 0.058380 0.609401 0.261047
O O4 0.771127 0.129539 0.785378
O O5 0.681067 0.551758 0.043370
O O6 0.689295 0.880357 0.259936
O O7 0.620042 0.769827 0.010948
O O8 0.510522 0.385094 0.709373
O O9 0.198858 0.633046 0.902168
O O10 0.790322 0.067366 0.286703
O O11 0.372239 0.289530 0.432398
O O12 0.703478 0.976310 0.053065
O O13 0.500000 0.000000 0.000000
O O14 0.248317 0.746611 0.776217
O O15 0.027809 0.732321 0.824186
#
# Coordination Sequence:
#
# PCOD8017142 Si02
#       7
#     2   2   2   2   2   2   2
#     4  10  22  38  60  94 129 164 213 262 315 384
#     4  10  22  42  63  93 132 168 209 269 324 378
#     4  11  22  40  65  99 127 170 216 263 326 380
#     4  11  21  40  67  93 129 170 216 264 322 384
#     4  11  25  44  67  95 131 169 219 270 324 385
#     4  11  23  43  69  94 131 171 218 268 319 395
#     4  10  23  43  69  94 126 176 217 263 327 379
#
# _framework density 21.436295999999999
#
# number of rings (size 3 to 8) (size 9 to 14) (size 15 to 20)
#    0.000    1.429    2.857    3.429    0.000    6.286 
#    2.571    0.000    0.000    0.000    0.000    0.000 
#    0.000    0.000    0.000    0.000    0.000    0.000 
#
# Total GULP energy -173585.197325 kJ/mol
# GULP energy per Si atom -12398.942666 kJ/mol
# Density = 2.138751 g / cm^3
# Si number density = 21.436296 Si / 1000 Ang^3
#
#
#
# Elastic Constant Matrix: (Units=GPa)
#
#
# Indices 1 2 3 4 5 6 
#
# 1 75.7664 34.3203 41.5257 -8.1324 -10.9507 -23.8771
# 2 34.3203 107.5212 66.3383 -6.7264 7.2240 -28.2538
# 3 41.5257 66.3383 133.0071 6.0453 -12.9233 -21.3451
# 4 -8.1324 -6.7264 6.0453 31.9801 -12.2281 -0.6870
# 5 -10.9507 7.2240 -12.9233 -12.2281 28.7018 -7.3693
# 6 -23.8771 -28.2538 -21.3451 -0.6870 -7.3693 46.3317
#
#
#
# Elastic Compliance Matrix: (Units=1/GPa)
#
#
# Indices 1 2 3 4 5 6 
#
# 1 0.023739 -0.002963 -0.002944 0.012713 0.016964 0.011957
# 2 -0.002963 0.016390 -0.007343 0.001539 -0.006876 0.004014
# 3 -0.002944 -0.007343 0.012895 -0.002553 0.005650 0.000806
# 4 0.012713 0.001539 -0.002553 0.045270 0.025433 0.011031
# 5 0.016964 -0.006876 0.005650 0.025433 0.060841 0.017206
# 6 0.011957 0.004014 0.000806 0.011031 0.017206 0.033465
#
#
# Mechanical properties :
#
#
# Convention : Reuss Voigt Hill
#
# Bulk Modulus (GPa) = 37.70488 66.74037 52.22262
# Shear Modulus (GPa) = 21.93539 33.01008 27.47273
#
# Velocity S-wave (km/s) = 3.20235 3.92843 3.58383
# Velocity P-wave (km/s) = 5.59472 7.19574 6.44513
#
# Compressibility (1/GPa) = 0.02652177
#
# Stress axis : x y z
#
# Youngs Moduli (GPa) = 42.12488 61.01254 77.55216
#
# Poissons Ratio (x) = 0.18079 0.22833
# Poissons Ratio (y) = 0.12483 0.56950
# Poissons Ratio (z) = 0.12403 0.44804
#
# Static dielectric constant tensor:
#      x y z
#    x 3.583580 -0.131540 -0.236650 
#    y -0.131540 4.020750 0.211560 
#    z -0.236650 0.211560 4.748190 
# 
# 
# High freq. dielectric constant tensor:
#      x y z
#    x 1.828060 -0.016260 -0.013610 
#    y -0.016260 1.847020 0.006840 
#    z -0.013610 0.006840 1.856580 
# 
# From -- ./inp_files/270632.got.cif
#   From: 2010.06.25/outbox.cif.g09.slc.cpg/sg2_136_cif.got.tgz:270632.got - 2010.06.27 13:26:56.
