data_PCOD8017531
_publ_section_title
;
Structure prediction by ZEFSAII (Michael W. Deem and Ramdas Pophale) SiO2 
 PCOD8017531
Probable space group: P -1
;
_chemical_formula_sum "Si O2"
_cell_formula_units_Z 16
_cell_length_a 21.121688
_cell_length_b 12.405569
_cell_length_c 8.713827
_cell_angle_alpha 119.092828
_cell_angle_beta 35.261347
_cell_angle_gamma 143.906988
_cell_volume 667.756777
_symmetry_space_group_name_H-M "P -1"
_symmetry_group_IT_number 2
_symmetry_cell_setting 'triclinic'
loop_
_space_group_symop_operation_xyz
x,y,z
-x,-y,-z
loop_
_atom_site_type_symbol
_atom_site_label
_atom_site_fract_x
_atom_site_fract_y
_atom_site_fract_z
Si Si1 0.438257 0.035109 0.275469
Si Si2 0.188375 0.621949 0.630183
Si Si3 0.087693 0.847758 0.696001
Si Si4 0.862904 0.661540 0.310963
Si Si5 0.808887 0.494132 0.787885
Si Si6 0.611441 0.560986 0.171965
Si Si7 0.843218 0.957297 0.813636
Si Si8 0.283477 0.209221 0.360500
O O1 0.349340 0.877264 0.486421
O O2 0.282865 0.983995 0.477954
O O3 0.500000 0.000000 0.000000
O O4 0.631176 0.287030 0.103319
O O5 0.259445 0.569442 0.553181
O O6 0.157528 0.554093 0.466228
O O7 0.000000 0.500000 0.000000
O O8 0.005414 0.670407 0.616294
O O9 0.124169 0.014016 0.658843
O O10 0.923478 0.710723 0.049755
O O11 0.742614 0.675801 0.571236
O O12 0.048105 0.828927 0.173161
O O13 0.773824 0.607989 0.906373
O O14 0.500000 0.500000 0.500000
O O15 0.484491 0.384889 0.166492
O O16 0.697400 0.769763 0.095131
O O17 0.732279 0.892270 0.831100
O O18 0.000000 0.000000 0.500000
#
# Coordination Sequence:
#
# PCOD8017531 Si02
#       8
#     2   2   2   2   2   2   2   2
#     4  10  24  45  70  98 134 176 236 283 335 401
#     4  11  23  45  71  93 134 189 228 288 339 396
#     4  12  22  43  73 101 134 182 221 280 358 409
#     4  11  22  41  66  98 137 175 230 279 339 415
#     4  11  24  44  72 101 137 179 231 285 342 406
#     4  12  23  40  67 104 144 178 225 281 343 417
#     4  10  22  39  61  94 136 181 217 272 342 412
#     4  11  22  39  66 103 135 180 225 278 353 412
#
# _framework density 23.960819000000001
#
# number of rings (size 3 to 8) (size 9 to 14) (size 15 to 20)
#    0.000    1.000    2.500    6.000    0.000    2.000 
#    0.000    0.625    2.750    0.000    0.000    0.000 
#    0.000    0.000    0.000    0.000    0.000    0.000 
#
# Total GULP energy -198272.474754 kJ/mol
# GULP energy per Si atom -12392.029672 kJ/mol
# Density = 2.390628 g / cm^3
# Si number density = 23.960819 Si / 1000 Ang^3
#
#
#
# Elastic Constant Matrix: (Units=GPa)
#
#
# Indices 1 2 3 4 5 6 
#
# 1 79.1356 37.5626 19.2852 -18.3474 21.7350 -17.7814
# 2 37.5626 71.1996 15.5125 -21.4008 3.8803 -16.0683
# 3 19.2852 15.5125 94.6637 -11.9801 21.7459 -8.7585
# 4 -18.3474 -21.4008 -11.9801 49.1672 -4.1731 14.3741
# 5 21.7350 3.8803 21.7459 -4.1731 34.9464 -11.9190
# 6 -17.7814 -16.0683 -8.7585 14.3741 -11.9190 42.6666
#
#
#
# Elastic Compliance Matrix: (Units=1/GPa)
#
#
# Indices 1 2 3 4 5 6 
#
# 1 0.021120 -0.009575 0.000351 0.002464 -0.011587 0.001201
# 2 -0.009575 0.021505 -0.002186 0.004666 0.006850 0.004001
# 3 0.000351 -0.002186 0.012858 0.001900 -0.008067 -0.000931
# 4 0.002464 0.004666 0.001900 0.025310 -0.002251 -0.005981
# 5 -0.011587 0.006850 -0.008067 -0.002251 0.042819 0.008814
# 6 0.001201 0.004001 -0.000931 -0.005981 0.008814 0.029731
#
#
# Mechanical properties :
#
#
# Convention : Reuss Voigt Hill
#
# Bulk Modulus (GPa) = 30.61642 43.30216 36.95929
# Shear Modulus (GPa) = 26.73079 36.86528 31.79804
#
# Velocity S-wave (km/s) = 3.34369 3.92671 3.64687
# Velocity P-wave (km/s) = 5.26426 6.21852 5.76118
#
# Compressibility (1/GPa) = 0.03266221
#
# Stress axis : x y z
#
# Youngs Moduli (GPa) = 47.34957 46.50039 77.77300
#
# Poissons Ratio (x) = 0.44526 -0.02732
# Poissons Ratio (y) = 0.45339 0.17002
# Poissons Ratio (z) = -0.01663 0.10165
#
# Static dielectric constant tensor:
#      x y z
#    x 4.595330 0.132610 0.453360 
#    y 0.132610 5.082090 -0.568530 
#    z 0.453360 -0.568530 4.506890 
# 
# 
# High freq. dielectric constant tensor:
#      x y z
#    x 1.935740 -0.003890 0.022380 
#    y -0.003890 1.952250 -0.017740 
#    z 0.022380 -0.017740 1.948770 
# 
# From -- ./inp_files/346216.got.cif
#   From: 2010.06.25/outbox.cif.g09.slc.cpg/sg2_174_cif.got.tgz:346216.got - 2010.06.27 13:26:56.
