data_PCOD8017864
_publ_section_title
;
Structure prediction by ZEFSAII (Michael W. Deem and Ramdas Pophale) SiO2 
 PCOD8017864
Probable space group: P -1
;
_chemical_formula_sum "Si O2"
_cell_formula_units_Z 12
_cell_length_a 9.168201
_cell_length_b 9.594014
_cell_length_c 6.729788
_cell_angle_alpha 61.322895
_cell_angle_beta 104.715433
_cell_angle_gamma 111.749848
_cell_volume 480.256034
_symmetry_space_group_name_H-M "P -1"
_symmetry_group_IT_number 2
_symmetry_cell_setting 'triclinic'
loop_
_space_group_symop_operation_xyz
x,y,z
-x,-y,-z
loop_
_atom_site_type_symbol
_atom_site_label
_atom_site_fract_x
_atom_site_fract_y
_atom_site_fract_z
Si Si1 0.443699 0.241758 0.604729
Si Si2 0.847384 0.337671 0.203129
Si Si3 0.022425 0.672100 0.155729
Si Si4 0.410412 0.528220 0.170068
Si Si5 0.721711 0.782951 0.048318
Si Si6 0.297361 0.888904 0.357728
O O1 0.379994 0.332105 0.339868
O O2 0.581041 0.380939 0.674511
O O3 0.308238 0.158050 0.777626
O O4 0.521979 0.107174 0.630647
O O5 0.748286 0.169884 0.392248
O O6 0.968678 0.470089 0.300994
O O7 0.943266 0.285632 0.094594
O O8 0.734925 0.445297 0.016874
O O9 0.181577 0.753343 0.271549
O O10 0.890597 0.754288 0.126775
O O11 0.580694 0.613322 0.056877
O O12 0.718671 0.928287 0.795669
#
# Coordination Sequence:
#
# PCOD8017864 Si02
#       6
#     2   2   2   2   2   2
#     4   9  20  40  68  89 120 160 209 253 300 366
#     4  11  25  40  67  90 124 165 208 260 296 370
#     4  11  24  43  59  91 128 165 212 245 304 371
#     4   9  20  42  61  96 115 160 213 246 307 353
#     4  10  22  39  67  92 124 166 199 257 313 365
#     4  12  23  41  65  92 129 164 199 255 316 367
#
# _framework density 24.986671999999999
#
# number of rings (size 3 to 8) (size 9 to 14) (size 15 to 20)
#    1.000    0.667    1.667    2.500    0.000    6.667 
#    0.000    1.667    0.000    0.000    0.000    0.000 
#    0.000    0.000    0.000    0.000    0.000    0.000 
#
# Total GULP energy -148796.445422 kJ/mol
# GULP energy per Si atom -12399.703785 kJ/mol
# Density = 2.492980 g / cm^3
# Si number density = 24.986672 Si / 1000 Ang^3
#
#
#
# Elastic Constant Matrix: (Units=GPa)
#
#
# Indices 1 2 3 4 5 6 
#
# 1 135.6338 3.5759 34.1288 -5.3646 -24.1002 -27.7890
# 2 3.5759 29.3231 -0.7476 -4.3028 -11.8147 1.6618
# 3 34.1288 -0.7476 131.9871 -21.3735 -20.9046 -0.7459
# 4 -5.3646 -4.3028 -21.3735 22.6443 -1.0348 1.2906
# 5 -24.1002 -11.8147 -20.9046 -1.0348 33.1594 8.2209
# 6 -27.7890 1.6618 -0.7459 1.2906 8.2209 37.4250
#
#
#
# Elastic Compliance Matrix: (Units=1/GPa)
#
#
# Indices 1 2 3 4 5 6 
#
# 1 0.009941 0.000443 -0.001648 0.000748 0.004819 0.006245
# 2 0.000443 0.046417 0.006463 0.016503 0.023255 -0.007281
# 3 -0.001648 0.006463 0.011573 0.012425 0.009742 -0.003849
# 4 0.000748 0.016503 0.012425 0.060341 0.017597 -0.005876
# 5 0.004819 0.023255 0.009742 0.017597 0.050879 -0.009043
# 6 0.006245 -0.007281 -0.003849 -0.005876 -0.009043 0.033793
#
#
# Mechanical properties :
#
#
# Convention : Reuss Voigt Hill
#
# Bulk Modulus (GPa) = 12.74757 41.20648 26.97702
# Shear Modulus (GPa) = 21.87442 35.97818 28.92630
#
# Velocity S-wave (km/s) = 2.96200 3.79871 3.40615
# Velocity P-wave (km/s) = 4.10009 5.98059 5.12729
#
# Compressibility (1/GPa) = 0.07844632
#
# Stress axis : x y z
#
# Youngs Moduli (GPa) = 100.59168 21.54367 86.40993
#
# Poissons Ratio (x) = -0.00955 0.14244
# Poissons Ratio (y) = -0.04458 -0.55845
# Poissons Ratio (z) = 0.16582 -0.13923
#
# Static dielectric constant tensor:
#      x y z
#    x 4.386740 -0.034520 -0.244700 
#    y -0.034520 4.227510 0.174790 
#    z -0.244700 0.174790 4.343690 
# 
# 
# High freq. dielectric constant tensor:
#      x y z
#    x 1.995460 -0.012050 -0.010430 
#    y -0.012050 1.992270 0.011900 
#    z -0.010430 0.011900 1.991820 
# 
# From -- ./inp_files/160625.got.cif
#   From: 2010.06.25/outbox.cif.g09.slc.cpg/sg2_81_cif.got.tgz:160625.got - 2010.06.27 13:26:56.
