data_PCOD8017270
_publ_section_title
;
Structure prediction by ZEFSAII (Michael W. Deem and Ramdas Pophale) SiO2 
 PCOD8017270
Probable space group: P -1
;
_chemical_formula_sum "Si O2"
_cell_formula_units_Z 12
_cell_length_a 5.182719
_cell_length_b 8.355747
_cell_length_c 15.945897
_cell_angle_alpha 78.604350
_cell_angle_beta 131.256962
_cell_angle_gamma 92.277347
_cell_volume 505.033131
_symmetry_space_group_name_H-M "P -1"
_symmetry_group_IT_number 2
_symmetry_cell_setting 'triclinic'
loop_
_space_group_symop_operation_xyz
x,y,z
-x,-y,-z
loop_
_atom_site_type_symbol
_atom_site_label
_atom_site_fract_x
_atom_site_fract_y
_atom_site_fract_z
Si Si1 0.603484 0.979259 0.428926
Si Si2 0.356583 0.445424 0.764241
Si Si3 0.243117 0.772941 0.004283
Si Si4 0.755459 0.269705 0.711078
Si Si5 0.347688 0.988748 0.859733
Si Si6 0.479879 0.201281 0.232951
O O1 0.532114 0.797179 0.403205
O O2 0.500000 0.000000 0.500000
O O3 0.386935 0.121152 0.309839
O O4 0.000000 0.000000 0.500000
O O5 0.559679 0.398139 0.900165
O O6 0.569906 0.357852 0.742062
O O7 0.324894 0.640873 0.724956
O O8 0.969157 0.394629 0.692005
O O9 0.312832 0.914212 0.072686
O O10 0.409097 0.824897 0.946812
O O11 0.846524 0.752796 0.903373
O O12 0.022883 0.111904 0.812284
O O13 0.277430 0.938347 0.753529
#
# Coordination Sequence:
#
# PCOD8017270 Si02
#       6
#     2   2   2   2   2   2
#     4  12  26  47  75  97 122 175 240 287 326 390
#     4  11  27  41  69 104 149 175 207 271 352 410
#     4  10  22  38  65 101 142 180 222 260 336 400
#     4  11  24  48  66 101 138 179 221 278 335 401
#     4  10  22  38  70  98 137 184 227 266 318 408
#     4  12  25  43  68 102 138 177 228 281 332 397
#
# _framework density 23.760816999999999
#
# number of rings (size 3 to 8) (size 9 to 14) (size 15 to 20)
#    0.000    1.000    1.667    5.000    9.333    0.667 
#    0.000    5.000    0.000    0.000    0.000    0.000 
#    0.000    0.000    0.000    0.000    0.000    0.000 
#
# Total GULP energy -148731.362237 kJ/mol
# GULP energy per Si atom -12394.280186 kJ/mol
# Density = 2.370674 g / cm^3
# Si number density = 23.760817 Si / 1000 Ang^3
#
#
#
# Elastic Constant Matrix: (Units=GPa)
#
#
# Indices 1 2 3 4 5 6 
#
# 1 124.6726 47.2381 45.5877 17.9713 -12.0864 23.6186
# 2 47.2381 136.3269 54.4299 17.1300 -11.9684 32.2270
# 3 45.5877 54.4299 86.1696 24.8128 -20.7667 -0.5360
# 4 17.9713 17.1300 24.8128 31.3255 14.4122 3.3598
# 5 -12.0864 -11.9684 -20.7667 14.4122 43.0717 6.1048
# 6 23.6186 32.2270 -0.5360 3.3598 6.1048 35.5272
#
#
#
# Elastic Compliance Matrix: (Units=1/GPa)
#
#
# Indices 1 2 3 4 5 6 
#
# 1 0.012277 0.000735 -0.004561 -0.004861 0.004379 -0.009190
# 2 0.000735 0.014018 -0.008547 -0.000869 0.002203 -0.013629
# 3 -0.004561 -0.008547 0.032858 -0.029297 0.020498 0.010529
# 4 -0.004861 -0.000869 -0.029297 0.077398 -0.042124 0.003497
# 5 0.004379 0.002203 0.020498 -0.042124 0.050350 -0.009269
# 6 -0.009190 -0.013629 0.010529 0.003497 -0.009269 0.048041
#
#
# Mechanical properties :
#
#
# Convention : Reuss Voigt Hill
#
# Bulk Modulus (GPa) = 29.06445 71.29784 50.18114
# Shear Modulus (GPa) = 18.43959 35.31243 26.87601
#
# Velocity S-wave (km/s) = 2.78879 3.85926 3.36684
# Velocity P-wave (km/s) = 4.75694 7.06613 6.02323
#
# Compressibility (1/GPa) = 0.03440630
#
# Stress axis : x y z
#
# Youngs Moduli (GPa) = 81.45590 71.33924 30.43378
#
# Poissons Ratio (x) = -0.05242 0.13881
# Poissons Ratio (y) = -0.05985 0.26011
# Poissons Ratio (z) = 0.37152 0.60972
#
# Static dielectric constant tensor:
#      x y z
#    x 4.032710 0.300600 -0.043830 
#    y 0.300600 4.366220 0.250890 
#    z -0.043830 0.250890 4.465780 
# 
# 
# High freq. dielectric constant tensor:
#      x y z
#    x 1.943430 0.025700 -0.008350 
#    y 0.025700 1.937950 0.018710 
#    z -0.008350 0.018710 1.928280 
# 
# From -- ./inp_files/142120.got.cif
#   From: 2010.06.25/outbox.cif.g09.slc.cpg/sg2_72_cif.got.tgz:142120.got - 2010.06.27 13:26:56.
