data_PCOD8017292
_publ_section_title
;
Structure prediction by ZEFSAII (Michael W. Deem and Ramdas Pophale) SiO2 
 PCOD8017292
Probable space group: P -1
;
_chemical_formula_sum "Si O2"
_cell_formula_units_Z 16
_cell_length_a 11.269274
_cell_length_b 19.309938
_cell_length_c 9.106996
_cell_angle_alpha 69.540035
_cell_angle_beta 90.945056
_cell_angle_gamma 149.858282
_cell_volume 740.600815
_symmetry_space_group_name_H-M "P -1"
_symmetry_group_IT_number 2
_symmetry_cell_setting 'triclinic'
loop_
_space_group_symop_operation_xyz
x,y,z
-x,-y,-z
loop_
_atom_site_type_symbol
_atom_site_label
_atom_site_fract_x
_atom_site_fract_y
_atom_site_fract_z
Si Si1 0.411923 0.210087 0.375838
Si Si2 0.791312 0.013842 0.713293
Si Si3 0.671665 0.666818 0.710056
Si Si4 0.971661 0.462669 0.695967
Si Si5 0.079215 0.979759 0.816740
Si Si6 0.366338 0.874001 0.961699
Si Si7 0.601134 0.791078 0.080197
Si Si8 0.068299 0.258496 0.054199
O O1 0.384568 0.141035 0.287106
O O2 0.410123 0.295800 0.271271
O O3 0.712827 0.356093 0.353606
O O4 0.130561 0.032996 0.608704
O O5 0.613372 0.987296 0.765857
O O6 0.802018 0.975401 0.893826
O O7 0.125006 0.221072 0.513866
O O8 0.365972 0.449765 0.828801
O O9 0.848409 0.722893 0.796438
O O10 0.000000 0.500000 0.500000
O O11 0.813886 0.293899 0.837090
O O12 0.751793 0.399355 0.811088
O O13 0.732121 0.796306 0.990004
O O14 0.117540 0.914404 0.895297
O O15 0.317751 0.163842 0.778331
O O16 0.146495 0.794008 0.910520
O O17 0.500000 0.000000 0.000000
#
# Coordination Sequence:
#
# PCOD8017292 Si02
#       8
#     2   2   2   2   2   2   2   2
#     4  12  22  43  72  97 132 171 228 281 319 395
#     4  11  23  42  68  99 126 175 226 268 335 389
#     4  11  23  42  66  99 133 169 222 275 328 394
#     4  11  23  43  67 100 130 175 226 275 329 387
#     4  11  21  41  68  94 130 176 220 274 331 393
#     4  11  26  47  67  94 142 179 214 272 340 404
#     4  10  22  38  65  98 129 169 229 272 330 385
#     4  11  23  43  63  95 139 174 210 271 342 390
#
# _framework density 21.604081000000001
#
# number of rings (size 3 to 8) (size 9 to 14) (size 15 to 20)
#    0.000    1.000    5.000    2.625    0.000    2.500 
#    6.750    1.250    0.000    0.000    0.000    0.000 
#    0.000    0.000    0.000    0.000    0.000    0.000 
#
# Total GULP energy -198296.001372 kJ/mol
# GULP energy per Si atom -12393.500086 kJ/mol
# Density = 2.155491 g / cm^3
# Si number density = 21.604081 Si / 1000 Ang^3
#
#
#
# Elastic Constant Matrix: (Units=GPa)
#
#
# Indices 1 2 3 4 5 6 
#
# 1 119.9326 16.1252 30.5897 5.7504 -8.8497 9.5074
# 2 16.1252 51.5891 -0.7099 3.4241 -3.5087 -2.3224
# 3 30.5897 -0.7099 84.2695 0.3526 -5.1459 -5.8820
# 4 5.7504 3.4241 0.3526 28.2007 -1.6889 0.5572
# 5 -8.8497 -3.5087 -5.1459 -1.6889 36.9966 -1.7952
# 6 9.5074 -2.3224 -5.8820 0.5572 -1.7952 38.4867
#
#
#
# Elastic Compliance Matrix: (Units=1/GPa)
#
#
# Indices 1 2 3 4 5 6 
#
# 1 0.010177 -0.003186 -0.003855 -0.001495 0.001372 -0.003210
# 2 -0.003186 0.020730 0.001594 -0.001847 0.001457 0.002376
# 3 -0.003855 0.001594 0.013578 0.000437 0.001292 0.003178
# 4 -0.001495 -0.001847 0.000437 0.036056 0.001167 -0.000143
# 5 0.001372 0.001457 0.001292 0.001167 0.027788 0.001226
# 6 -0.003210 0.002376 0.003178 -0.000143 0.001226 0.027464
#
#
# Mechanical properties :
#
#
# Convention : Reuss Voigt Hill
#
# Bulk Modulus (GPa) = 29.77000 38.64456 34.20728
# Shear Modulus (GPa) = 31.66831 34.72253 33.19542
#
# Velocity S-wave (km/s) = 3.83279 4.01337 3.92412
# Velocity P-wave (km/s) = 5.77900 6.27715 6.03322
#
# Compressibility (1/GPa) = 0.03359087
#
# Stress axis : x y z
#
# Youngs Moduli (GPa) = 98.26069 48.23838 73.64662
#
# Poissons Ratio (x) = 0.15369 0.28391
# Poissons Ratio (y) = 0.31306 -0.11737
# Poissons Ratio (z) = 0.37880 -0.07688
#
# Static dielectric constant tensor:
#      x y z
#    x 4.223810 0.170070 -0.062060 
#    y 0.170070 3.754670 -0.092830 
#    z -0.062060 -0.092830 4.072340 
# 
# 
# High freq. dielectric constant tensor:
#      x y z
#    x 1.859250 0.021170 -0.000770 
#    y 0.021170 1.836500 0.001000 
#    z -0.000770 0.001000 1.851450 
# 
# From -- ./inp_files/281860.got.cif
#   From: 2010.06.25/outbox.cif.g09.slc.cpg/sg2_141_cif.got.tgz:281860.got - 2010.06.27 13:26:56.
