data_PCOD8017798
_publ_section_title
;
Structure prediction by ZEFSAII (Michael W. Deem and Ramdas Pophale) SiO2 
 PCOD8017798
Probable space group: P -1
;
_chemical_formula_sum "Si O2"
_cell_formula_units_Z 14
_cell_length_a 11.073272
_cell_length_b 12.055115
_cell_length_c 11.510396
_cell_angle_alpha 124.568374
_cell_angle_beta 145.373578
_cell_angle_gamma 71.459071
_cell_volume 681.562710
_symmetry_space_group_name_H-M "P -1"
_symmetry_group_IT_number 2
_symmetry_cell_setting 'triclinic'
loop_
_space_group_symop_operation_xyz
x,y,z
-x,-y,-z
loop_
_atom_site_type_symbol
_atom_site_label
_atom_site_fract_x
_atom_site_fract_y
_atom_site_fract_z
Si Si1 0.647460 0.163111 0.330231
Si Si2 0.099839 0.811129 0.237504
Si Si3 0.906554 0.895611 0.654973
Si Si4 0.481821 0.338126 0.874385
Si Si5 0.345905 0.850993 0.938372
Si Si6 0.520755 0.775789 0.432625
Si Si7 0.634393 0.662359 0.687553
O O1 0.859759 0.232998 0.624786
O O2 0.729057 0.187626 0.277028
O O3 0.458546 0.238232 0.244330
O O4 0.554867 0.995880 0.191767
O O5 0.333295 0.839099 0.369424
O O6 0.039612 0.955953 0.280565
O O7 0.894360 0.689102 0.943808
O O8 0.777120 0.763319 0.390271
O O9 0.749107 0.897915 0.643767
O O10 0.142590 0.876635 0.865194
O O11 0.586579 0.324884 0.822436
O O12 0.500000 0.500000 0.000000
O O13 0.604042 0.281877 0.041045
O O14 0.607352 0.691494 0.548725
O O15 0.500000 0.500000 0.500000
#
# Coordination Sequence:
#
# PCOD8017798 Si02
#       7
#     2   2   2   2   2   2   2
#     4  10  23  40  64  99 128 174 218 262 323 385
#     4  11  21  44  67  94 133 169 215 273 323 380
#     4  10  22  39  66 101 124 171 214 263 328 383
#     4  10  24  43  62  95 134 165 216 265 326 386
#     4  11  22  41  67  96 135 168 219 267 315 391
#     4   9  24  40  64  99 125 170 220 260 332 382
#     4  11  25  43  65  93 129 172 223 268 325 384
#
# _framework density 20.541029999999999
#
# number of rings (size 3 to 8) (size 9 to 14) (size 15 to 20)
#    0.857    0.857    2.857    0.429    4.000    5.143 
#    2.571    0.000    0.000    0.000    0.000    0.000 
#    0.000    0.000    0.000    0.000    0.000    0.000 
#
# Total GULP energy -173508.564211 kJ/mol
# GULP energy per Si atom -12393.468872 kJ/mol
# Density = 2.049428 g / cm^3
# Si number density = 20.541030 Si / 1000 Ang^3
#
#
#
# Elastic Constant Matrix: (Units=GPa)
#
#
# Indices 1 2 3 4 5 6 
#
# 1 78.6079 35.3528 39.9636 -8.7491 -8.7302 6.8433
# 2 35.3528 116.9522 63.2000 -10.4424 -6.8928 2.0993
# 3 39.9636 63.2000 112.0753 -11.6822 2.0559 18.0384
# 4 -8.7491 -10.4424 -11.6822 34.9353 -2.0884 -3.6603
# 5 -8.7302 -6.8928 2.0559 -2.0884 34.6666 -2.7929
# 6 6.8433 2.0993 18.0384 -3.6603 -2.7929 22.6874
#
#
#
# Elastic Compliance Matrix: (Units=1/GPa)
#
#
# Indices 1 2 3 4 5 6 
#
# 1 0.016742 -0.002157 -0.004536 0.002241 0.004161 -0.000370
# 2 -0.002157 0.013670 -0.007827 0.001783 0.003254 0.006297
# 3 -0.004536 -0.007827 0.017027 0.000695 -0.004625 -0.011902
# 4 0.002241 0.001783 0.000695 0.030541 0.003032 0.003908
# 5 0.004161 0.003254 -0.004625 0.003032 0.031521 0.006491
# 6 -0.000370 0.006297 -0.011902 0.003908 0.006491 0.054499
#
#
# Mechanical properties :
#
#
# Convention : Reuss Voigt Hill
#
# Bulk Modulus (GPa) = 54.35555 64.96316 59.65936
# Shear Modulus (GPa) = 25.10381 29.73244 27.41813
#
# Velocity S-wave (km/s) = 3.49969 3.80869 3.65745
# Velocity P-wave (km/s) = 6.54598 7.14396 6.85150
#
# Compressibility (1/GPa) = 0.01839738
#
# Stress axis : x y z
#
# Youngs Moduli (GPa) = 59.73130 73.15296 58.73162
#
# Poissons Ratio (x) = 0.15781 0.26644
# Poissons Ratio (y) = 0.12886 0.45967
# Poissons Ratio (z) = 0.27097 0.57254
#
# Static dielectric constant tensor:
#      x y z
#    x 3.671780 0.029990 -0.079770 
#    y 0.029990 3.549680 -0.187950 
#    z -0.079770 -0.187950 3.762800 
# 
# 
# High freq. dielectric constant tensor:
#      x y z
#    x 1.794830 0.000630 -0.005620 
#    y 0.000630 1.795750 -0.014160 
#    z -0.005620 -0.014160 1.800570 
# 
# From -- ./inp_files/363942.got.cif
#   From: 2010.06.25/outbox.cif.g09.slc.cpg/sg2_182_cif.got.tgz:363942.got - 2010.06.27 13:26:56.
