data_PCOD8017673
_publ_section_title
;
Structure prediction by ZEFSAII (Michael W. Deem and Ramdas Pophale) SiO2 
 PCOD8017673
Probable space group: P -1
;
_chemical_formula_sum "Si O2"
_cell_formula_units_Z 14
_cell_length_a 12.422501
_cell_length_b 11.336015
_cell_length_c 9.214130
_cell_angle_alpha 116.191289
_cell_angle_beta 54.132642
_cell_angle_gamma 141.146437
_cell_volume 659.357247
_symmetry_space_group_name_H-M "P -1"
_symmetry_group_IT_number 2
_symmetry_cell_setting 'triclinic'
loop_
_space_group_symop_operation_xyz
x,y,z
-x,-y,-z
loop_
_atom_site_type_symbol
_atom_site_label
_atom_site_fract_x
_atom_site_fract_y
_atom_site_fract_z
Si Si1 0.599498 0.421431 0.740530
Si Si2 0.021680 0.789706 0.579728
Si Si3 0.565624 0.926842 0.503191
Si Si4 0.507475 0.654459 0.891498
Si Si5 0.038003 0.703963 0.200214
Si Si6 0.925502 0.995776 0.709219
Si Si7 0.691033 0.306392 0.155758
O O1 0.502410 0.255367 0.614614
O O2 0.523814 0.508214 0.789607
O O3 0.829544 0.572970 0.648094
O O4 0.535280 0.336513 0.905175
O O5 0.078717 0.796039 0.374043
O O6 0.980131 0.912883 0.724366
O O7 0.207228 0.889122 0.580650
O O8 0.482562 0.865412 0.699666
O O9 0.500000 0.000000 0.500000
O O10 0.701416 0.858936 0.802054
O O11 0.356741 0.611147 0.875678
O O12 0.857124 0.480530 0.222845
O O13 0.993278 0.804673 0.194041
O O14 0.226907 0.761981 0.030695
O O15 0.000000 0.000000 0.500000
#
# Coordination Sequence:
#
# PCOD8017673 Si02
#       7
#     2   2   2   2   2   2   2
#     4  10  24  48  65 102 136 169 223 274 328 391
#     4  10  22  44  67  93 134 177 214 277 332 379
#     4  12  28  43  69 100 130 178 223 266 338 397
#     4  10  23  43  71  94 134 176 217 276 329 386
#     4  10  22  39  64 100 137 168 224 276 323 393
#     4   9  19  38  64  96 125 168 220 268 321 383
#     4  11  24  41  66 100 130 182 219 269 335 388
#
# _framework density 21.232800000000001
#
# number of rings (size 3 to 8) (size 9 to 14) (size 15 to 20)
#    0.000    1.714    1.429    1.714    6.000    4.571 
#    0.000    2.143    0.000    0.000    0.000    0.000 
#    0.000    0.000    0.000    0.000    0.000    0.000 
#
# Total GULP energy -173465.183300 kJ/mol
# GULP energy per Si atom -12390.370236 kJ/mol
# Density = 2.118447 g / cm^3
# Si number density = 21.232800 Si / 1000 Ang^3
#
#
#
# Elastic Constant Matrix: (Units=GPa)
#
#
# Indices 1 2 3 4 5 6 
#
# 1 120.1963 30.9711 44.7424 2.4545 -11.5329 1.9484
# 2 30.9711 82.0572 54.9999 -1.0270 -12.3258 5.5004
# 3 44.7424 54.9999 117.3986 -9.9166 -13.5693 -0.5474
# 4 2.4545 -1.0270 -9.9166 32.1494 -6.7514 -7.0275
# 5 -11.5329 -12.3258 -13.5693 -6.7514 28.2288 -6.0234
# 6 1.9484 5.5004 -0.5474 -7.0275 -6.0234 36.1035
#
#
#
# Elastic Compliance Matrix: (Units=1/GPa)
#
#
# Indices 1 2 3 4 5 6 
#
# 1 0.010034 -0.001483 -0.003086 -0.001537 0.001514 -0.000409
# 2 -0.001483 0.018715 -0.008064 -0.001833 0.002652 -0.002808
# 3 -0.003086 -0.008064 0.014521 0.006165 0.004431 0.003555
# 4 -0.001537 -0.001833 0.006165 0.037915 0.012728 0.009959
# 5 0.001514 0.002652 0.004431 0.012728 0.044395 0.009466
# 6 -0.000409 -0.002808 0.003555 0.009959 0.009466 0.031720
#
#
# Mechanical properties :
#
#
# Convention : Reuss Voigt Hill
#
# Bulk Modulus (GPa) = 55.54271 64.56430 60.05351
# Shear Modulus (GPa) = 26.51569 31.89226 29.20397
#
# Velocity S-wave (km/s) = 3.53768 3.87981 3.71269
# Velocity P-wave (km/s) = 6.55001 7.10945 6.83546
#
# Compressibility (1/GPa) = 0.01800416
#
# Stress axis : x y z
#
# Youngs Moduli (GPa) = 99.66241 53.43309 68.86351
#
# Poissons Ratio (x) = 0.07925 0.21251
# Poissons Ratio (y) = 0.14781 0.55531
# Poissons Ratio (z) = 0.30756 0.43088
#
# Static dielectric constant tensor:
#      x y z
#    x 3.938400 -0.455360 -0.504220 
#    y -0.455360 4.710010 0.532120 
#    z -0.504220 0.532120 4.402230 
# 
# 
# High freq. dielectric constant tensor:
#      x y z
#    x 1.822310 -0.008360 -0.020350 
#    y -0.008360 1.840750 -0.006140 
#    z -0.020350 -0.006140 1.836710 
# 
# From -- ./inp_files/244850.got.cif
#   From: 2010.06.25/outbox.cif.g09.slc.cpg/sg2_123_cif.got.tgz:244850.got - 2010.06.27 13:26:56.
