data_PCOD8017154
_publ_section_title
;
Structure prediction by ZEFSAII (Michael W. Deem and Ramdas Pophale) SiO2 
 PCOD8017154
Probable space group: P -1
;
_chemical_formula_sum "Si O2"
_cell_formula_units_Z 16
_cell_length_a 8.573622
_cell_length_b 15.317187
_cell_length_c 26.493517
_cell_angle_alpha 19.252049
_cell_angle_beta 62.439722
_cell_angle_gamma 72.525066
_cell_volume 899.278668
_symmetry_space_group_name_H-M "P -1"
_symmetry_group_IT_number 2
_symmetry_cell_setting 'triclinic'
loop_
_space_group_symop_operation_xyz
x,y,z
-x,-y,-z
loop_
_atom_site_type_symbol
_atom_site_label
_atom_site_fract_x
_atom_site_fract_y
_atom_site_fract_z
Si Si1 0.279646 0.661418 0.587667
Si Si2 0.844970 0.271982 0.686102
Si Si3 0.984436 0.149996 0.982078
Si Si4 0.420303 0.968937 0.585323
Si Si5 0.433908 0.223654 0.789580
Si Si6 0.439761 0.566404 0.238089
Si Si7 0.063200 0.604764 0.278141
Si Si8 0.206401 0.318708 0.952786
O O1 0.413198 0.523238 0.617712
O O2 0.137427 0.690411 0.550012
O O3 0.417033 0.972200 0.426719
O O4 0.145819 0.446228 0.769899
O O5 0.630788 0.250405 0.718443
O O6 0.919459 0.387514 0.668562
O O7 0.000000 0.500000 0.500000
O O8 0.835767 0.947246 0.856238
O O9 0.759042 0.063442 0.047381
O O10 0.035996 0.879795 0.108057
O O11 0.014722 0.216823 0.000997
O O12 0.248003 0.628089 0.805484
O O13 0.500000 0.000000 0.500000
O O14 0.353441 0.228410 0.458386
O O15 0.455455 0.193785 0.863304
O O16 0.252287 0.597185 0.228129
O O17 0.599492 0.642204 0.128871
#
# Coordination Sequence:
#
# PCOD8017154 Si02
#       8
#     2   2   2   2   2   2   2   2
#     4  10  17  28  49  75 105 123 152 194 236 300
#     4  10  22  35  49  69  96 128 165 204 237 276
#     4  10  17  26  46  77 103 120 149 192 247 293
#     4   9  16  32  44  69 104 135 152 183 235 300
#     4   9  17  29  49  72  98 120 155 198 245 282
#     4   9  17  28  48  73  98 127 153 193 238 296
#     4   9  19  29  48  73  98 121 163 198 243 279
#     4  10  19  30  49  68 101 135 154 191 239 286
#
# _framework density 17.792037000000001
#
# number of rings (size 3 to 8) (size 9 to 14) (size 15 to 20)
#    0.000    2.500    3.750    1.500    5.250    1.500 
#    0.000    9.375    0.000    7.500    0.000    0.000 
#    0.000    0.000    0.000    0.000    0.000    0.000 
#
# Total GULP energy -198240.523107 kJ/mol
# GULP energy per Si atom -12390.032694 kJ/mol
# Density = 1.775154 g / cm^3
# Si number density = 17.792037 Si / 1000 Ang^3
#
#
#
# Elastic Constant Matrix: (Units=GPa)
#
#
# Indices 1 2 3 4 5 6 
#
# 1 128.0754 21.8818 34.4053 -10.8828 -16.2506 4.6549
# 2 21.8818 25.1389 25.7417 -5.6242 -6.1844 2.2574
# 3 34.4053 25.7417 100.1432 -9.2673 -4.9988 3.1190
# 4 -10.8828 -5.6242 -9.2673 26.6250 11.3000 -10.7757
# 5 -16.2506 -6.1844 -4.9988 11.3000 20.6976 -5.5368
# 6 4.6549 2.2574 3.1190 -10.7757 -5.5368 18.9782
#
#
#
# Elastic Compliance Matrix: (Units=1/GPa)
#
#
# Indices 1 2 3 4 5 6 
#
# 1 0.009935 -0.005479 -0.001729 -0.000127 0.005851 0.000134
# 2 -0.005479 0.060735 -0.013066 0.002051 0.009636 0.000242
# 3 -0.001729 -0.013066 0.014036 0.003030 -0.003421 0.000394
# 4 -0.000127 0.002051 0.003030 0.060001 -0.024502 0.026209
# 5 0.005851 0.009636 -0.003421 -0.024502 0.069501 0.004345
# 6 0.000134 0.000242 0.000394 0.026209 0.004345 0.068715
#
#
# Mechanical properties :
#
#
# Convention : Reuss Voigt Hill
#
# Bulk Modulus (GPa) = 22.64595 46.37946 34.51270
# Shear Modulus (GPa) = 14.78459 24.68208 19.73333
#
# Velocity S-wave (km/s) = 2.88578 3.72863 3.33394
# Velocity P-wave (km/s) = 4.88461 6.68289 5.85322
#
# Compressibility (1/GPa) = 0.04415801
#
# Stress axis : x y z
#
# Youngs Moduli (GPa) = 100.65315 16.46499 71.24649
#
# Poissons Ratio (x) = 0.09020 0.12318
# Poissons Ratio (y) = 0.55143 0.93094
# Poissons Ratio (z) = 0.17402 0.21514
#
# Static dielectric constant tensor:
#      x y z
#    x 3.793980 0.113900 -0.116140 
#    y 0.113900 3.021110 -0.479370 
#    z -0.116140 -0.479370 3.360960 
# 
# 
# High freq. dielectric constant tensor:
#      x y z
#    x 1.705550 0.012610 -0.010500 
#    y 0.012610 1.637020 -0.027980 
#    z -0.010500 -0.027980 1.656870 
# 
# From -- ./inp_files/250354.got.cif
#   From: 2010.06.25/outbox.cif.g09.slc.cpg/sg2_126_cif.got.tgz:250354.got - 2010.06.27 13:26:56.
