data_PCOD8017178
_publ_section_title
;
Structure prediction by ZEFSAII (Michael W. Deem and Ramdas Pophale) SiO2 
 PCOD8017178
Probable space group: P -1
;
_chemical_formula_sum "Si O2"
_cell_formula_units_Z 16
_cell_length_a 25.921799
_cell_length_b 8.829935
_cell_length_c 13.762922
_cell_angle_alpha 136.658438
_cell_angle_beta 23.339472
_cell_angle_gamma 125.875832
_cell_volume 816.965145
_symmetry_space_group_name_H-M "P -1"
_symmetry_group_IT_number 2
_symmetry_cell_setting 'triclinic'
loop_
_space_group_symop_operation_xyz
x,y,z
-x,-y,-z
loop_
_atom_site_type_symbol
_atom_site_label
_atom_site_fract_x
_atom_site_fract_y
_atom_site_fract_z
Si Si1 0.789356 0.710094 0.717817
Si Si2 0.661430 0.406833 0.671347
Si Si3 0.706542 0.215988 0.022031
Si Si4 0.345853 0.065090 0.761331
Si Si5 0.513484 0.634563 0.663782
Si Si6 0.301649 0.120619 0.643048
Si Si7 0.302600 0.578674 0.601225
Si Si8 0.109757 0.549586 0.090396
O O1 0.729081 0.516825 0.689032
O O2 0.950245 0.631310 0.388727
O O3 0.721741 0.950097 0.891125
O O4 0.750015 0.737273 0.911809
O O5 0.711951 0.474751 0.511475
O O6 0.708195 0.132844 0.478432
O O7 0.500000 0.500000 0.000000
O O8 0.588649 0.380604 0.370375
O O9 0.648768 0.280738 0.041270
O O10 0.847532 0.271351 0.826961
O O11 0.291742 0.845000 0.757844
O O12 0.500000 0.000000 0.500000
O O13 0.330945 0.163473 0.724517
O O14 0.575867 0.830238 0.605832
O O15 0.549667 0.592766 0.696241
O O16 0.157612 0.298414 0.941292
O O17 0.180651 0.534901 0.855088
#
# Coordination Sequence:
#
# PCOD8017178 Si02
#       8
#     2   2   2   2   2   2   2   2
#     4  12  22  36  60  88 118 150 200 240 282 348
#     4  11  23  40  59  86 118 151 192 244 290 348
#     4   9  17  31  56  89 111 138 186 247 280 324
#     4  11  20  33  61  88 115 152 190 240 294 341
#     4   9  16  34  63  83 113 148 191 238 293 333
#     4   9  21  38  57  83 120 155 190 233 294 347
#     4   9  20  38  60  83 115 155 191 230 297 349
#     4  10  22  38  62  81 117 158 197 237 284 342
#
# _framework density 19.584678
#
# number of rings (size 3 to 8) (size 9 to 14) (size 15 to 20)
#    0.000    2.250    2.500    3.375    3.500    1.500 
#    0.000    5.625    0.000    0.000    0.000    0.000 
#    0.000    0.000    0.000    0.000    0.000    0.000 
#
# Total GULP energy -198309.766233 kJ/mol
# GULP energy per Si atom -12394.360390 kJ/mol
# Density = 1.954010 g / cm^3
# Si number density = 19.584678 Si / 1000 Ang^3
#
#
#
# Elastic Constant Matrix: (Units=GPa)
#
#
# Indices 1 2 3 4 5 6 
#
# 1 84.0891 47.3045 30.1353 3.1690 3.2850 1.8596
# 2 47.3045 94.8487 31.5617 14.9464 2.3102 -2.2568
# 3 30.1353 31.5617 70.5116 -4.0522 -8.3102 3.9841
# 4 3.1690 14.9464 -4.0522 27.6665 2.9903 -3.3948
# 5 3.2850 2.3102 -8.3102 2.9903 33.5210 -1.0870
# 6 1.8596 -2.2568 3.9841 -3.3948 -1.0870 35.6494
#
#
#
# Elastic Compliance Matrix: (Units=1/GPa)
#
#
# Indices 1 2 3 4 5 6 
#
# 1 0.017804 -0.007654 -0.004332 0.001623 -0.002464 -0.000850
# 2 -0.007654 0.017630 -0.005325 -0.009179 -0.000927 0.001208
# 3 -0.004332 -0.005325 0.019420 0.005473 0.005066 -0.001606
# 4 0.001623 -0.009179 0.005473 0.042249 -0.001851 0.002689
# 5 -0.002464 -0.000927 0.005066 -0.001851 0.031568 0.000290
# 6 -0.000850 0.001208 -0.001606 0.002689 0.000290 0.028616
#
#
# Mechanical properties :
#
#
# Convention : Reuss Voigt Hill
#
# Bulk Modulus (GPa) = 49.42953 51.93919 50.68436
# Shear Modulus (GPa) = 25.16928 28.73056 26.94992
#
# Velocity S-wave (km/s) = 3.58879 3.83429 3.71357
# Velocity P-wave (km/s) = 6.51661 6.79560 6.65757
#
# Compressibility (1/GPa) = 0.02023082
#
# Stress axis : x y z
#
# Youngs Moduli (GPa) = 56.16584 56.72036 51.49451
#
# Poissons Ratio (x) = 0.43414 0.22309
# Poissons Ratio (y) = 0.42990 0.27423
# Poissons Ratio (z) = 0.24333 0.30206
#
# Static dielectric constant tensor:
#      x y z
#    x 3.983250 -0.176530 -0.035250 
#    y -0.176530 3.658950 0.155510 
#    z -0.035250 0.155510 3.360500 
# 
# 
# High freq. dielectric constant tensor:
#      x y z
#    x 1.766470 -0.009710 -0.011340 
#    y -0.009710 1.767390 0.010420 
#    z -0.011340 0.010420 1.728420 
# 
# From -- ./inp_files/544853.got.cif
#   From: 2010.06.25/outbox.cif.g09.slc.cpg/sg2_273_cif.got.tgz:544853.got - 2010.06.27 13:26:56.
