data_PCOD8017359
_publ_section_title
;
Structure prediction by ZEFSAII (Michael W. Deem and Ramdas Pophale) SiO2 
 PCOD8017359
Probable space group: P -1
;
_chemical_formula_sum "Si O2"
_cell_formula_units_Z 16
_cell_length_a 17.023749
_cell_length_b 12.855277
_cell_length_c 8.719365
_cell_angle_alpha 86.157701
_cell_angle_beta 107.320994
_cell_angle_gamma 152.171954
_cell_volume 763.459448
_symmetry_space_group_name_H-M "P -1"
_symmetry_group_IT_number 2
_symmetry_cell_setting 'triclinic'
loop_
_space_group_symop_operation_xyz
x,y,z
-x,-y,-z
loop_
_atom_site_type_symbol
_atom_site_label
_atom_site_fract_x
_atom_site_fract_y
_atom_site_fract_z
Si Si1 0.026362 0.787313 0.036439
Si Si2 0.881191 0.982110 0.625889
Si Si3 0.620530 0.834317 0.312351
Si Si4 0.136623 0.597905 0.956418
Si Si5 0.037061 0.651018 0.434018
Si Si6 0.634288 0.936982 0.972472
Si Si7 0.777205 0.544504 0.385094
Si Si8 0.778517 0.635957 0.704980
O O1 0.972798 0.819400 0.886788
O O2 0.832567 0.485258 0.951684
O O3 0.082921 0.894946 0.226845
O O4 0.215226 0.943702 0.067259
O O5 0.720709 0.841019 0.425110
O O6 0.807591 0.789205 0.665905
O O7 0.087808 0.208271 0.633275
O O8 0.396338 0.575820 0.255664
O O9 0.636063 0.872042 0.135606
O O10 0.735604 0.059709 0.440638
O O11 0.998955 0.405818 0.757550
O O12 0.000000 0.500000 0.000000
O O13 0.317030 0.882019 0.990623
O O14 0.897423 0.575353 0.441299
O O15 0.000000 0.500000 0.500000
O O16 0.420794 0.690396 0.801244
O O17 0.732385 0.516394 0.538657
#
# Coordination Sequence:
#
# PCOD8017359 Si02
#       8
#     2   2   2   2   2   2   2   2
#     4  11  22  43  67  94 130 169 216 264 317 377
#     4  11  23  46  66  91 129 169 214 275 319 368
#     4  11  23  41  67  95 130 166 216 263 316 381
#     4  10  22  38  68  91 131 163 208 249 327 372
#     4  11  22  43  66  93 131 169 205 263 320 380
#     4  11  24  42  66  98 131 171 207 262 320 384
#     4  11  25  42  65  95 133 164 218 262 314 385
#     4  12  26  42  66  95 126 173 219 264 319 373
#
# _framework density 20.957236000000002
#
# number of rings (size 3 to 8) (size 9 to 14) (size 15 to 20)
#    0.000    1.000    3.750    4.125    3.500    1.500 
#    0.000    3.125    0.000    0.000    0.000    0.000 
#    0.000    0.000    0.000    0.000    0.000    0.000 
#
# Total GULP energy -198263.592698 kJ/mol
# GULP energy per Si atom -12391.474544 kJ/mol
# Density = 2.090954 g / cm^3
# Si number density = 20.957236 Si / 1000 Ang^3
#
#
#
# Elastic Constant Matrix: (Units=GPa)
#
#
# Indices 1 2 3 4 5 6 
#
# 1 80.9855 39.6859 23.2434 -4.2757 6.0710 -15.5642
# 2 39.6859 107.5789 19.2162 -4.1662 11.2736 -3.9569
# 3 23.2434 19.2162 89.3967 -4.2821 -2.2657 2.1914
# 4 -4.2757 -4.1662 -4.2821 38.0436 2.4528 4.5009
# 5 6.0710 11.2736 -2.2657 2.4528 31.9121 -9.1234
# 6 -15.5642 -3.9569 2.1914 4.5009 -9.1234 31.2614
#
#
#
# Elastic Compliance Matrix: (Units=1/GPa)
#
#
# Indices 1 2 3 4 5 6 
#
# 1 0.017753 -0.005684 -0.003589 -0.000108 0.000853 0.008636
# 2 -0.005684 0.011957 -0.001078 0.001115 -0.004043 -0.002581
# 3 -0.003589 -0.001078 0.012498 0.001126 0.001110 -0.002638
# 4 -0.000108 0.001115 0.001126 0.027368 -0.003842 -0.005053
# 5 0.000853 -0.004043 0.001110 -0.003842 0.036099 0.010923
# 6 0.008636 -0.002581 -0.002638 -0.005053 0.010923 0.040061
#
#
# Mechanical properties :
#
#
# Convention : Reuss Voigt Hill
#
# Bulk Modulus (GPa) = 46.50052 49.13912 47.81982
# Shear Modulus (GPa) = 28.80061 33.29780 31.04920
#
# Velocity S-wave (km/s) = 3.71112 3.99036 3.85327
# Velocity P-wave (km/s) = 6.37179 6.68796 6.53179
#
# Compressibility (1/GPa) = 0.02150514
#
# Stress axis : x y z
#
# Youngs Moduli (GPa) = 56.32717 83.63424 80.01413
#
# Poissons Ratio (x) = 0.47538 0.28720
# Poissons Ratio (y) = 0.32016 0.08626
# Poissons Ratio (z) = 0.20218 0.09016
#
# Static dielectric constant tensor:
#      x y z
#    x 3.874690 -0.295370 -0.050490 
#    y -0.295370 4.118560 -0.125960 
#    z -0.050490 -0.125960 3.860690 
# 
# 
# High freq. dielectric constant tensor:
#      x y z
#    x 1.818480 -0.012860 -0.002650 
#    y -0.012860 1.831740 -0.014950 
#    z -0.002650 -0.014950 1.832270 
# 
# From -- ./inp_files/246101.got.cif
#   From: 2010.06.25/outbox.cif.g09.slc.cpg/sg2_124_cif.got.tgz:246101.got - 2010.06.27 13:26:56.
