data_PCOD8017806
_publ_section_title
;
Structure prediction by ZEFSAII (Michael W. Deem and Ramdas Pophale) SiO2 
 PCOD8017806
Probable space group: P -1
;
_chemical_formula_sum "Si O2"
_cell_formula_units_Z 16
_cell_length_a 23.668067
_cell_length_b 9.544376
_cell_length_c 7.579538
_cell_angle_alpha 76.610062
_cell_angle_beta 132.226608
_cell_angle_gamma 137.274053
_cell_volume 733.878796
_symmetry_space_group_name_H-M "P -1"
_symmetry_group_IT_number 2
_symmetry_cell_setting 'triclinic'
loop_
_space_group_symop_operation_xyz
x,y,z
-x,-y,-z
loop_
_atom_site_type_symbol
_atom_site_label
_atom_site_fract_x
_atom_site_fract_y
_atom_site_fract_z
Si Si1 0.971104 0.310786 0.093842
Si Si2 0.441768 0.321823 0.588210
Si Si3 0.245514 0.206876 0.392902
Si Si4 0.341649 0.655988 0.419237
Si Si5 0.707523 0.660695 0.154560
Si Si6 0.237548 0.965338 0.011783
Si Si7 0.358591 0.907803 0.080813
Si Si8 0.241948 0.575913 0.616376
O O1 0.908835 0.269301 0.161285
O O2 0.098776 0.416109 0.360769
O O3 0.000000 0.500000 0.000000
O O4 0.875685 0.061097 0.860482
O O5 0.500000 0.500000 0.500000
O O6 0.378219 0.328649 0.596108
O O7 0.552491 0.401437 0.899382
O O8 0.331986 0.055443 0.344475
O O9 0.253899 0.382066 0.282020
O O10 0.235843 0.196601 0.585319
O O11 0.310599 0.721636 0.181247
O O12 0.306951 0.670179 0.532672
O O13 0.490190 0.833685 0.666943
O O14 0.766559 0.593919 0.259978
O O15 0.744506 0.835635 0.036829
O O16 0.275510 0.927997 0.932621
O O17 0.328042 0.810516 0.848371
#
# Coordination Sequence:
#
# PCOD8017806 Si02
#       8
#     2   2   2   2   2   2   2   2
#     4  11  26  48  68  92 136 181 229 280 329 400
#     4   9  18  34  64  93 135 163 217 270 330 394
#     4  10  22  42  67  94 133 179 226 276 335 398
#     4  10  23  43  67 105 138 175 219 283 345 402
#     4  10  22  39  66 104 129 171 227 276 342 401
#     4  10  23  42  66  98 131 183 224 272 332 405
#     4  11  24  41  72 101 143 175 219 279 347 397
#     4  11  26  44  67 103 139 181 225 278 337 400
#
# _framework density 21.801964999999999
#
# number of rings (size 3 to 8) (size 9 to 14) (size 15 to 20)
#    0.000    1.750    0.000    3.000   10.500    4.000 
#    6.750    0.000    0.000    0.000    0.000    0.000 
#    0.000    0.000    0.000    0.000    0.000    0.000 
#
# Total GULP energy -198337.541470 kJ/mol
# GULP energy per Si atom -12396.096342 kJ/mol
# Density = 2.175234 g / cm^3
# Si number density = 21.801965 Si / 1000 Ang^3
#
#
#
# Elastic Constant Matrix: (Units=GPa)
#
#
# Indices 1 2 3 4 5 6 
#
# 1 116.2498 27.7573 24.5813 5.6700 15.5519 -11.6679
# 2 27.7573 107.4089 38.7189 5.7055 10.2757 -8.5295
# 3 24.5813 38.7189 88.7076 -4.2250 15.3797 -9.5747
# 4 5.6700 5.7055 -4.2250 24.0326 -9.5006 3.1290
# 5 15.5519 10.2757 15.3797 -9.5006 42.6668 4.0093
# 6 -11.6679 -8.5295 -9.5747 3.1290 4.0093 33.7663
#
#
#
# Elastic Compliance Matrix: (Units=1/GPa)
#
#
# Indices 1 2 3 4 5 6 
#
# 1 0.010384 -0.001209 -0.001396 -0.004641 -0.004385 0.003838
# 2 -0.001209 0.011805 -0.004481 -0.004318 -0.001929 0.001922
# 3 -0.001396 -0.004481 0.014613 0.002249 -0.003435 0.002729
# 4 -0.004641 -0.004318 0.002249 0.050763 0.014016 -0.008425
# 5 -0.004385 -0.001929 -0.003435 0.014016 0.030602 -0.007909
# 6 0.003838 0.001922 0.002729 -0.008425 -0.007909 0.033921
#
#
# Mechanical properties :
#
#
# Convention : Reuss Voigt Hill
#
# Bulk Modulus (GPa) = 44.19253 54.94238 49.56746
# Shear Modulus (GPa) = 28.76792 34.84706 31.80749
#
# Velocity S-wave (km/s) = 3.63645 4.00227 3.82373
# Velocity P-wave (km/s) = 6.16000 6.82736 6.50225
#
# Compressibility (1/GPa) = 0.02262826
#
# Stress axis : x y z
#
# Youngs Moduli (GPa) = 96.29912 84.71211 68.43247
#
# Poissons Ratio (x) = 0.10246 0.09555
# Poissons Ratio (y) = 0.11647 0.30665
# Poissons Ratio (z) = 0.13446 0.37960
#
# Static dielectric constant tensor:
#      x y z
#    x 4.039720 -0.070790 0.180290 
#    y -0.070790 3.900330 0.024710 
#    z 0.180290 0.024710 3.904350 
# 
# 
# High freq. dielectric constant tensor:
#      x y z
#    x 1.868200 -0.003920 -0.000370 
#    y -0.003920 1.854790 -0.002590 
#    z -0.000370 -0.002590 1.846760 
# 
# From -- ./inp_files/352219.got.cif
#   From: 2010.06.25/outbox.cif.g09.slc.cpg/sg2_177_cif.got.tgz:352219.got - 2010.06.27 13:26:56.
