data_PCOD8017427
_publ_section_title
;
Structure prediction by ZEFSAII (Michael W. Deem and Ramdas Pophale) SiO2 
 PCOD8017427
Probable space group: P -1
;
_chemical_formula_sum "Si O2"
_cell_formula_units_Z 14
_cell_length_a 18.735415
_cell_length_b 9.047765
_cell_length_c 9.635122
_cell_angle_alpha 54.753446
_cell_angle_beta 145.659596
_cell_angle_gamma 128.215911
_cell_volume 715.746640
_symmetry_space_group_name_H-M "P -1"
_symmetry_group_IT_number 2
_symmetry_cell_setting 'triclinic'
loop_
_space_group_symop_operation_xyz
x,y,z
-x,-y,-z
loop_
_atom_site_type_symbol
_atom_site_label
_atom_site_fract_x
_atom_site_fract_y
_atom_site_fract_z
Si Si1 0.773535 0.878716 0.461106
Si Si2 0.426519 0.721500 0.333498
Si Si3 0.210122 0.922560 0.897366
Si Si4 0.670300 0.771176 0.860344
Si Si5 0.014267 0.718940 0.911788
Si Si6 0.515718 0.614052 0.269044
Si Si7 0.856967 0.995764 0.821852
O O1 0.872793 0.751504 0.693200
O O2 0.621465 0.745861 0.259159
O O3 0.817130 0.039461 0.326417
O O4 0.771544 0.981931 0.551300
O O5 0.553223 0.842624 0.563772
O O6 0.461441 0.747331 0.211701
O O7 0.398306 0.496531 0.444172
O O8 0.299233 0.783689 0.129924
O O9 0.069907 0.817974 0.801022
O O10 0.283020 0.124646 0.976527
O O11 0.610855 0.543467 0.920459
O O12 0.790255 0.818095 0.914530
O O13 0.000000 0.500000 0.000000
O O14 0.121375 0.812081 0.155898
O O15 0.000000 0.000000 0.000000
#
# Coordination Sequence:
#
# PCOD8017427 Si02
#       7
#     2   2   2   2   2   2   2
#     4  11  20  37  54  85 110 136 178 226 275 307
#     4   9  17  34  54  77 104 148 184 205 257 324
#     4  11  22  33  56  83 113 137 172 235 272 305
#     4   9  18  35  54  81 106 148 183 209 261 325
#     4  10  22  39  59  76 104 145 187 216 264 326
#     4   9  18  33  58  75 110 142 186 211 252 327
#     4   9  18  35  59  77 102 146 183 215 259 330
#
# _framework density 19.559996000000002
#
# number of rings (size 3 to 8) (size 9 to 14) (size 15 to 20)
#    0.857    1.429    1.429    1.714    0.000    2.286 
#    0.000    2.143    0.000    0.000    0.000    0.000 
#    0.000    0.000    0.000    0.000    0.000    0.000 
#
# Total GULP energy -173447.412126 kJ/mol
# GULP energy per Si atom -12389.100866 kJ/mol
# Density = 1.951548 g / cm^3
# Si number density = 19.559996 Si / 1000 Ang^3
#
#
#
# Elastic Constant Matrix: (Units=GPa)
#
#
# Indices 1 2 3 4 5 6 
#
# 1 100.3887 36.4165 13.7038 7.6227 -9.7332 14.0727
# 2 36.4165 92.7045 15.1728 20.5656 -12.5304 14.0213
# 3 13.7038 15.1728 28.2855 6.4791 -9.0395 2.0679
# 4 7.6227 20.5656 6.4791 22.3441 2.7035 2.2858
# 5 -9.7332 -12.5304 -9.0395 2.7035 33.3720 2.7462
# 6 14.0727 14.0213 2.0679 2.2858 2.7462 22.7638
#
#
#
# Elastic Compliance Matrix: (Units=1/GPa)
#
#
# Indices 1 2 3 4 5 6 
#
# 1 0.012594 -0.003274 -0.003282 0.000008 0.002025 -0.005716
# 2 -0.003274 0.017853 -0.001700 -0.014851 0.007165 -0.008192
# 3 -0.003282 -0.001700 0.044191 -0.011388 0.011393 -0.001169
# 4 0.000008 -0.014851 -0.011388 0.062872 -0.014211 0.005578
# 5 0.002025 0.007165 0.011393 -0.014211 0.038298 -0.009893
# 6 -0.005716 -0.008192 -0.001169 0.005578 -0.009893 0.053248
#
#
# Mechanical properties :
#
#
# Convention : Reuss Voigt Hill
#
# Bulk Modulus (GPa) = 17.20401 39.10721 28.15561
# Shear Modulus (GPa) = 18.87190 26.10169 22.48679
#
# Velocity S-wave (km/s) = 3.10953 3.65696 3.39430
# Velocity P-wave (km/s) = 4.65906 6.15370 5.45779
#
# Compressibility (1/GPa) = 0.05812598
#
# Stress axis : x y z
#
# Youngs Moduli (GPa) = 79.40402 56.01202 22.62892
#
# Poissons Ratio (x) = 0.18336 0.07428
# Poissons Ratio (y) = 0.25993 0.03847
# Poissons Ratio (z) = 0.26064 0.09523
#
# Static dielectric constant tensor:
#      x y z
#    x 3.741800 -0.007190 -0.078300 
#    y -0.007190 3.437450 0.391190 
#    z -0.078300 0.391190 3.270080 
# 
# 
# High freq. dielectric constant tensor:
#      x y z
#    x 1.779920 0.008080 0.000760 
#    y 0.008080 1.745340 0.029150 
#    z 0.000760 0.029150 1.720230 
# 
# From -- ./inp_files/182845.got.cif
#   From: 2010.06.25/outbox.cif.g09.slc.cpg/sg2_92_cif.got.tgz:182845.got - 2010.06.27 13:26:56.
