data_PCOD8017786
_publ_section_title
;
Structure prediction by ZEFSAII (Michael W. Deem and Ramdas Pophale) SiO2 
 PCOD8017786
Probable space group: P -1
;
_chemical_formula_sum "Si O2"
_cell_formula_units_Z 16
_cell_length_a 11.949004
_cell_length_b 20.217794
_cell_length_c 11.146901
_cell_angle_alpha 28.431463
_cell_angle_beta 55.907112
_cell_angle_gamma 37.892553
_cell_volume 700.671369
_symmetry_space_group_name_H-M "P -1"
_symmetry_group_IT_number 2
_symmetry_cell_setting 'triclinic'
loop_
_space_group_symop_operation_xyz
x,y,z
-x,-y,-z
loop_
_atom_site_type_symbol
_atom_site_label
_atom_site_fract_x
_atom_site_fract_y
_atom_site_fract_z
Si Si1 0.515714 0.281753 0.890875
Si Si2 0.900943 0.841595 0.267806
Si Si3 0.735718 0.819545 0.181366
Si Si4 0.908649 0.231758 0.296671
Si Si5 0.760489 0.045577 0.639581
Si Si6 0.309865 0.584281 0.327421
Si Si7 0.300094 0.448371 0.306569
Si Si8 0.124355 0.536759 0.833641
O O1 0.405963 0.380923 0.668803
O O2 0.538812 0.408155 0.745227
O O3 0.363661 0.313461 0.020537
O O4 0.743206 0.049183 0.111784
O O5 0.764397 0.853129 0.244656
O O6 0.071103 0.800866 0.158512
O O7 0.034196 0.647185 0.584986
O O8 0.819393 0.594072 0.495213
O O9 0.500000 0.000000 0.000000
O O10 0.847770 0.843387 0.985493
O O11 0.815924 0.149516 0.504829
O O12 0.902007 0.319445 0.284487
O O13 0.796405 0.405776 0.983347
O O14 0.142262 0.033451 0.425926
O O15 0.517943 0.221867 0.491923
O O16 0.324973 0.544287 0.241056
O O17 0.000000 0.500000 0.000000
#
# Coordination Sequence:
#
# PCOD8017786 Si02
#       8
#     2   2   2   2   2   2   2   2
#     4  10  22  41  63  91 128 163 206 264 317 371
#     4  11  23  40  65  91 122 166 211 259 320 375
#     4  10  22  40  66  96 124 159 208 266 320 373
#     4  11  24  41  61  89 127 167 209 255 307 375
#     4  10  23  40  62  92 124 161 209 261 311 370
#     4  10  22  39  65  97 123 158 211 265 317 375
#     4  11  22  39  65  91 124 165 206 258 319 371
#     4  11  26  42  61  91 128 170 215 257 308 382
#
# _framework density 22.835242000000001
#
# number of rings (size 3 to 8) (size 9 to 14) (size 15 to 20)
#    0.000    1.500    0.000    4.500    0.000   12.500 
#    0.000    0.000    0.000    0.000    0.000    0.000 
#    0.000    0.000    0.000    0.000    0.000    0.000 
#
# Total GULP energy -198285.930218 kJ/mol
# GULP energy per Si atom -12392.870639 kJ/mol
# Density = 2.278327 g / cm^3
# Si number density = 22.835242 Si / 1000 Ang^3
#
#
#
# Elastic Constant Matrix: (Units=GPa)
#
#
# Indices 1 2 3 4 5 6 
#
# 1 95.5569 17.2696 20.7360 16.6273 9.4911 -0.2934
# 2 17.2696 96.3353 17.4747 -8.3672 7.0810 -18.9857
# 3 20.7360 17.4747 79.8711 8.1788 -5.7960 -13.5774
# 4 16.6273 -8.3672 8.1788 35.5763 -3.1796 -0.6889
# 5 9.4911 7.0810 -5.7960 -3.1796 30.7612 6.4189
# 6 -0.2934 -18.9857 -13.5774 -0.6889 6.4189 35.2537
#
#
#
# Elastic Compliance Matrix: (Units=1/GPa)
#
#
# Indices 1 2 3 4 5 6 
#
# 1 0.013047 -0.002386 -0.002791 -0.006436 -0.004336 -0.001587
# 2 -0.002386 0.013195 -0.001771 0.004436 -0.003670 0.007159
# 3 -0.002791 -0.001771 0.014771 -0.002163 0.002967 0.004129
# 4 -0.006436 0.004436 -0.002163 0.033013 0.003660 0.001481
# 5 -0.004336 -0.003670 0.002967 0.003660 0.037209 -0.007574
# 6 -0.001587 0.007159 0.004129 0.001481 -0.007574 0.035207
#
#
# Mechanical properties :
#
#
# Convention : Reuss Voigt Hill
#
# Bulk Modulus (GPa) = 36.87567 42.52489 39.70028
# Shear Modulus (GPa) = 29.51987 34.73709 32.12848
#
# Velocity S-wave (km/s) = 3.59936 3.90449 3.75503
# Velocity P-wave (km/s) = 5.78425 6.24417 6.01860
#
# Compressibility (1/GPa) = 0.02711815
#
# Stress axis : x y z
#
# Youngs Moduli (GPa) = 76.64334 75.78362 67.70042
#
# Poissons Ratio (x) = 0.18080 0.18894
# Poissons Ratio (y) = 0.18285 0.11991
# Poissons Ratio (z) = 0.21390 0.13423
#
# Static dielectric constant tensor:
#      x y z
#    x 4.169260 -0.233580 -0.053510 
#    y -0.233580 4.352780 0.057910 
#    z -0.053510 0.057910 4.140790 
# 
# 
# High freq. dielectric constant tensor:
#      x y z
#    x 1.903620 -0.012920 0.004790 
#    y -0.012920 1.914330 -0.003190 
#    z 0.004790 -0.003190 1.891670 
# 
# From -- ./inp_files/438333.got.cif
#   From: 2010.06.25/outbox.cif.g09.slc.cpg/sg2_220_cif.got.tgz:438333.got - 2010.06.27 13:26:56.
