data_PCOD8017764
_publ_section_title
;
Structure prediction by ZEFSAII (Michael W. Deem and Ramdas Pophale) SiO2 
 PCOD8017764
Probable space group: P -1
;
_chemical_formula_sum "Si O2"
_cell_formula_units_Z 16
_cell_length_a 10.078774
_cell_length_b 8.770737
_cell_length_c 11.690464
_cell_angle_alpha 74.014902
_cell_angle_beta 108.834242
_cell_angle_gamma 62.258551
_cell_volume 745.566840
_symmetry_space_group_name_H-M "P -1"
_symmetry_group_IT_number 2
_symmetry_cell_setting 'triclinic'
loop_
_space_group_symop_operation_xyz
x,y,z
-x,-y,-z
loop_
_atom_site_type_symbol
_atom_site_label
_atom_site_fract_x
_atom_site_fract_y
_atom_site_fract_z
Si Si1 0.979567 0.378613 0.109832
Si Si2 0.320753 0.824368 0.854236
Si Si3 0.408029 0.025724 0.655613
Si Si4 0.308605 0.566102 0.406750
Si Si5 0.029902 0.993375 0.142966
Si Si6 0.289315 0.244123 0.353931
Si Si7 0.663830 0.535965 0.130835
Si Si8 0.188668 0.453318 0.592491
O O1 0.080437 0.371185 0.251983
O O2 0.065700 0.152950 0.143458
O O3 0.773907 0.499346 0.054938
O O4 0.000000 0.500000 0.000000
O O5 0.134648 0.959319 0.839160
O O6 0.355277 0.640191 0.830467
O O7 0.323449 0.954971 0.730139
O O8 0.471378 0.746371 0.010724
O O9 0.331814 0.078064 0.493512
O O10 0.357246 0.228935 0.653642
O O11 0.616448 0.855862 0.723093
O O12 0.500000 0.500000 0.500000
O O13 0.332542 0.392551 0.373118
O O14 0.203145 0.599689 0.487745
O O15 0.202488 0.773480 0.266689
O O16 0.000000 0.000000 0.000000
O O17 0.775439 0.525708 0.270833
O O18 0.000000 0.500000 0.500000
#
# Coordination Sequence:
#
# PCOD8017764 Si02
#       8
#     2   2   2   2   2   2   2   2
#     4  11  23  41  66  98 133 178 219 271 342 393
#     4  10  23  42  64  96 130 172 228 266 343 391
#     4  10  22  39  65  93 126 173 217 272 324 398
#     4  11  26  43  67  99 134 179 224 278 339 397
#     4  11  26  42  67  97 136 175 227 278 334 403
#     4  10  23  41  65  92 136 168 219 273 330 401
#     4  10  23  41  66  94 131 177 214 282 326 410
#     4  11  24  43  65  96 135 172 224 275 342 396
#
# _framework density 21.460184000000002
#
# number of rings (size 3 to 8) (size 9 to 14) (size 15 to 20)
#    0.000    1.500    0.000    3.750    8.750    2.500 
#    0.000    3.125    0.000    0.000    0.000    0.000 
#    0.000    0.000    0.000    0.000    0.000    0.000 
#
# Total GULP energy -198298.596884 kJ/mol
# GULP energy per Si atom -12393.662305 kJ/mol
# Density = 2.141134 g / cm^3
# Si number density = 21.460184 Si / 1000 Ang^3
#
#
#
# Elastic Constant Matrix: (Units=GPa)
#
#
# Indices 1 2 3 4 5 6 
#
# 1 119.5186 37.1838 69.9161 -5.8503 -7.1422 9.6571
# 2 37.1838 98.8413 52.0521 -5.4300 0.8513 1.8080
# 3 69.9161 52.0521 141.1513 -5.6679 0.3845 10.6734
# 4 -5.8503 -5.4300 -5.6679 39.4366 5.2240 0.8967
# 5 -7.1422 0.8513 0.3845 5.2240 51.4362 -0.3502
# 6 9.6571 1.8080 10.6734 0.8967 -0.3502 32.8472
#
#
#
# Elastic Compliance Matrix: (Units=1/GPa)
#
#
# Indices 1 2 3 4 5 6 
#
# 1 0.012284 -0.001795 -0.005265 0.000634 0.001698 -0.001801
# 2 -0.001795 0.012887 -0.003902 0.000993 -0.000527 0.001053
# 3 -0.005265 -0.003902 0.011298 0.000457 -0.000811 -0.001929
# 4 0.000634 0.000993 0.000457 0.026021 -0.002582 -0.001127
# 5 0.001698 -0.000527 -0.000811 -0.002582 0.019955 0.000076
# 6 -0.001801 0.001053 -0.001929 -0.001127 0.000076 0.031574
#
#
# Mechanical properties :
#
#
# Convention : Reuss Voigt Hill
#
# Bulk Modulus (GPa) = 68.75428 75.31279 72.03354
# Shear Modulus (GPa) = 35.51370 38.10128 36.80749
#
# Velocity S-wave (km/s) = 4.07242 4.21817 4.14593
# Velocity P-wave (km/s) = 7.36345 7.67426 7.52046
#
# Compressibility (1/GPa) = 0.01454455
#
# Stress axis : x y z
#
# Youngs Moduli (GPa) = 81.40981 77.59774 88.51196
#
# Poissons Ratio (x) = 0.13929 0.46605
# Poissons Ratio (y) = 0.14613 0.34533
# Poissons Ratio (z) = 0.42866 0.30275
#
# Static dielectric constant tensor:
#      x y z
#    x 4.237310 -0.043880 0.140850 
#    y -0.043880 3.755360 -0.022070 
#    z 0.140850 -0.022070 3.988020 
# 
# 
# High freq. dielectric constant tensor:
#      x y z
#    x 1.853870 -0.004520 -0.003160 
#    y -0.004520 1.838770 -0.008430 
#    z -0.003160 -0.008430 1.850080 
# 
# From -- ./inp_files/381754.got.cif
#   From: 2010.06.25/outbox.cif.g09.slc.cpg/sg2_191_cif.got.tgz:381754.got - 2010.06.27 13:26:56.
