data_PCOD8017765
_publ_section_title
;
Structure prediction by ZEFSAII (Michael W. Deem and Ramdas Pophale) SiO2 
 PCOD8017765
Probable space group: P -1
;
_chemical_formula_sum "Si O2"
_cell_formula_units_Z 16
_cell_length_a 13.293845
_cell_length_b 17.692839
_cell_length_c 9.149523
_cell_angle_alpha 83.070573
_cell_angle_beta 86.345682
_cell_angle_gamma 157.260912
_cell_volume 734.869443
_symmetry_space_group_name_H-M "P -1"
_symmetry_group_IT_number 2
_symmetry_cell_setting 'triclinic'
loop_
_space_group_symop_operation_xyz
x,y,z
-x,-y,-z
loop_
_atom_site_type_symbol
_atom_site_label
_atom_site_fract_x
_atom_site_fract_y
_atom_site_fract_z
Si Si1 0.179015 0.954181 0.103877
Si Si2 0.038717 0.361747 0.499428
Si Si3 0.395421 0.149410 0.743928
Si Si4 0.122500 0.797675 0.761714
Si Si5 0.459080 0.002572 0.161388
Si Si6 0.822191 0.706319 0.455652
Si Si7 0.923989 0.885366 0.653623
Si Si8 0.353319 0.471164 0.952644
O O1 0.397104 0.048066 0.137816
O O2 0.038924 0.899375 0.268906
O O3 0.907410 0.726610 0.091665
O O4 0.361762 0.133893 0.927912
O O5 0.277364 0.596146 0.392023
O O6 0.182227 0.387266 0.543690
O O7 0.863945 0.211900 0.407084
O O8 0.806848 0.227209 0.672167
O O9 0.331988 0.018063 0.730043
O O10 0.167611 0.047302 0.717379
O O11 0.241015 0.805145 0.827578
O O12 0.787238 0.576916 0.894673
O O13 0.500000 0.000000 0.000000
O O14 0.500000 0.500000 0.500000
O O15 0.899718 0.786731 0.594843
O O16 0.621749 0.702214 0.793095
O O17 0.000000 0.000000 0.500000
O O18 0.500000 0.500000 0.000000
#
# Coordination Sequence:
#
# PCOD8017765 Si02
#       8
#     2   2   2   2   2   2   2   2
#     4  10  22  39  65  93 131 171 219 263 322 384
#     4  11  25  42  67  96 127 170 220 264 322 385
#     4  11  23  42  65  96 130 168 217 263 323 380
#     4  11  23  44  70  90 131 172 217 266 324 380
#     4  11  22  43  70  96 126 175 215 268 327 381
#     4  11  21  38  62  92 130 171 211 264 319 378
#     4  12  24  38  61 100 133 170 214 262 319 389
#     4  11  19  38  65  91 128 173 207 258 327 382
#
# _framework density 21.772573999999999
#
# number of rings (size 3 to 8) (size 9 to 14) (size 15 to 20)
#    0.000    1.000    7.500    1.125    1.750    1.500 
#    0.000    2.500    0.000    0.000    0.000    0.000 
#    0.000    0.000    0.000    0.000    0.000    0.000 
#
# Total GULP energy -198281.282293 kJ/mol
# GULP energy per Si atom -12392.580143 kJ/mol
# Density = 2.172302 g / cm^3
# Si number density = 21.772574 Si / 1000 Ang^3
#
#
#
# Elastic Constant Matrix: (Units=GPa)
#
#
# Indices 1 2 3 4 5 6 
#
# 1 86.6335 34.7289 44.2898 -7.4207 4.8485 33.1056
# 2 34.7289 63.0888 48.0290 -6.3418 0.1990 15.0353
# 3 44.2898 48.0290 205.1319 -18.4112 -6.9224 9.3072
# 4 -7.4207 -6.3418 -18.4112 36.1275 3.3634 4.9256
# 5 4.8485 0.1990 -6.9224 3.3634 40.1834 1.6866
# 6 33.1056 15.0353 9.3072 4.9256 1.6866 42.4217
#
#
#
# Elastic Compliance Matrix: (Units=1/GPa)
#
#
# Indices 1 2 3 4 5 6 
#
# 1 0.021034 -0.006107 -0.002170 0.004321 -0.002648 -0.014170
# 2 -0.006107 0.022859 -0.003809 0.001179 -0.000021 -0.002637
# 3 -0.002170 -0.003809 0.006377 0.001838 0.001167 0.001385
# 4 0.004321 0.001179 0.001838 0.030991 -0.002482 -0.007693
# 5 -0.002648 -0.000021 0.001167 -0.002482 0.025569 0.001090
# 6 -0.014170 -0.002637 0.001385 -0.007693 0.001090 0.036112
#
#
# Mechanical properties :
#
#
# Convention : Reuss Voigt Hill
#
# Bulk Modulus (GPa) = 38.31727 67.66107 52.98917
# Shear Modulus (GPa) = 28.43963 38.93363 33.68663
#
# Velocity S-wave (km/s) = 3.61808 4.23329 3.93772
# Velocity P-wave (km/s) = 5.92377 7.41877 6.71302
#
# Compressibility (1/GPa) = 0.02609789
#
# Stress axis : x y z
#
# Youngs Moduli (GPa) = 47.54286 43.74694 156.81839
#
# Poissons Ratio (x) = 0.26714 0.34033
# Poissons Ratio (y) = 0.29032 0.59731
# Poissons Ratio (z) = 0.10318 0.16663
#
# Static dielectric constant tensor:
#      x y z
#    x 3.589030 0.313030 0.147130 
#    y 0.313030 4.094140 0.376450 
#    z 0.147130 0.376450 4.894640 
# 
# 
# High freq. dielectric constant tensor:
#      x y z
#    x 1.839570 0.033500 0.000010 
#    y 0.033500 1.830400 0.007110 
#    z 0.000010 0.007110 1.887890 
# 
# From -- ./inp_files/319351.got.cif
#   From: 2010.06.25/outbox.cif.g09.slc.cpg/sg2_160_cif.got.tgz:319351.got - 2010.06.27 13:26:56.
