data_PCOD8017732
_publ_section_title
;
Structure prediction by ZEFSAII (Michael W. Deem and Ramdas Pophale) SiO2 
 PCOD8017732
Probable space group: P -1
;
_chemical_formula_sum "Si O2"
_cell_formula_units_Z 14
_cell_length_a 19.466064
_cell_length_b 14.327713
_cell_length_c 8.886388
_cell_angle_alpha 123.592514
_cell_angle_beta 145.177831
_cell_angle_gamma 32.604160
_cell_volume 681.245823
_symmetry_space_group_name_H-M "P -1"
_symmetry_group_IT_number 2
_symmetry_cell_setting 'triclinic'
loop_
_space_group_symop_operation_xyz
x,y,z
-x,-y,-z
loop_
_atom_site_type_symbol
_atom_site_label
_atom_site_fract_x
_atom_site_fract_y
_atom_site_fract_z
Si Si1 0.686691 0.625072 0.221061
Si Si2 0.377355 0.988216 0.200533
Si Si3 0.388641 0.566513 0.126638
Si Si4 0.348771 0.346520 0.167052
Si Si5 0.803399 0.299570 0.777024
Si Si6 0.733330 0.106935 0.833847
Si Si7 0.084456 0.376905 0.893447
O O1 0.512063 0.822778 0.172771
O O2 0.910239 0.498783 0.562150
O O3 0.675110 0.501251 0.126194
O O4 0.655147 0.679725 0.039137
O O5 0.310449 0.952275 0.174085
O O6 0.500000 0.000000 0.500000
O O7 0.169297 0.190482 0.925444
O O8 0.637111 0.372597 0.427433
O O9 0.263964 0.680073 0.158257
O O10 0.322494 0.726118 0.051767
O O11 0.194432 0.567563 0.119809
O O12 0.585561 0.197389 0.504032
O O13 0.274863 0.300504 0.095641
O O14 0.028312 0.078114 0.952451
O O15 0.000000 0.500000 0.000000
#
# Coordination Sequence:
#
# PCOD8017732 Si02
#       7
#     2   2   2   2   2   2   2
#     4  11  25  42  63  92 131 160 213 270 307 371
#     4  12  25  43  61  91 126 170 215 254 314 380
#     4   9  21  40  61  97 127 161 206 260 314 371
#     4  10  22  39  64  99 124 163 213 261 313 367
#     4   9  19  37  67  94 128 162 203 257 317 379
#     4  11  21  40  70  92 128 168 205 254 316 383
#     4  12  23  42  65  87 129 173 209 256 318 373
#
# _framework density 20.550584000000001
#
# number of rings (size 3 to 8) (size 9 to 14) (size 15 to 20)
#    0.000    1.429    2.857    2.571    0.000    5.714 
#    0.000    1.429    0.000    0.000    0.000    0.000 
#    0.000    0.000    0.000    0.000    0.000    0.000 
#
# Total GULP energy -173617.811035 kJ/mol
# GULP energy per Si atom -12401.272217 kJ/mol
# Density = 2.050381 g / cm^3
# Si number density = 20.550584 Si / 1000 Ang^3
#
#
#
# Elastic Constant Matrix: (Units=GPa)
#
#
# Indices 1 2 3 4 5 6 
#
# 1 103.1103 48.4396 38.0697 0.3395 3.9913 13.8082
# 2 48.4396 126.5778 52.7236 -13.4954 11.0720 0.5509
# 3 38.0697 52.7236 92.8613 -11.7972 8.6977 -12.2140
# 4 0.3395 -13.4954 -11.7972 41.2317 2.0810 1.8915
# 5 3.9913 11.0720 8.6977 2.0810 27.1353 -0.5328
# 6 13.8082 0.5509 -12.2140 1.8915 -0.5328 38.4306
#
#
#
# Elastic Compliance Matrix: (Units=1/GPa)
#
#
# Indices 1 2 3 4 5 6 
#
# 1 0.014075 -0.003651 -0.004962 -0.002489 0.001074 -0.006444
# 2 -0.003651 0.011783 -0.004631 0.002737 -0.003006 -0.000505
# 3 -0.004962 -0.004631 0.017048 0.003228 -0.002954 0.007068
# 4 -0.002489 0.002737 0.003228 0.026260 -0.003789 0.000536
# 5 0.001074 -0.003006 -0.002954 -0.003789 0.039148 -0.000553
# 6 -0.006444 -0.000505 0.007068 0.000536 -0.000553 0.030556
#
#
# Mechanical properties :
#
#
# Convention : Reuss Voigt Hill
#
# Bulk Modulus (GPa) = 60.90116 66.77947 63.84031
# Shear Modulus (GPa) = 29.26888 33.58061 31.42475
#
# Velocity S-wave (km/s) = 3.77800 4.04672 3.91467
# Velocity P-wave (km/s) = 6.98070 7.37566 7.18089
#
# Compressibility (1/GPa) = 0.01642005
#
# Stress axis : x y z
#
# Youngs Moduli (GPa) = 71.04739 84.86693 58.65657
#
# Poissons Ratio (x) = 0.30984 0.29105
# Poissons Ratio (y) = 0.25938 0.27161
# Poissons Ratio (z) = 0.35253 0.39298
#
# Static dielectric constant tensor:
#      x y z
#    x 3.815740 0.300080 0.073030 
#    y 0.300080 3.832630 -0.070190 
#    z 0.073030 -0.070190 3.776700 
# 
# 
# High freq. dielectric constant tensor:
#      x y z
#    x 1.807270 0.016480 0.007820 
#    y 0.016480 1.809500 -0.007830 
#    z 0.007820 -0.007830 1.803120 
# 
# From -- ./inp_files/268373.got.cif
#   From: 2010.06.25/outbox.cif.g09.slc.cpg/sg2_135_cif.got.tgz:268373.got - 2010.06.27 13:26:56.
