data_PCOD8017468
_publ_section_title
;
Structure prediction by ZEFSAII (Michael W. Deem and Ramdas Pophale) SiO2 
 PCOD8017468
Probable space group: P -1
;
_chemical_formula_sum "Si O2"
_cell_formula_units_Z 14
_cell_length_a 12.076072
_cell_length_b 11.353744
_cell_length_c 11.814193
_cell_angle_alpha 89.174689
_cell_angle_beta 114.898008
_cell_angle_gamma 146.217020
_cell_volume 610.007634
_symmetry_space_group_name_H-M "P -1"
_symmetry_group_IT_number 2
_symmetry_cell_setting 'triclinic'
loop_
_space_group_symop_operation_xyz
x,y,z
-x,-y,-z
loop_
_atom_site_type_symbol
_atom_site_label
_atom_site_fract_x
_atom_site_fract_y
_atom_site_fract_z
Si Si1 0.032114 0.617792 0.115334
Si Si2 0.193966 0.603530 0.738406
Si Si3 0.638495 0.066211 0.366489
Si Si4 0.148450 0.173865 0.215540
Si Si5 0.619528 0.404895 0.814604
Si Si6 0.552753 0.697424 0.845730
Si Si7 0.877487 0.880624 0.324036
O O1 0.829811 0.401046 0.136974
O O2 0.908548 0.632943 0.013049
O O3 0.372765 0.918708 0.296281
O O4 0.000000 0.500000 0.000000
O O5 0.240713 0.773345 0.701599
O O6 0.471332 0.763405 0.823840
O O7 0.892136 0.282941 0.565675
O O8 0.517735 0.829693 0.299919
O O9 0.295057 0.428863 0.249622
O O10 0.335719 0.235020 0.234405
O O11 0.142234 0.141170 0.347224
O O12 0.808420 0.876860 0.035843
O O13 0.383512 0.253369 0.800729
O O14 0.253373 0.364008 0.750335
O O15 0.000000 0.000000 0.500000
#
# Coordination Sequence:
#
# PCOD8017468 Si02
#       7
#     2   2   2   2   2   2   2
#     4  10  22  39  61  90 121 159 205 250 301 362
#     4  11  22  40  64  90 126 161 202 257 307 361
#     4  10  23  40  61  92 123 163 206 249 308 361
#     4  10  22  41  63  90 124 161 206 253 301 363
#     4  10  22  39  60  90 123 163 207 247 303 365
#     4  10  22  39  63  92 121 164 207 250 303 360
#     4  11  23  40  63  93 126 161 201 251 309 366
#
# _framework density 22.950533
#
# number of rings (size 3 to 8) (size 9 to 14) (size 15 to 20)
#    0.000    1.714    0.000    3.429    0.000   10.286 
#    0.000    8.571    0.000    0.000    0.000    0.000 
#    0.000    0.000    0.000    0.000    0.000    0.000 
#
# Total GULP energy -173584.325165 kJ/mol
# GULP energy per Si atom -12398.880369 kJ/mol
# Density = 2.289830 g / cm^3
# Si number density = 22.950533 Si / 1000 Ang^3
#
#
#
# Elastic Constant Matrix: (Units=GPa)
#
#
# Indices 1 2 3 4 5 6 
#
# 1 102.3565 50.9399 31.3123 -10.6763 4.3126 18.1645
# 2 50.9399 155.6079 28.4978 -17.5445 -19.0213 22.3101
# 3 31.3123 28.4978 64.1320 -5.0344 4.9412 12.8092
# 4 -10.6763 -17.5445 -5.0344 40.2930 4.2321 -8.7084
# 5 4.3126 -19.0213 4.9412 4.2321 36.4074 9.3198
# 6 18.1645 22.3101 12.8092 -8.7084 9.3198 36.2321
#
#
#
# Elastic Compliance Matrix: (Units=1/GPa)
#
#
# Indices 1 2 3 4 5 6 
#
# 1 0.013420 -0.003443 -0.004304 0.001306 -0.002405 -0.002154
# 2 -0.003443 0.009605 -0.002031 0.001235 0.006819 -0.004927
# 3 -0.004304 -0.002031 0.019347 0.000050 -0.002471 -0.002784
# 4 0.001306 0.001235 0.000050 0.027523 -0.004327 0.006295
# 5 -0.002405 0.006819 -0.002471 -0.004327 0.035285 -0.012236
# 6 -0.002154 -0.004927 -0.002784 0.006295 -0.012236 0.037358
#
#
# Mechanical properties :
#
#
# Convention : Reuss Voigt Hill
#
# Bulk Modulus (GPa) = 43.83107 60.39960 52.11533
# Shear Modulus (GPa) = 29.46369 36.67627 33.06998
#
# Velocity S-wave (km/s) = 3.58689 4.00191 3.80007
# Velocity P-wave (km/s) = 6.02444 6.90855 6.48159
#
# Compressibility (1/GPa) = 0.02281487
#
# Stress axis : x y z
#
# Youngs Moduli (GPa) = 74.51797 104.11575 51.68657
#
# Poissons Ratio (x) = 0.35843 0.22248
# Poissons Ratio (y) = 0.25654 0.10500
# Poissons Ratio (z) = 0.32075 0.21150
#
# Static dielectric constant tensor:
#      x y z
#    x 4.278410 0.206420 0.479080 
#    y 0.206420 4.121000 0.220390 
#    z 0.479080 0.220390 4.339500 
# 
# 
# High freq. dielectric constant tensor:
#      x y z
#    x 1.899860 0.005110 0.016510 
#    y 0.005110 1.908230 0.008380 
#    z 0.016510 0.008380 1.906300 
# 
# From -- ./inp_files/61086.got.cif
#   From: 2010.06.25/outbox.cif.g09.slc.cpg/sg2_31_cif.got.tgz:61086.got - 2010.06.27 13:26:56.
