data_PCOD8017595
_publ_section_title
;
Structure prediction by ZEFSAII (Michael W. Deem and Ramdas Pophale) SiO2 
 PCOD8017595
Probable space group: P -1
;
_chemical_formula_sum "Si O2"
_cell_formula_units_Z 16
_cell_length_a 12.892342
_cell_length_b 14.142306
_cell_length_c 9.715048
_cell_angle_alpha 110.759618
_cell_angle_beta 121.937352
_cell_angle_gamma 30.805343
_cell_volume 749.200213
_symmetry_space_group_name_H-M "P -1"
_symmetry_group_IT_number 2
_symmetry_cell_setting 'triclinic'
loop_
_space_group_symop_operation_xyz
x,y,z
-x,-y,-z
loop_
_atom_site_type_symbol
_atom_site_label
_atom_site_fract_x
_atom_site_fract_y
_atom_site_fract_z
Si Si1 0.340605 0.207980 0.519444
Si Si2 0.079210 0.409805 0.707486
Si Si3 0.357897 0.409554 0.961075
Si Si4 0.674147 0.146332 0.818250
Si Si5 0.160425 0.859536 0.336121
Si Si6 0.743468 0.882471 0.132470
Si Si7 0.697241 0.147070 0.299662
Si Si8 0.980621 0.219517 0.953654
O O1 0.158297 0.310584 0.564234
O O2 0.516647 0.172066 0.656051
O O3 0.176736 0.360947 0.357244
O O4 0.500000 0.000000 0.500000
O O5 0.266967 0.359625 0.858924
O O6 0.085561 0.309577 0.761505
O O7 0.513123 0.330351 0.896863
O O8 0.477081 0.330987 0.152400
O O9 0.153634 0.633081 0.940676
O O10 0.802269 0.112049 0.768120
O O11 0.860093 0.975384 0.966403
O O12 0.334744 0.780689 0.533485
O O13 0.182832 0.724155 0.244004
O O14 0.907737 0.053943 0.321027
O O15 0.858427 0.812659 0.027321
O O16 0.723234 0.006687 0.255620
O O17 0.500000 0.000000 0.000000
#
# Coordination Sequence:
#
# PCOD8017595 Si02
#       8
#     2   2   2   2   2   2   2   2
#     4  10  22  40  62  94 135 170 210 271 324 386
#     4  10  22  39  62  97 132 166 218 262 325 400
#     4  11  22  42  67  94 130 168 218 270 326 389
#     4  11  22  44  65  94 130 172 221 268 327 387
#     4  10  23  43  66  93 130 173 223 266 326 389
#     4  11  20  41  68  97 133 175 215 269 331 390
#     4  10  22  43  66  96 134 170 212 281 321 380
#     4  11  24  41  67  96 129 172 220 271 323 389
#
# _framework density 21.356107000000002
#
# number of rings (size 3 to 8) (size 9 to 14) (size 15 to 20)
#    0.000    1.500    3.750    1.875    1.750    2.500 
#    0.000    1.250    0.000    0.000    0.000    0.000 
#    0.000    0.000    0.000    0.000    0.000    0.000 
#
# Total GULP energy -198292.817185 kJ/mol
# GULP energy per Si atom -12393.301074 kJ/mol
# Density = 2.130750 g / cm^3
# Si number density = 21.356107 Si / 1000 Ang^3
#
#
#
# Elastic Constant Matrix: (Units=GPa)
#
#
# Indices 1 2 3 4 5 6 
#
# 1 117.0653 48.8768 52.9764 9.0410 -10.5185 -8.4670
# 2 48.8768 123.7478 34.8357 3.9593 -10.4692 -7.8685
# 3 52.9764 34.8357 112.8309 -3.2990 -2.5474 -8.6846
# 4 9.0410 3.9593 -3.2990 24.2822 -7.0334 -8.0111
# 5 -10.5185 -10.4692 -2.5474 -7.0334 31.3548 -0.1500
# 6 -8.4670 -7.8685 -8.6846 -8.0111 -0.1500 11.1140
#
#
#
# Elastic Compliance Matrix: (Units=1/GPa)
#
#
# Indices 1 2 3 4 5 6 
#
# 1 0.012695 -0.003293 -0.004992 -0.004198 0.001814 0.000437
# 2 -0.003293 0.010184 -0.001073 0.001941 0.002669 0.005298
# 3 -0.004992 -0.001073 0.012595 0.007475 0.000718 0.010677
# 4 -0.004198 0.001941 0.007475 0.064342 0.014522 0.050591
# 5 0.001814 0.002669 0.000718 0.014522 0.036779 0.014797
# 6 0.000437 0.005298 0.010677 0.050591 0.014797 0.139070
#
#
# Mechanical properties :
#
#
# Convention : Reuss Voigt Hill
#
# Bulk Modulus (GPa) = 59.67681 69.66907 64.67294
# Shear Modulus (GPa) = 16.66841 27.81388 22.24114
#
# Velocity S-wave (km/s) = 2.79677 3.61277 3.23064
# Velocity P-wave (km/s) = 6.19948 7.07787 6.65319
#
# Compressibility (1/GPa) = 0.01675693
#
# Stress axis : x y z
#
# Youngs Moduli (GPa) = 78.77000 98.18896 79.39916
#
# Poissons Ratio (x) = 0.32337 0.39636
# Poissons Ratio (y) = 0.25942 0.08522
# Poissons Ratio (z) = 0.39322 0.10539
#
# Static dielectric constant tensor:
#      x y z
#    x 3.925910 -0.061810 0.080180 
#    y -0.061810 3.952620 0.107130 
#    z 0.080180 0.107130 4.137160 
# 
# 
# High freq. dielectric constant tensor:
#      x y z
#    x 1.832600 -0.008470 0.008840 
#    y -0.008470 1.828860 0.003670 
#    z 0.008840 0.003670 1.848240 
# 
# From -- ./inp_files/273459.got.cif
#   From: 2010.06.25/outbox.cif.g09.slc.cpg/sg2_137_cif.got.tgz:273459.got - 2010.06.27 13:26:56.
