data_PCOD8017307
_publ_section_title
;
Structure prediction by ZEFSAII (Michael W. Deem and Ramdas Pophale) SiO2 
 PCOD8017307
Probable space group: P -1
;
_chemical_formula_sum "Si O2"
_cell_formula_units_Z 16
_cell_length_a 11.659802
_cell_length_b 9.375828
_cell_length_c 10.821445
_cell_angle_alpha 61.736502
_cell_angle_beta 129.113552
_cell_angle_gamma 113.876248
_cell_volume 798.667127
_symmetry_space_group_name_H-M "P -1"
_symmetry_group_IT_number 2
_symmetry_cell_setting 'triclinic'
loop_
_space_group_symop_operation_xyz
x,y,z
-x,-y,-z
loop_
_atom_site_type_symbol
_atom_site_label
_atom_site_fract_x
_atom_site_fract_y
_atom_site_fract_z
Si Si1 0.072549 0.155111 0.063719
Si Si2 0.381686 0.263263 0.104435
Si Si3 0.122421 0.705503 0.518221
Si Si4 0.201812 0.076101 0.445757
Si Si5 0.470894 0.933621 0.370252
Si Si6 0.638760 0.522634 0.230131
Si Si7 0.161407 0.345359 0.488193
Si Si8 0.831688 0.314654 0.728135
O O1 0.218701 0.246386 0.058619
O O2 0.113937 0.107735 0.248645
O O3 0.945090 0.271248 0.928486
O O4 0.000000 0.000000 0.000000
O O5 0.489765 0.392674 0.209230
O O6 0.437436 0.087349 0.202810
O O7 0.384937 0.338749 0.939897
O O8 0.236952 0.585473 0.686440
O O9 0.109758 0.719661 0.355588
O O10 0.963209 0.639187 0.498352
O O11 0.177518 0.884673 0.538657
O O12 0.380058 0.137615 0.538199
O O13 0.135693 0.172069 0.472985
O O14 0.332816 0.787901 0.324981
O O15 0.500000 0.000000 0.500000
O O16 0.682033 0.620945 0.345589
O O17 0.168294 0.491771 0.333149
#
# Coordination Sequence:
#
# PCOD8017307 Si02
#       8
#     2   2   2   2   2   2   2   2
#     4  12  21  37  65  94 116 157 212 256 293 361
#     4  11  20  37  66  93 116 155 216 255 291 354
#     4  11  19  41  64  86 121 165 209 245 297 371
#     4  12  25  38  65  93 124 167 198 254 316 359
#     4  12  19  40  64  91 122 157 211 251 292 375
#     4  10  22  38  66  90 119 162 209 252 297 363
#     4  11  25  40  58  93 133 157 202 252 316 363
#     4  11  22  39  67  91 116 166 207 252 303 355
#
# _framework density 20.033379
#
# number of rings (size 3 to 8) (size 9 to 14) (size 15 to 20)
#    0.000    0.750    6.250    4.125    0.000    1.000 
#    0.000    0.625    2.750    0.000    0.000    0.000 
#    0.000    0.000    0.000    0.000    0.000    0.000 
#
# Total GULP energy -198371.492643 kJ/mol
# GULP energy per Si atom -12398.218290 kJ/mol
# Density = 1.998778 g / cm^3
# Si number density = 20.033379 Si / 1000 Ang^3
#
#
#
# Elastic Constant Matrix: (Units=GPa)
#
#
# Indices 1 2 3 4 5 6 
#
# 1 51.7531 25.6378 28.0044 8.7507 9.4433 15.5838
# 2 25.6378 115.1649 39.5796 -2.1792 -0.7955 6.4252
# 3 28.0044 39.5796 114.5428 -4.8833 17.5778 4.9122
# 4 8.7507 -2.1792 -4.8833 34.5094 7.0142 4.8538
# 5 9.4433 -0.7955 17.5778 7.0142 22.5963 2.9689
# 6 15.5838 6.4252 4.9122 4.8538 2.9689 39.1626
#
#
#
# Elastic Compliance Matrix: (Units=1/GPa)
#
#
# Indices 1 2 3 4 5 6 
#
# 1 0.028674 -0.004507 -0.004435 -0.005758 -0.005726 -0.008966
# 2 -0.004507 0.010886 -0.003377 0.000379 0.004773 0.000022
# 3 -0.004435 -0.003377 0.012608 0.004518 -0.009595 0.000905
# 4 -0.005758 0.000379 0.004518 0.033633 -0.011319 -0.001648
# 5 -0.005726 0.004773 -0.009595 -0.011319 0.057830 -0.000282
# 6 -0.008966 0.000022 0.000905 -0.001648 -0.000282 0.029211
#
#
# Mechanical properties :
#
#
# Convention : Reuss Voigt Hill
#
# Bulk Modulus (GPa) = 36.32547 51.98938 44.15742
# Shear Modulus (GPa) = 24.19460 31.80292 27.99876
#
# Velocity S-wave (km/s) = 3.47899 3.98866 3.74251
# Velocity P-wave (km/s) = 5.85744 6.87170 6.38475
#
# Compressibility (1/GPa) = 0.02752889
#
# Stress axis : x y z
#
# Youngs Moduli (GPa) = 34.87510 91.86040 79.31601
#
# Poissons Ratio (x) = 0.41404 0.35178
# Poissons Ratio (y) = 0.15719 0.26784
# Poissons Ratio (z) = 0.15468 0.31021
#
# Static dielectric constant tensor:
#      x y z
#    x 3.493190 0.269910 0.353570 
#    y 0.269910 3.807880 -0.196050 
#    z 0.353570 -0.196050 4.484190 
# 
# 
# High freq. dielectric constant tensor:
#      x y z
#    x 1.752190 0.029650 0.017760 
#    y 0.029650 1.794490 -0.009300 
#    z 0.017760 -0.009300 1.791710 
# 
# From -- ./inp_files/357814.got.cif
#   From: 2010.06.25/outbox.cif.g09.slc.cpg/sg2_179_cif.got.tgz:357814.got - 2010.06.27 13:26:56.
