data_PCOD8017370
_publ_section_title
;
Structure prediction by ZEFSAII (Michael W. Deem and Ramdas Pophale) SiO2 
 PCOD8017370
Probable space group: P -1
;
_chemical_formula_sum "Si O2"
_cell_formula_units_Z 12
_cell_length_a 12.757644
_cell_length_b 5.742738
_cell_length_c 9.834144
_cell_angle_alpha 83.219853
_cell_angle_beta 131.173841
_cell_angle_gamma 87.929519
_cell_volume 532.244794
_symmetry_space_group_name_H-M "P -1"
_symmetry_group_IT_number 2
_symmetry_cell_setting 'triclinic'
loop_
_space_group_symop_operation_xyz
x,y,z
-x,-y,-z
loop_
_atom_site_type_symbol
_atom_site_label
_atom_site_fract_x
_atom_site_fract_y
_atom_site_fract_z
Si Si1 0.203162 0.816855 0.445758
Si Si2 0.355861 0.000017 0.055315
Si Si3 0.907600 0.652400 0.240398
Si Si4 0.404859 0.731176 0.849625
Si Si5 0.578280 0.225117 0.595716
Si Si6 0.936040 0.799928 0.538008
O O1 0.294252 0.658341 0.650215
O O2 0.279880 0.790805 0.369706
O O3 0.046762 0.754908 0.303942
O O4 0.185274 0.089541 0.467418
O O5 0.500787 0.103714 0.159916
O O6 0.373237 0.811700 0.204950
O O7 0.227333 0.212775 0.963550
O O8 0.322804 0.869130 0.896859
O O9 0.871802 0.659027 0.371754
O O10 0.942766 0.369871 0.260775
O O11 0.500000 0.500000 0.000000
O O12 0.500000 0.500000 0.500000
O O13 0.500000 0.000000 0.500000
O O14 0.000000 0.000000 0.500000
#
# Coordination Sequence:
#
# PCOD8017370 Si02
#       6
#     2   2   2   2   2   2
#     4  11  23  42  69  97 139 182 232 280 360 415
#     4  11  25  43  66 103 135 178 239 289 347 419
#     4  10  22  38  69 100 135 176 231 292 352 409
#     4  11  24  39  68 100 135 178 233 289 345 416
#     4  12  28  51  72 101 145 194 233 292 360 426
#     4   9  20  38  62  98 136 174 216 281 352 411
#
# _framework density 22.546015000000001
#
# number of rings (size 3 to 8) (size 9 to 14) (size 15 to 20)
#    0.000    1.333    3.333    1.000    9.333    0.667 
#    0.000    0.833    0.000    0.000    0.000    0.000 
#    0.000    0.000    0.000    0.000    0.000    0.000 
#
# Total GULP energy -148663.538131 kJ/mol
# GULP energy per Si atom -12388.628178 kJ/mol
# Density = 2.249470 g / cm^3
# Si number density = 22.546015 Si / 1000 Ang^3
#
#
#
# Elastic Constant Matrix: (Units=GPa)
#
#
# Indices 1 2 3 4 5 6 
#
# 1 161.1529 45.0917 55.0789 -11.3458 -10.6851 -16.1077
# 2 45.0917 90.5212 28.7013 -34.7075 -2.3923 -11.6200
# 3 55.0789 28.7013 123.2971 -36.1273 -2.1191 -2.7742
# 4 -11.3458 -34.7075 -36.1273 44.5881 -5.4877 13.1878
# 5 -10.6851 -2.3923 -2.1191 -5.4877 37.4970 -3.7778
# 6 -16.1077 -11.6200 -2.7742 13.1878 -3.7778 33.0582
#
#
#
# Elastic Compliance Matrix: (Units=1/GPa)
#
#
# Indices 1 2 3 4 5 6 
#
# 1 0.009465 -0.005075 -0.004925 -0.006918 0.001623 0.005360
# 2 -0.005075 0.018800 0.002668 0.016329 0.002101 -0.001915
# 3 -0.004925 0.002668 0.013564 0.013600 0.000955 -0.005640
# 4 -0.006918 0.016329 0.013600 0.049719 0.005534 -0.015692
# 5 0.001623 0.002101 0.000955 0.005534 0.028396 0.002646
# 6 0.005360 -0.001915 -0.005640 -0.015692 0.002646 0.038277
#
#
# Mechanical properties :
#
#
# Convention : Reuss Voigt Hill
#
# Bulk Modulus (GPa) = 36.81189 70.30167 53.55678
# Shear Modulus (GPa) = 27.48166 39.43527 33.45846
#
# Velocity S-wave (km/s) = 3.49508 4.18676 3.85646
# Velocity P-wave (km/s) = 5.71405 7.39061 6.60573
#
# Compressibility (1/GPa) = 0.02716514
#
# Stress axis : x y z
#
# Youngs Moduli (GPa) = 105.65336 53.19227 73.72492
#
# Poissons Ratio (x) = 0.26994 0.36313
# Poissons Ratio (y) = 0.53616 -0.19673
# Poissons Ratio (z) = 0.52039 -0.14194
#
# Static dielectric constant tensor:
#      x y z
#    x 4.377960 -0.585540 0.041690 
#    y -0.585540 4.986540 -0.123340 
#    z 0.041690 -0.123340 3.940150 
# 
# 
# High freq. dielectric constant tensor:
#      x y z
#    x 1.893670 -0.009980 0.013610 
#    y -0.009980 1.892700 -0.024650 
#    z 0.013610 -0.024650 1.868680 
# 
# From -- ./inp_files/117179.got.cif
#   From: 2010.06.25/outbox.cif.g09.slc.cpg/sg2_59_cif.got.tgz:117179.got - 2010.06.27 13:26:56.
