data_PCOD8017977
_publ_section_title
;
Structure prediction by ZEFSAII (Michael W. Deem and Ramdas Pophale) SiO2 
 PCOD8017977
Probable space group: P -1
;
_chemical_formula_sum "Si O2"
_cell_formula_units_Z 14
_cell_length_a 12.103068
_cell_length_b 11.709085
_cell_length_c 10.250935
_cell_angle_alpha 104.843593
_cell_angle_beta 46.629256
_cell_angle_gamma 67.068153
_cell_volume 605.773821
_symmetry_space_group_name_H-M "P -1"
_symmetry_group_IT_number 2
_symmetry_cell_setting 'triclinic'
loop_
_space_group_symop_operation_xyz
x,y,z
-x,-y,-z
loop_
_atom_site_type_symbol
_atom_site_label
_atom_site_fract_x
_atom_site_fract_y
_atom_site_fract_z
Si Si1 0.816061 0.581422 0.557135
Si Si2 0.384228 0.754585 0.414676
Si Si3 0.763323 0.904326 0.276249
Si Si4 0.067109 0.742941 0.729105
Si Si5 0.245572 0.954408 0.146858
Si Si6 0.259118 0.734647 0.242476
Si Si7 0.971317 0.435741 0.877655
O O1 0.898008 0.584695 0.355726
O O2 0.000000 0.500000 0.500000
O O3 0.820839 0.436164 0.498356
O O4 0.538807 0.811081 0.887197
O O5 0.274435 0.818488 0.375191
O O6 0.302783 0.687085 0.540530
O O7 0.268889 0.936577 0.638644
O O8 0.686150 0.579858 0.113001
O O9 0.889700 0.774690 0.266954
O O10 0.500000 0.000000 0.500000
O O11 0.954215 0.761411 0.959050
O O12 0.837918 0.960341 0.907490
O O13 0.258323 0.805159 0.127114
O O14 0.021959 0.152903 0.479255
O O15 0.500000 0.500000 0.000000
O O16 0.000000 0.500000 0.000000
#
# Coordination Sequence:
#
# PCOD8017977 Si02
#       7
#     2   2   2   2   2   2   2
#     4  12  26  46  73 107 147 189 245 299 358 438
#     4  11  25  42  70 103 134 185 241 299 361 425
#     4  12  24  44  68  96 143 187 240 292 355 439
#     4  11  25  44  68 106 143 181 245 307 352 428
#     4  10  22  39  71  97 140 185 231 286 370 416
#     4  10  22  44  68 104 145 179 234 300 366 431
#     4  12  25  46  71 100 143 199 236 293 370 427
#
# _framework density 23.110937
#
# number of rings (size 3 to 8) (size 9 to 14) (size 15 to 20)
#    0.000    0.857    2.857    3.857    0.000    8.000 
#    0.000    0.000    0.000    0.000    0.000    0.000 
#    0.000    0.000    0.000    0.000    0.000    0.000 
#
# Total GULP energy -173466.833181 kJ/mol
# GULP energy per Si atom -12390.488084 kJ/mol
# Density = 2.305834 g / cm^3
# Si number density = 23.110937 Si / 1000 Ang^3
#
#
#
# Elastic Constant Matrix: (Units=GPa)
#
#
# Indices 1 2 3 4 5 6 
#
# 1 76.9839 30.0106 37.6861 -6.0794 -2.4813 6.5774
# 2 30.0106 142.2791 59.0900 -1.2237 0.9215 -9.7389
# 3 37.6861 59.0900 175.1682 3.2119 -23.2643 -3.3764
# 4 -6.0794 -1.2237 3.2119 51.0075 -1.8850 0.3150
# 5 -2.4813 0.9215 -23.2643 -1.8850 35.1188 1.1178
# 6 6.5774 -9.7389 -3.3764 0.3150 1.1178 46.5160
#
#
#
# Elastic Compliance Matrix: (Units=1/GPa)
#
#
# Indices 1 2 3 4 5 6 
#
# 1 0.015626 -0.002344 -0.002721 0.001979 -0.000439 -0.002901
# 2 -0.002344 0.008811 -0.002730 0.000007 -0.002270 0.002032
# 3 -0.002721 -0.002730 0.007907 -0.000702 0.005071 0.000270
# 4 0.001979 0.000007 -0.000702 0.019916 0.000759 -0.000482
# 5 -0.000439 -0.002270 0.005071 0.000759 0.031929 -0.000818
# 6 -0.002901 0.002032 0.000270 -0.000482 -0.000818 0.022376
#
#
# Mechanical properties :
#
#
# Convention : Reuss Voigt Hill
#
# Bulk Modulus (GPa) = 59.69633 72.00050 65.84841
# Shear Modulus (GPa) = 39.14178 44.37145 41.75661
#
# Velocity S-wave (km/s) = 4.11986 4.38646 4.25525
# Velocity P-wave (km/s) = 6.96544 7.54166 7.25927
#
# Compressibility (1/GPa) = 0.01675145
#
# Stress axis : x y z
#
# Youngs Moduli (GPa) = 63.99649 113.49855 126.47332
#
# Poissons Ratio (x) = 0.26609 0.34418
# Poissons Ratio (y) = 0.15003 0.34529
# Poissons Ratio (z) = 0.17416 0.30987
#
# Static dielectric constant tensor:
#      x y z
#    x 3.849710 -0.157170 -0.147620 
#    y -0.157170 4.339750 0.047750 
#    z -0.147620 0.047750 4.520480 
# 
# 
# High freq. dielectric constant tensor:
#      x y z
#    x 1.885730 -0.011340 -0.010760 
#    y -0.011340 1.931690 -0.002180 
#    z -0.010760 -0.002180 1.934910 
# 
# From -- ./inp_files/426286.got.cif
#   From: 2010.06.25/outbox.cif.g09.slc.cpg/sg2_214_cif.got.tgz:426286.got - 2010.06.27 13:26:56.
