data_PCOD8017956
_publ_section_title
;
Structure prediction by ZEFSAII (Michael W. Deem and Ramdas Pophale) SiO2 
 PCOD8017956
Probable space group: P -1
;
_chemical_formula_sum "Si O2"
_cell_formula_units_Z 16
_cell_length_a 18.218844
_cell_length_b 10.666820
_cell_length_c 8.493204
_cell_angle_alpha 70.558139
_cell_angle_beta 146.491813
_cell_angle_gamma 124.719984
_cell_volume 711.301827
_symmetry_space_group_name_H-M "P -1"
_symmetry_group_IT_number 2
_symmetry_cell_setting 'triclinic'
loop_
_space_group_symop_operation_xyz
x,y,z
-x,-y,-z
loop_
_atom_site_type_symbol
_atom_site_label
_atom_site_fract_x
_atom_site_fract_y
_atom_site_fract_z
Si Si1 0.731626 0.317365 0.110572
Si Si2 0.147847 0.179985 0.188763
Si Si3 0.620379 0.015970 0.837344
Si Si4 0.256759 0.356385 0.614265
Si Si5 0.018125 0.341663 0.714416
Si Si6 0.506898 0.323165 0.241108
Si Si7 0.464090 0.327229 0.521222
Si Si8 0.028288 0.856672 0.601210
O O1 0.853962 0.468576 0.156632
O O2 0.845060 0.317557 0.450674
O O3 0.645026 0.144472 0.951238
O O4 0.580839 0.331493 0.866973
O O5 0.234394 0.232900 0.490192
O O6 0.277777 0.202308 0.284101
O O7 0.079449 0.289938 0.991554
O O8 0.000000 0.000000 0.000000
O O9 0.500000 0.000000 0.500000
O O10 0.541427 0.843507 0.856127
O O11 0.791437 0.068066 0.047959
O O12 0.322231 0.530655 0.582161
O O13 0.088617 0.287859 0.428652
O O14 0.378869 0.367271 0.957902
O O15 0.001296 0.226531 0.587855
O O16 0.506548 0.290200 0.441856
O O17 0.500000 0.500000 0.500000
O O18 0.000000 0.000000 0.500000
#
# Coordination Sequence:
#
# PCOD8017956 Si02
#       8
#     2   2   2   2   2   2   2   2
#     4  10  22  39  70  93 125 173 223 262 321 390
#     4  12  26  39  66  98 133 166 218 274 320 382
#     4  11  23  39  68  93 130 171 220 262 321 395
#     4  11  24  40  65 101 134 162 215 278 326 373
#     4  10  22  43  67  95 132 171 213 267 327 391
#     4  11  23  41  67  97 132 165 215 272 327 378
#     4  12  22  43  70  96 122 176 226 259 321 400
#     4  11  22  40  71  99 124 169 221 263 320 386
#
# _framework density 22.493964999999999
#
# number of rings (size 3 to 8) (size 9 to 14) (size 15 to 20)
#    0.000    1.000    5.000    1.500    3.500    0.000 
#    0.000    1.250   11.000    0.000    0.000    0.000 
#    0.000    0.000    0.000    0.000    0.000    0.000 
#
# Total GULP energy -198237.916126 kJ/mol
# GULP energy per Si atom -12389.869758 kJ/mol
# Density = 2.244277 g / cm^3
# Si number density = 22.493965 Si / 1000 Ang^3
#
#
#
# Elastic Constant Matrix: (Units=GPa)
#
#
# Indices 1 2 3 4 5 6 
#
# 1 58.2096 29.7016 24.4146 2.8943 15.6340 11.3746
# 2 29.7016 131.7664 21.6237 28.6855 21.7869 4.9167
# 3 24.4146 21.6237 121.0798 -1.1830 37.2336 10.8817
# 4 2.8943 28.6855 -1.1830 41.0856 -4.1036 5.7488
# 5 15.6340 21.7869 37.2336 -4.1036 39.2735 6.7145
# 6 11.3746 4.9167 10.8817 5.7488 6.7145 39.8972
#
#
#
# Elastic Compliance Matrix: (Units=1/GPa)
#
#
# Indices 1 2 3 4 5 6 
#
# 1 0.022023 -0.004241 -0.002214 0.001692 -0.003311 -0.004839
# 2 -0.004241 0.011263 0.000511 -0.008449 -0.006261 0.001953
# 3 -0.002214 0.000511 0.011966 -0.000816 -0.010699 -0.000777
# 4 0.001692 -0.008449 -0.000816 0.031738 0.009011 -0.005308
# 5 -0.003311 -0.006261 -0.010699 0.009011 0.041976 -0.003729
# 6 -0.004839 0.001953 -0.000777 -0.005308 -0.003729 0.027808
#
#
# Mechanical properties :
#
#
# Convention : Reuss Voigt Hill
#
# Bulk Modulus (GPa) = 29.97235 51.39287 40.68261
# Shear Modulus (GPa) = 29.44936 39.73900 34.59418
#
# Velocity S-wave (km/s) = 3.62223 4.20772 3.92590
# Velocity P-wave (km/s) = 5.55406 6.81935 6.21897
#
# Compressibility (1/GPa) = 0.03336408
#
# Stress axis : x y z
#
# Youngs Moduli (GPa) = 45.40799 88.78647 83.56913
#
# Poissons Ratio (x) = 0.37657 0.18498
# Poissons Ratio (y) = 0.19259 -0.04270
# Poissons Ratio (z) = 0.10051 -0.04537
#
# Static dielectric constant tensor:
#      x y z
#    x 2.916130 0.106620 0.119040 
#    y 0.106620 4.521450 0.242190 
#    z 0.119040 0.242190 4.815860 
# 
# 
# High freq. dielectric constant tensor:
#      x y z
#    x 1.836640 -0.009180 0.014600 
#    y -0.009180 1.907580 0.013920 
#    z 0.014600 0.013920 1.906030 
# 
# From -- ./inp_files/346067.got.cif
#   From: 2010.06.25/outbox.cif.g09.slc.cpg/sg2_174_cif.got.tgz:346067.got - 2010.06.27 13:26:56.
