data_PCOD8017581
_publ_section_title
;
Structure prediction by ZEFSAII (Michael W. Deem and Ramdas Pophale) SiO2 
 PCOD8017581
Probable space group: P -1
;
_chemical_formula_sum "Si O2"
_cell_formula_units_Z 16
_cell_length_a 10.510116
_cell_length_b 14.201638
_cell_length_c 14.614399
_cell_angle_alpha 48.723038
_cell_angle_beta 38.285623
_cell_angle_gamma 31.065990
_cell_volume 696.877037
_symmetry_space_group_name_H-M "P -1"
_symmetry_group_IT_number 2
_symmetry_cell_setting 'triclinic'
loop_
_space_group_symop_operation_xyz
x,y,z
-x,-y,-z
loop_
_atom_site_type_symbol
_atom_site_label
_atom_site_fract_x
_atom_site_fract_y
_atom_site_fract_z
Si Si1 0.520216 0.679248 0.471600
Si Si2 0.473954 0.397195 0.289007
Si Si3 0.490481 0.188731 0.098141
Si Si4 0.160994 0.478704 0.236195
Si Si5 0.961390 0.791587 0.029287
Si Si6 0.024722 0.722577 0.740842
Si Si7 0.443018 0.379735 0.827380
Si Si8 0.592234 0.117423 0.763274
O O1 0.489754 0.717802 0.573877
O O2 0.340102 0.631390 0.577933
O O3 0.381173 0.852021 0.377900
O O4 0.875411 0.516013 0.352742
O O5 0.217155 0.465021 0.321430
O O6 0.375936 0.573956 0.276594
O O7 0.787618 0.271191 0.140567
O O8 0.458150 0.285857 0.145802
O O9 0.219169 0.208455 0.240831
O O10 0.808818 0.978397 0.047024
O O11 0.419771 0.305591 0.976633
O O12 0.109624 0.639496 0.120942
O O13 0.714070 0.826055 0.087476
O O14 0.111046 0.570798 0.858345
O O15 0.877171 0.904551 0.763402
O O16 0.603020 0.231825 0.750831
#
# Coordination Sequence:
#
# PCOD8017581 Si02
#       8
#     2   2   2   2   2   2   2   2
#     4  10  23  41  66  91 125 170 203 253 316 368
#     4  11  24  42  66  91 126 165 214 255 307 365
#     4  11  24  38  67  96 127 160 207 258 316 363
#     4  11  23  46  63  88 128 168 209 263 297 362
#     4  10  23  41  66  96 122 161 211 258 312 372
#     4  10  22  39  62  94 126 160 204 249 312 379
#     4  11  24  36  63  98 124 164 202 253 314 369
#     4  10  23  40  64  92 133 159 200 259 315 371
#
# _framework density 22.959575000000001
#
# number of rings (size 3 to 8) (size 9 to 14) (size 15 to 20)
#    0.000    1.500    1.250    3.000    7.000    6.000 
#    0.000    0.000    0.000    8.250    0.000    0.000 
#    0.000    0.000    0.000    0.000    0.000    0.000 
#
# Total GULP energy -198271.908810 kJ/mol
# GULP energy per Si atom -12391.994301 kJ/mol
# Density = 2.290732 g / cm^3
# Si number density = 22.959575 Si / 1000 Ang^3
#
#
#
# Elastic Constant Matrix: (Units=GPa)
#
#
# Indices 1 2 3 4 5 6 
#
# 1 57.2704 30.8509 7.1138 1.0870 16.0090 13.0965
# 2 30.8509 146.7237 35.4601 7.1628 15.5824 26.3033
# 3 7.1138 35.4601 105.3718 0.6729 14.3778 -3.3212
# 4 1.0870 7.1628 0.6729 20.4361 -1.9076 0.2235
# 5 16.0090 15.5824 14.3778 -1.9076 35.4486 5.6126
# 6 13.0965 26.3033 -3.3212 0.2235 5.6126 24.9877
#
#
#
# Elastic Compliance Matrix: (Units=1/GPa)
#
#
# Indices 1 2 3 4 5 6 
#
# 1 0.022816 -0.002628 0.000229 -0.000979 -0.008135 -0.007326
# 2 -0.002628 0.010136 -0.003444 -0.003244 -0.000526 -0.009603
# 3 0.000229 -0.003444 0.011382 0.000370 -0.004127 0.005941
# 4 -0.000979 -0.003244 0.000370 0.050456 0.004018 0.002623
# 5 -0.008135 -0.000526 -0.004127 0.004018 0.034564 -0.003531
# 6 -0.007326 -0.009603 0.005941 0.002623 -0.003531 0.055527
#
#
# Mechanical properties :
#
#
# Convention : Reuss Voigt Hill
#
# Bulk Modulus (GPa) = 30.62878 50.69060 40.65969
# Shear Modulus (GPa) = 24.10234 31.90387 28.00310
#
# Velocity S-wave (km/s) = 3.24353 3.73173 3.49617
# Velocity P-wave (km/s) = 5.23418 6.37918 5.83483
#
# Compressibility (1/GPa) = 0.03264903
#
# Stress axis : x y z
#
# Youngs Moduli (GPa) = 43.82918 98.65685 87.86061
#
# Poissons Ratio (x) = 0.25925 -0.02015
# Poissons Ratio (y) = 0.11517 0.30258
# Poissons Ratio (z) = -0.01005 0.33976
#
# Static dielectric constant tensor:
#      x y z
#    x 4.085670 0.030390 -0.053520 
#    y 0.030390 4.183730 -0.122510 
#    z -0.053520 -0.122510 4.180710 
# 
# 
# High freq. dielectric constant tensor:
#      x y z
#    x 1.895520 -0.006120 0.000150 
#    y -0.006120 1.898230 -0.006160 
#    z 0.000150 -0.006160 1.905520 
# 
# From -- ./inp_files/522332.got.cif
#   From: 2010.06.25/outbox.cif.g09.slc.cpg/sg2_262_cif.got.tgz:522332.got - 2010.06.27 13:26:56.
