data_PCOD8017406
_publ_section_title
;
Structure prediction by ZEFSAII (Michael W. Deem and Ramdas Pophale) SiO2 
 PCOD8017406
Probable space group: P -1
;
_chemical_formula_sum "Si O2"
_cell_formula_units_Z 16
_cell_length_a 9.511664
_cell_length_b 23.374736
_cell_length_c 19.981141
_cell_angle_alpha 163.679154
_cell_angle_beta 44.464227
_cell_angle_gamma 127.549742
_cell_volume 807.618508
_symmetry_space_group_name_H-M "P -1"
_symmetry_group_IT_number 2
_symmetry_cell_setting 'triclinic'
loop_
_space_group_symop_operation_xyz
x,y,z
-x,-y,-z
loop_
_atom_site_type_symbol
_atom_site_label
_atom_site_fract_x
_atom_site_fract_y
_atom_site_fract_z
Si Si1 0.418091 0.373731 0.248113
Si Si2 0.819372 0.821752 0.171819
Si Si3 0.895990 0.317466 0.830531
Si Si4 0.129252 0.821131 0.171245
Si Si5 0.811984 0.329089 0.453649
Si Si6 0.188085 0.078599 0.952406
Si Si7 0.958920 0.375761 0.250189
Si Si8 0.435308 0.681951 0.168367
O O1 0.376324 0.483791 0.312357
O O2 0.351215 0.163310 0.031305
O O3 0.284895 0.537683 0.537721
O O4 0.677050 0.285663 0.068768
O O5 0.653239 0.698318 0.081814
O O6 0.916626 0.791599 0.180114
O O7 0.704618 0.081331 0.485630
O O8 0.026280 0.710993 0.927729
O O9 0.808555 0.300828 0.915754
O O10 0.696660 0.380062 0.915756
O O11 0.083614 0.080409 0.483739
O O12 0.000000 0.500000 0.000000
O O13 0.953313 0.170417 0.169496
O O14 0.961567 0.422469 0.550069
O O15 0.717463 0.188816 0.377086
O O16 0.139826 0.170718 0.997255
O O17 0.500000 0.500000 0.000000
#
# Coordination Sequence:
#
# PCOD8017406 Si02
#       8
#     2   2   2   2   2   2   2   2
#     4   9  18  32  52  81 114 148 186 226 276 334
#     4  10  22  39  57  83 119 148 185 236 280 339
#     4  10  22  41  63  84 109 146 191 237 288 334
#     4  10  22  39  57  83 119 148 185 236 280 339
#     4   8  15  29  48  75 109 146 185 227 266 317
#     4   8  15  29  48  73 111 146 183 227 266 317
#     4   9  18  32  52  81 114 148 186 226 276 334
#     4  10  22  41  63  84 109 146 191 237 288 334
#
# _framework density 19.811332
#
# number of rings (size 3 to 8) (size 9 to 14) (size 15 to 20)
#    0.000    2.750    0.000    2.250    3.500    3.500 
#    0.000    0.000    0.000    0.000    0.000   12.250 
#    0.000    0.000    0.000    0.000    0.000    0.000 
#
# Total GULP energy -198233.091387 kJ/mol
# GULP energy per Si atom -12389.568212 kJ/mol
# Density = 1.976624 g / cm^3
# Si number density = 19.811332 Si / 1000 Ang^3
#
#
#
# Elastic Constant Matrix: (Units=GPa)
#
#
# Indices 1 2 3 4 5 6 
#
# 1 106.0177 53.5717 38.9470 6.5626 0.8327 1.4408
# 2 53.5717 99.9982 63.8769 12.3574 0.6528 0.4681
# 3 38.9470 63.8769 82.6998 -2.2839 0.9647 2.6267
# 4 6.5626 12.3574 -2.2839 49.2297 2.9143 1.4758
# 5 0.8327 0.6528 0.9647 2.9143 21.9851 -1.1761
# 6 1.4408 0.4681 2.6267 1.4758 -1.1761 31.1764
#
#
#
# Elastic Compliance Matrix: (Units=1/GPa)
#
#
# Indices 1 2 3 4 5 6 
#
# 1 0.013033 -0.005976 -0.001515 -0.000282 -0.000233 -0.000380
# 2 -0.005976 0.024280 -0.016173 -0.006163 0.001118 0.001608
# 3 -0.001515 -0.016173 0.025537 0.005596 -0.001440 -0.002158
# 4 -0.000282 -0.006163 0.005596 0.022387 -0.003102 -0.001543
# 5 -0.000233 0.001118 -0.001440 -0.003102 0.046042 0.001999
# 6 -0.000380 0.001608 -0.002158 -0.001543 0.001999 0.032399
#
#
# Mechanical properties :
#
#
# Convention : Reuss Voigt Hill
#
# Bulk Modulus (GPa) = 64.42730 66.83409 65.63070
# Shear Modulus (GPa) = 23.12862 29.29958 26.21410
#
# Velocity S-wave (km/s) = 3.42049 3.84986 3.64151
# Velocity P-wave (km/s) = 6.94196 7.31918 7.13306
#
# Compressibility (1/GPa) = 0.01552137
#
# Stress axis : x y z
#
# Youngs Moduli (GPa) = 76.72653 41.18628 39.15816
#
# Poissons Ratio (x) = 0.24615 0.05931
# Poissons Ratio (y) = 0.45856 0.63332
# Poissons Ratio (z) = 0.11622 0.66612
#
# Static dielectric constant tensor:
#      x y z
#    x 3.357610 -0.056070 -0.068590 
#    y -0.056070 3.654690 0.254420 
#    z -0.068590 0.254420 3.738500 
# 
# 
# High freq. dielectric constant tensor:
#      x y z
#    x 1.751450 0.000140 -0.000030 
#    y 0.000140 1.763990 0.005600 
#    z -0.000030 0.005600 1.771090 
# 
# From -- ./inp_files/562727.got.cif
#   From: 2010.06.25/outbox.cif.g09.slc.cpg/sg2_282_cif.got.tgz:562727.got - 2010.06.27 13:26:56.
