data_PCOD8017866
_publ_section_title
;
Structure prediction by ZEFSAII (Michael W. Deem and Ramdas Pophale) SiO2 
 PCOD8017866
Probable space group: P -1
;
_chemical_formula_sum "Si O2"
_cell_formula_units_Z 16
_cell_length_a 11.537409
_cell_length_b 20.110541
_cell_length_c 7.936587
_cell_angle_alpha 67.654430
_cell_angle_beta 84.744526
_cell_angle_gamma 30.221939
_cell_volume 737.989144
_symmetry_space_group_name_H-M "P -1"
_symmetry_group_IT_number 2
_symmetry_cell_setting 'triclinic'
loop_
_space_group_symop_operation_xyz
x,y,z
-x,-y,-z
loop_
_atom_site_type_symbol
_atom_site_label
_atom_site_fract_x
_atom_site_fract_y
_atom_site_fract_z
Si Si1 0.190127 0.120321 0.298853
Si Si2 0.801823 0.793057 0.462266
Si Si3 0.163448 0.462966 0.631552
Si Si4 0.476024 0.628319 0.510683
Si Si5 0.004555 0.741596 0.142038
Si Si6 0.659662 0.154671 0.049828
Si Si7 0.997684 0.082554 0.480512
Si Si8 0.075362 0.858777 0.052882
O O1 0.100317 0.205306 0.408476
O O2 0.064603 0.108994 0.315559
O O3 0.505525 0.935117 0.413718
O O4 0.093036 0.230317 0.057885
O O5 0.821079 0.817727 0.248995
O O6 0.977823 0.622759 0.600825
O O7 0.363560 0.389975 0.546010
O O8 0.000000 0.500000 0.500000
O O9 0.342834 0.323563 0.887129
O O10 0.264201 0.723851 0.306341
O O11 0.685579 0.448060 0.687123
O O12 0.306966 0.736541 0.595654
O O13 0.960856 0.849737 0.001232
O O14 0.764544 0.043223 0.288336
O O15 0.745372 0.190446 0.047949
O O16 0.818856 0.048041 0.959789
O O17 0.000000 0.000000 0.500000
#
# Coordination Sequence:
#
# PCOD8017866 Si02
#       8
#     2   2   2   2   2   2   2   2
#     4  11  25  42  64  95 131 176 216 261 322 389
#     4  10  24  45  61  93 136 167 218 270 312 388
#     4  10  22  39  67  92 126 173 221 269 317 388
#     4   9  21  38  57  96 125 159 219 264 326 379
#     4  11  21  39  69  92 121 175 212 264 326 380
#     4   9  19  35  55  93 122 164 209 255 329 370
#     4  11  23  39  62  91 134 168 212 272 320 389
#     4   9  17  33  62  89 125 157 204 266 313 384
#
# _framework density 21.680534000000002
#
# number of rings (size 3 to 8) (size 9 to 14) (size 15 to 20)
#    0.000    2.000    0.000    3.750    3.500    3.500 
#    9.000    0.625    0.000    0.000    0.000    0.000 
#    0.000    0.000    0.000    0.000    0.000    0.000 
#
# Total GULP energy -198220.143122 kJ/mol
# GULP energy per Si atom -12388.758945 kJ/mol
# Density = 2.163119 g / cm^3
# Si number density = 21.680534 Si / 1000 Ang^3
#
#
#
# Elastic Constant Matrix: (Units=GPa)
#
#
# Indices 1 2 3 4 5 6 
#
# 1 82.1617 41.6312 11.2980 -2.3373 -2.1248 5.1791
# 2 41.6312 124.0196 44.9789 -3.4815 -8.2243 -5.9223
# 3 11.2980 44.9789 93.0433 -2.4301 -10.2519 -6.1124
# 4 -2.3373 -3.4815 -2.4301 40.1046 -4.7506 -3.6305
# 5 -2.1248 -8.2243 -10.2519 -4.7506 23.0188 -4.7377
# 6 5.1791 -5.9223 -6.1124 -3.6305 -4.7377 22.6356
#
#
#
# Elastic Compliance Matrix: (Units=1/GPa)
#
#
# Indices 1 2 3 4 5 6 
#
# 1 0.015244 -0.005598 0.000333 -0.000237 -0.001570 -0.005230
# 2 -0.005598 0.011988 -0.004516 0.001132 0.002805 0.003966
# 3 0.000333 -0.004516 0.013811 0.001490 0.005678 0.003899
# 4 -0.000237 0.001132 0.001490 0.026653 0.007923 0.006686
# 5 -0.001570 0.002805 0.005678 0.007923 0.051484 0.014673
# 6 -0.005230 0.003966 0.003899 0.006686 0.014673 0.051609
#
#
# Mechanical properties :
#
#
# Convention : Reuss Voigt Hill
#
# Bulk Modulus (GPa) = 46.55624 55.00451 50.78037
# Shear Modulus (GPa) = 25.31486 30.57292 27.94389
#
# Velocity S-wave (km/s) = 3.42077 3.75928 3.59401
# Velocity P-wave (km/s) = 6.09283 6.65345 6.37930
#
# Compressibility (1/GPa) = 0.02147940
#
# Stress axis : x y z
#
# Youngs Moduli (GPa) = 65.59797 83.41983 72.40524
#
# Poissons Ratio (x) = 0.46701 -0.02408
# Poissons Ratio (y) = 0.36724 0.32698
# Poissons Ratio (z) = -0.02181 0.37673
#
# Static dielectric constant tensor:
#      x y z
#    x 3.756040 0.081450 0.050350 
#    y 0.081450 3.990750 0.085570 
#    z 0.050350 0.085570 4.252400 
# 
# 
# High freq. dielectric constant tensor:
#      x y z
#    x 1.842090 0.003650 -0.002930 
#    y 0.003650 1.841670 -0.004150 
#    z -0.002930 -0.004150 1.862280 
# 
# From -- ./inp_files/281839.got.cif
#   From: 2010.06.25/outbox.cif.g09.slc.cpg/sg2_141_cif.got.tgz:281839.got - 2010.06.27 13:26:56.
