data_PCOD8017815
_publ_section_title
;
Structure prediction by ZEFSAII (Michael W. Deem and Ramdas Pophale) SiO2 
 PCOD8017815
Probable space group: P -1
;
_chemical_formula_sum "Si O2"
_cell_formula_units_Z 16
_cell_length_a 8.446642
_cell_length_b 14.074766
_cell_length_c 12.100188
_cell_angle_alpha 98.574314
_cell_angle_beta 33.452598
_cell_angle_gamma 107.361467
_cell_volume 743.093466
_symmetry_space_group_name_H-M "P -1"
_symmetry_group_IT_number 2
_symmetry_cell_setting 'triclinic'
loop_
_space_group_symop_operation_xyz
x,y,z
-x,-y,-z
loop_
_atom_site_type_symbol
_atom_site_label
_atom_site_fract_x
_atom_site_fract_y
_atom_site_fract_z
Si Si1 0.682924 0.818374 0.448576
Si Si2 0.126741 0.527793 0.808773
Si Si3 0.172309 0.942086 0.033018
Si Si4 0.928273 0.260659 0.497553
Si Si5 0.256421 0.155811 0.929820
Si Si6 0.753925 0.895539 0.656480
Si Si7 0.177209 0.368119 0.594057
Si Si8 0.030186 0.705874 0.758716
O O1 0.613498 0.838079 0.617285
O O2 0.820480 0.725872 0.346863
O O3 0.361438 0.789806 0.571068
O O4 0.928582 0.916198 0.269319
O O5 0.013733 0.431975 0.774586
O O6 0.486151 0.562170 0.619795
O O7 0.015414 0.615315 0.835354
O O8 0.000000 0.500000 0.000000
O O9 0.471387 0.913608 0.888890
O O10 0.017840 0.880167 0.003713
O O11 0.272893 0.062034 0.977698
O O12 0.035860 0.330352 0.337084
O O13 0.099277 0.176440 0.374811
O O14 0.002143 0.331174 0.575024
O O15 0.570660 0.202625 0.691418
O O16 0.209485 0.241469 0.051551
O O17 0.000000 0.000000 0.500000
#
# Coordination Sequence:
#
# PCOD8017815 Si02
#       8
#     2   2   2   2   2   2   2   2
#     4  10  22  39  66  91 129 175 221 267 318 387
#     4  10  23  44  74  96 123 169 219 264 335 410
#     4  11  23  39  65  91 132 183 227 259 314 387
#     4  11  24  43  63  97 143 166 215 277 327 379
#     4  11  24  38  62  99 132 178 219 265 324 380
#     4  11  23  40  60  92 132 177 226 270 313 370
#     4   9  23  43  66  98 128 168 212 271 334 389
#     4  11  24  41  66  98 130 173 213 276 334 388
#
# _framework density 21.531611999999999
#
# number of rings (size 3 to 8) (size 9 to 14) (size 15 to 20)
#    0.000    1.500    3.750    0.000    3.500    5.500 
#    0.000    1.250    0.000    0.000    0.000    0.000 
#    0.000    0.000    0.000    0.000    0.000    0.000 
#
# Total GULP energy -198407.251888 kJ/mol
# GULP energy per Si atom -12400.453243 kJ/mol
# Density = 2.148260 g / cm^3
# Si number density = 21.531612 Si / 1000 Ang^3
#
#
#
# Elastic Constant Matrix: (Units=GPa)
#
#
# Indices 1 2 3 4 5 6 
#
# 1 80.8092 32.7819 44.9314 7.1329 7.9620 -14.3353
# 2 32.7819 101.0442 40.5069 13.6355 5.6790 -9.4336
# 3 44.9314 40.5069 102.2597 10.0834 11.5245 -28.4354
# 4 7.1329 13.6355 10.0834 34.2246 -5.0060 1.0715
# 5 7.9620 5.6790 11.5245 -5.0060 39.0942 -4.4340
# 6 -14.3353 -9.4336 -28.4354 1.0715 -4.4340 19.6234
#
#
#
# Elastic Compliance Matrix: (Units=1/GPa)
#
#
# Indices 1 2 3 4 5 6 
#
# 1 0.017325 -0.002976 -0.005210 -0.001192 -0.001322 0.003443
# 2 -0.002976 0.012718 -0.003698 -0.003423 -0.000748 -0.001401
# 3 -0.005210 -0.003698 0.021188 -0.004819 -0.002449 0.024829
# 4 -0.001192 -0.003423 -0.004819 0.033340 0.005281 -0.010126
# 5 -0.001322 -0.000748 -0.002449 0.005281 0.027474 0.001045
# 6 0.003443 -0.001401 0.024829 -0.010126 0.001045 0.089569
#
#
# Mechanical properties :
#
#
# Convention : Reuss Voigt Hill
#
# Bulk Modulus (GPa) = 36.41078 57.83929 47.12503
# Shear Modulus (GPa) = 21.31870 29.64796 25.48333
#
# Velocity S-wave (km/s) = 3.15002 3.71475 3.44398
# Velocity P-wave (km/s) = 5.49338 6.73201 6.14399
#
# Compressibility (1/GPa) = 0.02746440
#
# Stress axis : x y z
#
# Youngs Moduli (GPa) = 57.72036 78.63070 47.19570
#
# Poissons Ratio (x) = 0.23398 0.24588
# Poissons Ratio (y) = 0.17176 0.17452
# Poissons Ratio (z) = 0.30071 0.29076
#
# Static dielectric constant tensor:
#      x y z
#    x 3.867120 0.031360 0.002190 
#    y 0.031360 4.119620 0.172600 
#    z 0.002190 0.172600 3.825730 
# 
# 
# High freq. dielectric constant tensor:
#      x y z
#    x 1.847540 0.002120 0.001590 
#    y 0.002120 1.839850 0.006000 
#    z 0.001590 0.006000 1.844970 
# 
# From -- ./inp_files/38896.got.cif
#   From: 2010.06.25/outbox.cif.g09.slc.cpg/sg2_20_cif.got.tgz:38896.got - 2010.06.27 13:26:56.
