data_PCOD8017963
_publ_section_title
;
Structure prediction by ZEFSAII (Michael W. Deem and Ramdas Pophale) SiO2 
 PCOD8017963
Probable space group: P -1
;
_chemical_formula_sum "Si O2"
_cell_formula_units_Z 14
_cell_length_a 8.562255
_cell_length_b 21.962340
_cell_length_c 9.079980
_cell_angle_alpha 148.587659
_cell_angle_beta 46.961481
_cell_angle_gamma 130.713532
_cell_volume 639.420951
_symmetry_space_group_name_H-M "P -1"
_symmetry_group_IT_number 2
_symmetry_cell_setting 'triclinic'
loop_
_space_group_symop_operation_xyz
x,y,z
-x,-y,-z
loop_
_atom_site_type_symbol
_atom_site_label
_atom_site_fract_x
_atom_site_fract_y
_atom_site_fract_z
Si Si1 0.321288 0.503571 0.291364
Si Si2 0.106405 0.116998 0.256262
Si Si3 0.535383 0.727652 0.276331
Si Si4 0.869272 0.314015 0.708556
Si Si5 0.991597 0.874152 0.321664
Si Si6 0.026251 0.489279 0.712979
Si Si7 0.575137 0.221780 0.233865
O O1 0.215993 0.459364 0.425123
O O2 0.428659 0.641486 0.523581
O O3 0.154477 0.476736 0.208859
O O4 0.493816 0.416017 0.971353
O O5 0.368369 0.138548 0.119507
O O6 0.027718 0.223355 0.443052
O O7 0.027816 0.110356 0.460473
O O8 0.000000 0.000000 0.000000
O O9 0.383895 0.748954 0.279350
O O10 0.449203 0.792468 0.604624
O O11 0.786707 0.783414 0.199287
O O12 0.936397 0.377213 0.640222
O O13 0.881001 0.398948 0.015420
O O14 0.205614 0.819313 0.041336
O O15 0.000000 0.000000 0.500000
#
# Coordination Sequence:
#
# PCOD8017963 Si02
#       7
#     2   2   2   2   2   2   2
#     4  11  21  42  68 105 132 187 228 267 334 411
#     4  11  28  47  70  97 140 177 227 285 343 396
#     4  11  25  40  74 102 140 178 224 280 339 406
#     4  11  24  43  63 107 141 177 219 282 346 396
#     4  11  27  49  74  99 128 184 239 275 333 409
#     4  10  22  39  70  96 147 174 225 273 336 408
#     4  11  24  46  72  98 139 181 224 282 331 414
#
# _framework density 21.894811000000001
#
# number of rings (size 3 to 8) (size 9 to 14) (size 15 to 20)
#    0.000    1.143    1.429    4.714    8.000    2.286 
#    5.143    0.000    0.000    0.000    0.000    0.000 
#    0.000    0.000    0.000    0.000    0.000    0.000 
#
# Total GULP energy -173614.024290 kJ/mol
# GULP energy per Si atom -12401.001735 kJ/mol
# Density = 2.184498 g / cm^3
# Si number density = 21.894811 Si / 1000 Ang^3
#
#
#
# Elastic Constant Matrix: (Units=GPa)
#
#
# Indices 1 2 3 4 5 6 
#
# 1 146.2791 65.8459 60.7647 -2.3463 16.0959 23.1102
# 2 65.8459 99.2076 53.7901 -8.6541 4.1079 11.0211
# 3 60.7647 53.7901 99.0547 -3.2832 5.0908 14.0590
# 4 -2.3463 -8.6541 -3.2832 36.0892 3.2844 0.7603
# 5 16.0959 4.1079 5.0908 3.2844 37.9754 3.3213
# 6 23.1102 11.0211 14.0590 0.7603 3.3213 46.9706
#
#
#
# Elastic Compliance Matrix: (Units=1/GPa)
#
#
# Indices 1 2 3 4 5 6 
#
# 1 0.011597 -0.005267 -0.003643 -0.000452 -0.003545 -0.003121
# 2 -0.005267 0.017032 -0.006001 0.003108 0.000902 0.000277
# 3 -0.003643 -0.006001 0.015788 -0.000228 0.000231 -0.001538
# 4 -0.000452 0.003108 -0.000228 0.028650 -0.002528 -0.000723
# 5 -0.003545 0.000902 0.000231 -0.002528 0.027967 -0.000473
# 6 -0.003121 0.000277 -0.001538 -0.000723 -0.000473 0.023266
#
#
# Mechanical properties :
#
#
# Convention : Reuss Voigt Hill
#
# Bulk Modulus (GPa) = 68.52036 78.37142 73.44589
# Shear Modulus (GPa) = 31.44911 35.14975 33.29943
#
# Velocity S-wave (km/s) = 3.79406 4.01108 3.90408
# Velocity P-wave (km/s) = 7.11030 7.57126 7.34440
#
# Compressibility (1/GPa) = 0.01459420
#
# Stress axis : x y z
#
# Youngs Moduli (GPa) = 86.23111 58.71138 63.34032
#
# Poissons Ratio (x) = 0.30926 0.23077
# Poissons Ratio (y) = 0.45422 0.38008
# Poissons Ratio (z) = 0.31417 0.35230
#
# Static dielectric constant tensor:
#      x y z
#    x 4.150470 0.060320 -0.013190 
#    y 0.060320 4.074810 -0.109430 
#    z -0.013190 -0.109430 3.809720 
# 
# 
# High freq. dielectric constant tensor:
#      x y z
#    x 1.871520 0.006260 0.005640 
#    y 0.006260 1.861550 -0.005480 
#    z 0.005640 -0.005480 1.863280 
# 
# From -- ./inp_files/224320.got.cif
#   From: 2010.06.25/outbox.cif.g09.slc.cpg/sg2_113_cif.got.tgz:224320.got - 2010.06.27 13:26:56.
