data_PCOD8017670
_publ_section_title
;
Structure prediction by ZEFSAII (Michael W. Deem and Ramdas Pophale) SiO2 
 PCOD8017670
Probable space group: P -1
;
_chemical_formula_sum "Si O2"
_cell_formula_units_Z 16
_cell_length_a 8.964516
_cell_length_b 11.562066
_cell_length_c 21.900101
_cell_angle_alpha 149.150968
_cell_angle_beta 137.394075
_cell_angle_gamma 54.364745
_cell_volume 779.966310
_symmetry_space_group_name_H-M "P -1"
_symmetry_group_IT_number 2
_symmetry_cell_setting 'triclinic'
loop_
_space_group_symop_operation_xyz
x,y,z
-x,-y,-z
loop_
_atom_site_type_symbol
_atom_site_label
_atom_site_fract_x
_atom_site_fract_y
_atom_site_fract_z
Si Si1 0.244378 0.405705 0.864488
Si Si2 0.168052 0.094583 0.357762
Si Si3 0.896751 0.422845 0.871293
Si Si4 0.064546 0.021648 0.421888
Si Si5 0.375645 0.277464 0.136715
Si Si6 0.161154 0.829999 0.815048
Si Si7 0.351818 0.663109 0.394625
Si Si8 0.042199 0.420766 0.682068
O O1 0.190951 0.493408 0.820111
O O2 0.082004 0.493353 0.905997
O O3 0.500000 0.500000 0.000000
O O4 0.184910 0.127190 0.720049
O O5 0.092861 0.179182 0.440292
O O6 0.397786 0.233879 0.468412
O O7 0.996476 0.109265 0.258869
O O8 0.195527 0.839767 0.268290
O O9 0.682656 0.551438 0.856218
O O10 0.000000 0.500000 0.000000
O O11 0.111222 0.190477 0.569536
O O12 0.234881 0.829812 0.389754
O O13 0.624071 0.228385 0.181632
O O14 0.345296 0.407733 0.249829
O O15 0.211101 0.039966 0.972544
O O16 0.053878 0.618161 0.725924
O O17 0.217412 0.635915 0.404764
#
# Coordination Sequence:
#
# PCOD8017670 Si02
#       8
#     2   2   2   2   2   2   2   2
#     4  10  22  39  64 100 127 161 211 268 319 369
#     4  11  23  41  66  99 123 166 226 260 314 374
#     4  11  22  40  70  97 122 160 226 270 300 374
#     4  10  22  41  66  96 129 166 216 271 314 369
#     4  11  23  45  64  94 127 170 215 261 320 372
#     4  11  27  41  65  94 134 176 203 262 327 387
#     4  11  22  41  67  95 125 169 216 270 314 373
#     4  11  24  43  61  95 139 169 205 256 338 382
#
# _framework density 20.513708000000001
#
# number of rings (size 3 to 8) (size 9 to 14) (size 15 to 20)
#    0.000    1.250    5.000    2.625    3.500    5.000 
#    0.000    0.000    0.000    0.000    0.000    0.000 
#    0.000    0.000    0.000    0.000    0.000    0.000 
#
# Total GULP energy -198260.800093 kJ/mol
# GULP energy per Si atom -12391.300006 kJ/mol
# Density = 2.046702 g / cm^3
# Si number density = 20.513708 Si / 1000 Ang^3
#
#
#
# Elastic Constant Matrix: (Units=GPa)
#
#
# Indices 1 2 3 4 5 6 
#
# 1 79.4855 27.1897 58.4934 3.2782 -4.6649 2.1405
# 2 27.1897 77.8216 44.4502 7.2312 13.5796 -3.3538
# 3 58.4934 44.4502 111.5520 -4.4957 9.6306 -14.7144
# 4 3.2782 7.2312 -4.4957 29.5010 -9.5814 0.4973
# 5 -4.6649 13.5796 9.6306 -9.5814 34.2698 1.2749
# 6 2.1405 -3.3538 -14.7144 0.4973 1.2749 33.6275
#
#
#
# Elastic Compliance Matrix: (Units=1/GPa)
#
#
# Indices 1 2 3 4 5 6 
#
# 1 0.023993 -0.002264 -0.013459 -0.001488 0.007824 -0.007917
# 2 -0.002264 0.019411 -0.006163 -0.008223 -0.008561 -0.000170
# 3 -0.013459 -0.006163 0.020231 0.004592 -0.004133 0.009183
# 4 -0.001488 -0.008223 0.004592 0.041076 0.013243 0.000174
# 5 0.007824 -0.008561 -0.004133 0.013243 0.038681 -0.004823
# 6 -0.007917 -0.000170 0.009183 0.000174 -0.004823 0.034423
#
#
# Mechanical properties :
#
#
# Convention : Reuss Voigt Hill
#
# Bulk Modulus (GPa) = 50.33995 58.79173 54.56584
# Shear Modulus (GPa) = 21.90987 28.72806 25.31896
#
# Velocity S-wave (km/s) = 3.27166 3.74629 3.51700
# Velocity P-wave (km/s) = 6.23415 6.88730 6.56885
#
# Compressibility (1/GPa) = 0.01986494
#
# Stress axis : x y z
#
# Youngs Moduli (GPa) = 41.67827 51.51601 49.43022
#
# Poissons Ratio (x) = 0.11661 0.66527
# Poissons Ratio (y) = 0.09435 0.30462
# Poissons Ratio (z) = 0.56094 0.31748
#
# Static dielectric constant tensor:
#      x y z
#    x 3.366490 -0.222790 0.102870 
#    y -0.222790 3.369370 0.163570 
#    z 0.102870 0.163570 3.831950 
# 
# 
# High freq. dielectric constant tensor:
#      x y z
#    x 1.800610 0.004870 -0.010300 
#    y 0.004870 1.786180 -0.001230 
#    z -0.010300 -0.001230 1.817750 
# 
# From -- ./inp_files/607710.got.cif
#   From: 2010.06.25/outbox.cif.g09.slc.cpg/sg2_304_cif.got.tgz:607710.got - 2010.06.27 13:26:56.
