data_PCOD8017984
_publ_section_title
;
Structure prediction by ZEFSAII (Michael W. Deem and Ramdas Pophale) SiO2 
 PCOD8017984
Probable space group: P -1
;
_chemical_formula_sum "Si O2"
_cell_formula_units_Z 16
_cell_length_a 7.160004
_cell_length_b 14.241557
_cell_length_c 15.365008
_cell_angle_alpha 47.975795
_cell_angle_beta 86.851650
_cell_angle_gamma 52.718423
_cell_volume 745.584502
_symmetry_space_group_name_H-M "P -1"
_symmetry_group_IT_number 2
_symmetry_cell_setting 'triclinic'
loop_
_space_group_symop_operation_xyz
x,y,z
-x,-y,-z
loop_
_atom_site_type_symbol
_atom_site_label
_atom_site_fract_x
_atom_site_fract_y
_atom_site_fract_z
Si Si1 0.241537 0.284358 0.163441
Si Si2 0.231485 0.526058 0.298272
Si Si3 0.693981 0.924849 0.255043
Si Si4 0.777428 0.379317 0.442943
Si Si5 0.318160 0.293968 0.722430
Si Si6 0.045606 0.191869 0.370587
Si Si7 0.174064 0.037115 0.959167
Si Si8 0.420861 0.775267 0.669581
O O1 0.472780 0.261669 0.212234
O O2 0.099863 0.267692 0.249710
O O3 0.397211 0.123546 0.184208
O O4 0.000000 0.500000 0.000000
O O5 0.514081 0.415236 0.418588
O O6 0.317978 0.404612 0.286325
O O7 0.024169 0.543095 0.348584
O O8 0.046893 0.742325 0.136834
O O9 0.639358 0.804583 0.307980
O O10 0.751788 0.977032 0.134872
O O11 0.974668 0.799489 0.387485
O O12 0.627679 0.584213 0.358231
O O13 0.917811 0.326467 0.376477
O O14 0.525444 0.120248 0.896614
O O15 0.827289 0.199918 0.334283
O O16 0.334696 0.961589 0.525424
O O17 0.000000 0.000000 0.000000
#
# Coordination Sequence:
#
# PCOD8017984 Si02
#       8
#     2   2   2   2   2   2   2   2
#     4  12  27  42  67 101 138 177 219 279 330 400
#     4  10  22  39  73  94 125 174 224 263 329 394
#     4  11  26  43  64 101 135 165 231 274 323 399
#     4  11  22  44  68  99 130 171 222 277 325 388
#     4  11  24  43  68  94 132 173 216 270 339 387
#     4  10  23  45  69  97 135 178 221 270 339 389
#     4  11  24  47  67  94 135 181 213 275 337 396
#     4  10  22  43  71  95 130 179 224 269 329 399
#
# _framework density 21.459672999999999
#
# number of rings (size 3 to 8) (size 9 to 14) (size 15 to 20)
#    0.000    1.250    2.500    3.000    7.000    2.500 
#    4.500    0.000    0.000    0.000    0.000    0.000 
#    0.000    0.000    0.000    0.000    0.000    0.000 
#
# Total GULP energy -198374.837797 kJ/mol
# GULP energy per Si atom -12398.427362 kJ/mol
# Density = 2.141083 g / cm^3
# Si number density = 21.459673 Si / 1000 Ang^3
#
#
#
# Elastic Constant Matrix: (Units=GPa)
#
#
# Indices 1 2 3 4 5 6 
#
# 1 72.0130 40.1270 33.8834 7.1711 4.4875 7.9802
# 2 40.1270 145.8572 40.1940 -11.2686 11.7995 6.0037
# 3 33.8834 40.1940 127.7776 -1.2661 17.4113 -4.6922
# 4 7.1711 -11.2686 -1.2661 34.7324 -1.9986 -0.1421
# 5 4.4875 11.7995 17.4113 -1.9986 23.1506 -6.6032
# 6 7.9802 6.0037 -4.6922 -0.1421 -6.6032 28.2018
#
#
#
# Elastic Compliance Matrix: (Units=1/GPa)
#
#
# Indices 1 2 3 4 5 6 
#
# 1 0.019387 -0.004421 -0.003926 -0.005635 -0.000567 -0.005359
# 2 -0.004421 0.009003 -0.001287 0.003614 -0.002891 -0.001538
# 3 -0.003926 -0.001287 0.010110 0.000444 -0.005651 0.001746
# 4 -0.005635 0.003614 0.000444 0.031268 0.002054 0.001537
# 5 -0.000567 -0.002891 -0.005651 0.002054 0.052681 0.012181
# 6 -0.005359 -0.001538 0.001746 0.001537 0.012181 0.040453
#
#
# Mechanical properties :
#
#
# Convention : Reuss Voigt Hill
#
# Bulk Modulus (GPa) = 51.98920 63.78407 57.88664
# Shear Modulus (GPa) = 26.51397 32.64651 29.58024
#
# Velocity S-wave (km/s) = 3.51882 3.90461 3.71672
# Velocity P-wave (km/s) = 6.38659 7.07921 6.74180
#
# Compressibility (1/GPa) = 0.01923477
#
# Stress axis : x y z
#
# Youngs Moduli (GPa) = 51.58063 111.07222 98.90882
#
# Poissons Ratio (x) = 0.49101 0.38829
# Poissons Ratio (y) = 0.22802 0.12725
# Poissons Ratio (z) = 0.20249 0.14290
#
# Static dielectric constant tensor:
#      x y z
#    x 3.957780 0.203050 0.179840 
#    y 0.203050 4.041740 -0.149880 
#    z 0.179840 -0.149880 3.795620 
# 
# 
# High freq. dielectric constant tensor:
#      x y z
#    x 1.852570 0.013410 0.013590 
#    y 0.013410 1.848660 -0.013820 
#    z 0.013590 -0.013820 1.841820 
# 
# From -- ./inp_files/503994.got.cif
#   From: 2010.06.25/outbox.cif.g09.slc.cpg/sg2_252_cif.got.tgz:503994.got - 2010.06.27 13:26:56.
