data_PCOD8017653
_publ_section_title
;
Structure prediction by ZEFSAII (Michael W. Deem and Ramdas Pophale) SiO2 
 PCOD8017653
Probable space group: P -1
;
_chemical_formula_sum "Si O2"
_cell_formula_units_Z 12
_cell_length_a 4.845461
_cell_length_b 8.846980
_cell_length_c 11.153249
_cell_angle_alpha 111.719025
_cell_angle_beta 73.563711
_cell_angle_gamma 105.623652
_cell_volume 418.688697
_symmetry_space_group_name_H-M "P -1"
_symmetry_group_IT_number 2
_symmetry_cell_setting 'triclinic'
loop_
_space_group_symop_operation_xyz
x,y,z
-x,-y,-z
loop_
_atom_site_type_symbol
_atom_site_label
_atom_site_fract_x
_atom_site_fract_y
_atom_site_fract_z
Si Si1 0.871921 0.512173 0.360767
Si Si2 0.538451 0.775135 0.545213
Si Si3 0.407483 0.104065 0.689470
Si Si4 0.484893 0.533701 0.195943
Si Si5 0.690044 0.792682 0.996440
Si Si6 0.177106 0.966176 0.149043
O O1 0.813766 0.681266 0.482384
O O2 0.738096 0.350800 0.405891
O O3 0.757576 0.505063 0.235558
O O4 0.215741 0.516730 0.317402
O O5 0.472935 0.831861 0.435824
O O6 0.580132 0.952205 0.665452
O O7 0.455683 0.279377 0.813281
O O8 0.058031 0.029979 0.712907
O O9 0.423512 0.404000 0.056613
O O10 0.716466 0.854995 0.872415
O O11 0.464332 0.889659 0.126477
O O12 0.009055 0.840868 0.031011
#
# Coordination Sequence:
#
# PCOD8017653 Si02
#       6
#     2   2   2   2   2   2
#     4  10  22  41  65  91 124 167 206 244 300 372
#     4   9  21  41  63  91 127 165 206 250 302 364
#     4  10  22  39  63  95 127 160 203 258 309 355
#     4  11  23  40  65  94 124 161 204 253 308 363
#     4  10  22  41  63  88 120 161 205 248 305 371
#     4  10  22  40  63  89 120 160 204 252 304 362
#
# _framework density 28.660910999999999
#
# number of rings (size 3 to 8) (size 9 to 14) (size 15 to 20)
#    0.000    2.000    0.000    2.000    0.000   13.333 
#    0.000    6.667    0.000    0.000    0.000    0.000 
#    0.000    0.000    0.000    0.000    0.000    0.000 
#
# Total GULP energy -148741.397817 kJ/mol
# GULP energy per Si atom -12395.116485 kJ/mol
# Density = 2.859568 g / cm^3
# Si number density = 28.660911 Si / 1000 Ang^3
#
#
#
# Elastic Constant Matrix: (Units=GPa)
#
#
# Indices 1 2 3 4 5 6 
#
# 1 66.4313 19.1005 -9.2638 -2.1902 -11.5328 -1.9232
# 2 19.1005 203.3303 66.9205 21.2228 3.5236 -22.0431
# 3 -9.2638 66.9205 105.3074 34.8522 -11.6364 3.5312
# 4 -2.1902 21.2228 34.8522 68.1888 6.9372 9.5941
# 5 -11.5328 3.5236 -11.6364 6.9372 34.5671 -12.3376
# 6 -1.9232 -22.0431 3.5312 9.5941 -12.3376 35.9982
#
#
#
# Elastic Compliance Matrix: (Units=1/GPa)
#
#
# Indices 1 2 3 4 5 6 
#
# 1 0.018395 -0.003150 0.005456 -0.002561 0.009712 0.002530
# 2 -0.003150 0.007492 -0.005393 -0.000059 -0.002104 0.004243
# 3 0.005456 -0.005393 0.017159 -0.008073 0.010094 0.000917
# 4 -0.002561 -0.000059 -0.008073 0.021067 -0.010912 -0.008736
# 5 0.009712 -0.002104 0.010094 -0.010912 0.043731 0.016136
# 6 0.002530 0.004243 0.000917 -0.008736 0.016136 0.038281
#
#
# Mechanical properties :
#
#
# Convention : Reuss Voigt Hill
#
# Bulk Modulus (GPa) = 27.12142 58.73149 42.92645
# Shear Modulus (GPa) = 30.37863 47.63827 39.00845
#
# Velocity S-wave (km/s) = 3.25919 4.08135 3.69322
# Velocity P-wave (km/s) = 4.86277 6.53806 5.76163
#
# Compressibility (1/GPa) = 0.03687123
#
# Stress axis : x y z
#
# Youngs Moduli (GPa) = 54.36357 133.48203 58.27696
#
# Poissons Ratio (x) = 0.42053 -0.31797
# Poissons Ratio (y) = 0.17127 0.31429
# Poissons Ratio (z) = -0.29662 0.71987
#
# Static dielectric constant tensor:
#      x y z
#    x 4.758200 -0.064770 0.090030 
#    y -0.064770 5.926350 0.224760 
#    z 0.090030 0.224760 5.589250 
# 
# 
# High freq. dielectric constant tensor:
#      x y z
#    x 2.148930 -0.017430 0.015130 
#    y -0.017430 2.196200 -0.011290 
#    z 0.015130 -0.011290 2.189130 
# 
# From -- ./inp_files/19662.got.cif
#   From: 2010.06.25/outbox.cif.g09.slc.cpg/sg2_10_cif.got.tgz:19662.got - 2010.06.27 13:26:56.
