data_PCOD8017394
_publ_section_title
;
Structure prediction by ZEFSAII (Michael W. Deem and Ramdas Pophale) SiO2 
 PCOD8017394
Probable space group: P -1
;
_chemical_formula_sum "Si O2"
_cell_formula_units_Z 16
_cell_length_a 14.395821
_cell_length_b 5.156552
_cell_length_c 11.855350
_cell_angle_alpha 105.218706
_cell_angle_beta 88.760081
_cell_angle_gamma 73.792175
_cell_volume 811.153253
_symmetry_space_group_name_H-M "P -1"
_symmetry_group_IT_number 2
_symmetry_cell_setting 'triclinic'
loop_
_space_group_symop_operation_xyz
x,y,z
-x,-y,-z
loop_
_atom_site_type_symbol
_atom_site_label
_atom_site_fract_x
_atom_site_fract_y
_atom_site_fract_z
Si Si1 0.267252 0.843737 0.197822
Si Si2 0.624692 0.708603 0.739242
Si Si3 0.592515 0.073584 0.145635
Si Si4 0.719790 0.349420 0.286358
Si Si5 0.678501 0.447425 0.057746
Si Si6 0.115482 0.678699 0.552342
Si Si7 0.433243 0.303251 0.504346
Si Si8 0.891818 0.899898 0.596296
O O1 0.335621 0.605969 0.249218
O O2 0.314972 0.088971 0.195834
O O3 0.163139 0.983947 0.273452
O O4 0.251450 0.703031 0.063457
O O5 0.513187 0.840847 0.789366
O O6 0.633732 0.696265 0.602328
O O7 0.671530 0.093641 0.242497
O O8 0.598059 0.284527 0.067339
O O9 0.620022 0.761874 0.058000
O O10 0.740645 0.449495 0.171019
O O11 0.819385 0.254987 0.341967
O O12 0.638977 0.598898 0.378061
O O13 0.145265 0.348165 0.484667
O O14 0.005115 0.785319 0.610959
O O15 0.130828 0.843023 0.460172
O O16 0.500000 0.500000 0.500000
O O17 0.500000 0.000000 0.500000
#
# Coordination Sequence:
#
# PCOD8017394 Si02
#       8
#     2   2   2   2   2   2   2   2
#     4  12  24  39  61  83 124 149 206 238 293 335
#     4  12  24  38  59  89 113 168 190 244 296 337
#     4  10  22  39  54  85 120 152 211 224 287 341
#     4  10  23  38  61  83 120 156 192 237 292 347
#     4  10  23  39  56  84 118 162 196 246 271 346
#     4  10  22  40  69  86 119 146 193 234 309 351
#     4  12  22  36  56  83 120 145 187 243 284 340
#     4  10  22  42  61  96 112 149 188 250 289 359
#
# _framework density 19.725002
#
# number of rings (size 3 to 8) (size 9 to 14) (size 15 to 20)
#    0.750    0.500    1.250    5.250    1.750    3.000 
#    0.000    0.625    0.000    0.750    0.000    0.000 
#    0.000    0.000    0.000    0.000    0.000    0.000 
#
# Total GULP energy -198370.549620 kJ/mol
# GULP energy per Si atom -12398.159351 kJ/mol
# Density = 1.968011 g / cm^3
# Si number density = 19.725002 Si / 1000 Ang^3
#
#
#
# Elastic Constant Matrix: (Units=GPa)
#
#
# Indices 1 2 3 4 5 6 
#
# 1 96.7953 37.6213 46.8595 9.2710 -7.6819 -0.5346
# 2 37.6213 89.1872 26.6561 10.4907 -4.1343 18.4581
# 3 46.8595 26.6561 142.6405 11.7974 -14.1646 -9.6644
# 4 9.2710 10.4907 11.7974 27.7920 -1.3099 3.3185
# 5 -7.6819 -4.1343 -14.1646 -1.3099 20.5057 -2.0085
# 6 -0.5346 18.4581 -9.6644 3.3185 -2.0085 29.2551
#
#
#
# Elastic Compliance Matrix: (Units=1/GPa)
#
#
# Indices 1 2 3 4 5 6 
#
# 1 0.014305 -0.005422 -0.003118 -0.001651 0.002300 0.002997
# 2 -0.005422 0.016604 -0.002006 -0.002348 -0.001303 -0.011061
# 3 -0.003118 -0.002006 0.009489 -0.002577 0.005307 0.005000
# 4 -0.001651 -0.002348 -0.002577 0.038939 -0.000764 -0.003870
# 5 0.002300 -0.001303 0.005307 -0.000764 0.053608 0.006384
# 6 0.002997 -0.011061 0.005000 -0.003870 0.006384 0.043745
#
#
# Mechanical properties :
#
#
# Convention : Reuss Voigt Hill
#
# Bulk Modulus (GPa) = 51.79893 61.21076 56.50485
# Shear Modulus (GPa) = 24.48367 30.00964 27.24666
#
# Velocity S-wave (km/s) = 3.52696 3.90475 3.72065
# Velocity P-wave (km/s) = 6.55008 7.17139 6.86776
#
# Compressibility (1/GPa) = 0.01930542
#
# Stress axis : x y z
#
# Youngs Moduli (GPa) = 69.90494 60.22633 105.38624
#
# Poissons Ratio (x) = 0.32653 0.32862
# Poissons Ratio (y) = 0.37901 0.21144
# Poissons Ratio (z) = 0.21798 0.12084
#
# Static dielectric constant tensor:
#      x y z
#    x 3.480730 0.190340 0.023730 
#    y 0.190340 3.673840 0.096000 
#    z 0.023730 0.096000 3.706730 
# 
# 
# High freq. dielectric constant tensor:
#      x y z
#    x 1.749230 0.017650 -0.003260 
#    y 0.017650 1.774850 0.006690 
#    z -0.003260 0.006690 1.775750 
# 
# From -- ./inp_files/442169.got.cif
#   From: 2010.06.25/outbox.cif.g09.slc.cpg/sg2_222_cif.got.tgz:442169.got - 2010.06.27 13:26:56.
