data_PCOD8017204
_publ_section_title
;
Structure prediction by ZEFSAII (Michael W. Deem and Ramdas Pophale) SiO2 
 PCOD8017204
Probable space group: P -1
;
_chemical_formula_sum "Si O2"
_cell_formula_units_Z 16
_cell_length_a 13.042188
_cell_length_b 11.423670
_cell_length_c 13.310638
_cell_angle_alpha 44.227841
_cell_angle_beta 113.865632
_cell_angle_gamma 78.126541
_cell_volume 796.211554
_symmetry_space_group_name_H-M "P -1"
_symmetry_group_IT_number 2
_symmetry_cell_setting 'triclinic'
loop_
_space_group_symop_operation_xyz
x,y,z
-x,-y,-z
loop_
_atom_site_type_symbol
_atom_site_label
_atom_site_fract_x
_atom_site_fract_y
_atom_site_fract_z
Si Si1 0.712453 0.585917 0.716696
Si Si2 0.560761 0.944698 0.942414
Si Si3 0.438832 0.733934 0.386679
Si Si4 0.887347 0.907403 0.461100
Si Si5 0.439110 0.897289 0.739899
Si Si6 0.034271 0.146043 0.967643
Si Si7 0.200492 0.617464 0.901755
Si Si8 0.037495 0.470142 0.647638
O O1 0.561666 0.626383 0.598986
O O2 0.625450 0.869575 0.494616
O O3 0.766430 0.502566 0.904098
O O4 0.894848 0.347010 0.875853
O O5 0.459959 0.922857 0.849793
O O6 0.521361 0.171769 0.739560
O O7 0.769114 0.673499 0.175417
O O8 0.500000 0.000000 0.000000
O O9 0.500000 0.500000 0.500000
O O10 0.235094 0.943389 0.213249
O O11 0.049733 0.692108 0.735223
O O12 0.902442 0.753370 0.473608
O O13 0.706530 0.078791 0.343578
O O14 0.872054 0.109052 0.283106
O O15 0.619076 0.605985 0.951177
O O16 0.007765 0.314901 0.767687
O O17 0.000000 0.000000 0.000000
O O18 0.000000 0.500000 0.500000
#
# Coordination Sequence:
#
# PCOD8017204 Si02
#       8
#     2   2   2   2   2   2   2   2
#     4  11  24  41  66  93 129 172 216 267 322 384
#     4  10  22  38  62  95 127 162 212 263 324 385
#     4  10  22  39  61  92 131 165 208 264 319 385
#     4  11  24  45  65  93 133 167 216 269 321 385
#     4  11  22  44  67  90 127 169 219 270 318 382
#     4  11  23  41  63  97 136 165 210 268 324 387
#     4  11  26  44  64  95 129 171 220 267 317 387
#     4  11  23  40  67  95 129 170 210 265 327 383
#
# _framework density 20.095161999999998
#
# number of rings (size 3 to 8) (size 9 to 14) (size 15 to 20)
#    0.000    1.250    3.750    1.500    3.500    2.500 
#    0.000    0.000    0.000    0.000    0.000    0.000 
#    0.000    0.000    0.000    0.000    0.000    0.000 
#
# Total GULP energy -198365.249709 kJ/mol
# GULP energy per Si atom -12397.828107 kJ/mol
# Density = 2.004942 g / cm^3
# Si number density = 20.095162 Si / 1000 Ang^3
#
#
#
# Elastic Constant Matrix: (Units=GPa)
#
#
# Indices 1 2 3 4 5 6 
#
# 1 106.6542 39.9918 36.3534 4.5233 22.4274 -6.9971
# 2 39.9918 95.9370 59.0196 8.6168 1.8449 -8.9801
# 3 36.3534 59.0196 105.7666 10.3649 8.9585 -7.0832
# 4 4.5233 8.6168 10.3649 39.3418 -4.5349 -3.4536
# 5 22.4274 1.8449 8.9585 -4.5349 33.5904 -7.0048
# 6 -6.9971 -8.9801 -7.0832 -3.4536 -7.0048 28.6089
#
#
#
# Elastic Compliance Matrix: (Units=1/GPa)
#
#
# Indices 1 2 3 4 5 6 
#
# 1 0.013341 -0.004610 -0.001206 -0.001272 -0.008663 -0.000757
# 2 -0.004610 0.017865 -0.008554 -0.000228 0.005094 0.003582
# 3 -0.001206 -0.008554 0.015120 -0.002358 -0.003136 -0.000289
# 4 -0.001272 -0.000228 -0.002358 0.027255 0.005959 0.003783
# 5 -0.008663 0.005094 -0.003136 0.005959 0.038775 0.008917
# 6 -0.000757 0.003582 -0.000289 0.003783 0.008917 0.038462
#
#
# Mechanical properties :
#
#
# Convention : Reuss Voigt Hill
#
# Bulk Modulus (GPa) = 56.85790 64.34305 60.60048
# Shear Modulus (GPa) = 26.96594 31.84107 29.40351
#
# Velocity S-wave (km/s) = 3.66719 3.98491 3.82935
# Velocity P-wave (km/s) = 6.80344 7.29804 7.05507
#
# Compressibility (1/GPa) = 0.01758770
#
# Stress axis : x y z
#
# Youngs Moduli (GPa) = 74.95470 55.97456 66.13837
#
# Poissons Ratio (x) = 0.25803 0.07974
# Poissons Ratio (y) = 0.34553 0.56574
# Poissons Ratio (z) = 0.09037 0.47880
#
# Static dielectric constant tensor:
#      x y z
#    x 3.920930 0.013700 0.345090 
#    y 0.013700 3.523910 -0.503300 
#    z 0.345090 -0.503300 0.844580 
# 
# 
# High freq. dielectric constant tensor:
#      x y z
#    x 1.793930 0.004710 0.016300 
#    y 0.004710 1.781920 -0.009480 
#    z 0.016300 -0.009480 1.796900 
# 
# From -- ./inp_files/272796.got.cif
#   From: 2010.06.25/outbox.cif.g09.slc.cpg/sg2_137_cif.got.tgz:272796.got - 2010.06.27 13:26:56.
