data_PCOD8017331
_publ_section_title
;
Structure prediction by ZEFSAII (Michael W. Deem and Ramdas Pophale) SiO2 
 PCOD8017331
Probable space group: P -1
;
_chemical_formula_sum "Si O2"
_cell_formula_units_Z 16
_cell_length_a 12.126402
_cell_length_b 8.734022
_cell_length_c 8.911985
_cell_angle_alpha 82.149690
_cell_angle_beta 104.408757
_cell_angle_gamma 129.536822
_cell_volume 704.743429
_symmetry_space_group_name_H-M "P -1"
_symmetry_group_IT_number 2
_symmetry_cell_setting 'triclinic'
loop_
_space_group_symop_operation_xyz
x,y,z
-x,-y,-z
loop_
_atom_site_type_symbol
_atom_site_label
_atom_site_fract_x
_atom_site_fract_y
_atom_site_fract_z
Si Si1 0.485409 0.740137 0.433125
Si Si2 0.183252 0.910050 0.934337
Si Si3 0.295217 0.835948 0.453312
Si Si4 0.724745 0.298819 0.195335
Si Si5 0.610242 0.583107 0.348488
Si Si6 0.529104 0.690288 0.913598
Si Si7 0.027248 0.728343 0.211331
Si Si8 0.072458 0.076205 0.677181
O O1 0.372168 0.784567 0.365277
O O2 0.564620 0.727974 0.316284
O O3 0.391027 0.507823 0.481722
O O4 0.617678 0.926847 0.552566
O O5 0.261952 0.839370 0.884585
O O6 0.085416 0.919947 0.779672
O O7 0.079206 0.763463 0.052424
O O8 0.306345 0.121976 0.021915
O O9 0.300558 0.766818 0.630308
O O10 0.131612 0.718579 0.356917
O O11 0.587232 0.276468 0.085253
O O12 0.868443 0.521946 0.196880
O O13 0.493756 0.368883 0.259996
O O14 0.769189 0.708278 0.311933
O O15 0.500000 0.500000 0.000000
O O16 0.025389 0.901814 0.249471
O O17 0.000000 0.000000 0.500000
#
# Coordination Sequence:
#
# PCOD8017331 Si02
#       8
#     2   2   2   2   2   2   2   2
#     4  10  22  38  67 100 143 171 235 294 339 406
#     4  12  27  45  71 106 139 187 238 290 355 408
#     4  11  23  42  70 104 140 185 234 289 348 410
#     4  12  25  47  69  99 146 189 237 282 356 425
#     4  11  21  43  65 102 134 183 230 282 357 407
#     4  12  24  44  71  98 138 183 235 288 345 423
#     4  12  25  45  70 105 145 184 232 293 353 419
#     4  12  25  47  73 100 141 190 234 287 351 433
#
# _framework density 22.703299000000001
#
# number of rings (size 3 to 8) (size 9 to 14) (size 15 to 20)
#    0.000    0.500    3.750    4.500    1.750    3.000 
#    0.000    1.250    0.000    0.000    0.000    0.000 
#    0.000    0.000    0.000    0.000    0.000    0.000 
#
# Total GULP energy -198275.016083 kJ/mol
# GULP energy per Si atom -12392.188505 kJ/mol
# Density = 2.265163 g / cm^3
# Si number density = 22.703299 Si / 1000 Ang^3
#
#
#
# Elastic Constant Matrix: (Units=GPa)
#
#
# Indices 1 2 3 4 5 6 
#
# 1 145.9729 32.0914 44.4561 6.8940 -1.3215 -21.1271
# 2 32.0914 86.6921 24.0217 -8.5374 -4.1090 -6.2440
# 3 44.4561 24.0217 87.7782 -2.6368 10.0555 -1.4597
# 4 6.8940 -8.5374 -2.6368 38.9301 -9.4507 -8.6939
# 5 -1.3215 -4.1090 10.0555 -9.4507 30.0534 3.9837
# 6 -21.1271 -6.2440 -1.4597 -8.6939 3.9837 41.0406
#
#
#
# Elastic Compliance Matrix: (Units=1/GPa)
#
#
# Indices 1 2 3 4 5 6 
#
# 1 0.009205 -0.002087 -0.004130 -0.001355 0.000554 0.003934
# 2 -0.002087 0.013899 -0.003050 0.004530 0.004055 0.001498
# 3 -0.004130 -0.003050 0.014910 -0.000650 -0.005572 -0.001657
# 4 -0.001355 0.004530 -0.000650 0.030437 0.009622 0.005482
# 5 0.000554 0.004055 -0.005572 0.009622 0.038880 -0.001032
# 6 0.003934 0.001498 -0.001657 0.005482 -0.001032 0.027822
#
#
# Mechanical properties :
#
#
# Convention : Reuss Voigt Hill
#
# Bulk Modulus (GPa) = 51.33398 57.95352 54.64375
# Shear Modulus (GPa) = 31.21490 36.66308 33.93899
#
# Velocity S-wave (km/s) = 3.71199 4.02291 3.87058
# Velocity P-wave (km/s) = 6.40560 6.86734 6.64049
#
# Compressibility (1/GPa) = 0.01948027
#
# Stress axis : x y z
#
# Youngs Moduli (GPa) = 108.63090 71.94732 67.06967
#
# Poissons Ratio (x) = 0.15017 0.27698
# Poissons Ratio (y) = 0.22673 0.20457
# Poissons Ratio (z) = 0.44862 0.21945
#
# Static dielectric constant tensor:
#      x y z
#    x 4.444950 -0.051710 -0.206530 
#    y -0.051710 4.159890 -0.396330 
#    z -0.206530 -0.396330 3.783090 
# 
# 
# High freq. dielectric constant tensor:
#      x y z
#    x 1.916350 -0.008560 -0.009790 
#    y -0.008560 1.904830 -0.002990 
#    z -0.009790 -0.002990 1.882420 
# 
# From -- ./inp_files/244129.got.cif
#   From: 2010.06.25/outbox.cif.g09.slc.cpg/sg2_123_cif.got.tgz:244129.got - 2010.06.27 13:26:56.
