data_PCOD8017177
_publ_section_title
;
Structure prediction by ZEFSAII (Michael W. Deem and Ramdas Pophale) SiO2 
 PCOD8017177
Probable space group: P -1
;
_chemical_formula_sum "Si O2"
_cell_formula_units_Z 14
_cell_length_a 9.958017
_cell_length_b 11.956725
_cell_length_c 13.000342
_cell_angle_alpha 61.017982
_cell_angle_beta 148.197936
_cell_angle_gamma 113.622017
_cell_volume 713.359287
_symmetry_space_group_name_H-M "P -1"
_symmetry_group_IT_number 2
_symmetry_cell_setting 'triclinic'
loop_
_space_group_symop_operation_xyz
x,y,z
-x,-y,-z
loop_
_atom_site_type_symbol
_atom_site_label
_atom_site_fract_x
_atom_site_fract_y
_atom_site_fract_z
Si Si1 0.867577 0.061868 0.289348
Si Si2 0.649423 0.826186 0.150483
Si Si3 0.389688 0.644412 0.207797
Si Si4 0.582410 0.617465 0.748219
Si Si5 0.111288 0.303212 0.264227
Si Si6 0.082563 0.563714 0.226027
Si Si7 0.954189 0.373120 0.589086
O O1 0.077201 0.161206 0.345938
O O2 0.814126 0.951479 0.220892
O O3 0.596915 0.137485 0.097151
O O4 0.000000 0.000000 0.500000
O O5 0.556868 0.765687 0.227343
O O6 0.821461 0.728016 0.242569
O O7 0.523598 0.511304 0.319860
O O8 0.300794 0.643666 0.270530
O O9 0.132372 0.640515 0.977304
O O10 0.664530 0.708874 0.667958
O O11 0.324615 0.677569 0.605578
O O12 0.801739 0.592559 0.984568
O O13 0.161534 0.410555 0.338191
O O14 0.055637 0.608063 0.304083
O O15 0.000000 0.500000 0.500000
#
# Coordination Sequence:
#
# PCOD8017177 Si02
#       7
#     2   2   2   2   2   2   2
#     4  10  22  38  62  79 106 160 198 230 269 322
#     4  10  22  40  55  86 121 139 192 241 269 337
#     4   8  15  36  59  81 113 148 188 237 273 328
#     4   9  18  36  56  83 116 147 183 235 285 336
#     4   8  17  35  60  84 106 146 205 232 262 331
#     4   9  20  35  59  85 114 149 184 232 289 335
#     4  12  24  34  54  92 125 147 170 232 306 345
#
# _framework density 19.625454999999999
#
# number of rings (size 3 to 8) (size 9 to 14) (size 15 to 20)
#    0.000    2.571    1.429    1.714    2.000    5.143 
#    0.000    0.714    0.000   18.000    0.000    0.000 
#    0.000    0.000    0.000    0.000    0.000    0.000 
#
# Total GULP energy -173437.108169 kJ/mol
# GULP energy per Si atom -12388.364869 kJ/mol
# Density = 1.958079 g / cm^3
# Si number density = 19.625455 Si / 1000 Ang^3
#
#
#
# Elastic Constant Matrix: (Units=GPa)
#
#
# Indices 1 2 3 4 5 6 
#
# 1 131.1740 49.1708 62.5108 -12.8002 4.9637 9.2241
# 2 49.1708 89.5718 36.7451 -18.0564 -0.2998 20.3479
# 3 62.5108 36.7451 96.3215 -18.0030 8.2934 5.2266
# 4 -12.8002 -18.0564 -18.0030 25.0974 0.4992 -1.0932
# 5 4.9637 -0.2998 8.2934 0.4992 32.1372 -1.0997
# 6 9.2241 20.3479 5.2266 -1.0932 -1.0997 30.9093
#
#
#
# Elastic Compliance Matrix: (Units=1/GPa)
#
#
# Indices 1 2 3 4 5 6 
#
# 1 0.012233 -0.004425 -0.006554 -0.001629 -0.000203 0.000306
# 2 -0.004425 0.018609 -0.002026 0.009215 0.000887 -0.010230
# 3 -0.006554 -0.002026 0.017094 0.007555 -0.003517 0.000542
# 4 -0.001629 0.009215 0.007555 0.050890 -0.002579 -0.005149
# 5 -0.000203 0.000887 -0.003517 -0.002579 0.032142 0.001124
# 6 0.000306 -0.010230 0.000542 -0.005149 0.001124 0.038762
#
#
# Mechanical properties :
#
#
# Convention : Reuss Voigt Hill
#
# Bulk Modulus (GPa) = 45.61073 68.21339 56.91206
# Shear Modulus (GPa) = 24.62449 28.87149 26.74799
#
# Velocity S-wave (km/s) = 3.54605 3.83969 3.69578
# Velocity P-wave (km/s) = 6.32906 7.38178 6.87560
#
# Compressibility (1/GPa) = 0.02192466
#
# Stress axis : x y z
#
# Youngs Moduli (GPa) = 81.74677 53.73733 58.50010
#
# Poissons Ratio (x) = 0.23779 0.38343
# Poissons Ratio (y) = 0.36173 0.11854
# Poissons Ratio (z) = 0.53580 0.10889
#
# Static dielectric constant tensor:
#      x y z
#    x 3.731900 0.442370 0.178310 
#    y 0.442370 3.759520 0.015250 
#    z 0.178310 0.015250 3.792440 
# 
# 
# High freq. dielectric constant tensor:
#      x y z
#    x 1.752730 0.026510 0.006690 
#    y 0.026510 1.739390 0.006920 
#    z 0.006690 0.006920 1.785580 
# 
# From -- ./inp_files/256098.got.cif
#   From: 2010.06.25/outbox.cif.g09.slc.cpg/sg2_129_cif.got.tgz:256098.got - 2010.06.27 13:26:56.
