data_PCOD8017909
_publ_section_title
;
Structure prediction by ZEFSAII (Michael W. Deem and Ramdas Pophale) SiO2 
 PCOD8017909
Probable space group: P -1
;
_chemical_formula_sum "Si O2"
_cell_formula_units_Z 10
_cell_length_a 6.649728
_cell_length_b 11.734911
_cell_length_c 7.152732
_cell_angle_alpha 113.659523
_cell_angle_beta 80.362768
_cell_angle_gamma 124.785798
_cell_volume 418.470237
_symmetry_space_group_name_H-M "P -1"
_symmetry_group_IT_number 2
_symmetry_cell_setting 'triclinic'
loop_
_space_group_symop_operation_xyz
x,y,z
-x,-y,-z
loop_
_atom_site_type_symbol
_atom_site_label
_atom_site_fract_x
_atom_site_fract_y
_atom_site_fract_z
Si Si1 0.390635 0.447962 0.685285
Si Si2 0.442379 0.292272 0.892573
Si Si3 0.484712 0.968573 0.205852
Si Si4 0.077559 0.847872 0.497355
Si Si5 0.923919 0.029958 0.838712
O O1 0.500000 0.500000 0.500000
O O2 0.520894 0.379360 0.737906
O O3 0.097442 0.329361 0.626531
O O4 0.437605 0.591548 0.881134
O O5 0.529392 0.181326 0.843576
O O6 0.144919 0.200745 0.866142
O O7 0.243489 0.939503 0.349706
O O8 0.344285 0.993091 0.067671
O O9 0.729873 0.117249 0.341142
O O10 0.907074 0.908024 0.616790
O O11 0.000000 0.000000 0.000000
#
# Coordination Sequence:
#
# PCOD8017909 Si02
#       5
#     2   2   2   2   2
#     4  11  23  45  66  92 136 178 212 263 327 384
#     4  10  24  43  65  96 134 170 216 270 319 385
#     4  10  22  41  68  96 124 168 216 269 326 377
#     4  10  22  39  68  93 126 169 212 266 321 383
#     4  11  22  42  68  95 131 166 213 276 325 378
#
# _framework density 23.896564000000001
#
# number of rings (size 3 to 8) (size 9 to 14) (size 15 to 20)
#    0.000    1.600    2.000    1.800    5.600    4.000 
#    3.600    1.000    0.000    0.000    0.000    0.000 
#    0.000    0.000    0.000    0.000    0.000    0.000 
#
# Total GULP energy -123892.757101 kJ/mol
# GULP energy per Si atom -12389.275710 kJ/mol
# Density = 2.384217 g / cm^3
# Si number density = 23.896564 Si / 1000 Ang^3
#
#
#
# Elastic Constant Matrix: (Units=GPa)
#
#
# Indices 1 2 3 4 5 6 
#
# 1 187.8623 28.6407 28.5716 14.7542 8.4467 -13.7917
# 2 28.6407 82.8634 30.5762 6.4007 4.3026 -8.0442
# 3 28.5716 30.5762 96.1771 24.2245 14.8572 -6.4541
# 4 14.7542 6.4007 24.2245 52.8111 -2.7177 13.0797
# 5 8.4467 4.3026 14.8572 -2.7177 34.9646 -3.8470
# 6 -13.7917 -8.0442 -6.4541 13.0797 -3.8470 43.3110
#
#
#
# Elastic Compliance Matrix: (Units=1/GPa)
#
#
# Indices 1 2 3 4 5 6 
#
# 1 0.005962 -0.001468 -0.000584 -0.001760 -0.000929 0.001988
# 2 -0.001468 0.014197 -0.004115 0.000224 0.000542 0.001537
# 3 -0.000584 -0.004115 0.014775 -0.007132 -0.005868 0.002884
# 4 -0.001760 0.000224 -0.007132 0.025068 0.004413 -0.008760
# 5 -0.000929 0.000542 -0.005868 0.004413 0.031639 0.000408
# 6 0.001988 0.001537 0.002884 -0.008760 0.000408 0.027119
#
#
# Mechanical properties :
#
#
# Convention : Reuss Voigt Hill
#
# Bulk Modulus (GPa) = 44.24540 60.27552 52.26046
# Shear Modulus (GPa) = 36.06787 44.82495 40.44641
#
# Velocity S-wave (km/s) = 3.88923 4.33574 4.11854
# Velocity P-wave (km/s) = 6.22284 7.09529 6.67334
#
# Compressibility (1/GPa) = 0.02260122
#
# Stress axis : x y z
#
# Youngs Moduli (GPa) = 167.74046 70.43552 67.67972
#
# Poissons Ratio (x) = 0.10339 0.03954
# Poissons Ratio (y) = 0.24622 0.27847
# Poissons Ratio (z) = 0.09799 0.28981
#
# Static dielectric constant tensor:
#      x y z
#    x 5.432040 0.383210 -0.647810 
#    y 0.383210 4.441640 -0.670940 
#    z -0.647810 -0.670940 5.685180 
# 
# 
# High freq. dielectric constant tensor:
#      x y z
#    x 1.964550 0.003970 0.017070 
#    y 0.003970 1.950380 -0.030480 
#    z 0.017070 -0.030480 1.990780 
# 
# From -- ./inp_files/86530.got.cif
#   From: 2010.06.25/outbox.cif.g09.slc.cpg/sg2_44_cif.got.tgz:86530.got - 2010.06.27 13:26:56.
