data_PCOD8017701
_publ_section_title
;
Structure prediction by ZEFSAII (Michael W. Deem and Ramdas Pophale) SiO2 
 PCOD8017701
Probable space group: P -1
;
_chemical_formula_sum "Si O2"
_cell_formula_units_Z 16
_cell_length_a 9.216190
_cell_length_b 14.540093
_cell_length_c 9.443695
_cell_angle_alpha 68.905224
_cell_angle_beta 93.118253
_cell_angle_gamma 135.127992
_cell_volume 793.355602
_symmetry_space_group_name_H-M "P -1"
_symmetry_group_IT_number 2
_symmetry_cell_setting 'triclinic'
loop_
_space_group_symop_operation_xyz
x,y,z
-x,-y,-z
loop_
_atom_site_type_symbol
_atom_site_label
_atom_site_fract_x
_atom_site_fract_y
_atom_site_fract_z
Si Si1 0.213532 0.298214 0.540880
Si Si2 0.451770 0.602129 0.280684
Si Si3 0.754877 0.848356 0.599337
Si Si4 0.570437 0.150520 0.364989
Si Si5 0.494650 0.382045 0.054902
Si Si6 0.173570 0.638273 0.331271
Si Si7 0.736150 0.116691 0.643527
Si Si8 0.885996 0.473597 0.147615
O O1 0.261895 0.429415 0.403033
O O2 0.330466 0.333806 0.676152
O O3 0.304886 0.263382 0.457643
O O4 0.958406 0.167257 0.631935
O O5 0.489558 0.640995 0.095250
O O6 0.379257 0.670152 0.305718
O O7 0.610871 0.873202 0.552867
O O8 0.708885 0.775442 0.792941
O O9 0.000000 0.000000 0.500000
O O10 0.671970 0.111601 0.481624
O O11 0.784459 0.321248 0.276057
O O12 0.466896 0.063362 0.252901
O O13 0.500000 0.500000 0.000000
O O14 0.703780 0.461579 0.114350
O O15 0.263969 0.788547 0.308258
O O16 0.000000 0.500000 0.500000
O O17 0.055350 0.601794 0.197854
O O18 0.000000 0.500000 0.000000
#
# Coordination Sequence:
#
# PCOD8017701 Si02
#       8
#     2   2   2   2   2   2   2   2
#     4  11  22  36  65  92 126 164 215 265 314 377
#     4  11  23  39  60  96 128 162 215 268 320 372
#     4  11  22  41  65  91 124 168 210 257 317 387
#     4  10  22  39  64  92 127 163 209 257 320 380
#     4  11  24  39  63  94 128 161 212 267 319 374
#     4  12  22  38  64  95 127 167 214 264 313 378
#     4  11  22  38  63  95 126 164 213 261 311 377
#     4  11  23  41  65  91 128 163 209 265 321 375
#
# _framework density 20.167501000000001
#
# number of rings (size 3 to 8) (size 9 to 14) (size 15 to 20)
#    0.000    1.000    6.250    0.750    3.500    0.000 
#    0.000    1.250    0.000    0.000    0.000    0.000 
#    0.000    0.000    0.000    0.000    0.000    0.000 
#
# Total GULP energy -198210.258480 kJ/mol
# GULP energy per Si atom -12388.141155 kJ/mol
# Density = 2.012160 g / cm^3
# Si number density = 20.167501 Si / 1000 Ang^3
#
#
#
# Elastic Constant Matrix: (Units=GPa)
#
#
# Indices 1 2 3 4 5 6 
#
# 1 101.7858 31.9929 25.3887 3.0732 -0.2031 -7.1023
# 2 31.9929 113.0402 13.1726 21.1841 -0.5744 -4.2174
# 3 25.3887 13.1726 74.1666 13.9726 2.5129 10.1453
# 4 3.0732 21.1841 13.9726 29.2677 -0.7003 -5.6208
# 5 -0.2031 -0.5744 2.5129 -0.7003 30.0768 6.8417
# 6 -7.1023 -4.2174 10.1453 -5.6208 6.8417 41.3798
#
#
#
# Elastic Compliance Matrix: (Units=1/GPa)
#
#
# Indices 1 2 3 4 5 6 
#
# 1 0.012281 -0.003584 -0.004855 0.004301 -0.000291 0.003565
# 2 -0.003584 0.011297 0.000915 -0.008397 0.000112 -0.000847
# 3 -0.004855 0.000915 0.017718 -0.009842 -0.000275 -0.006376
# 4 0.004301 -0.008397 -0.009842 0.046138 -0.000190 0.008594
# 5 -0.000291 0.000112 -0.000275 -0.000190 0.034566 -0.005712
# 6 0.003565 -0.000847 -0.006376 0.008594 -0.005712 0.028367
#
#
# Mechanical properties :
#
#
# Convention : Reuss Voigt Hill
#
# Bulk Modulus (GPa) = 38.10124 47.78903 42.94514
# Shear Modulus (GPa) = 28.70826 34.70740 31.70783
#
# Velocity S-wave (km/s) = 3.77701 4.15294 3.96943
# Velocity P-wave (km/s) = 6.16072 6.83692 6.50761
#
# Compressibility (1/GPa) = 0.02624586
#
# Stress axis : x y z
#
# Youngs Moduli (GPa) = 81.42952 88.52018 56.43845
#
# Poissons Ratio (x) = 0.31728 0.27403
# Poissons Ratio (y) = 0.29187 -0.05162
# Poissons Ratio (z) = 0.39536 -0.08096
#
# Static dielectric constant tensor:
#      x y z
#    x 4.077010 -0.408970 0.493850 
#    y -0.408970 4.048120 -0.250640 
#    z 0.493850 -0.250640 4.372650 
# 
# 
# High freq. dielectric constant tensor:
#      x y z
#    x 1.806640 -0.005310 0.007460 
#    y -0.005310 1.798160 0.006490 
#    z 0.007460 0.006490 1.760980 
# 
# From -- ./inp_files/205333.got.cif
#   From: 2010.06.25/outbox.cif.g09.slc.cpg/sg2_103_cif.got.tgz:205333.got - 2010.06.27 13:26:56.
