data_PCOD8017450
_publ_section_title
;
Structure prediction by ZEFSAII (Michael W. Deem and Ramdas Pophale) SiO2 
 PCOD8017450
Probable space group: P -1
;
_chemical_formula_sum "Si O2"
_cell_formula_units_Z 16
_cell_length_a 10.924072
_cell_length_b 12.380593
_cell_length_c 9.337554
_cell_angle_alpha 102.143021
_cell_angle_beta 99.441554
_cell_angle_gamma 34.527121
_cell_volume 699.677685
_symmetry_space_group_name_H-M "P -1"
_symmetry_group_IT_number 2
_symmetry_cell_setting 'triclinic'
loop_
_space_group_symop_operation_xyz
x,y,z
-x,-y,-z
loop_
_atom_site_type_symbol
_atom_site_label
_atom_site_fract_x
_atom_site_fract_y
_atom_site_fract_z
Si Si1 0.242762 0.218500 0.168739
Si Si2 0.795641 0.449841 0.085555
Si Si3 0.856767 0.058103 0.615522
Si Si4 0.533631 0.151704 0.013089
Si Si5 0.637403 0.579209 0.392301
Si Si6 0.005796 0.738965 0.432309
Si Si7 0.017136 0.126607 0.838895
Si Si8 0.713632 0.776447 0.495705
O O1 0.364438 0.230552 0.119135
O O2 0.205238 0.278998 0.341627
O O3 0.009194 0.370962 0.094200
O O4 0.389220 0.001323 0.122047
O O5 0.746055 0.445305 0.235773
O O6 0.584225 0.667714 0.049465
O O7 0.843426 0.304934 0.963572
O O8 0.611166 0.271611 0.601688
O O9 0.942272 0.054375 0.776171
O O10 0.000000 0.000000 0.500000
O O11 0.882497 0.906882 0.573107
O O12 0.739931 0.052826 0.105605
O O13 0.746505 0.452497 0.522335
O O14 0.674929 0.681873 0.408924
O O15 0.990640 0.795453 0.285765
O O16 0.896006 0.698438 0.407825
O O17 0.500000 0.000000 0.500000
#
# Coordination Sequence:
#
# PCOD8017450 Si02
#       8
#     2   2   2   2   2   2   2   2
#     4  10  22  39  59  99 136 176 217 261 327 407
#     4  11  24  41  65  98 137 170 219 270 329 400
#     4  10  25  47  67  96 130 175 230 276 324 390
#     4  10  22  40  64  93 139 180 215 265 330 390
#     4  12  26  42  69 103 135 172 218 274 339 392
#     4  11  24  44  69  99 136 171 220 278 327 396
#     4  10  25  44  68  97 128 180 231 265 326 388
#     4  12  22  39  69 100 139 171 212 269 340 393
#
# _framework density 22.867671999999999
#
# number of rings (size 3 to 8) (size 9 to 14) (size 15 to 20)
#    0.000    1.250    2.500    2.250    3.500    5.500 
#    0.000    1.250    0.000    0.000    0.000    0.000 
#    0.000    0.000    0.000    0.000    0.000    0.000 
#
# Total GULP energy -198435.781777 kJ/mol
# GULP energy per Si atom -12402.236361 kJ/mol
# Density = 2.281562 g / cm^3
# Si number density = 22.867672 Si / 1000 Ang^3
#
#
#
# Elastic Constant Matrix: (Units=GPa)
#
#
# Indices 1 2 3 4 5 6 
#
# 1 52.0653 10.9970 22.3439 4.0247 8.8856 -16.8283
# 2 10.9970 125.0957 26.8060 -14.1578 2.4360 -21.6559
# 3 22.3439 26.8060 98.2454 6.1936 11.9557 0.4371
# 4 4.0247 -14.1578 6.1936 39.5879 0.0909 2.2568
# 5 8.8856 2.4360 11.9557 0.0909 33.6572 -1.5539
# 6 -16.8283 -21.6559 0.4371 2.2568 -1.5539 33.9937
#
#
#
# Elastic Compliance Matrix: (Units=1/GPa)
#
#
# Indices 1 2 3 4 5 6 
#
# 1 0.026952 0.001156 -0.005824 -0.002209 -0.004473 0.014096
# 2 0.001156 0.010215 -0.003368 0.003668 0.000461 0.006900
# 3 -0.005824 -0.003368 0.012965 -0.002338 -0.003057 -0.005180
# 4 -0.002209 0.003668 -0.002338 0.027188 0.001052 -0.000483
# 5 -0.004473 0.000461 -0.003057 0.001052 0.031919 -0.000493
# 6 0.014096 0.006900 -0.005180 -0.000483 -0.000493 0.040867
#
#
# Mechanical properties :
#
#
# Convention : Reuss Voigt Hill
#
# Bulk Modulus (GPa) = 29.36065 43.96669 36.66367
# Shear Modulus (GPa) = 28.16407 35.79837 31.98122
#
# Velocity S-wave (km/s) = 3.51324 3.96088 3.74376
# Velocity P-wave (km/s) = 5.41520 6.33927 5.89537
#
# Compressibility (1/GPa) = 0.03405919
#
# Stress axis : x y z
#
# Youngs Moduli (GPa) = 37.10273 97.89822 77.13311
#
# Poissons Ratio (x) = -0.11318 0.44924
# Poissons Ratio (y) = -0.04289 0.25978
# Poissons Ratio (z) = 0.21610 0.32972
#
# Static dielectric constant tensor:
#      x y z
#    x 4.201830 0.073590 0.426680 
#    y 0.073590 4.304480 0.186570 
#    z 0.426680 0.186570 4.385990 
# 
# 
# High freq. dielectric constant tensor:
#      x y z
#    x 1.890060 -0.009680 0.011780 
#    y -0.009680 1.916930 0.002910 
#    z 0.011780 0.002910 1.906690 
# 
# From -- ./inp_files/273818.got.cif
#   From: 2010.06.25/outbox.cif.g09.slc.cpg/sg2_137_cif.got.tgz:273818.got - 2010.06.27 13:26:56.
