data_PCOD8017762
_publ_section_title
;
Structure prediction by ZEFSAII (Michael W. Deem and Ramdas Pophale) SiO2 
 PCOD8017762
Probable space group: P -1
;
_chemical_formula_sum "Si O2"
_cell_formula_units_Z 14
_cell_length_a 9.187110
_cell_length_b 13.429744
_cell_length_c 9.206872
_cell_angle_alpha 54.722551
_cell_angle_beta 110.286989
_cell_angle_gamma 72.455312
_cell_volume 657.120422
_symmetry_space_group_name_H-M "P -1"
_symmetry_group_IT_number 2
_symmetry_cell_setting 'triclinic'
loop_
_space_group_symop_operation_xyz
x,y,z
-x,-y,-z
loop_
_atom_site_type_symbol
_atom_site_label
_atom_site_fract_x
_atom_site_fract_y
_atom_site_fract_z
Si Si1 0.042130 0.200677 0.513242
Si Si2 0.379006 0.912302 0.684225
Si Si3 0.351655 0.654209 0.916417
Si Si4 0.406951 0.960573 0.351434
Si Si5 0.166417 0.383519 0.280553
Si Si6 0.293556 0.575471 0.277229
Si Si7 0.960416 0.879583 0.095772
O O1 0.057951 0.338349 0.383316
O O2 0.997743 0.197787 0.667605
O O3 0.867889 0.227767 0.334109
O O4 0.245999 0.028995 0.673905
O O5 0.446204 0.740825 0.888912
O O6 0.278179 0.973411 0.435223
O O7 0.573631 0.902525 0.743080
O O8 0.500000 0.500000 0.000000
O O9 0.331369 0.606707 0.105291
O O10 0.626903 0.779710 0.577904
O O11 0.279513 0.007746 0.121140
O O12 0.235167 0.462830 0.336276
O O13 0.000000 0.500000 0.000000
O O14 0.500000 0.500000 0.500000
O O15 0.101095 0.738439 0.147707
O O16 0.000000 0.000000 0.000000
#
# Coordination Sequence:
#
# PCOD8017762 Si02
#       7
#     2   2   2   2   2   2   2
#     4  11  24  42  66  96 129 181 220 271 335 397
#     4  10  22  39  65  93 125 167 228 264 327 400
#     4  12  23  39  66  95 133 173 225 272 328 403
#     4  10  23  41  67  96 128 175 219 277 337 389
#     4  11  24  45  70  96 139 171 227 279 331 404
#     4  12  26  43  67  98 137 178 217 279 343 386
#     4  12  25  43  67  96 140 172 223 279 333 403
#
# _framework density 21.305077000000001
#
# number of rings (size 3 to 8) (size 9 to 14) (size 15 to 20)
#    0.000    0.857    1.429    5.571    4.000    4.000 
#    0.000    0.000    0.000    0.000    0.000    0.000 
#    0.000    0.000    0.000    0.000    0.000    0.000 
#
# Total GULP energy -173563.024193 kJ/mol
# GULP energy per Si atom -12397.358871 kJ/mol
# Density = 2.125659 g / cm^3
# Si number density = 21.305077 Si / 1000 Ang^3
#
#
#
# Elastic Constant Matrix: (Units=GPa)
#
#
# Indices 1 2 3 4 5 6 
#
# 1 115.5761 64.6111 53.7889 -6.8673 -28.0673 10.8761
# 2 64.6111 142.8929 51.2732 -8.0931 -18.1822 7.1474
# 3 53.7889 51.2732 122.9868 14.3286 -3.5927 4.7115
# 4 -6.8673 -8.0931 14.3286 42.8764 3.0930 -9.3981
# 5 -28.0673 -18.1822 -3.5927 3.0930 49.3745 2.8869
# 6 10.8761 7.1474 4.7115 -9.3981 2.8869 54.1862
#
#
#
# Elastic Compliance Matrix: (Units=1/GPa)
#
#
# Indices 1 2 3 4 5 6 
#
# 1 0.015170 -0.003972 -0.004985 0.002413 0.006766 -0.002030
# 2 -0.003972 0.009997 -0.002638 0.002054 0.001103 0.000005
# 3 -0.004985 -0.002638 0.011959 -0.005207 -0.002582 -0.000457
# 4 0.002413 0.002054 -0.005207 0.026805 -0.000185 0.004357
# 5 0.006766 0.001103 -0.002582 -0.000185 0.024482 -0.002615
# 6 -0.002030 0.000005 -0.000457 0.004357 -0.002615 0.019796
#
#
# Mechanical properties :
#
#
# Convention : Reuss Voigt Hill
#
# Bulk Modulus (GPa) = 71.74698 80.08914 75.91806
# Shear Modulus (GPa) = 36.75277 43.40625 40.07951
#
# Velocity S-wave (km/s) = 4.15790 4.51862 4.34201
# Velocity P-wave (km/s) = 7.53658 8.05587 7.80055
#
# Compressibility (1/GPa) = 0.01393787
#
# Stress axis : x y z
#
# Youngs Moduli (GPa) = 65.92089 100.02945 83.61561
#
# Poissons Ratio (x) = 0.39728 0.41678
# Poissons Ratio (y) = 0.26181 0.22059
# Poissons Ratio (z) = 0.32858 0.26389
#
# Static dielectric constant tensor:
#      x y z
#    x 4.621600 0.135690 -0.333520 
#    y 0.135690 3.998810 0.185840 
#    z -0.333520 0.185840 4.000310 
# 
# 
# High freq. dielectric constant tensor:
#      x y z
#    x 1.852420 0.007100 -0.007720 
#    y 0.007100 1.849460 0.000420 
#    z -0.007720 0.000420 1.831020 
# 
# From -- ./inp_files/159570.got.cif
#   From: 2010.06.25/outbox.cif.g09.slc.cpg/sg2_80_cif.got.tgz:159570.got - 2010.06.27 13:26:56.
