data_PCOD8017202
_publ_section_title
;
Structure prediction by ZEFSAII (Michael W. Deem and Ramdas Pophale) SiO2 
 PCOD8017202
Probable space group: P -1
;
_chemical_formula_sum "Si O2"
_cell_formula_units_Z 16
_cell_length_a 6.432527
_cell_length_b 14.186566
_cell_length_c 15.967826
_cell_angle_alpha 141.665719
_cell_angle_beta 126.296632
_cell_angle_gamma 55.660509
_cell_volume 713.775919
_symmetry_space_group_name_H-M "P -1"
_symmetry_group_IT_number 2
_symmetry_cell_setting 'triclinic'
loop_
_space_group_symop_operation_xyz
x,y,z
-x,-y,-z
loop_
_atom_site_type_symbol
_atom_site_label
_atom_site_fract_x
_atom_site_fract_y
_atom_site_fract_z
Si Si1 0.646250 0.940346 0.232756
Si Si2 0.785772 0.637746 0.815698
Si Si3 0.962037 0.357484 0.950129
Si Si4 0.945127 0.403719 0.549179
Si Si5 0.230276 0.619549 0.686221
Si Si6 0.829098 0.876086 0.852668
Si Si7 0.094938 0.105049 0.469020
Si Si8 0.466421 0.827331 0.275827
O O1 0.463834 0.877577 0.213386
O O2 0.826404 0.796741 0.128577
O O3 0.459397 0.045152 0.194048
O O4 0.830802 0.047494 0.396050
O O5 0.497937 0.670124 0.812596
O O6 0.809463 0.788617 0.874059
O O7 0.808014 0.487267 0.657216
O O8 0.999667 0.601749 0.915382
O O9 0.663414 0.325036 0.850120
O O10 0.000000 0.500000 0.000000
O O11 0.202368 0.473271 0.635609
O O12 0.024130 0.221210 0.455680
O O13 0.750279 0.430046 0.441311
O O14 0.976923 0.756821 0.735519
O O15 0.000000 0.000000 0.000000
O O16 0.228928 0.195502 0.636029
O O17 0.298579 0.958480 0.383594
#
# Coordination Sequence:
#
# PCOD8017202 Si02
#       8
#     2   2   2   2   2   2   2   2
#     4  11  23  42  68  94 128 170 216 270 327 383
#     4  11  24  41  63  93 132 171 214 262 326 386
#     4  11  27  44  63  97 131 174 222 264 322 393
#     4  10  22  38  62  94 127 169 210 266 322 383
#     4  10  22  40  62  95 131 165 216 260 324 387
#     4  11  23  40  66  97 130 168 214 268 326 389
#     4  10  22  40  65  95 125 168 219 267 323 381
#     4  10  23  43  65  92 129 166 222 271 320 380
#
# _framework density 22.415997999999998
#
# number of rings (size 3 to 8) (size 9 to 14) (size 15 to 20)
#    0.000    1.500    0.000    3.750    3.500    8.500 
#    0.000    0.000    0.000    0.000    0.000    0.000 
#    0.000    0.000    0.000    0.000    0.000    0.000 
#
# Total GULP energy -198388.867576 kJ/mol
# GULP energy per Si atom -12399.304223 kJ/mol
# Density = 2.236498 g / cm^3
# Si number density = 22.415998 Si / 1000 Ang^3
#
#
#
# Elastic Constant Matrix: (Units=GPa)
#
#
# Indices 1 2 3 4 5 6 
#
# 1 105.0149 43.8316 51.4780 -6.9876 31.7478 15.5699
# 2 43.8316 101.1684 40.4350 -3.7280 17.1218 17.4253
# 3 51.4780 40.4350 110.2261 -6.0237 22.1689 3.7840
# 4 -6.9876 -3.7280 -6.0237 31.0632 8.4635 4.0344
# 5 31.7478 17.1218 22.1689 8.4635 41.6889 -0.9156
# 6 15.5699 17.4253 3.7840 4.0344 -0.9156 38.6672
#
#
#
# Elastic Compliance Matrix: (Units=1/GPa)
#
#
# Indices 1 2 3 4 5 6 
#
# 1 0.017668 -0.002567 -0.004380 0.006823 -0.011600 -0.006515
# 2 -0.002567 0.013549 -0.003000 0.001798 -0.002490 -0.005025
# 3 -0.004380 -0.003000 0.012752 0.001596 -0.002502 0.001642
# 4 0.006823 0.001798 0.001596 0.039391 -0.014960 -0.008178
# 5 -0.011600 -0.002490 -0.002502 -0.014960 0.038397 0.008507
# 6 -0.006515 -0.005025 0.001642 -0.008178 0.008507 0.031644
#
#
# Mechanical properties :
#
#
# Convention : Reuss Voigt Hill
#
# Bulk Modulus (GPa) = 41.53733 65.32207 53.42970
# Shear Modulus (GPa) = 27.57559 34.32817 30.95188
#
# Velocity S-wave (km/s) = 3.51119 3.91757 3.71994
# Velocity P-wave (km/s) = 5.91679 7.04750 6.50675
#
# Compressibility (1/GPa) = 0.02407473
#
# Stress axis : x y z
#
# Youngs Moduli (GPa) = 56.60007 73.80707 78.41766
#
# Poissons Ratio (x) = 0.18949 0.34347
# Poissons Ratio (y) = 0.14531 0.23523
# Poissons Ratio (z) = 0.24791 0.22140
#
# Static dielectric constant tensor:
#      x y z
#    x 4.119120 0.042190 0.301860 
#    y 0.042190 4.024870 -0.046050 
#    z 0.301860 -0.046050 4.333190 
# 
# 
# High freq. dielectric constant tensor:
#      x y z
#    x 1.887800 0.008850 0.013610 
#    y 0.008850 1.874830 0.000560 
#    z 0.013610 0.000560 1.889190 
# 
# From -- ./inp_files/71858.got.cif
#   From: 2010.06.25/outbox.cif.g09.slc.cpg/sg2_36_cif.got.tgz:71858.got - 2010.06.27 13:26:56.
