data_PCOD8017534
_publ_section_title
;
Structure prediction by ZEFSAII (Michael W. Deem and Ramdas Pophale) SiO2 
 PCOD8017534
Probable space group: P -1
;
_chemical_formula_sum "Si O2"
_cell_formula_units_Z 16
_cell_length_a 7.261287
_cell_length_b 9.584637
_cell_length_c 15.706461
_cell_angle_alpha 120.414219
_cell_angle_beta 100.374149
_cell_angle_gamma 45.558598
_cell_volume 645.491750
_symmetry_space_group_name_H-M "P -1"
_symmetry_group_IT_number 2
_symmetry_cell_setting 'triclinic'
loop_
_space_group_symop_operation_xyz
x,y,z
-x,-y,-z
loop_
_atom_site_type_symbol
_atom_site_label
_atom_site_fract_x
_atom_site_fract_y
_atom_site_fract_z
Si Si1 0.224563 0.470453 0.464647
Si Si2 0.168552 0.874777 0.560322
Si Si3 0.328861 0.732215 0.908921
Si Si4 0.269353 0.169568 0.910779
Si Si5 0.151118 0.745839 0.206887
Si Si6 0.815647 0.036544 0.864012
Si Si7 0.873940 0.483386 0.112939
Si Si8 0.788399 0.689664 0.762049
O O1 0.143860 0.707312 0.540212
O O2 0.519399 0.264339 0.468455
O O3 0.238861 0.420204 0.350288
O O4 0.000000 0.500000 0.500000
O O5 0.000000 0.000000 0.500000
O O6 0.035043 0.074456 0.679046
O O7 0.606102 0.515717 0.816340
O O8 0.227690 0.633302 0.917876
O O9 0.361393 0.841330 0.023801
O O10 0.111203 0.926044 0.881366
O O11 0.348356 0.271405 0.882727
O O12 0.005254 0.271218 0.874075
O O13 0.501710 0.889458 0.849367
O O14 0.164421 0.294371 0.031057
O O15 0.284351 0.804951 0.178515
O O16 0.856704 0.825904 0.774168
O O17 0.965466 0.515546 0.218758
#
# Coordination Sequence:
#
# PCOD8017534 Si02
#       8
#     2   2   2   2   2   2   2   2
#     4  11  26  50  76 102 140 183 241 304 361 421
#     4  11  28  50  73 105 137 183 244 303 361 422
#     4  10  22  39  61  95 133 177 217 261 322 407
#     4  11  23  37  59  94 133 171 211 260 325 400
#     4  12  23  40  67  92 129 172 215 279 334 395
#     4  10  22  39  64  95 134 174 218 261 328 409
#     4  10  23  38  58  94 135 174 213 259 324 409
#     4  11  23  41  66  92 128 175 218 272 337 401
#
# _framework density 24.787300999999999
#
# number of rings (size 3 to 8) (size 9 to 14) (size 15 to 20)
#    0.000    1.250    2.500    2.250    5.250    5.500 
#    0.000    0.000    0.000    0.000    0.000    0.000 
#    0.000    0.000    0.000    0.000    0.000    0.000 
#
# Total GULP energy -198357.122832 kJ/mol
# GULP energy per Si atom -12397.320177 kJ/mol
# Density = 2.473088 g / cm^3
# Si number density = 24.787301 Si / 1000 Ang^3
#
#
#
# Elastic Constant Matrix: (Units=GPa)
#
#
# Indices 1 2 3 4 5 6 
#
# 1 63.9194 -5.4437 9.3959 4.9654 -1.4400 -12.3138
# 2 -5.4437 131.1100 34.1433 8.6704 5.5089 -22.4431
# 3 9.3959 34.1433 77.2460 11.4947 0.2964 -7.9715
# 4 4.9654 8.6704 11.4947 40.8584 -8.6838 4.1068
# 5 -1.4400 5.5089 0.2964 -8.6838 31.2898 2.8820
# 6 -12.3138 -22.4431 -7.9715 4.1068 2.8820 25.7622
#
#
#
# Elastic Compliance Matrix: (Units=1/GPa)
#
#
# Indices 1 2 3 4 5 6 
#
# 1 0.019025 0.003889 -0.002068 -0.004298 -0.002158 0.012768
# 2 0.003889 0.011102 -0.003623 -0.003776 -0.003843 0.011441
# 3 -0.002068 -0.003623 0.015474 -0.003619 -0.000728 0.001302
# 4 -0.004298 -0.003776 -0.003619 0.030193 0.010022 -0.012398
# 5 -0.002158 -0.003843 -0.000728 0.010022 0.036270 -0.010260
# 6 0.012768 0.011441 0.001302 -0.012398 -0.010260 0.058413
#
#
# Mechanical properties :
#
#
# Convention : Reuss Voigt Hill
#
# Bulk Modulus (GPa) = 23.81096 38.71852 31.26474
# Shear Modulus (GPa) = 26.58460 35.19407 30.88934
#
# Velocity S-wave (km/s) = 3.27847 3.77217 3.53395
# Velocity P-wave (km/s) = 4.89470 5.88443 5.41224
#
# Compressibility (1/GPa) = 0.04199746
#
# Stress axis : x y z
#
# Youngs Moduli (GPa) = 52.56320 90.07617 64.62400
#
# Poissons Ratio (x) = -0.35029 0.13362
# Poissons Ratio (y) = -0.20441 0.23412
# Poissons Ratio (z) = 0.10868 0.32632
#
# Static dielectric constant tensor:
#      x y z
#    x 4.939230 0.115200 -0.104250 
#    y 0.115200 5.017890 -0.148860 
#    z -0.104250 -0.148860 4.406190 
# 
# 
# High freq. dielectric constant tensor:
#      x y z
#    x 2.015990 -0.010870 0.010830 
#    y -0.010870 2.007500 0.001190 
#    z 0.010830 0.001190 1.955580 
# 
# From -- ./inp_files/500712.got.cif
#   From: 2010.06.25/outbox.cif.g09.slc.cpg/sg2_251_cif.got.tgz:500712.got - 2010.06.27 13:26:56.
