data_PCOD8017157
_publ_section_title
;
Structure prediction by ZEFSAII (Michael W. Deem and Ramdas Pophale) SiO2 
 PCOD8017157
Probable space group: P -1
;
_chemical_formula_sum "Si O2"
_cell_formula_units_Z 12
_cell_length_a 17.221251
_cell_length_b 7.654667
_cell_length_c 6.661912
_cell_angle_alpha 107.990096
_cell_angle_beta 119.628579
_cell_angle_gamma 49.253025
_cell_volume 578.199332
_symmetry_space_group_name_H-M "P -1"
_symmetry_group_IT_number 2
_symmetry_cell_setting 'triclinic'
loop_
_space_group_symop_operation_xyz
x,y,z
-x,-y,-z
loop_
_atom_site_type_symbol
_atom_site_label
_atom_site_fract_x
_atom_site_fract_y
_atom_site_fract_z
Si Si1 0.344061 0.555615 0.305069
Si Si2 0.402176 0.084366 0.061763
Si Si3 0.842819 0.658008 0.276582
Si Si4 0.527851 0.357416 0.788559
Si Si5 0.973266 0.412229 0.741129
Si Si6 0.102567 0.746605 0.092687
O O1 0.374544 0.308952 0.208936
O O2 0.414318 0.519682 0.576522
O O3 0.370148 0.667309 0.201327
O O4 0.212687 0.735910 0.245486
O O5 0.559927 0.107058 0.787502
O O6 0.290716 0.144528 0.831172
O O7 0.500000 0.000000 0.000000
O O8 0.877406 0.607060 0.536681
O O9 0.909934 0.746618 0.292321
O O10 0.880979 0.429075 0.120039
O O11 0.500000 0.500000 0.000000
O O12 0.923554 0.288516 0.726412
O O13 0.000000 0.500000 0.000000
O O14 0.000000 0.000000 0.000000
#
# Coordination Sequence:
#
# PCOD8017157 Si02
#       6
#     2   2   2   2   2   2
#     4  10  24  43  61  92 127 160 206 253 303 366
#     4  11  22  40  67  90 122 167 202 246 314 361
#     4   9  21  40  60  88 119 154 202 247 296 366
#     4  11  23  43  62  92 127 160 204 257 302 363
#     4   9  19  40  59  83 120 153 197 247 295 354
#     4  10  22  38  61  88 118 158 199 246 304 358
#
# _framework density 20.754086999999998
#
# number of rings (size 3 to 8) (size 9 to 14) (size 15 to 20)
#    0.000    2.000    1.667    0.500    4.667    0.667 
#   12.000    0.000    0.000    0.000    0.000    0.000 
#    0.000    0.000    0.000    0.000    0.000    0.000 
#
# Total GULP energy -148724.578838 kJ/mol
# GULP energy per Si atom -12393.714903 kJ/mol
# Density = 2.070685 g / cm^3
# Si number density = 20.754087 Si / 1000 Ang^3
#
#
#
# Elastic Constant Matrix: (Units=GPa)
#
#
# Indices 1 2 3 4 5 6 
#
# 1 219.9402 64.7574 66.8819 -35.5587 -7.8492 -10.7252
# 2 64.7574 85.5140 16.4243 -18.2815 -9.8368 -6.2146
# 3 66.8819 16.4243 108.4503 -22.8163 -14.0806 -8.1580
# 4 -35.5587 -18.2815 -22.8163 27.2278 4.3191 5.5509
# 5 -7.8492 -9.8368 -14.0806 4.3191 35.4314 -13.3437
# 6 -10.7252 -6.2146 -8.1580 5.5509 -13.3437 41.6352
#
#
#
# Elastic Compliance Matrix: (Units=1/GPa)
#
#
# Indices 1 2 3 4 5 6 
#
# 1 0.007428 -0.004258 -0.003228 0.004470 -0.001530 -0.000441
# 2 -0.004258 0.016529 0.002214 0.006135 0.004719 0.002499
# 3 -0.003228 0.002214 0.013256 0.006926 0.005419 0.002910
# 4 0.004470 0.006135 0.006926 0.053903 -0.002890 -0.004688
# 5 -0.001530 0.004719 0.005419 -0.002890 0.036805 0.013553
# 6 -0.000441 0.002499 0.002910 -0.004688 0.013553 0.029816
#
#
# Mechanical properties :
#
#
# Convention : Reuss Voigt Hill
#
# Bulk Modulus (GPa) = 37.49554 78.89241 58.19398
# Shear Modulus (GPa) = 28.22143 38.58158 33.40151
#
# Velocity S-wave (km/s) = 3.69155 4.31627 4.01608
# Velocity P-wave (km/s) = 6.02294 7.93321 7.04314
#
# Compressibility (1/GPa) = 0.02666984
#
# Stress axis : x y z
#
# Youngs Moduli (GPa) = 134.61694 60.49980 75.43934
#
# Poissons Ratio (x) = 0.25760 0.24349
# Poissons Ratio (y) = 0.57317 -0.16701
# Poissons Ratio (z) = 0.43450 -0.13393
#
# Static dielectric constant tensor:
#      x y z
#    x 6.703170 -1.682800 0.700040 
#    y -1.682800 4.951090 -0.984460 
#    z 0.700040 -0.984460 4.243240 
# 
# 
# High freq. dielectric constant tensor:
#      x y z
#    x 1.840970 -0.001780 0.002150 
#    y -0.001780 1.785280 -0.014810 
#    z 0.002150 -0.014810 1.818970 
# 
# From -- ./inp_files/107414.got.cif
#   From: 2010.06.25/outbox.cif.g09.slc.cpg/sg2_54_cif.got.tgz:107414.got - 2010.06.27 13:26:56.
