data_PCOD8017589
_publ_section_title
;
Structure prediction by ZEFSAII (Michael W. Deem and Ramdas Pophale) SiO2 
 PCOD8017589
Probable space group: P -1
;
_chemical_formula_sum "Si O2"
_cell_formula_units_Z 16
_cell_length_a 32.540548
_cell_length_b 9.559169
_cell_length_c 5.284187
_cell_angle_alpha 102.775374
_cell_angle_beta 83.759631
_cell_angle_gamma 152.533566
_cell_volume 725.230284
_symmetry_space_group_name_H-M "P -1"
_symmetry_group_IT_number 2
_symmetry_cell_setting 'triclinic'
loop_
_space_group_symop_operation_xyz
x,y,z
-x,-y,-z
loop_
_atom_site_type_symbol
_atom_site_label
_atom_site_fract_x
_atom_site_fract_y
_atom_site_fract_z
Si Si1 0.964696 0.504426 0.215419
Si Si2 0.100704 0.241344 0.023736
Si Si3 0.440617 0.827946 0.721088
Si Si4 0.116821 0.001859 0.663893
Si Si5 0.705706 0.871003 0.515651
Si Si6 0.815397 0.245957 0.081054
Si Si7 0.717861 0.220005 0.654899
Si Si8 0.687993 0.303773 0.219798
O O1 0.902342 0.222388 0.340526
O O2 0.911605 0.464220 0.093482
O O3 0.051477 0.848058 0.419097
O O4 0.000000 0.500000 0.000000
O O5 0.161137 0.512697 0.878467
O O6 0.093986 0.050679 0.909640
O O7 0.171303 0.470266 0.307880
O O8 0.000000 0.000000 0.000000
O O9 0.370370 0.480654 0.624700
O O10 0.394487 0.840861 0.767823
O O11 0.500000 0.000000 0.500000
O O12 0.500000 0.000000 0.000000
O O13 0.221026 0.324100 0.642245
O O14 0.770232 0.076240 0.310562
O O15 0.664548 0.903957 0.592384
O O16 0.758719 0.999401 0.791120
O O17 0.680040 0.167046 0.398479
O O18 0.691151 0.237925 0.917381
#
# Coordination Sequence:
#
# PCOD8017589 Si02
#       8
#     2   2   2   2   2   2   2   2
#     4  11  25  37  55  89 130 173 239 263 325 371
#     4  10  22  39  62  95 134 183 236 280 310 365
#     4  12  27  48  76 107 131 167 219 284 351 422
#     4  10  24  39  59  87 129 180 217 280 316 387
#     4  11  24  47  69  99 139 173 223 272 341 409
#     4  11  25  40  67  94 133 188 221 277 325 383
#     4  10  23  43  68  99 134 187 221 266 335 395
#     4  11  24  45  70  96 136 174 225 268 348 402
#
# _framework density 22.061959999999999
#
# number of rings (size 3 to 8) (size 9 to 14) (size 15 to 20)
#    0.000    1.250    0.000    5.250   14.000    0.500 
#    0.000    3.750    0.000    0.000    0.000    0.000 
#    0.000    0.000    0.000    0.000    0.000    0.000 
#
# Total GULP energy -198266.923303 kJ/mol
# GULP energy per Si atom -12391.682706 kJ/mol
# Density = 2.201175 g / cm^3
# Si number density = 22.061960 Si / 1000 Ang^3
#
#
#
# Elastic Constant Matrix: (Units=GPa)
#
#
# Indices 1 2 3 4 5 6 
#
# 1 101.4404 18.3685 29.5264 4.6028 16.6331 17.3607
# 2 18.3685 51.1411 23.8564 -4.0483 -4.7703 7.9040
# 3 29.5264 23.8564 127.4235 -1.0472 7.0849 6.9478
# 4 4.6028 -4.0483 -1.0472 33.9227 3.0715 -5.4650
# 5 16.6331 -4.7703 7.0849 3.0715 34.8363 3.0625
# 6 17.3607 7.9040 6.9478 -5.4650 3.0625 31.2206
#
#
#
# Elastic Compliance Matrix: (Units=1/GPa)
#
#
# Indices 1 2 3 4 5 6 
#
# 1 0.013090 -0.003733 -0.001722 -0.002708 -0.005656 -0.005870
# 2 -0.003733 0.023876 -0.003734 0.002167 0.005914 -0.003338
# 3 -0.001722 -0.003734 0.009029 0.000221 -0.001552 0.000084
# 4 -0.002708 0.002167 0.000221 0.031332 -0.001795 0.006569
# 5 -0.005656 0.005914 -0.001552 -0.001795 0.032826 -0.001541
# 6 -0.005870 -0.003338 0.000084 0.006569 -0.001541 0.037421
#
#
# Mechanical properties :
#
#
# Convention : Reuss Voigt Hill
#
# Bulk Modulus (GPa) = 36.20960 47.05638 41.63299
# Shear Modulus (GPa) = 28.54560 33.87951 31.21256
#
# Velocity S-wave (km/s) = 3.60096 3.92299 3.76542
# Velocity P-wave (km/s) = 5.80840 6.47266 6.14951
#
# Compressibility (1/GPa) = 0.02761699
#
# Stress axis : x y z
#
# Youngs Moduli (GPa) = 76.39346 41.88394 110.74849
#
# Poissons Ratio (x) = 0.15636 0.19071
# Poissons Ratio (y) = 0.28518 0.41353
# Poissons Ratio (z) = 0.13155 0.15639
#
# Static dielectric constant tensor:
#      x y z
#    x 3.553070 0.457530 -0.175110 
#    y 0.457530 3.366400 0.338470 
#    z -0.175110 0.338470 3.914460 
# 
# 
# High freq. dielectric constant tensor:
#      x y z
#    x 1.880320 -0.017410 0.003070 
#    y -0.017410 1.853620 0.000920 
#    z 0.003070 0.000920 1.878670 
# 
# From -- ./inp_files/89872.got.cif
#   From: 2010.06.25/outbox.cif.g09.slc.cpg/sg2_45_cif.got.tgz:89872.got - 2010.06.27 13:26:56.
