data_PCOD8017998
_publ_section_title
;
Structure prediction by ZEFSAII (Michael W. Deem and Ramdas Pophale) SiO2 
 PCOD8017998
Probable space group: P -1
;
_chemical_formula_sum "Si O2"
_cell_formula_units_Z 16
_cell_length_a 13.778983
_cell_length_b 11.132964
_cell_length_c 6.692381
_cell_angle_alpha 51.844293
_cell_angle_beta 101.459415
_cell_angle_gamma 88.714088
_cell_volume 777.006588
_symmetry_space_group_name_H-M "P -1"
_symmetry_group_IT_number 2
_symmetry_cell_setting 'triclinic'
loop_
_space_group_symop_operation_xyz
x,y,z
-x,-y,-z
loop_
_atom_site_type_symbol
_atom_site_label
_atom_site_fract_x
_atom_site_fract_y
_atom_site_fract_z
Si Si1 0.500547 0.913844 0.378530
Si Si2 0.850371 0.854607 0.365974
Si Si3 0.313115 0.118623 0.040947
Si Si4 0.162273 0.786818 0.075245
Si Si5 0.786213 0.402386 0.099158
Si Si6 0.961131 0.361037 0.517817
Si Si7 0.681161 0.214824 0.541039
Si Si8 0.288969 0.252723 0.306127
O O1 0.440785 0.767070 0.514695
O O2 0.615014 0.846104 0.430243
O O3 0.500000 0.000000 0.500000
O O4 0.428879 0.050215 0.074537
O O5 0.811070 0.816092 0.609000
O O6 0.953922 0.741487 0.477019
O O7 0.862491 0.031596 0.175081
O O8 0.762831 0.808531 0.236588
O O9 0.310242 0.244847 0.085252
O O10 0.273722 0.970292 0.277395
O O11 0.161230 0.691450 0.970801
O O12 0.073180 0.751936 0.215782
O O13 0.269852 0.734460 0.285570
O O14 0.870434 0.432204 0.260428
O O15 0.708615 0.307276 0.265856
O O16 0.725380 0.566718 0.826907
O O17 0.000000 0.500000 0.500000
#
# Coordination Sequence:
#
# PCOD8017998 Si02
#       8
#     2   2   2   2   2   2   2   2
#     4   8  17  36  61  87 111 148 193 235 278 332
#     4  11  22  37  62  84 112 152 191 236 282 339
#     4   8  18  38  57  81 114 146 188 242 273 323
#     4  10  22  40  59  84 117 150 190 234 288 336
#     4  11  23  37  58  85 121 153 182 238 282 342
#     4  11  24  41  60  84 114 150 192 238 288 337
#     4   8  18  39  58  80 118 150 187 232 283 327
#     4  11  21  34  58  90 114 150 194 226 287 336
#
# _framework density 20.591847000000001
#
# number of rings (size 3 to 8) (size 9 to 14) (size 15 to 20)
#    0.750    1.500    0.000    2.625    0.000    5.500 
#    0.000    0.625    0.000    0.000    0.000    0.000 
#    0.000    0.000    0.000    0.000    0.000    0.000 
#
# Total GULP energy -198231.903523 kJ/mol
# GULP energy per Si atom -12389.493970 kJ/mol
# Density = 2.054498 g / cm^3
# Si number density = 20.591847 Si / 1000 Ang^3
#
#
#
# Elastic Constant Matrix: (Units=GPa)
#
#
# Indices 1 2 3 4 5 6 
#
# 1 91.6059 32.2335 3.8695 -4.2835 -4.7059 -2.0753
# 2 32.2335 95.6165 13.5999 -7.6498 1.8089 -7.8395
# 3 3.8695 13.5999 39.2628 -9.6032 -0.2331 -4.2669
# 4 -4.2835 -7.6498 -9.6032 28.4367 4.5577 5.0260
# 5 -4.7059 1.8089 -0.2331 4.5577 29.2600 3.0632
# 6 -2.0753 -7.8395 -4.2669 5.0260 3.0632 30.8168
#
#
#
# Elastic Compliance Matrix: (Units=1/GPa)
#
#
# Indices 1 2 3 4 5 6 
#
# 1 0.012553 -0.004322 0.000358 0.000581 0.002253 -0.000523
# 2 -0.004322 0.012754 -0.003364 0.001535 -0.002005 0.002437
# 3 0.000358 -0.003364 0.028938 0.008765 -0.001063 0.001851
# 4 0.000581 0.001535 0.008765 0.040319 -0.005756 -0.004361
# 5 0.002253 -0.002005 -0.001063 -0.005756 0.035879 -0.003133
# 6 -0.000523 0.002437 0.001851 -0.004361 -0.003133 0.034313
#
#
# Mechanical properties :
#
#
# Convention : Reuss Voigt Hill
#
# Bulk Modulus (GPa) = 25.25825 36.21008 30.73416
# Shear Modulus (GPa) = 25.95953 29.48819 27.72386
#
# Velocity S-wave (km/s) = 3.55444 3.78833 3.67325
# Velocity P-wave (km/s) = 5.39798 6.06284 5.74005
#
# Compressibility (1/GPa) = 0.03959103
#
# Stress axis : x y z
#
# Youngs Moduli (GPa) = 79.66249 78.40496 34.55683
#
# Poissons Ratio (x) = 0.33885 -0.01239
# Poissons Ratio (y) = 0.34428 0.11624
# Poissons Ratio (z) = -0.02855 0.26373
#
# Static dielectric constant tensor:
#      x y z
#    x 3.891010 0.055520 0.173010 
#    y 0.055520 3.557480 -0.016040 
#    z 0.173010 -0.016040 3.636050 
# 
# 
# High freq. dielectric constant tensor:
#      x y z
#    x 1.804880 0.003890 0.004490 
#    y 0.003890 1.795110 0.003780 
#    z 0.004490 0.003780 1.796600 
# 
# From -- ./inp_files/94441.got.cif
#   From: 2010.06.25/outbox.cif.g09.slc.cpg/sg2_48_cif.got.tgz:94441.got - 2010.06.27 13:26:56.
