data_PCOD8017478
_publ_section_title
;
Structure prediction by ZEFSAII (Michael W. Deem and Ramdas Pophale) SiO2 
 PCOD8017478
Probable space group: P -1
;
_chemical_formula_sum "Si O2"
_cell_formula_units_Z 16
_cell_length_a 13.186247
_cell_length_b 14.476365
_cell_length_c 12.855488
_cell_angle_alpha 110.157185
_cell_angle_beta 131.386259
_cell_angle_gamma 30.888735
_cell_volume 771.071788
_symmetry_space_group_name_H-M "P -1"
_symmetry_group_IT_number 2
_symmetry_cell_setting 'triclinic'
loop_
_space_group_symop_operation_xyz
x,y,z
-x,-y,-z
loop_
_atom_site_type_symbol
_atom_site_label
_atom_site_fract_x
_atom_site_fract_y
_atom_site_fract_z
Si Si1 0.409740 0.517575 0.097754
Si Si2 0.895675 0.516725 0.780138
Si Si3 0.369179 0.879667 0.408907
Si Si4 0.991879 0.655015 0.000371
Si Si5 0.593421 0.713248 0.276038
Si Si6 0.672620 0.838121 0.229937
Si Si7 0.792060 0.176620 0.057401
Si Si8 0.966070 0.285169 0.416296
O O1 0.539980 0.348695 0.043867
O O2 0.689762 0.391076 0.294362
O O3 0.210132 0.723085 0.974860
O O4 0.202036 0.603325 0.077094
O O5 0.604254 0.684860 0.576717
O O6 0.936371 0.607245 0.857810
O O7 0.195897 0.275873 0.837491
O O8 0.840244 0.500790 0.846790
O O9 0.543028 0.792099 0.386383
O O10 0.126610 0.950502 0.247201
O O11 0.198821 0.087382 0.414705
O O12 0.676890 0.907592 0.920978
O O13 0.724125 0.713300 0.293391
O O14 0.839342 0.466319 0.348090
O O15 0.277556 0.874829 0.078252
O O16 0.860104 0.807399 0.393670
#
# Coordination Sequence:
#
# PCOD8017478 Si02
#       8
#     2   2   2   2   2   2   2   2
#     4   9  19  40  64  89 123 163 198 244 306 365
#     4  11  25  42  64  87 122 160 211 261 291 353
#     4  11  21  38  61  92 126 162 194 250 310 354
#     4  11  24  45  66  85 117 167 212 250 303 351
#     4  11  22  36  64  93 127 159 199 241 308 371
#     4  12  23  41  64  93 121 162 204 253 303 361
#     4   9  19  37  62  93 128 155 193 249 305 368
#     4  10  22  39  60  93 131 153 193 252 304 361
#
# _framework density 20.750339
#
# number of rings (size 3 to 8) (size 9 to 14) (size 15 to 20)
#    0.000    1.500    2.500    3.375    0.000    2.500 
#    0.000    3.125    2.750    0.000    0.000    0.000 
#    0.000    0.000    0.000    0.000    0.000    0.000 
#
# Total GULP energy -198450.598708 kJ/mol
# GULP energy per Si atom -12403.162419 kJ/mol
# Density = 2.070311 g / cm^3
# Si number density = 20.750339 Si / 1000 Ang^3
#
#
#
# Elastic Constant Matrix: (Units=GPa)
#
#
# Indices 1 2 3 4 5 6 
#
# 1 81.3881 27.9250 48.6421 -2.5230 8.5320 -11.3858
# 2 27.9250 123.0022 31.9837 -1.1306 2.8331 -7.6411
# 3 48.6421 31.9837 111.8771 1.6140 5.9358 -7.2036
# 4 -2.5230 -1.1306 1.6140 30.5597 -1.4411 -1.4914
# 5 8.5320 2.8331 5.9358 -1.4411 18.3919 4.0176
# 6 -11.3858 -7.6411 -7.2036 -1.4914 4.0176 21.8350
#
#
#
# Elastic Compliance Matrix: (Units=1/GPa)
#
#
# Indices 1 2 3 4 5 6 
#
# 1 0.019124 -0.001820 -0.006829 0.001913 -0.008140 0.008711
# 2 -0.001820 0.009102 -0.001682 0.000344 -0.000376 0.001774
# 3 -0.006829 -0.001682 0.012444 -0.001316 -0.000690 -0.000007
# 4 0.001913 0.000344 -0.001316 0.033164 0.001499 0.002674
# 5 -0.008140 -0.000376 -0.000690 0.001499 0.062022 -0.015913
# 6 0.008711 0.001774 -0.000007 0.002674 -0.015913 0.054069
#
#
# Mechanical properties :
#
#
# Convention : Reuss Voigt Hill
#
# Bulk Modulus (GPa) = 49.97943 59.26321 54.62132
# Shear Modulus (GPa) = 23.01423 28.00512 25.50967
#
# Velocity S-wave (km/s) = 3.33393 3.67771 3.51003
# Velocity P-wave (km/s) = 6.24167 6.83053 6.54273
#
# Compressibility (1/GPa) = 0.02000823
#
# Stress axis : x y z
#
# Youngs Moduli (GPa) = 52.29030 109.86088 80.36243
#
# Poissons Ratio (x) = 0.19991 0.54883
# Poissons Ratio (y) = 0.09515 0.13516
# Poissons Ratio (z) = 0.35711 0.18477
#
# Static dielectric constant tensor:
#      x y z
#    x 3.347680 -0.002760 0.137570 
#    y -0.002760 3.930220 0.107260 
#    z 0.137570 0.107260 3.960070 
# 
# 
# High freq. dielectric constant tensor:
#      x y z
#    x 1.772400 -0.006470 0.012550 
#    y -0.006470 1.830430 0.002110 
#    z 0.012550 0.002110 1.822790 
# 
# From -- ./inp_files/434143.got.cif
#   From: 2010.06.25/outbox.cif.g09.slc.cpg/sg2_218_cif.got.tgz:434143.got - 2010.06.27 13:26:56.
