data_PCOD8017667
_publ_section_title
;
Structure prediction by ZEFSAII (Michael W. Deem and Ramdas Pophale) SiO2 
 PCOD8017667
Probable space group: P -1
;
_chemical_formula_sum "Si O2"
_cell_formula_units_Z 16
_cell_length_a 18.929164
_cell_length_b 12.422480
_cell_length_c 22.311756
_cell_angle_alpha 28.460405
_cell_angle_beta 17.755645
_cell_angle_gamma 29.952847
_cell_volume 746.956855
_symmetry_space_group_name_H-M "P -1"
_symmetry_group_IT_number 2
_symmetry_cell_setting 'triclinic'
loop_
_space_group_symop_operation_xyz
x,y,z
-x,-y,-z
loop_
_atom_site_type_symbol
_atom_site_label
_atom_site_fract_x
_atom_site_fract_y
_atom_site_fract_z
Si Si1 0.698649 0.391487 0.437620
Si Si2 0.887493 0.730399 0.444620
Si Si3 0.048676 0.998922 0.288822
Si Si4 0.317760 0.741653 0.018626
Si Si5 0.652221 0.159470 0.190354
Si Si6 0.903641 0.659773 0.234508
Si Si7 0.015896 0.204773 0.433585
Si Si8 0.511697 0.994588 0.146574
O O1 0.500000 0.500000 0.500000
O O2 0.805975 0.591483 0.283703
O O3 0.591285 0.238020 0.648524
O O4 0.911489 0.246872 0.298276
O O5 0.626359 0.743087 0.621898
O O6 0.000000 0.500000 0.500000
O O7 0.049119 0.729085 0.256524
O O8 0.898469 0.924127 0.391424
O O9 0.309207 0.022048 0.045524
O O10 0.075013 0.832892 0.407207
O O11 0.500000 0.500000 0.000000
O O12 0.310346 0.834870 0.913005
O O13 0.372933 0.948430 0.912977
O O14 0.734451 0.897769 0.276244
O O15 0.823171 0.312197 0.008260
O O16 0.881408 0.456438 0.398606
O O17 0.294663 0.209683 0.206110
O O18 0.000000 0.000000 0.500000
#
# Coordination Sequence:
#
# PCOD8017667 Si02
#       8
#     2   2   2   2   2   2   2   2
#     4  11  22  43  68  91 131 172 221 273 335 394
#     4  11  23  39  66 101 126 172 226 268 323 390
#     4  10  23  40  63  98 129 163 223 277 320 388
#     4  11  21  39  68  96 127 171 220 270 323 386
#     4  11  24  44  64  93 142 171 218 270 335 394
#     4  11  24  43  65  96 132 181 213 273 335 396
#     4  11  21  42  64  92 132 169 222 263 330 388
#     4  10  22  39  63  99 125 166 223 269 327 390
#
# _framework density 21.420248000000001
#
# number of rings (size 3 to 8) (size 9 to 14) (size 15 to 20)
#    0.000    1.250    3.750    3.750    3.500    1.000 
#    0.000    6.250    0.000    0.000    0.000    0.000 
#    0.000    0.000    0.000    0.000    0.000    0.000 
#
# Total GULP energy -198299.438194 kJ/mol
# GULP energy per Si atom -12393.714887 kJ/mol
# Density = 2.137149 g / cm^3
# Si number density = 21.420248 Si / 1000 Ang^3
#
#
#
# Elastic Constant Matrix: (Units=GPa)
#
#
# Indices 1 2 3 4 5 6 
#
# 1 90.3967 34.6149 54.1217 8.2893 -6.4444 -11.6484
# 2 34.6149 103.6724 53.4475 -0.4576 -1.3031 -18.6272
# 3 54.1217 53.4475 149.1787 28.6072 -6.3507 0.9872
# 4 8.2893 -0.4576 28.6072 38.1549 1.7944 -3.1996
# 5 -6.4444 -1.3031 -6.3507 1.7944 42.4693 0.0489
# 6 -11.6484 -18.6272 0.9872 -3.1996 0.0489 38.1990
#
#
#
# Elastic Compliance Matrix: (Units=1/GPa)
#
#
# Indices 1 2 3 4 5 6 
#
# 1 0.015299 -0.001797 -0.004997 0.000665 0.001486 0.003972
# 2 -0.001797 0.014449 -0.005654 0.005441 -0.000913 0.007101
# 3 -0.004997 -0.005654 0.012303 -0.008714 0.001282 -0.005331
# 4 0.000665 0.005441 -0.008714 0.033271 -0.002448 0.005871
# 5 0.001486 -0.000913 0.001282 -0.002448 0.024039 -0.000261
# 6 0.003972 0.007101 -0.005331 0.005871 -0.000261 0.031483
#
#
# Mechanical properties :
#
#
# Convention : Reuss Voigt Hill
#
# Bulk Modulus (GPa) = 58.29229 69.73511 64.01370
# Shear Modulus (GPa) = 30.96768 37.16888 34.06828
#
# Velocity S-wave (km/s) = 3.80639 4.17012 3.99240
# Velocity P-wave (km/s) = 6.82575 7.47080 7.15555
#
# Compressibility (1/GPa) = 0.01715493
#
# Stress axis : x y z
#
# Youngs Moduli (GPa) = 65.36335 69.20846 81.28050
#
# Poissons Ratio (x) = 0.12434 0.40618
# Poissons Ratio (y) = 0.11743 0.45959
# Poissons Ratio (z) = 0.32664 0.39133
#
# Static dielectric constant tensor:
#      x y z
#    x 4.715360 -0.363370 -0.687460 
#    y -0.363370 4.168350 0.239230 
#    z -0.687460 0.239230 4.035280 
# 
# 
# High freq. dielectric constant tensor:
#      x y z
#    x 1.845560 -0.004540 -0.015790 
#    y -0.004540 1.838850 -0.003340 
#    z -0.015790 -0.003340 1.840790 
# 
# From -- ./inp_files/600003.got.cif
#   From: 2010.06.25/outbox.cif.g09.slc.cpg/sg2_301_cif.got.tgz:600003.got - 2010.06.27 13:26:56.
