data_PCOD8017648
_publ_section_title
;
Structure prediction by ZEFSAII (Michael W. Deem and Ramdas Pophale) SiO2 
 PCOD8017648
Probable space group: P -1
;
_chemical_formula_sum "Si O2"
_cell_formula_units_Z 14
_cell_length_a 13.390498
_cell_length_b 11.111709
_cell_length_c 7.945079
_cell_angle_alpha 65.680108
_cell_angle_beta 104.272967
_cell_angle_gamma 52.150114
_cell_volume 612.574059
_symmetry_space_group_name_H-M "P -1"
_symmetry_group_IT_number 2
_symmetry_cell_setting 'triclinic'
loop_
_space_group_symop_operation_xyz
x,y,z
-x,-y,-z
loop_
_atom_site_type_symbol
_atom_site_label
_atom_site_fract_x
_atom_site_fract_y
_atom_site_fract_z
Si Si1 0.979652 0.377755 0.475377
Si Si2 0.671105 0.516447 0.249641
Si Si3 0.334960 0.071843 0.237194
Si Si4 0.304120 0.921206 0.033205
Si Si5 0.007889 0.304499 0.133701
Si Si6 0.369570 0.319920 0.201423
Si Si7 0.143841 0.910065 0.238596
O O1 0.000526 0.354639 0.296457
O O2 0.000000 0.500000 0.500000
O O3 0.785603 0.523377 0.357066
O O4 0.123190 0.121044 0.740770
O O5 0.469804 0.722421 0.101363
O O6 0.765845 0.289133 0.488296
O O7 0.659907 0.531741 0.031205
O O8 0.136775 0.274899 0.113458
O O9 0.413100 0.137014 0.229720
O O10 0.329490 0.037930 0.060859
O O11 0.461558 0.833367 0.522073
O O12 0.288869 0.826096 0.226087
O O13 0.069901 0.092494 0.236461
O O14 0.807914 0.516096 0.856802
O O15 0.000000 0.000000 0.000000
#
# Coordination Sequence:
#
# PCOD8017648 Si02
#       7
#     2   2   2   2   2   2   2
#     4  11  24  42  68 102 134 169 212 267 331 391
#     4  11  24  43  64  97 131 172 219 267 325 382
#     4  10  22  39  63  98 128 168 212 260 327 390
#     4  11  23  41  67  95 130 173 215 272 324 381
#     4  10  23  42  67  92 131 171 214 267 320 383
#     4  10  22  39  63  94 130 167 209 263 326 388
#     4  11  24  46  67  93 128 175 225 270 320 380
#
# _framework density 22.854376999999999
#
# number of rings (size 3 to 8) (size 9 to 14) (size 15 to 20)
#    0.000    1.429    1.429    3.429    2.000    8.000 
#    0.000    3.571    0.000    0.000    0.000    0.000 
#    0.000    0.000    0.000    0.000    0.000    0.000 
#
# Total GULP energy -173471.008849 kJ/mol
# GULP energy per Si atom -12390.786346 kJ/mol
# Density = 2.280236 g / cm^3
# Si number density = 22.854377 Si / 1000 Ang^3
#
#
#
# Elastic Constant Matrix: (Units=GPa)
#
#
# Indices 1 2 3 4 5 6 
#
# 1 68.3036 20.9059 29.0459 -7.9192 3.3329 -3.6928
# 2 20.9059 85.3528 10.6575 0.1084 6.9079 -2.8672
# 3 29.0459 10.6575 140.4472 -9.0521 1.1201 -22.2828
# 4 -7.9192 0.1084 -9.0521 25.5225 -3.3318 7.1501
# 5 3.3329 6.9079 1.1201 -3.3318 41.0789 -8.9521
# 6 -3.6928 -2.8672 -22.2828 7.1501 -8.9521 28.8939
#
#
#
# Elastic Compliance Matrix: (Units=1/GPa)
#
#
# Indices 1 2 3 4 5 6 
#
# 1 0.017777 -0.003946 -0.003405 0.004835 -0.000769 -0.002180
# 2 -0.003946 0.012875 -0.000181 -0.001722 -0.001875 0.000479
# 3 -0.003405 -0.000181 0.008935 0.000407 0.001584 0.006827
# 4 0.004835 -0.001722 0.000407 0.043708 0.001330 -0.009643
# 5 -0.000769 -0.001875 0.001584 0.001330 0.026723 0.008888
# 6 -0.002180 0.000479 0.006827 -0.009643 0.008888 0.044783
#
#
# Mechanical properties :
#
#
# Convention : Reuss Voigt Hill
#
# Bulk Modulus (GPa) = 40.77910 46.14692 43.46301
# Shear Modulus (GPa) = 28.08370 34.66538 31.37454
#
# Velocity S-wave (km/s) = 3.50924 3.89883 3.70915
# Velocity P-wave (km/s) = 5.85675 6.36423 6.11575
#
# Compressibility (1/GPa) = 0.02452236
#
# Stress axis : x y z
#
# Youngs Moduli (GPa) = 56.25387 77.66829 111.92107
#
# Poissons Ratio (x) = 0.30649 0.38110
# Poissons Ratio (y) = 0.22198 0.02026
# Poissons Ratio (z) = 0.19155 0.01406
#
# Static dielectric constant tensor:
#      x y z
#    x 4.252330 -0.006490 0.212530 
#    y -0.006490 3.925920 -0.059730 
#    z 0.212530 -0.059730 4.577890 
# 
# 
# High freq. dielectric constant tensor:
#      x y z
#    x 1.904970 -0.001570 0.008820 
#    y -0.001570 1.884520 -0.004090 
#    z 0.008820 -0.004090 1.921310 
# 
# From -- ./inp_files/256061.got.cif
#   From: 2010.06.25/outbox.cif.g09.slc.cpg/sg2_129_cif.got.tgz:256061.got - 2010.06.27 13:26:56.
