data_PCOD8017598
_publ_section_title
;
Structure prediction by ZEFSAII (Michael W. Deem and Ramdas Pophale) SiO2 
 PCOD8017598
Probable space group: P -1
;
_chemical_formula_sum "Si O2"
_cell_formula_units_Z 16
_cell_length_a 10.079593
_cell_length_b 11.119857
_cell_length_c 17.399608
_cell_angle_alpha 125.425883
_cell_angle_beta 28.942725
_cell_angle_gamma 114.942772
_cell_volume 750.739193
_symmetry_space_group_name_H-M "P -1"
_symmetry_group_IT_number 2
_symmetry_cell_setting 'triclinic'
loop_
_space_group_symop_operation_xyz
x,y,z
-x,-y,-z
loop_
_atom_site_type_symbol
_atom_site_label
_atom_site_fract_x
_atom_site_fract_y
_atom_site_fract_z
Si Si1 0.650888 0.140612 0.217888
Si Si2 0.037456 0.369117 0.372507
Si Si3 0.279153 0.446210 0.535948
Si Si4 0.725401 0.077492 0.623510
Si Si5 0.730621 0.349292 0.816220
Si Si6 0.518554 0.169742 0.983098
Si Si7 0.937263 0.060048 0.344751
Si Si8 0.992233 0.050093 0.148493
O O1 0.439266 0.292815 0.354831
O O2 0.518374 0.992911 0.241865
O O3 0.890176 0.102859 0.016564
O O4 0.783291 0.168121 0.243696
O O5 0.000000 0.500000 0.500000
O O6 0.858874 0.426222 0.407485
O O7 0.910358 0.238693 0.426630
O O8 0.373758 0.306419 0.164226
O O9 0.500000 0.500000 0.500000
O O10 0.029769 0.394415 0.689119
O O11 0.681209 0.259276 0.728895
O O12 0.756953 0.031259 0.499486
O O13 0.000000 0.000000 0.500000
O O14 0.717757 0.231956 0.846580
O O15 0.500000 0.500000 0.000000
O O16 0.730799 0.023948 0.856472
O O17 0.248845 0.126781 0.065937
O O18 0.834543 0.016306 0.295400
#
# Coordination Sequence:
#
# PCOD8017598 Si02
#       8
#     2   2   2   2   2   2   2   2
#     4  11  23  40  69  93 130 171 223 269 324 395
#     4  11  24  37  62  97 129 172 216 272 329 393
#     4  12  25  41  66  97 136 171 216 272 339 388
#     4  12  22  41  66  95 117 171 225 266 319 389
#     4  12  24  40  66  95 133 169 221 275 323 390
#     4  11  21  40  65  90 128 168 222 267 319 388
#     4  11  23  39  63  91 132 166 220 272 321 389
#     4  10  22  39  62  99 127 166 217 269 326 383
#
# _framework density 21.312327
#
# number of rings (size 3 to 8) (size 9 to 14) (size 15 to 20)
#    0.000    0.750    5.000    3.750    3.500    0.500 
#    0.000    1.250    0.000    0.750    0.000    0.000 
#    0.000    0.000    0.000    0.000    0.000    0.000 
#
# Total GULP energy -198219.495998 kJ/mol
# GULP energy per Si atom -12388.718500 kJ/mol
# Density = 2.126382 g / cm^3
# Si number density = 21.312327 Si / 1000 Ang^3
#
#
#
# Elastic Constant Matrix: (Units=GPa)
#
#
# Indices 1 2 3 4 5 6 
#
# 1 99.4636 30.0033 31.0657 11.4543 18.7721 1.9663
# 2 30.0033 79.1444 23.2151 14.1068 -4.9488 2.8601
# 3 31.0657 23.2151 92.5052 33.6014 13.8782 3.4281
# 4 11.4543 14.1068 33.6014 40.8257 -3.7343 -2.0534
# 5 18.7721 -4.9488 13.8782 -3.7343 45.0884 -0.5038
# 6 1.9663 2.8601 3.4281 -2.0534 -0.5038 33.0697
#
#
#
# Elastic Compliance Matrix: (Units=1/GPa)
#
#
# Indices 1 2 3 4 5 6 
#
# 1 0.013232 -0.004555 -0.002159 -0.000873 -0.005420 -0.000306
# 2 -0.004555 0.015669 -0.002299 -0.001909 0.004156 -0.000901
# 3 -0.002159 -0.002299 0.018385 -0.014431 -0.006236 -0.002570
# 4 -0.000873 -0.001909 -0.014431 0.038202 0.007807 0.004204
# 5 -0.005420 0.004156 -0.006236 0.007807 0.027474 0.001513
# 6 -0.000306 -0.000901 -0.002570 0.004204 0.001513 0.030886
#
#
# Mechanical properties :
#
#
# Convention : Reuss Voigt Hill
#
# Bulk Modulus (GPa) = 34.17716 48.85348 41.51532
# Shear Modulus (GPa) = 29.13280 36.25203 32.69241
#
# Velocity S-wave (km/s) = 3.70123 4.12878 3.92084
# Velocity P-wave (km/s) = 5.85975 6.76029 6.32606
#
# Compressibility (1/GPa) = 0.02925930
#
# Stress axis : x y z
#
# Youngs Moduli (GPa) = 75.57550 63.81989 54.39192
#
# Poissons Ratio (x) = 0.29071 0.11743
# Poissons Ratio (y) = 0.34426 0.12506
# Poissons Ratio (z) = 0.16317 0.14673
#
# Static dielectric constant tensor:
#      x y z
#    x 3.920250 -0.555650 0.192270 
#    y -0.555650 3.156310 0.093750 
#    z 0.192270 0.093750 4.298780 
# 
# 
# High freq. dielectric constant tensor:
#      x y z
#    x 1.830080 -0.008780 0.010500 
#    y -0.008780 1.823370 0.016490 
#    z 0.010500 0.016490 1.852870 
# 
# From -- ./inp_files/559889.got.cif
#   From: 2010.06.25/outbox.cif.g09.slc.cpg/sg2_280_cif.got.tgz:559889.got - 2010.06.27 13:26:56.
