data_PCOD8017638
_publ_section_title
;
Structure prediction by ZEFSAII (Michael W. Deem and Ramdas Pophale) SiO2 
 PCOD8017638
Probable space group: P -1
;
_chemical_formula_sum "Si O2"
_cell_formula_units_Z 14
_cell_length_a 12.196342
_cell_length_b 14.975387
_cell_length_c 14.248995
_cell_angle_alpha 160.631544
_cell_angle_beta 44.342058
_cell_angle_gamma 133.869839
_cell_volume 601.368920
_symmetry_space_group_name_H-M "P -1"
_symmetry_group_IT_number 2
_symmetry_cell_setting 'triclinic'
loop_
_space_group_symop_operation_xyz
x,y,z
-x,-y,-z
loop_
_atom_site_type_symbol
_atom_site_label
_atom_site_fract_x
_atom_site_fract_y
_atom_site_fract_z
Si Si1 0.148618 0.418441 0.101398
Si Si2 0.352255 0.810859 0.062668
Si Si3 0.255799 0.284953 0.487258
Si Si4 0.926004 0.332631 0.793922
Si Si5 0.324791 0.938043 0.581908
Si Si6 0.681499 0.972620 0.105944
Si Si7 0.194471 0.484561 0.524990
O O1 0.143839 0.472171 0.046711
O O2 0.273656 0.627168 0.283364
O O3 0.979127 0.433416 0.267084
O O4 0.204928 0.119572 0.781539
O O5 0.215482 0.872612 0.283395
O O6 0.515035 0.826881 0.033273
O O7 0.350695 0.023109 0.188289
O O8 0.317166 0.510267 0.747423
O O9 0.286862 0.393324 0.470698
O O10 0.069297 0.185572 0.513178
O O11 0.000000 0.500000 0.000000
O O12 0.500000 0.000000 0.500000
O O13 0.312769 0.989626 0.749981
O O14 0.706187 0.259063 0.324287
O O15 0.812473 0.768380 0.793613
#
# Coordination Sequence:
#
# PCOD8017638 Si02
#       7
#     2   2   2   2   2   2   2
#     4  11  25  45  70  94 132 172 207 270 320 373
#     4  11  22  38  62  93 130 171 209 263 325 367
#     4  10  22  39  63  93 129 168 210 265 318 384
#     4   9  21  40  66  97 127 163 214 261 320 387
#     4  12  27  46  69  98 128 165 215 268 326 377
#     4  12  26  42  65  94 130 172 220 266 307 386
#     4  11  25  44  65  97 129 170 222 257 317 385
#
# _framework density 23.280218000000001
#
# number of rings (size 3 to 8) (size 9 to 14) (size 15 to 20)
#    0.000    1.143    0.000    5.143    0.000   18.286 
#    0.000    0.000    0.000    0.000    0.000    0.000 
#    0.000    0.000    0.000    0.000    0.000    0.000 
#
# Total GULP energy -173660.539865 kJ/mol
# GULP energy per Si atom -12404.324276 kJ/mol
# Density = 2.322723 g / cm^3
# Si number density = 23.280218 Si / 1000 Ang^3
#
#
#
# Elastic Constant Matrix: (Units=GPa)
#
#
# Indices 1 2 3 4 5 6 
#
# 1 100.7839 45.7381 5.0809 -5.2178 -3.4666 -9.0475
# 2 45.7381 102.5223 23.0554 4.3176 3.8242 -25.2826
# 3 5.0809 23.0554 73.4965 4.3460 -8.6335 -7.1044
# 4 -5.2178 4.3176 4.3460 31.5913 -5.3867 6.7214
# 5 -3.4666 3.8242 -8.6335 -5.3867 39.8986 0.5125
# 6 -9.0475 -25.2826 -7.1044 6.7214 0.5125 27.1958
#
#
#
# Elastic Compliance Matrix: (Units=1/GPa)
#
#
# Indices 1 2 3 4 5 6 
#
# 1 0.013131 -0.007123 0.001104 0.004086 0.002653 -0.003026
# 2 -0.007123 0.017987 -0.003768 -0.007085 -0.004310 0.015200
# 3 0.001104 -0.003768 0.015297 -0.001012 0.003617 0.001043
# 4 0.004086 -0.007085 -0.001012 0.037648 0.006090 -0.014911
# 5 0.002653 -0.004310 0.003617 0.006090 0.027366 -0.004200
# 6 -0.003026 0.015200 0.001043 -0.014911 -0.004200 0.053931
#
#
# Mechanical properties :
#
#
# Convention : Reuss Voigt Hill
#
# Bulk Modulus (GPa) = 37.25705 47.17239 42.21472
# Shear Modulus (GPa) = 25.78911 33.26568 29.52739
#
# Velocity S-wave (km/s) = 3.33193 3.78421 3.56525
# Velocity P-wave (km/s) = 5.55345 6.27699 5.92627
#
# Compressibility (1/GPa) = 0.02684056
#
# Stress axis : x y z
#
# Youngs Moduli (GPa) = 76.15823 55.59632 65.37117
#
# Poissons Ratio (x) = 0.39604 -0.07220
# Poissons Ratio (y) = 0.54251 0.24632
# Poissons Ratio (z) = -0.08411 0.20949
#
# Static dielectric constant tensor:
#      x y z
#    x 4.172880 0.018720 -0.047410 
#    y 0.018720 4.646690 -0.152610 
#    z -0.047410 -0.152610 4.126090 
# 
# 
# High freq. dielectric constant tensor:
#      x y z
#    x 1.924880 -0.002360 -0.002500 
#    y -0.002360 1.936930 -0.000460 
#    z -0.002500 -0.000460 1.916840 
# 
# From -- ./inp_files/522016.got.cif
#   From: 2010.06.25/outbox.cif.g09.slc.cpg/sg2_262_cif.got.tgz:522016.got - 2010.06.27 13:26:56.
