data_PCOD8017464
_publ_section_title
;
Structure prediction by ZEFSAII (Michael W. Deem and Ramdas Pophale) SiO2 
 PCOD8017464
Probable space group: P -1
;
_chemical_formula_sum "Si O2"
_cell_formula_units_Z 12
_cell_length_a 9.530915
_cell_length_b 5.232642
_cell_length_c 25.785525
_cell_angle_alpha 124.018868
_cell_angle_beta 34.840337
_cell_angle_gamma 125.797090
_cell_volume 587.069390
_symmetry_space_group_name_H-M "P -1"
_symmetry_group_IT_number 2
_symmetry_cell_setting 'triclinic'
loop_
_space_group_symop_operation_xyz
x,y,z
-x,-y,-z
loop_
_atom_site_type_symbol
_atom_site_label
_atom_site_fract_x
_atom_site_fract_y
_atom_site_fract_z
Si Si1 0.427245 0.513001 0.939765
Si Si2 0.599916 0.874397 0.197665
Si Si3 0.166689 0.686004 0.381561
Si Si4 0.630891 0.644688 0.632492
Si Si5 0.185829 0.079003 0.056932
Si Si6 0.597296 0.369744 0.506800
O O1 0.455861 0.263057 0.858818
O O2 0.700757 0.693883 0.902512
O O3 0.238872 0.302852 0.015565
O O4 0.312630 0.784782 0.980451
O O5 0.395568 0.633672 0.269315
O O6 0.552347 0.229317 0.257933
O O7 0.886742 0.914213 0.134564
O O8 0.243545 0.610607 0.407925
O O9 0.901789 0.445480 0.419697
O O10 0.146210 0.050210 0.421939
O O11 0.489247 0.502107 0.606209
O O12 0.500000 0.500000 0.500000
O O13 0.500000 0.000000 0.500000
#
# Coordination Sequence:
#
# PCOD8017464 Si02
#       6
#     2   2   2   2   2   2
#     4  10  22  39  60  89 123 161 205 254 306 371
#     4  10  24  37  68  86 126 160 210 249 322 354
#     4  10  23  41  63  90 124 164 207 258 306 377
#     4  10  23  41  63  90 124 164 207 258 306 377
#     4  10  22  39  60  89 123 161 205 254 306 371
#     4  12  24  42  66  92 126 166 206 259 315 373
#
# _framework density 20.440515000000001
#
# number of rings (size 3 to 8) (size 9 to 14) (size 15 to 20)
#    1.000    0.667    0.000    4.000    4.667    1.333 
#    0.000    0.000    0.000    0.000    0.000    0.000 
#    0.000    0.000    0.000    0.000    0.000    0.000 
#
# Total GULP energy -148686.515294 kJ/mol
# GULP energy per Si atom -12390.542941 kJ/mol
# Density = 2.039399 g / cm^3
# Si number density = 20.440515 Si / 1000 Ang^3
#
#
#
# Elastic Constant Matrix: (Units=GPa)
#
#
# Indices 1 2 3 4 5 6 
#
# 1 139.4248 53.5039 35.7467 7.0178 16.3781 0.6972
# 2 53.5039 120.0054 35.6428 8.1099 10.5265 3.8635
# 3 35.7467 35.6428 61.0306 12.4611 12.3358 17.2312
# 4 7.0178 8.1099 12.4611 27.8384 6.7446 6.0314
# 5 16.3781 10.5265 12.3358 6.7446 22.8056 0.4577
# 6 0.6972 3.8635 17.2312 6.0314 0.4577 47.2290
#
#
#
# Elastic Compliance Matrix: (Units=1/GPa)
#
#
# Indices 1 2 3 4 5 6 
#
# 1 0.009664 -0.002970 -0.003694 0.000703 -0.003807 0.001395
# 2 -0.002970 0.011132 -0.004896 -0.000456 -0.000241 0.000980
# 3 -0.003694 -0.004896 0.026493 -0.005863 -0.007515 -0.008389
# 4 0.000703 -0.000456 -0.005863 0.041414 -0.009310 -0.003033
# 5 -0.003807 -0.000241 -0.007515 -0.009310 0.053443 0.003489
# 6 0.001395 0.000980 -0.008389 -0.003033 0.003489 0.024487
#
#
# Mechanical properties :
#
#
# Convention : Reuss Voigt Hill
#
# Bulk Modulus (GPa) = 41.37570 63.36084 52.36827
# Shear Modulus (GPa) = 25.27690 32.61243 28.94466
#
# Velocity S-wave (km/s) = 3.52036 3.99868 3.76712
# Velocity P-wave (km/s) = 6.06711 7.23769 6.67810
#
# Compressibility (1/GPa) = 0.02416878
#
# Stress axis : x y z
#
# Youngs Moduli (GPa) = 103.47731 89.83219 37.74596
#
# Poissons Ratio (x) = 0.26680 0.13942
# Poissons Ratio (y) = 0.30733 0.18482
# Poissons Ratio (z) = 0.38220 0.43985
#
# Static dielectric constant tensor:
#      x y z
#    x 3.712930 0.033590 0.059340 
#    y 0.033590 3.826880 -0.001790 
#    z 0.059340 -0.001790 3.650080 
# 
# 
# High freq. dielectric constant tensor:
#      x y z
#    x 1.803330 -0.003890 0.009360 
#    y -0.003890 1.809180 -0.003050 
#    z 0.009360 -0.003050 1.789940 
# 
# From -- ./inp_files/583750.got.cif
#   From: 2010.06.25/outbox.cif.g09.slc.cpg/sg2_292_cif.got.tgz:583750.got - 2010.06.27 13:26:56.
