data_PCOD8017423
_publ_section_title
;
Structure prediction by ZEFSAII (Michael W. Deem and Ramdas Pophale) SiO2 
 PCOD8017423
Probable space group: P -1
;
_chemical_formula_sum "Si O2"
_cell_formula_units_Z 16
_cell_length_a 15.165455
_cell_length_b 14.926312
_cell_length_c 12.479709
_cell_angle_alpha 46.902542
_cell_angle_beta 150.865223
_cell_angle_gamma 142.603232
_cell_volume 834.762524
_symmetry_space_group_name_H-M "P -1"
_symmetry_group_IT_number 2
_symmetry_cell_setting 'triclinic'
loop_
_space_group_symop_operation_xyz
x,y,z
-x,-y,-z
loop_
_atom_site_type_symbol
_atom_site_label
_atom_site_fract_x
_atom_site_fract_y
_atom_site_fract_z
Si Si1 0.310538 0.687186 0.721812
Si Si2 0.341556 0.400353 0.318657
Si Si3 0.875152 0.319984 0.872390
Si Si4 0.240051 0.105071 0.716086
Si Si5 0.131910 0.504782 0.474684
Si Si6 0.573940 0.003190 0.824100
Si Si7 0.532895 0.811247 0.328560
Si Si8 0.415510 0.394009 0.786081
O O1 0.249113 0.638609 0.574051
O O2 0.448107 0.865070 0.724141
O O3 0.099869 0.627229 0.620545
O O4 0.448010 0.626532 0.963331
O O5 0.500000 0.500000 0.500000
O O6 0.326507 0.246613 0.423750
O O7 0.417961 0.476166 0.222637
O O8 0.108287 0.369068 0.124720
O O9 0.898897 0.435784 0.717005
O O10 0.725929 0.310666 0.822065
O O11 0.752054 0.153611 0.826382
O O12 0.425786 0.166943 0.771803
O O13 0.255686 0.243757 0.674351
O O14 0.291012 0.018229 0.924839
O O15 0.000000 0.000000 0.500000
O O16 0.273662 0.437921 0.663282
O O17 0.403038 0.033948 0.674891
#
# Coordination Sequence:
#
# PCOD8017423 Si02
#       8
#     2   2   2   2   2   2   2   2
#     4  10  23  42  65  88 122 150 210 253 306 357
#     4  12  22  40  57  90 126 160 202 245 298 357
#     4  10  23  40  62  86 127 156 207 246 299 358
#     4  11  22  38  59  89 129 163 199 240 295 367
#     4  11  22  42  66  90 114 164 197 260 308 351
#     4   9  22  41  59  88 119 161 197 251 289 363
#     4  10  22  39  58  89 121 166 197 241 292 365
#     4  11  22  38  62  90 121 158 199 251 296 361
#
# _framework density 19.167128000000002
#
# number of rings (size 3 to 8) (size 9 to 14) (size 15 to 20)
#    0.750    0.750    3.750    1.500    1.750    1.000 
#    6.750    0.000    0.000    1.500    0.000    0.000 
#    0.000    0.000    0.000    0.000    0.000    0.000 
#
# Total GULP energy -198346.553358 kJ/mol
# GULP energy per Si atom -12396.659585 kJ/mol
# Density = 1.912350 g / cm^3
# Si number density = 19.167128 Si / 1000 Ang^3
#
#
#
# Elastic Constant Matrix: (Units=GPa)
#
#
# Indices 1 2 3 4 5 6 
#
# 1 87.2149 13.2104 25.0506 7.0701 24.9313 2.8024
# 2 13.2104 56.7699 12.1051 0.8052 3.8269 -9.2103
# 3 25.0506 12.1051 79.4415 8.3859 22.6642 -4.4134
# 4 7.0701 0.8052 8.3859 34.5026 -2.1045 5.5872
# 5 24.9313 3.8269 22.6642 -2.1045 27.4745 -1.3790
# 6 2.8024 -9.2103 -4.4134 5.5872 -1.3790 20.4295
#
#
#
# Elastic Compliance Matrix: (Units=1/GPa)
#
#
# Indices 1 2 3 4 5 6 
#
# 1 0.016761 -0.003410 -0.000359 -0.003537 -0.014908 -0.003953
# 2 -0.003410 0.020241 -0.002111 -0.000646 0.002443 0.009479
# 3 -0.000359 -0.002111 0.017940 -0.005694 -0.014437 0.003556
# 4 -0.003537 -0.000646 -0.005694 0.033252 0.010069 -0.009451
# 5 -0.014908 0.002443 -0.014437 0.010069 0.062340 0.001481
# 6 -0.003953 0.009479 0.003556 -0.009451 0.001481 0.057217
#
#
# Mechanical properties :
#
#
# Convention : Reuss Voigt Hill
#
# Bulk Modulus (GPa) = 23.15772 36.01763 29.58768
# Shear Modulus (GPa) = 21.37628 28.01866 24.69747
#
# Velocity S-wave (km/s) = 3.34317 3.82751 3.59351
# Velocity P-wave (km/s) = 5.19717 6.19397 5.71733
#
# Compressibility (1/GPa) = 0.04318214
#
# Stress axis : x y z
#
# Youngs Moduli (GPa) = 59.66324 49.40483 55.74093
#
# Poissons Ratio (x) = 0.16847 0.02000
# Poissons Ratio (y) = 0.20345 0.11767
# Poissons Ratio (z) = 0.02141 0.10430
#
# Static dielectric constant tensor:
#      x y z
#    x 3.419580 0.008860 0.154270 
#    y 0.008860 3.643650 -0.178700 
#    z 0.154270 -0.178700 3.462700 
# 
# 
# High freq. dielectric constant tensor:
#      x y z
#    x 1.737690 0.002950 0.013640 
#    y 0.002950 1.752180 -0.015750 
#    z 0.013640 -0.015750 1.744660 
# 
# From -- ./inp_files/454689.got.cif
#   From: 2010.06.25/outbox.cif.g09.slc.cpg/sg2_228_cif.got.tgz:454689.got - 2010.06.27 13:26:56.
