data_PCOD8017838
_publ_section_title
;
Structure prediction by ZEFSAII (Michael W. Deem and Ramdas Pophale) SiO2 
 PCOD8017838
Probable space group: P -1
;
_chemical_formula_sum "Si O2"
_cell_formula_units_Z 12
_cell_length_a 9.123239
_cell_length_b 12.043841
_cell_length_c 15.153485
_cell_angle_alpha 153.969960
_cell_angle_beta 131.412035
_cell_angle_gamma 41.172765
_cell_volume 480.397947
_symmetry_space_group_name_H-M "P -1"
_symmetry_group_IT_number 2
_symmetry_cell_setting 'triclinic'
loop_
_space_group_symop_operation_xyz
x,y,z
-x,-y,-z
loop_
_atom_site_type_symbol
_atom_site_label
_atom_site_fract_x
_atom_site_fract_y
_atom_site_fract_z
Si Si1 0.667938 0.155888 0.755431
Si Si2 0.809883 0.613301 0.307245
Si Si3 0.485593 0.880874 0.749192
Si Si4 0.120462 0.236254 0.294547
Si Si5 0.206550 0.634580 0.386827
Si Si6 0.783456 0.474629 0.882524
O O1 0.401261 0.369065 0.818987
O O2 0.767060 0.304820 0.838319
O O3 0.703247 0.857265 0.514218
O O4 0.805196 0.065919 0.839080
O O5 0.951167 0.300741 0.189866
O O6 0.966295 0.678274 0.351344
O O7 0.657958 0.760997 0.650831
O O8 0.261810 0.863762 0.621984
O O9 0.599043 0.687639 0.742774
O O10 0.427712 0.206491 0.979638
O O11 0.000000 0.500000 0.500000
O O12 0.203657 0.691069 0.321473
O O13 0.000000 0.500000 0.000000
#
# Coordination Sequence:
#
# PCOD8017838 Si02
#       6
#     2   2   2   2   2   2
#     4  10  22  39  66  96 138 171 224 278 329 398
#     4   9  20  41  67  98 124 185 223 268 338 391
#     4  10  23  45  70  97 132 181 224 274 338 390
#     4   9  20  40  67  97 131 171 229 270 328 404
#     4  10  23  45  72  93 136 178 224 277 330 402
#     4  12  27  42  64 106 136 173 223 276 338 400
#
# _framework density 24.979292000000001
#
# number of rings (size 3 to 8) (size 9 to 14) (size 15 to 20)
#    0.000    2.000    0.000    1.500    9.333    3.333 
#    3.000    1.667    0.000    0.000    0.000    0.000 
#    0.000    0.000    0.000    0.000    0.000    0.000 
#
# Total GULP energy -148784.345506 kJ/mol
# GULP energy per Si atom -12398.695459 kJ/mol
# Density = 2.492244 g / cm^3
# Si number density = 24.979292 Si / 1000 Ang^3
#
#
#
# Elastic Constant Matrix: (Units=GPa)
#
#
# Indices 1 2 3 4 5 6 
#
# 1 163.0104 84.7591 11.8371 -8.4029 10.5661 5.1101
# 2 84.7591 179.3380 35.4787 -0.5852 24.2648 13.7489
# 3 11.8371 35.4787 18.8003 1.1295 -2.7442 2.5278
# 4 -8.4029 -0.5852 1.1295 35.9247 0.8564 9.0039
# 5 10.5661 24.2648 -2.7442 0.8564 30.4649 6.2424
# 6 5.1101 13.7489 2.5278 9.0039 6.2424 50.7265
#
#
#
# Elastic Compliance Matrix: (Units=1/GPa)
#
#
# Indices 1 2 3 4 5 6 
#
# 1 0.008429 -0.004998 0.004254 0.001772 0.001431 -0.000197
# 2 -0.004998 0.015024 -0.026955 0.000412 -0.012517 -0.000758
# 3 0.004254 -0.026955 0.106148 -0.003108 0.029960 -0.001547
# 4 0.001772 0.000412 -0.003108 0.029703 -0.000974 -0.005288
# 5 0.001431 -0.012517 0.029960 -0.000974 0.045783 -0.003706
# 6 -0.000197 -0.000758 -0.001547 -0.005288 -0.003706 0.021411
#
#
# Mechanical properties :
#
#
# Convention : Reuss Voigt Hill
#
# Bulk Modulus (GPa) = 13.47667 69.47762 41.47714
# Shear Modulus (GPa) = 16.30626 38.69480 27.50053
#
# Velocity S-wave (km/s) = 2.55775 3.94010 3.32163
# Velocity P-wave (km/s) = 3.75894 6.96948 5.59925
#
# Compressibility (1/GPa) = 0.07420233
#
# Stress axis : x y z
#
# Youngs Moduli (GPa) = 118.63424 66.56063 9.42084
#
# Poissons Ratio (x) = 0.33268 -0.04008
# Poissons Ratio (y) = 0.59295 0.25394
# Poissons Ratio (z) = -0.50466 1.79414
#
# Static dielectric constant tensor:
#      x y z
#    x 4.419570 0.149520 -0.117120 
#    y 0.149520 5.515140 0.337220 
#    z -0.117120 0.337220 4.190480 
# 
# 
# High freq. dielectric constant tensor:
#      x y z
#    x 1.992170 0.002310 -0.007950 
#    y 0.002310 2.024890 0.017590 
#    z -0.007950 0.017590 1.974100 
# 
# From -- ./inp_files/190067.got.cif
#   From: 2010.06.25/outbox.cif.g09.slc.cpg/sg2_96_cif.got.tgz:190067.got - 2010.06.27 13:26:56.
