data_PCOD8017049
_publ_section_title
;
Structure prediction by ZEFSAII (Michael W. Deem and Ramdas Pophale) SiO2 
 PCOD8017049
Probable space group: P -1
;
_chemical_formula_sum "Si O2"
_cell_formula_units_Z 16
_cell_length_a 8.328150
_cell_length_b 12.141951
_cell_length_c 12.212786
_cell_angle_alpha 48.062517
_cell_angle_beta 128.480132
_cell_angle_gamma 124.070751
_cell_volume 696.695482
_symmetry_space_group_name_H-M "P -1"
_symmetry_group_IT_number 2
_symmetry_cell_setting 'triclinic'
loop_
_space_group_symop_operation_xyz
x,y,z
-x,-y,-z
loop_
_atom_site_type_symbol
_atom_site_label
_atom_site_fract_x
_atom_site_fract_y
_atom_site_fract_z
Si Si1 0.392168 0.091542 0.311392
Si Si2 0.504225 0.589563 0.774284
Si Si3 0.520859 0.366251 0.516222
Si Si4 0.093584 0.767254 0.155737
Si Si5 0.812425 0.484148 0.122087
Si Si6 0.798327 0.164135 0.305854
Si Si7 0.838416 0.896289 0.372896
Si Si8 0.076220 0.070949 0.848932
O O1 0.358443 0.238002 0.264074
O O2 0.552008 0.145261 0.241973
O O3 0.500000 0.000000 0.500000
O O4 0.172085 0.996232 0.234683
O O5 0.460858 0.562461 0.644998
O O6 0.284201 0.556710 0.769765
O O7 0.641463 0.482296 0.955629
O O8 0.500000 0.500000 0.500000
O O9 0.721778 0.296702 0.669385
O O10 0.316129 0.226235 0.534894
O O11 0.984218 0.645499 0.097632
O O12 0.916364 0.790880 0.153802
O O13 0.179567 0.936029 0.026456
O O14 0.913497 0.344913 0.220219
O O15 0.919026 0.099106 0.497969
O O16 0.809106 0.067080 0.265616
O O17 0.797888 0.856726 0.254002
#
# Coordination Sequence:
#
# PCOD8017049 Si02
#       8
#     2   2   2   2   2   2   2   2
#     4  11  18  38  68  98 125 172 225 283 331 383
#     4  10  23  41  68  99 132 167 233 278 327 402
#     4  12  28  46  66 100 143 185 219 278 348 411
#     4  11  25  45  67 100 137 179 229 277 342 401
#     4  10  22  43  70 100 127 178 228 284 331 387
#     4  10  22  37  67 100 134 167 225 282 337 394
#     4  11  24  42  62 102 134 178 225 270 344 410
#     4  11  24  41  70  98 137 178 223 284 334 408
#
# _framework density 22.965555999999999
#
# number of rings (size 3 to 8) (size 9 to 14) (size 15 to 20)
#    0.000    1.250    2.500    3.000    5.250    2.000 
#    0.000    1.875    0.000    0.000    0.000    0.000 
#    0.000    0.000    0.000    0.000    0.000    0.000 
#
# Total GULP energy -198351.561511 kJ/mol
# GULP energy per Si atom -12396.972594 kJ/mol
# Density = 2.291329 g / cm^3
# Si number density = 22.965556 Si / 1000 Ang^3
#
#
#
# Elastic Constant Matrix: (Units=GPa)
#
#
# Indices 1 2 3 4 5 6 
#
# 1 67.5338 18.5831 44.7863 -4.7895 -3.8549 -15.0876
# 2 18.5831 101.2057 25.6178 -22.1705 16.4237 -21.3025
# 3 44.7863 25.6178 121.6469 -3.8681 -4.8695 -20.0538
# 4 -4.7895 -22.1705 -3.8681 36.0548 -6.3579 9.2833
# 5 -3.8549 16.4237 -4.8695 -6.3579 31.3697 -2.7795
# 6 -15.0876 -21.3025 -20.0538 9.2833 -2.7795 34.9996
#
#
#
# Elastic Compliance Matrix: (Units=1/GPa)
#
#
# Indices 1 2 3 4 5 6 
#
# 1 0.020684 -0.001623 -0.006426 0.000445 0.002870 0.004357
# 2 -0.001623 0.013855 -0.001589 0.005825 -0.006095 0.004794
# 3 -0.006426 -0.001589 0.011506 -0.001112 0.001895 0.003301
# 4 0.000445 0.005825 -0.001112 0.033207 0.003079 -0.005463
# 5 0.002870 -0.006095 0.001895 0.003079 0.036400 0.000688
# 6 0.004357 0.004794 0.003301 -0.005463 0.000688 0.036763
#
#
# Mechanical properties :
#
#
# Convention : Reuss Voigt Hill
#
# Bulk Modulus (GPa) = 37.35570 52.04011 44.69791
# Shear Modulus (GPa) = 27.68342 33.91143 30.79742
#
# Velocity S-wave (km/s) = 3.47570 3.84685 3.66598
# Velocity P-wave (km/s) = 5.69286 6.51462 6.11755
#
# Compressibility (1/GPa) = 0.02676967
#
# Stress axis : x y z
#
# Youngs Moduli (GPa) = 48.34577 72.17585 86.91351
#
# Poissons Ratio (x) = 0.11711 0.55853
# Poissons Ratio (y) = 0.07844 0.13809
# Poissons Ratio (z) = 0.31069 0.11467
#
# Static dielectric constant tensor:
#      x y z
#    x 4.043750 -0.193800 0.064730 
#    y -0.193800 4.196240 -0.137950 
#    z 0.064730 -0.137950 4.195200 
# 
# 
# High freq. dielectric constant tensor:
#      x y z
#    x 1.887670 -0.014010 0.006410 
#    y -0.014010 1.909850 -0.010570 
#    z 0.006410 -0.010570 1.911480 
# 
# From -- ./inp_files/392241.got.cif
#   From: 2010.06.25/outbox.cif.g09.slc.cpg/sg2_197_cif.got.tgz:392241.got - 2010.06.27 13:26:56.
