data_PCOD8017737
_publ_section_title
;
Structure prediction by ZEFSAII (Michael W. Deem and Ramdas Pophale) SiO2 
 PCOD8017737
Probable space group: P -1
;
_chemical_formula_sum "Si O2"
_cell_formula_units_Z 16
_cell_length_a 14.749944
_cell_length_b 11.388139
_cell_length_c 14.716618
_cell_angle_alpha 138.726175
_cell_angle_beta 150.864049
_cell_angle_gamma 60.633171
_cell_volume 679.583246
_symmetry_space_group_name_H-M "P -1"
_symmetry_group_IT_number 2
_symmetry_cell_setting 'triclinic'
loop_
_space_group_symop_operation_xyz
x,y,z
-x,-y,-z
loop_
_atom_site_type_symbol
_atom_site_label
_atom_site_fract_x
_atom_site_fract_y
_atom_site_fract_z
Si Si1 0.646955 0.291197 0.511340
Si Si2 0.170688 0.257959 0.633868
Si Si3 0.941004 0.657591 0.849156
Si Si4 0.676767 0.320344 0.899839
Si Si5 0.501688 0.416760 0.632587
Si Si6 0.655484 0.838154 0.106194
Si Si7 0.707549 0.000013 0.522246
Si Si8 0.692953 0.078168 0.112389
O O1 0.837369 0.461853 0.713496
O O2 0.586815 0.406671 0.601639
O O3 0.730007 0.149604 0.546532
O O4 0.434764 0.142714 0.179543
O O5 0.163328 0.122899 0.637564
O O6 0.274275 0.195331 0.607240
O O7 0.937163 0.209755 0.365391
O O8 0.319053 0.498883 0.930625
O O9 0.757503 0.684526 0.655425
O O10 0.077561 0.624390 0.870656
O O11 0.100402 0.870189 0.163682
O O12 0.561940 0.294866 0.686797
O O13 0.529967 0.102105 0.697164
O O14 0.618812 0.656437 0.901286
O O15 0.724419 0.044032 0.227143
O O16 0.428496 0.790945 0.928613
#
# Coordination Sequence:
#
# PCOD8017737 Si02
#       8
#     2   2   2   2   2   2   2   2
#     4  12  25  44  70 103 140 169 226 281 331 400
#     4  11  24  42  70  95 129 184 222 270 340 390
#     4  12  25  46  72  98 135 179 224 275 341 392
#     4  11  27  48  68  97 139 177 228 276 328 405
#     4  11  24  43  70 101 135 175 224 277 332 397
#     4  10  22  39  64  99 141 164 221 277 333 392
#     4  12  26  47  68  98 140 179 224 278 331 398
#     4  11  22  41  66 101 135 174 218 278 340 394
#
# _framework density 23.543842000000001
#
# number of rings (size 3 to 8) (size 9 to 14) (size 15 to 20)
#    0.000    0.750    3.750    3.375    3.500    1.500 
#    2.250    0.625    0.000    0.000    0.000    0.000 
#    0.000    0.000    0.000    0.000    0.000    0.000 
#
# Total GULP energy -198407.423221 kJ/mol
# GULP energy per Si atom -12400.463951 kJ/mol
# Density = 2.349025 g / cm^3
# Si number density = 23.543842 Si / 1000 Ang^3
#
#
#
# Elastic Constant Matrix: (Units=GPa)
#
#
# Indices 1 2 3 4 5 6 
#
# 1 90.4633 14.8710 38.8946 11.2662 2.7806 -24.9787
# 2 14.8710 45.5689 14.0834 -5.9877 1.8699 -24.0030
# 3 38.8946 14.0834 92.1688 3.3632 3.1010 -8.3284
# 4 11.2662 -5.9877 3.3632 34.2043 -10.0478 7.0609
# 5 2.7806 1.8699 3.1010 -10.0478 39.5520 4.0641
# 6 -24.9787 -24.0030 -8.3284 7.0609 4.0641 32.0520
#
#
#
# Elastic Compliance Matrix: (Units=1/GPa)
#
#
# Indices 1 2 3 4 5 6 
#
# 1 0.020907 0.005762 -0.007060 -0.011643 -0.006423 0.022153
# 2 0.005762 0.039502 -0.005031 -0.003413 -0.006271 0.034312
# 3 -0.007060 -0.005031 0.013974 0.001509 0.000644 -0.006053
# 4 -0.011643 -0.003413 0.001509 0.040815 0.013485 -0.021939
# 5 -0.006423 -0.006271 0.000644 0.013485 0.031096 -0.016448
# 6 0.022153 0.034312 -0.006053 -0.021939 -0.016448 0.079504
#
#
# Mechanical properties :
#
#
# Convention : Reuss Voigt Hill
#
# Bulk Modulus (GPa) = 16.20147 40.43320 28.31734
# Shear Modulus (GPa) = 19.30258 31.85179 25.57718
#
# Velocity S-wave (km/s) = 2.86642 3.68213 3.29958
# Velocity P-wave (km/s) = 4.22510 5.94040 5.15460
#
# Compressibility (1/GPa) = 0.06172278
#
# Stress axis : x y z
#
# Youngs Moduli (GPa) = 47.83112 25.31540 71.56097
#
# Poissons Ratio (x) = -0.14586 0.50524
# Poissons Ratio (y) = -0.27558 0.36004
# Poissons Ratio (z) = 0.33770 0.12737
#
# Static dielectric constant tensor:
#      x y z
#    x 4.301220 -0.193420 -0.200690 
#    y -0.193420 4.151320 -0.191950 
#    z -0.200690 -0.191950 4.197970 
# 
# 
# High freq. dielectric constant tensor:
#      x y z
#    x 1.931260 -0.020840 -0.015380 
#    y -0.020840 1.922870 -0.006780 
#    z -0.015380 -0.006780 1.934940 
# 
# From -- ./inp_files/532752.got.cif
#   From: 2010.06.25/outbox.cif.g09.slc.cpg/sg2_267_cif.got.tgz:532752.got - 2010.06.27 13:26:56.
