data_PCOD8017220
_publ_section_title
;
Structure prediction by ZEFSAII (Michael W. Deem and Ramdas Pophale) SiO2 
 PCOD8017220
Probable space group: P -1
;
_chemical_formula_sum "Si O2"
_cell_formula_units_Z 14
_cell_length_a 14.760571
_cell_length_b 13.026642
_cell_length_c 24.382823
_cell_angle_alpha 27.628036
_cell_angle_beta 19.861731
_cell_angle_gamma 27.633369
_cell_volume 696.182599
_symmetry_space_group_name_H-M "P -1"
_symmetry_group_IT_number 2
_symmetry_cell_setting 'triclinic'
loop_
_space_group_symop_operation_xyz
x,y,z
-x,-y,-z
loop_
_atom_site_type_symbol
_atom_site_label
_atom_site_fract_x
_atom_site_fract_y
_atom_site_fract_z
Si Si1 0.182193 0.764500 0.335478
Si Si2 0.675383 0.562651 0.494683
Si Si3 0.818354 0.490400 0.329276
Si Si4 0.630779 0.481044 0.130595
Si Si5 0.688479 0.863024 0.841338
Si Si6 0.584381 0.936360 0.544641
Si Si7 0.242969 0.294168 0.845538
O O1 0.129998 0.596914 0.492571
O O2 0.469830 0.613901 0.212783
O O3 0.923643 0.842474 0.403137
O O4 0.224084 0.996466 0.226245
O O5 0.867611 0.539628 0.341499
O O6 0.412199 0.471506 0.678193
O O7 0.557883 0.836089 0.445635
O O8 0.500000 0.500000 0.500000
O O9 0.854364 0.681814 0.174572
O O10 0.043420 0.238089 0.303896
O O11 0.522620 0.269404 0.275345
O O12 0.582793 0.661387 0.022049
O O13 0.965477 0.370761 0.005807
O O14 0.428489 0.026792 0.876713
O O15 0.500000 0.000000 0.500000
#
# Coordination Sequence:
#
# PCOD8017220 Si02
#       7
#     2   2   2   2   2   2   2
#     4  11  23  39  60  90 117 156 201 237 298 348
#     4  10  22  39  63  88 119 155 197 242 290 347
#     4   9  18  37  61  91 120 148 197 243 290 345
#     4  11  23  38  59  87 125 154 193 244 290 355
#     4  10  22  38  63  91 119 155 191 246 296 346
#     4  12  25  40  59  84 121 161 198 240 291 351
#     4   9  21  39  63  91 120 152 194 242 300 339
#
# _framework density 20.109667000000002
#
# number of rings (size 3 to 8) (size 9 to 14) (size 15 to 20)
#    0.000    1.714    1.429    3.429    2.000    8.571 
#    0.000    2.857    0.000    5.143    0.000    0.000 
#    0.000    0.000    0.000    0.000    0.000    0.000 
#
# Total GULP energy -173558.764224 kJ/mol
# GULP energy per Si atom -12397.054587 kJ/mol
# Density = 2.006390 g / cm^3
# Si number density = 20.109667 Si / 1000 Ang^3
#
#
#
# Elastic Constant Matrix: (Units=GPa)
#
#
# Indices 1 2 3 4 5 6 
#
# 1 118.2593 67.0557 51.2326 21.6519 21.0740 -15.3951
# 2 67.0557 170.2456 69.9519 7.8236 17.6875 -7.7377
# 3 51.2326 69.9519 92.1674 -3.2212 10.0671 -0.0612
# 4 21.6519 7.8236 -3.2212 40.3417 -1.6874 0.3561
# 5 21.0740 17.6875 10.0671 -1.6874 21.3732 6.0885
# 6 -15.3951 -7.7377 -0.0612 0.3561 6.0885 39.7197
#
#
#
# Elastic Compliance Matrix: (Units=1/GPa)
#
#
# Indices 1 2 3 4 5 6 
#
# 1 0.019458 -0.001456 -0.008152 -0.011651 -0.017937 0.010099
# 2 -0.001456 0.009538 -0.006018 -0.001747 -0.004320 0.001962
# 3 -0.008152 -0.006018 0.019560 0.007397 0.005890 -0.005271
# 4 -0.011651 -0.001747 0.007397 0.032625 0.014104 -0.007299
# 5 -0.017937 -0.004320 0.005890 0.014104 0.071776 -0.018914
# 6 0.010099 0.001962 -0.005271 -0.007299 -0.018914 0.032430
#
#
# Mechanical properties :
#
#
# Convention : Reuss Voigt Hill
#
# Bulk Modulus (GPa) = 57.78867 84.12809 70.95838
# Shear Modulus (GPa) = 22.48135 33.11570 27.79852
#
# Velocity S-wave (km/s) = 3.34718 4.06243 3.72203
# Velocity P-wave (km/s) = 6.61342 7.99562 7.33714
#
# Compressibility (1/GPa) = 0.01730443
#
# Stress axis : x y z
#
# Youngs Moduli (GPa) = 51.39337 104.83994 51.12494
#
# Poissons Ratio (x) = 0.15270 0.41676
# Poissons Ratio (y) = 0.07485 0.30765
# Poissons Ratio (z) = 0.41895 0.63088
#
# Static dielectric constant tensor:
#      x y z
#    x 3.974580 -0.072310 0.389440 
#    y -0.072310 3.872800 0.101330 
#    z 0.389440 0.101330 3.721320 
# 
# 
# High freq. dielectric constant tensor:
#      x y z
#    x 1.777890 -0.013430 0.018870 
#    y -0.013430 1.801090 0.008690 
#    z 0.018870 0.008690 1.770320 
# 
# From -- ./inp_files/256066.got.cif
#   From: 2010.06.25/outbox.cif.g09.slc.cpg/sg2_129_cif.got.tgz:256066.got - 2010.06.27 13:26:56.
