data_PCOD8017631
_publ_section_title
;
Structure prediction by ZEFSAII (Michael W. Deem and Ramdas Pophale) SiO2 
 PCOD8017631
Probable space group: P -1
;
_chemical_formula_sum "Si O2"
_cell_formula_units_Z 12
_cell_length_a 5.532694
_cell_length_b 14.684427
_cell_length_c 11.367258
_cell_angle_alpha 31.008846
_cell_angle_beta 80.457974
_cell_angle_gamma 94.252807
_cell_volume 424.569782
_symmetry_space_group_name_H-M "P -1"
_symmetry_group_IT_number 2
_symmetry_cell_setting 'triclinic'
loop_
_space_group_symop_operation_xyz
x,y,z
-x,-y,-z
loop_
_atom_site_type_symbol
_atom_site_label
_atom_site_fract_x
_atom_site_fract_y
_atom_site_fract_z
Si Si1 0.710402 0.051490 0.321004
Si Si2 0.050526 0.478453 0.883162
Si Si3 0.390249 0.074687 0.097426
Si Si4 0.822109 0.269854 0.653987
Si Si5 0.212875 0.358408 0.724336
Si Si6 0.633451 0.635795 0.728232
O O1 0.586473 0.100497 0.159884
O O2 0.500000 0.000000 0.500000
O O3 0.780760 0.866522 0.497316
O O4 0.966498 0.250585 0.113836
O O5 0.861892 0.571433 0.727765
O O6 0.379975 0.596615 0.701870
O O7 0.000000 0.500000 0.000000
O O8 0.204355 0.848647 0.333333
O O9 0.543748 0.179745 0.849266
O O10 0.200844 0.191275 0.003260
O O11 0.905522 0.500386 0.357294
O O12 0.046349 0.253993 0.737507
O O13 0.500000 0.500000 0.500000
O O14 0.500000 0.500000 0.000000
#
# Coordination Sequence:
#
# PCOD8017631 Si02
#       6
#     2   2   2   2   2   2
#     4  12  24  43  64  96 136 182 228 276 338 405
#     4  10  22  43  66  91 129 179 231 282 333 398
#     4  10  22  39  63  93 124 167 213 266 328 393
#     4   9  19  41  64  93 123 158 213 269 331 393
#     4   9  18  38  66  92 126 160 205 270 331 394
#     4  10  22  43  67  91 129 182 228 285 331 398
#
# _framework density 28.263905000000001
#
# number of rings (size 3 to 8) (size 9 to 14) (size 15 to 20)
#    0.000    2.000    3.333    0.500    0.000    5.333 
#   15.000    0.000    0.000    0.000    0.000    0.000 
#    0.000    0.000    0.000    0.000    0.000    0.000 
#
# Total GULP energy -148741.219218 kJ/mol
# GULP energy per Si atom -12395.101601 kJ/mol
# Density = 2.819958 g / cm^3
# Si number density = 28.263905 Si / 1000 Ang^3
#
#
#
# Elastic Constant Matrix: (Units=GPa)
#
#
# Indices 1 2 3 4 5 6 
#
# 1 152.1080 42.3441 33.4938 -30.8240 20.7387 5.0255
# 2 42.3441 142.2242 55.3102 -42.9144 5.5386 6.8878
# 3 33.4938 55.3102 164.9107 -33.7188 17.4332 -1.8161
# 4 -30.8240 -42.9144 -33.7188 53.4356 7.2104 -6.5617
# 5 20.7387 5.5386 17.4332 7.2104 54.2904 -2.4288
# 6 5.0255 6.8878 -1.8161 -6.5617 -2.4288 47.9666
#
#
#
# Elastic Compliance Matrix: (Units=1/GPa)
#
#
# Indices 1 2 3 4 5 6 
#
# 1 0.008252 -0.000940 -0.000080 0.004406 -0.003630 -0.000314
# 2 -0.000940 0.010003 -0.001747 0.006451 -0.000983 -0.000571
# 3 -0.000080 -0.001747 0.007777 0.003949 -0.002770 0.000954
# 4 0.004406 0.006451 0.003949 0.030252 -0.007515 0.002519
# 5 -0.003630 -0.000983 -0.002770 -0.007515 0.021816 0.000493
# 6 -0.000314 -0.000571 0.000954 0.002519 0.000493 0.021368
#
#
# Mechanical properties :
#
#
# Convention : Reuss Voigt Hill
#
# Bulk Modulus (GPa) = 48.78480 80.17099 64.47790
# Shear Modulus (GPa) = 44.70902 53.01152 48.86027
#
# Velocity S-wave (km/s) = 3.98155 4.33551 4.16229
# Velocity P-wave (km/s) = 6.19959 7.31361 6.77952
#
# Compressibility (1/GPa) = 0.02049819
#
# Stress axis : x y z
#
# Youngs Moduli (GPa) = 121.18908 99.96992 128.58514
#
# Poissons Ratio (x) = 0.09394 0.01023
# Poissons Ratio (y) = 0.11388 0.22470
# Poissons Ratio (z) = 0.00964 0.17469
#
# Static dielectric constant tensor:
#      x y z
#    x 7.538750 -1.006670 0.473510 
#    y -1.006670 6.246240 -0.605340 
#    z 0.473510 -0.605340 6.072190 
# 
# 
# High freq. dielectric constant tensor:
#      x y z
#    x 2.154520 -0.012390 -0.003170 
#    y -0.012390 2.155330 -0.004980 
#    z -0.003170 -0.004980 2.171740 
# 
# From -- ./inp_files/321153.got.cif
#   From: 2010.06.25/outbox.cif.g09.slc.cpg/sg2_161_cif.got.tgz:321153.got - 2010.06.27 13:26:56.
