data_PCOD8017272
_publ_section_title
;
Structure prediction by ZEFSAII (Michael W. Deem and Ramdas Pophale) SiO2 
 PCOD8017272
Probable space group: P -1
;
_chemical_formula_sum "Si O2"
_cell_formula_units_Z 12
_cell_length_a 6.804531
_cell_length_b 21.375819
_cell_length_c 12.106283
_cell_angle_alpha 154.306370
_cell_angle_beta 134.327209
_cell_angle_gamma 44.518682
_cell_volume 526.047452
_symmetry_space_group_name_H-M "P -1"
_symmetry_group_IT_number 2
_symmetry_cell_setting 'triclinic'
loop_
_space_group_symop_operation_xyz
x,y,z
-x,-y,-z
loop_
_atom_site_type_symbol
_atom_site_label
_atom_site_fract_x
_atom_site_fract_y
_atom_site_fract_z
Si Si1 0.095464 0.622240 0.487580
Si Si2 0.625464 0.300910 0.936096
Si Si3 0.409531 0.294572 0.065045
Si Si4 0.541046 0.221913 0.527016
Si Si5 0.772616 0.403638 0.742028
Si Si6 0.820553 0.917423 0.223013
O O1 0.142555 0.441099 0.214965
O O2 0.299027 0.664692 0.725135
O O3 0.170341 0.677748 0.483889
O O4 0.773664 0.706403 0.529668
O O5 0.540486 0.257566 0.712986
O O6 0.956313 0.222619 0.971019
O O7 0.429606 0.251111 0.873743
O O8 0.546989 0.481763 0.200009
O O9 0.388232 0.149209 0.891121
O O10 0.773387 0.285096 0.651721
O O11 0.633596 0.040330 0.260313
O O12 0.000000 0.500000 0.000000
O O13 0.000000 0.000000 0.500000
#
# Coordination Sequence:
#
# PCOD8017272 Si02
#       6
#     2   2   2   2   2   2
#     4  10  23  41  66  90 123 162 205 255 298 368
#     4  10  22  38  65  87 123 161 200 259 290 364
#     4  10  23  43  62  92 125 164 201 248 314 356
#     4  11  23  38  62  95 119 160 209 252 305 355
#     4  11  22  37  66  92 118 159 208 259 297 355
#     4  10  24  38  61  92 129 161 200 252 301 370
#
# _framework density 22.811630999999998
#
# number of rings (size 3 to 8) (size 9 to 14) (size 15 to 20)
#    0.000    1.667    1.667    1.500    9.333    6.000 
#    0.000    6.667    0.000    0.000    0.000    0.000 
#    0.000    0.000    0.000    0.000    0.000    0.000 
#
# Total GULP energy -148718.944610 kJ/mol
# GULP energy per Si atom -12393.245384 kJ/mol
# Density = 2.275971 g / cm^3
# Si number density = 22.811631 Si / 1000 Ang^3
#
#
#
# Elastic Constant Matrix: (Units=GPa)
#
#
# Indices 1 2 3 4 5 6 
#
# 1 98.7949 54.3809 31.8362 25.0919 16.9873 16.9918
# 2 54.3809 127.6925 23.4709 29.2337 16.8535 0.3237
# 3 31.8362 23.4709 42.8686 11.0772 14.5177 17.4641
# 4 25.0919 29.2337 11.0772 34.2865 10.5300 8.3971
# 5 16.9873 16.8535 14.5177 10.5300 29.0000 9.7900
# 6 16.9918 0.3237 17.4641 8.3971 9.7900 40.1992
#
#
#
# Elastic Compliance Matrix: (Units=1/GPa)
#
#
# Indices 1 2 3 4 5 6 
#
# 1 0.016918 -0.004535 -0.007395 -0.005243 -0.000786 -0.002615
# 2 -0.004535 0.012069 -0.002799 -0.006595 -0.002236 0.004958
# 3 -0.007395 -0.002799 0.037865 0.001283 -0.009678 -0.011213
# 4 -0.005243 -0.006595 0.001283 0.041681 -0.007094 -0.005267
# 5 -0.000786 -0.002236 -0.009678 -0.007094 0.045354 -0.005009
# 6 -0.002615 0.004958 -0.011213 -0.005267 -0.005009 0.033133
#
#
# Mechanical properties :
#
#
# Convention : Reuss Voigt Hill
#
# Bulk Modulus (GPa) = 26.74084 54.30357 40.52220
# Shear Modulus (GPa) = 21.83964 31.34166 26.59065
#
# Velocity S-wave (km/s) = 3.09753 3.71068 3.41788
# Velocity P-wave (km/s) = 4.95387 6.49737 5.77740
#
# Compressibility (1/GPa) = 0.03739599
#
# Stress axis : x y z
#
# Youngs Moduli (GPa) = 59.10987 82.85377 26.40969
#
# Poissons Ratio (x) = 0.37573 0.19529
# Poissons Ratio (y) = 0.26805 0.07391
# Poissons Ratio (z) = 0.43709 0.23188
#
# Static dielectric constant tensor:
#      x y z
#    x 4.277700 -0.289280 -0.275340 
#    y -0.289280 4.929370 0.538320 
#    z -0.275340 0.538320 3.852410 
# 
# 
# High freq. dielectric constant tensor:
#      x y z
#    x 1.905720 -0.001240 -0.004920 
#    y -0.001240 1.914730 0.012280 
#    z -0.004920 0.012280 1.854040 
# 
# From -- ./inp_files/22767.got.cif
#   From: 2010.06.25/outbox.cif.g09.slc.cpg/sg2_12_cif.got.tgz:22767.got - 2010.06.27 13:26:56.
