data_PCOD8017880
_publ_section_title
;
Structure prediction by ZEFSAII (Michael W. Deem and Ramdas Pophale) SiO2 
 PCOD8017880
Probable space group: P -1
;
_chemical_formula_sum "Si O2"
_cell_formula_units_Z 16
_cell_length_a 27.650175
_cell_length_b 11.141956
_cell_length_c 5.598815
_cell_angle_alpha 79.340593
_cell_angle_beta 119.170557
_cell_angle_gamma 149.493877
_cell_volume 648.280086
_symmetry_space_group_name_H-M "P -1"
_symmetry_group_IT_number 2
_symmetry_cell_setting 'triclinic'
loop_
_space_group_symop_operation_xyz
x,y,z
-x,-y,-z
loop_
_atom_site_type_symbol
_atom_site_label
_atom_site_fract_x
_atom_site_fract_y
_atom_site_fract_z
Si Si1 0.232693 0.842001 0.557145
Si Si2 0.692933 0.851064 0.756860
Si Si3 0.529255 0.957294 0.388916
Si Si4 0.106722 0.798442 0.553867
Si Si5 0.291066 0.556920 0.692744
Si Si6 0.092818 0.322171 0.498790
Si Si7 0.955077 0.062230 0.766478
Si Si8 0.541990 0.726767 0.751089
O O1 0.193423 0.894595 0.548761
O O2 0.127988 0.534602 0.488871
O O3 0.241085 0.894031 0.280548
O O4 0.376340 0.086019 0.882944
O O5 0.602357 0.724343 0.788528
O O6 0.607574 0.602709 0.454202
O O7 0.802061 0.980775 0.085387
O O8 0.553777 0.871711 0.572575
O O9 0.500000 0.000000 0.500000
O O10 0.657249 0.246503 0.452688
O O11 0.407781 0.709585 0.014634
O O12 0.043819 0.789076 0.275537
O O13 0.000000 0.500000 0.500000
O O14 0.221656 0.498680 0.754881
O O15 0.190355 0.265579 0.440843
O O16 0.012644 0.134878 0.616238
O O17 0.027367 0.154163 0.144784
#
# Coordination Sequence:
#
# PCOD8017880 Si02
#       8
#     2   2   2   2   2   2   2   2
#     4  11  23  39  70  97 139 180 227 285 346 424
#     4  10  22  39  67  95 137 180 224 288 337 425
#     4  11  25  43  73  99 140 181 233 301 352 421
#     4  11  23  41  63 101 140 177 228 276 350 407
#     4  11  27  47  69 104 136 186 241 292 358 415
#     4  12  27  46  75 102 143 189 238 290 352 417
#     4  12  28  46  74 105 143 191 234 295 344 425
#     4  10  22  42  64  98 132 175 232 283 352 407
#
# _framework density 24.680689000000001
#
# number of rings (size 3 to 8) (size 9 to 14) (size 15 to 20)
#    0.000    1.000    1.250    4.125    8.750    3.000 
#    0.000    0.000    0.000    0.000    0.000    0.000 
#    0.000    0.000    0.000    0.000    0.000    0.000 
#
# Total GULP energy -198283.151852 kJ/mol
# GULP energy per Si atom -12392.696991 kJ/mol
# Density = 2.462451 g / cm^3
# Si number density = 24.680689 Si / 1000 Ang^3
#
#
#
# Elastic Constant Matrix: (Units=GPa)
#
#
# Indices 1 2 3 4 5 6 
#
# 1 62.9259 7.1259 12.2004 3.2797 5.4391 6.9928
# 2 7.1259 118.4356 30.8664 6.7825 1.0038 12.9738
# 3 12.2004 30.8664 91.1220 -0.0465 -6.7914 19.1877
# 4 3.2797 6.7825 -0.0465 41.1924 -6.8430 5.4419
# 5 5.4391 1.0038 -6.7914 -6.8430 33.9066 2.0753
# 6 6.9928 12.9738 19.1877 5.4419 2.0753 24.1656
#
#
#
# Elastic Compliance Matrix: (Units=1/GPa)
#
#
# Indices 1 2 3 4 5 6 
#
# 1 0.016932 -0.000113 -0.001899 -0.001510 -0.003232 -0.002714
# 2 -0.000113 0.009530 -0.002758 -0.001390 -0.000944 -0.002500
# 3 -0.001899 -0.002758 0.014759 0.002795 0.004562 -0.010710
# 4 -0.001510 -0.001390 0.002795 0.026752 0.006710 -0.007636
# 5 -0.003232 -0.000944 0.004562 0.006710 0.032705 -0.006500
# 6 -0.002714 -0.002500 -0.010710 -0.007636 -0.006500 0.054291
#
#
# Mechanical properties :
#
#
# Convention : Reuss Voigt Hill
#
# Bulk Modulus (GPa) = 31.56276 41.42989 36.49632
# Shear Modulus (GPa) = 28.56002 34.67230 31.61616
#
# Velocity S-wave (km/s) = 3.40543 3.75218 3.58300
# Velocity P-wave (km/s) = 5.31778 5.96612 5.65126
#
# Compressibility (1/GPa) = 0.03168290
#
# Stress axis : x y z
#
# Youngs Moduli (GPa) = 59.05867 104.92745 67.75328
#
# Poissons Ratio (x) = 0.01182 0.12867
# Poissons Ratio (y) = 0.00666 0.18685
# Poissons Ratio (z) = 0.11216 0.28937
#
# Static dielectric constant tensor:
#      x y z
#    x 4.559040 0.005240 -0.022040 
#    y 0.005240 4.550990 0.147340 
#    z -0.022040 0.147340 4.914260 
# 
# 
# High freq. dielectric constant tensor:
#      x y z
#    x 1.967310 -0.008800 0.013280 
#    y -0.008800 1.997330 0.007810 
#    z 0.013280 0.007810 1.990720 
# 
# From -- ./inp_files/95518.got.cif
#   From: 2010.06.25/outbox.cif.g09.slc.cpg/sg2_48_cif.got.tgz:95518.got - 2010.06.27 13:26:56.
