data_PCOD8017216
_publ_section_title
;
Structure prediction by ZEFSAII (Michael W. Deem and Ramdas Pophale) SiO2 
 PCOD8017216
Probable space group: P -1
;
_chemical_formula_sum "Si O2"
_cell_formula_units_Z 16
_cell_length_a 12.809892
_cell_length_b 11.971996
_cell_length_c 11.728096
_cell_angle_alpha 56.306621
_cell_angle_beta 102.787100
_cell_angle_gamma 56.230469
_cell_volume 799.925443
_symmetry_space_group_name_H-M "P -1"
_symmetry_group_IT_number 2
_symmetry_cell_setting 'triclinic'
loop_
_space_group_symop_operation_xyz
x,y,z
-x,-y,-z
loop_
_atom_site_type_symbol
_atom_site_label
_atom_site_fract_x
_atom_site_fract_y
_atom_site_fract_z
Si Si1 0.751658 0.631473 0.707371
Si Si2 0.766485 0.462116 0.226402
Si Si3 0.948617 0.377546 0.665161
Si Si4 0.975969 0.232377 0.169058
Si Si5 0.267894 0.253843 0.794642
Si Si6 0.344147 0.975094 0.490638
Si Si7 0.408676 0.740057 0.862241
Si Si8 0.009057 0.083547 0.681504
O O1 0.861750 0.455143 0.725794
O O2 0.525925 0.824201 0.540531
O O3 0.765743 0.777847 0.627993
O O4 0.851228 0.472201 0.935830
O O5 0.896196 0.301621 0.237867
O O6 0.805295 0.569552 0.223858
O O7 0.826878 0.289317 0.434258
O O8 0.538022 0.683415 0.018530
O O9 0.797391 0.622420 0.414395
O O10 0.162204 0.222859 0.808688
O O11 0.971433 0.202930 0.721698
O O12 0.960190 0.104707 0.175132
O O13 0.200210 0.042813 0.336083
O O14 0.500000 0.000000 0.000000
O O15 0.416945 0.810387 0.706456
O O16 0.191625 0.959644 0.732225
O O17 0.500000 0.500000 0.000000
#
# Coordination Sequence:
#
# PCOD8017216 Si02
#       8
#     2   2   2   2   2   2   2   2
#     4  11  25  42  59  90 125 168 204 246 300 377
#     4  11  21  35  62  94 119 154 204 255 312 353
#     4  10  24  41  59  89 125 164 202 246 310 361
#     4  12  22  40  62  91 121 162 206 249 313 359
#     4  10  22  38  63  89 122 159 203 255 301 366
#     4  11  24  39  63  90 124 160 204 258 301 357
#     4  12  21  37  63  95 125 155 198 257 315 359
#     4  11  23  40  63  92 125 157 203 264 304 364
#
# _framework density 20.001866
#
# number of rings (size 3 to 8) (size 9 to 14) (size 15 to 20)
#    0.000    1.000    3.750    3.000    5.250    1.500 
#    0.000    0.625    0.000    0.000    0.000    0.000 
#    0.000    0.000    0.000    0.000    0.000    0.000 
#
# Total GULP energy -198496.460601 kJ/mol
# GULP energy per Si atom -12406.028788 kJ/mol
# Density = 1.995634 g / cm^3
# Si number density = 20.001866 Si / 1000 Ang^3
#
#
#
# Elastic Constant Matrix: (Units=GPa)
#
#
# Indices 1 2 3 4 5 6 
#
# 1 100.2625 35.6435 38.4196 -0.3534 7.3567 10.2606
# 2 35.6435 107.0868 19.3948 -3.5643 -7.3183 5.8757
# 3 38.4196 19.3948 89.9641 -5.2469 6.7292 11.0158
# 4 -0.3534 -3.5643 -5.2469 23.9676 5.1533 3.2064
# 5 7.3567 -7.3183 6.7292 5.1533 45.2814 -7.2629
# 6 10.2606 5.8757 11.0158 3.2064 -7.2629 29.0861
#
#
#
# Elastic Compliance Matrix: (Units=1/GPa)
#
#
# Indices 1 2 3 4 5 6 
#
# 1 0.013475 -0.003710 -0.004428 -0.000382 -0.002556 -0.002923
# 2 -0.003710 0.010931 -0.000893 0.000868 0.002394 -0.000059
# 3 -0.004428 -0.000893 0.014238 0.004160 -0.002785 -0.004804
# 4 -0.000382 0.000868 0.004160 0.045361 -0.006917 -0.008344
# 5 -0.002556 0.002394 -0.002785 -0.006917 0.025466 0.008594
# 6 -0.002923 -0.000059 -0.004804 -0.008344 0.008594 0.040309
#
#
# Mechanical properties :
#
#
# Convention : Reuss Voigt Hill
#
# Bulk Modulus (GPa) = 48.58742 53.80325 51.19533
# Shear Modulus (GPa) = 28.62016 33.25738 30.93877
#
# Velocity S-wave (km/s) = 3.78679 4.08206 3.93720
# Velocity P-wave (km/s) = 6.59272 7.01250 6.80585
#
# Compressibility (1/GPa) = 0.02058146
#
# Stress axis : x y z
#
# Youngs Moduli (GPa) = 74.21239 91.48593 70.23366
#
# Poissons Ratio (x) = 0.33943 0.31098
# Poissons Ratio (y) = 0.27534 0.06273
# Poissons Ratio (z) = 0.32859 0.08172
#
# Static dielectric constant tensor:
#      x y z
#    x 3.784100 0.204220 0.236080 
#    y 0.204220 3.553670 -0.038290 
#    z 0.236080 -0.038290 3.783330 
# 
# 
# High freq. dielectric constant tensor:
#      x y z
#    x 1.782620 0.012940 0.011330 
#    y 0.012940 1.773400 -0.005430 
#    z 0.011330 -0.005430 1.788650 
# 
# From -- ./inp_files/427587.got.cif
#   From: 2010.06.25/outbox.cif.g09.slc.cpg/sg2_214_cif.got.tgz:427587.got - 2010.06.27 13:26:56.
