data_PCOD8017629
_publ_section_title
;
Structure prediction by ZEFSAII (Michael W. Deem and Ramdas Pophale) SiO2 
 PCOD8017629
Probable space group: P -1
;
_chemical_formula_sum "Si O2"
_cell_formula_units_Z 12
_cell_length_a 8.886189
_cell_length_b 14.350406
_cell_length_c 10.496673
_cell_angle_alpha 129.222249
_cell_angle_beta 151.724764
_cell_angle_gamma 58.065037
_cell_volume 489.794277
_symmetry_space_group_name_H-M "P -1"
_symmetry_group_IT_number 2
_symmetry_cell_setting 'triclinic'
loop_
_space_group_symop_operation_xyz
x,y,z
-x,-y,-z
loop_
_atom_site_type_symbol
_atom_site_label
_atom_site_fract_x
_atom_site_fract_y
_atom_site_fract_z
Si Si1 0.355452 0.644185 0.808295
Si Si2 0.660907 0.613224 0.320985
Si Si3 0.759154 0.582850 0.832251
Si Si4 0.543151 0.897797 0.115272
Si Si5 0.968764 0.272642 0.067714
Si Si6 0.036853 0.054338 0.765921
O O1 0.457824 0.530223 0.872804
O O2 0.563549 0.656540 0.848069
O O3 0.976990 0.621284 0.475284
O O4 0.439168 0.783685 0.033693
O O5 0.376834 0.684188 0.106444
O O6 0.767370 0.678921 0.590830
O O7 0.500000 0.500000 0.500000
O O8 0.000000 0.500000 0.000000
O O9 0.966677 0.669067 0.969697
O O10 0.698847 0.002092 0.413104
O O11 0.777253 0.872446 0.147970
O O12 0.223904 0.941748 0.853240
O O13 0.975302 0.132185 0.915696
#
# Coordination Sequence:
#
# PCOD8017629 Si02
#       6
#     2   2   2   2   2   2
#     4  11  24  45  63  98 130 168 206 261 316 389
#     4  11  27  40  67  93 135 166 203 257 333 369
#     4  12  23  39  65  97 123 165 214 258 313 371
#     4  10  22  39  63  93 123 165 208 261 314 361
#     4  12  22  45  62  97 127 166 211 268 303 376
#     4  10  22  39  64  92 123 162 214 263 304 364
#
# _framework density 24.500081999999999
#
# number of rings (size 3 to 8) (size 9 to 14) (size 15 to 20)
#    0.000    1.000    5.000    1.000    0.000    8.000 
#    0.000    5.000    0.000    0.000    0.000    0.000 
#    0.000    0.000    0.000    0.000    0.000    0.000 
#
# Total GULP energy -148690.137290 kJ/mol
# GULP energy per Si atom -12390.844774 kJ/mol
# Density = 2.444432 g / cm^3
# Si number density = 24.500082 Si / 1000 Ang^3
#
#
#
# Elastic Constant Matrix: (Units=GPa)
#
#
# Indices 1 2 3 4 5 6 
#
# 1 62.2490 33.0007 2.6789 8.7550 7.4692 -5.0230
# 2 33.0007 89.7644 49.1368 15.2425 6.6389 1.3011
# 3 2.6789 49.1368 90.2727 6.3933 8.7812 8.9031
# 4 8.7550 15.2425 6.3933 41.5284 -3.2797 1.4194
# 5 7.4692 6.6389 8.7812 -3.2797 38.5184 5.1551
# 6 -5.0230 1.3011 8.9031 1.4194 5.1551 46.9384
#
#
#
# Elastic Compliance Matrix: (Units=1/GPa)
#
#
# Indices 1 2 3 4 5 6 
#
# 1 0.022420 -0.010584 0.005440 -0.002089 -0.004234 0.002189
# 2 -0.010584 0.021934 -0.011434 -0.004039 0.000468 0.000499
# 3 0.005440 -0.011434 0.017609 0.000191 -0.002796 -0.002140
# 4 -0.002089 -0.004039 0.000191 0.026293 0.003474 -0.001324
# 5 -0.004234 0.000468 -0.002796 0.003474 0.028053 -0.003122
# 6 0.002189 0.000499 -0.002140 -0.001324 -0.003122 0.022314
#
#
# Mechanical properties :
#
#
# Convention : Reuss Voigt Hill
#
# Bulk Modulus (GPa) = 34.71370 45.76879 40.24124
# Shear Modulus (GPa) = 27.56632 35.89502 31.73067
#
# Velocity S-wave (km/s) = 3.35797 3.83181 3.60269
# Velocity P-wave (km/s) = 5.40686 6.18859 5.81089
#
# Compressibility (1/GPa) = 0.02880707
#
# Stress axis : x y z
#
# Youngs Moduli (GPa) = 44.60346 45.59117 56.78895
#
# Poissons Ratio (x) = 0.48253 -0.30891
# Poissons Ratio (y) = 0.47208 0.64930
# Poissons Ratio (z) = -0.24262 0.52127
#
# Static dielectric constant tensor:
#      x y z
#    x 4.765460 -0.283870 -0.014000 
#    y -0.283870 2.763640 -1.496550 
#    z -0.014000 -1.496550 2.727530 
# 
# 
# High freq. dielectric constant tensor:
#      x y z
#    x 1.981210 -0.007300 -0.002890 
#    y -0.007300 1.973920 0.005170 
#    z -0.002890 0.005170 1.981140 
# 
# From -- ./inp_files/27957.got.cif
#   From: 2010.06.25/outbox.cif.g09.slc.cpg/sg2_14_cif.got.tgz:27957.got - 2010.06.27 13:26:56.
