data_PCOD8017540
_publ_section_title
;
Structure prediction by ZEFSAII (Michael W. Deem and Ramdas Pophale) SiO2 
 PCOD8017540
Probable space group: P -1
;
_chemical_formula_sum "Si O2"
_cell_formula_units_Z 12
_cell_length_a 11.634629
_cell_length_b 9.607729
_cell_length_c 16.922251
_cell_angle_alpha 53.556393
_cell_angle_beta 157.322046
_cell_angle_gamma 127.301367
_cell_volume 576.374353
_symmetry_space_group_name_H-M "P -1"
_symmetry_group_IT_number 2
_symmetry_cell_setting 'triclinic'
loop_
_space_group_symop_operation_xyz
x,y,z
-x,-y,-z
loop_
_atom_site_type_symbol
_atom_site_label
_atom_site_fract_x
_atom_site_fract_y
_atom_site_fract_z
Si Si1 0.874279 0.661346 0.396704
Si Si2 0.853324 0.168787 0.333871
Si Si3 0.352968 0.528053 0.218161
Si Si4 0.382500 0.308373 0.523396
Si Si5 0.344371 0.144703 0.396461
Si Si6 0.709388 0.939805 0.086671
O O1 0.524071 0.603074 0.221817
O O2 0.881583 0.795896 0.283578
O O3 0.000000 0.500000 0.500000
O O4 0.103049 0.726330 0.591987
O O5 0.026265 0.275806 0.332755
O O6 0.498112 0.127241 0.098666
O O7 0.000000 0.000000 0.500000
O O8 0.439908 0.688493 0.282390
O O9 0.451672 0.340487 0.363020
O O10 0.000000 0.500000 0.000000
O O11 0.500000 0.500000 0.500000
O O12 0.437008 0.160750 0.543700
O O13 0.500000 0.000000 0.500000
O O14 0.978441 0.093789 0.174907
O O15 0.500000 0.000000 0.000000
#
# Coordination Sequence:
#
# PCOD8017540 Si02
#       6
#     2   2   2   2   2   2
#     4  11  24  42  62  92 129 155 203 266 305 352
#     4  11  22  39  65  93 119 162 211 249 300 372
#     4  10  22  39  62  85 117 160 206 241 298 371
#     4   9  20  37  60  83 119 156 199 244 299 358
#     4  11  22  40  61  90 124 155 200 258 309 352
#     4  12  22  40  69  90 121 168 208 247 307 374
#
# _framework density 20.819800000000001
#
# number of rings (size 3 to 8) (size 9 to 14) (size 15 to 20)
#    0.000    1.333    3.333    2.000    4.667    0.667 
#    3.000    0.833    0.000    0.000    0.000    0.000 
#    0.000    0.000    0.000    0.000    0.000    0.000 
#
# Total GULP energy -148675.675003 kJ/mol
# GULP energy per Si atom -12389.639584 kJ/mol
# Density = 2.077241 g / cm^3
# Si number density = 20.819800 Si / 1000 Ang^3
#
#
#
# Elastic Constant Matrix: (Units=GPa)
#
#
# Indices 1 2 3 4 5 6 
#
# 1 77.5476 39.4833 31.6615 11.5460 -6.5154 -18.7155
# 2 39.4833 102.3988 32.3065 11.6363 -7.0319 -25.3484
# 3 31.6615 32.3065 87.1161 23.1260 -2.6483 -20.0722
# 4 11.5460 11.6363 23.1260 39.8224 6.2877 4.4401
# 5 -6.5154 -7.0319 -2.6483 6.2877 27.2817 2.3721
# 6 -18.7155 -25.3484 -20.0722 4.4401 2.3721 55.5469
#
#
#
# Elastic Compliance Matrix: (Units=1/GPa)
#
#
# Indices 1 2 3 4 5 6 
#
# 1 0.017979 -0.004657 -0.003342 -0.002722 0.003152 0.002808
# 2 -0.004657 0.013551 -0.001648 -0.002496 0.002438 0.004115
# 3 -0.003342 -0.001648 0.016964 -0.009285 0.002138 0.004903
# 4 -0.002722 -0.002496 -0.009285 0.034378 -0.009444 -0.007756
# 5 0.003152 0.002438 0.002138 -0.009444 0.040247 0.001983
# 6 0.002808 0.004115 0.004903 -0.007756 0.001983 0.023134
#
#
# Mechanical properties :
#
#
# Convention : Reuss Voigt Hill
#
# Bulk Modulus (GPa) = 34.24641 52.66279 43.45460
# Shear Modulus (GPa) = 28.52578 35.43762 31.98170
#
# Velocity S-wave (km/s) = 3.70554 4.13014 3.92359
# Velocity P-wave (km/s) = 5.89853 6.93495 6.43763
#
# Compressibility (1/GPa) = 0.02920014
#
# Stress axis : x y z
#
# Youngs Moduli (GPa) = 55.62174 73.79513 58.94773
#
# Poissons Ratio (x) = 0.34367 0.19699
# Poissons Ratio (y) = 0.25904 0.09714
# Poissons Ratio (z) = 0.18588 0.12161
#
# Static dielectric constant tensor:
#      x y z
#    x 4.792570 0.142210 0.724910 
#    y 0.142210 4.269940 0.490650 
#    z 0.724910 0.490650 4.490850 
# 
# 
# High freq. dielectric constant tensor:
#      x y z
#    x 1.821270 0.010470 -0.005440 
#    y 0.010470 1.830840 0.027830 
#    z -0.005440 0.027830 1.791840 
# 
# From -- ./inp_files/149475.got.cif
#   From: 2010.06.25/outbox.cif.g09.slc.cpg/sg2_75_cif.got.tgz:149475.got - 2010.06.27 13:26:56.
