data_PCOD8017618
_publ_section_title
;
Structure prediction by ZEFSAII (Michael W. Deem and Ramdas Pophale) SiO2 
 PCOD8017618
Probable space group: P -1
;
_chemical_formula_sum "Si O2"
_cell_formula_units_Z 16
_cell_length_a 11.631056
_cell_length_b 9.820392
_cell_length_c 21.438488
_cell_angle_alpha 26.769077
_cell_angle_beta 137.324448
_cell_angle_gamma 137.138314
_cell_volume 723.691675
_symmetry_space_group_name_H-M "P -1"
_symmetry_group_IT_number 2
_symmetry_cell_setting 'triclinic'
loop_
_space_group_symop_operation_xyz
x,y,z
-x,-y,-z
loop_
_atom_site_type_symbol
_atom_site_label
_atom_site_fract_x
_atom_site_fract_y
_atom_site_fract_z
Si Si1 0.042753 0.840059 0.985995
Si Si2 0.201752 0.220482 0.594491
Si Si3 0.517840 0.815059 0.683284
Si Si4 0.615007 0.179838 0.239190
Si Si5 0.092445 0.200731 0.273075
Si Si6 0.266052 0.159903 0.045833
Si Si7 0.116193 0.874303 0.293139
Si Si8 0.503505 0.577910 0.645447
O O1 0.892110 0.902201 0.944277
O O2 0.015953 0.481086 0.100876
O O3 0.047031 0.061018 0.836969
O O4 0.223012 0.948994 0.052461
O O5 0.138986 0.530882 0.427095
O O6 0.366467 0.272255 0.687814
O O7 0.273579 0.078666 0.619729
O O8 0.030547 0.961283 0.653702
O O9 0.383997 0.753939 0.712804
O O10 0.461313 0.556261 0.712232
O O11 0.714752 0.845888 0.774850
O O12 0.548666 0.142021 0.525648
O O13 0.419648 0.052683 0.186817
O O14 0.696611 0.483931 0.107080
O O15 0.289286 0.365175 0.307873
O O16 0.085399 0.923407 0.334110
#
# Coordination Sequence:
#
# PCOD8017618 Si02
#       8
#     2   2   2   2   2   2   2   2
#     4  11  21  42  59  89 122 166 209 253 309 372
#     4  11  23  40  65  96 126 163 207 257 317 370
#     4   9  19  39  62  86 126 163 201 254 313 363
#     4  11  21  41  63  93 123 165 206 259 311 372
#     4  11  22  41  65  90 126 165 207 258 310 372
#     4  10  23  38  63  85 128 163 206 256 309 370
#     4  10  22  39  63  91 125 163 206 257 312 369
#     4   9  21  39  61  91 123 162 204 257 309 365
#
# _framework density 22.108864000000001
#
# number of rings (size 3 to 8) (size 9 to 14) (size 15 to 20)
#    0.000    1.750    2.500    2.250    0.000    4.000 
#    4.500    1.250    0.000    6.000    0.000    0.000 
#    0.000    0.000    0.000    0.000    0.000    0.000 
#
# Total GULP energy -198254.429948 kJ/mol
# GULP energy per Si atom -12390.901872 kJ/mol
# Density = 2.205854 g / cm^3
# Si number density = 22.108864 Si / 1000 Ang^3
#
#
#
# Elastic Constant Matrix: (Units=GPa)
#
#
# Indices 1 2 3 4 5 6 
#
# 1 85.1277 33.1852 7.3774 2.1589 3.5724 -2.9187
# 2 33.1852 72.2413 14.9782 5.8017 -4.0919 1.9520
# 3 7.3774 14.9782 74.6769 -2.9691 7.7477 -0.2548
# 4 2.1589 5.8017 -2.9691 27.8735 -9.4244 1.5198
# 5 3.5724 -4.0919 7.7477 -9.4244 23.0595 -0.9698
# 6 -2.9187 1.9520 -0.2548 1.5198 -0.9698 25.3947
#
#
#
# Elastic Compliance Matrix: (Units=1/GPa)
#
#
# Indices 1 2 3 4 5 6 
#
# 1 0.014729 -0.007031 0.000334 -0.001114 -0.004006 0.002150
# 2 -0.007031 0.018279 -0.003537 -0.001962 0.004637 -0.001954
# 3 0.000334 -0.003537 0.014647 0.000427 -0.005417 0.000225
# 4 -0.001114 -0.001962 0.000427 0.042217 0.016857 -0.001856
# 5 -0.004006 0.004637 -0.005417 0.016857 0.053526 0.000164
# 6 0.002150 -0.001954 0.000225 -0.001856 0.000164 0.039895
#
#
# Mechanical properties :
#
#
# Convention : Reuss Voigt Hill
#
# Bulk Modulus (GPa) = 36.78342 38.12529 37.45435
# Shear Modulus (GPa) = 23.49356 27.03255 25.26306
#
# Velocity S-wave (km/s) = 3.26334 3.50051 3.38400
# Velocity P-wave (km/s) = 5.55632 5.79826 5.67858
#
# Compressibility (1/GPa) = 0.02718616
#
# Stress axis : x y z
#
# Youngs Moduli (GPa) = 67.89314 54.70845 68.27197
#
# Poissons Ratio (x) = 0.38464 -0.02279
# Poissons Ratio (y) = 0.47734 0.24151
# Poissons Ratio (z) = -0.02266 0.19353
#
# Static dielectric constant tensor:
#      x y z
#    x 3.894940 0.043630 0.212700 
#    y 0.043630 4.211800 0.163270 
#    z 0.212700 0.163270 3.701830 
# 
# 
# High freq. dielectric constant tensor:
#      x y z
#    x 1.866270 -0.000940 0.014200 
#    y -0.000940 1.870450 0.006850 
#    z 0.014200 0.006850 1.851910 
# 
# From -- ./inp_files/199496.got.cif
#   From: 2010.06.25/outbox.cif.g09.slc.cpg/sg2_100_cif.got.tgz:199496.got - 2010.06.27 13:26:56.
