data_PCOD8017750
_publ_section_title
;
Structure prediction by ZEFSAII (Michael W. Deem and Ramdas Pophale) SiO2 
 PCOD8017750
Probable space group: P -1
;
_chemical_formula_sum "Si O2"
_cell_formula_units_Z 16
_cell_length_a 12.706852
_cell_length_b 9.765256
_cell_length_c 11.936605
_cell_angle_alpha 52.490541
_cell_angle_beta 44.160162
_cell_angle_gamma 46.129617
_cell_volume 725.251829
_symmetry_space_group_name_H-M "P -1"
_symmetry_group_IT_number 2
_symmetry_cell_setting 'triclinic'
loop_
_space_group_symop_operation_xyz
x,y,z
-x,-y,-z
loop_
_atom_site_type_symbol
_atom_site_label
_atom_site_fract_x
_atom_site_fract_y
_atom_site_fract_z
Si Si1 0.623913 0.102240 0.142874
Si Si2 0.295280 0.916096 0.654913
Si Si3 0.640522 0.850032 0.051164
Si Si4 0.020740 0.480059 0.658709
Si Si5 0.987402 0.369705 0.172134
Si Si6 0.637855 0.458069 0.319700
Si Si7 0.270720 0.262000 0.388876
Si Si8 0.940633 0.136713 0.870637
O O1 0.684178 0.029336 0.260035
O O2 0.431388 0.283710 0.204873
O O3 0.625301 0.933230 0.146541
O O4 0.755292 0.170601 0.953670
O O5 0.386003 0.683889 0.681968
O O6 0.363913 0.030175 0.463826
O O7 0.092666 0.019991 0.724810
O O8 0.618384 0.653724 0.176211
O O9 0.822988 0.811912 0.876612
O O10 0.500000 0.000000 0.000000
O O11 0.069817 0.509967 0.729553
O O12 0.879973 0.684101 0.612703
O O13 0.926372 0.346448 0.801804
O O14 0.191690 0.391709 0.496374
O O15 0.829619 0.327032 0.286857
O O16 0.000000 0.500000 0.000000
O O17 0.500000 0.500000 0.500000
O O18 0.000000 0.000000 0.000000
#
# Coordination Sequence:
#
# PCOD8017750 Si02
#       8
#     2   2   2   2   2   2   2   2
#     4  11  22  38  68  90 127 168 216 258 320 381
#     4  10  22  40  63  93 126 165 216 262 315 385
#     4  11  25  45  66  98 136 175 219 272 333 393
#     4  10  22  42  60  96 127 170 206 271 324 387
#     4  10  24  39  70  88 133 177 223 253 338 393
#     4  11  25  42  67  98 133 170 225 271 325 397
#     4  10  22  39  65  90 132 162 211 267 327 379
#     4   9  21  35  63  90 127 155 220 260 307 376
#
# _framework density 22.061304
#
# number of rings (size 3 to 8) (size 9 to 14) (size 15 to 20)
#    0.000    1.750    0.000    2.625   19.250    0.500 
#    2.250    3.750    0.000    0.000    0.000    0.000 
#    0.000    0.000    0.000    0.000    0.000    0.000 
#
# Total GULP energy -198216.912250 kJ/mol
# GULP energy per Si atom -12388.557016 kJ/mol
# Density = 2.201109 g / cm^3
# Si number density = 22.061304 Si / 1000 Ang^3
#
#
#
# Elastic Constant Matrix: (Units=GPa)
#
#
# Indices 1 2 3 4 5 6 
#
# 1 97.4627 58.4372 40.4580 12.8883 0.6566 1.4338
# 2 58.4372 111.0363 33.3847 7.1727 2.0087 1.8131
# 3 40.4580 33.3847 76.4098 23.0056 -8.2132 -5.6142
# 4 12.8883 7.1727 23.0056 38.8534 -9.8524 -1.9931
# 5 0.6566 2.0087 -8.2132 -9.8524 39.3089 17.0908
# 6 1.4338 1.8131 -5.6142 -1.9931 17.0908 37.4895
#
#
#
# Elastic Compliance Matrix: (Units=1/GPa)
#
#
# Indices 1 2 3 4 5 6 
#
# 1 0.017127 -0.007180 -0.005716 -0.001293 -0.001125 -0.000720
# 2 -0.007180 0.013493 -0.002561 0.001229 -0.000616 -0.000415
# 3 -0.005716 -0.002561 0.020314 -0.009254 0.001115 0.002384
# 4 -0.001293 0.001229 -0.009254 0.033216 0.007719 -0.003149
# 5 -0.001125 -0.000616 0.001115 0.007719 0.034142 -0.014915
# 6 -0.000720 -0.000415 0.002384 -0.003149 -0.014915 0.033711
#
#
# Mechanical properties :
#
#
# Convention : Reuss Voigt Hill
#
# Bulk Modulus (GPa) = 49.94614 61.05207 55.49910
# Shear Modulus (GPa) = 26.37284 33.30562 29.83923
#
# Velocity S-wave (km/s) = 3.46126 3.88968 3.68171
# Velocity P-wave (km/s) = 6.21792 6.92147 6.57911
#
# Compressibility (1/GPa) = 0.02002157
#
# Stress axis : x y z
#
# Youngs Moduli (GPa) = 58.38694 74.11259 49.22699
#
# Poissons Ratio (x) = 0.53209 0.28139
# Poissons Ratio (y) = 0.41919 0.12605
# Poissons Ratio (z) = 0.33374 0.18978
#
# Static dielectric constant tensor:
#      x y z
#    x 3.941300 -0.269280 -0.449010 
#    y -0.269280 4.023610 0.387770 
#    z -0.449010 0.387770 4.532660 
# 
# 
# High freq. dielectric constant tensor:
#      x y z
#    x 1.858300 -0.009700 -0.014290 
#    y -0.009700 1.858210 0.023620 
#    z -0.014290 0.023620 1.874600 
# 
# From -- ./inp_files/419100.got.cif
#   From: 2010.06.25/outbox.cif.g09.slc.cpg/sg2_210_cif.got.tgz:419100.got - 2010.06.27 13:26:56.
