data_PCOD8017323
_publ_section_title
;
Structure prediction by ZEFSAII (Michael W. Deem and Ramdas Pophale) SiO2 
 PCOD8017323
Probable space group: P -1
;
_chemical_formula_sum "Si O2"
_cell_formula_units_Z 16
_cell_length_a 5.553023
_cell_length_b 18.518575
_cell_length_c 12.649314
_cell_angle_alpha 133.579433
_cell_angle_beta 68.624892
_cell_angle_gamma 126.497371
_cell_volume 755.187848
_symmetry_space_group_name_H-M "P -1"
_symmetry_group_IT_number 2
_symmetry_cell_setting 'triclinic'
loop_
_space_group_symop_operation_xyz
x,y,z
-x,-y,-z
loop_
_atom_site_type_symbol
_atom_site_label
_atom_site_fract_x
_atom_site_fract_y
_atom_site_fract_z
Si Si1 0.264047 0.953548 0.297037
Si Si2 0.121055 0.415903 0.878717
Si Si3 0.088122 0.142642 0.548247
Si Si4 0.218091 0.444149 0.124147
Si Si5 0.896355 0.164000 0.380321
Si Si6 0.266081 0.678793 0.338047
Si Si7 0.144547 0.793961 0.960568
Si Si8 0.835309 0.863815 0.895897
O O1 0.120467 0.859160 0.132563
O O2 0.193532 0.892737 0.362885
O O3 0.110478 0.030965 0.402935
O O4 0.618333 0.031968 0.295569
O O5 0.430863 0.486483 0.836747
O O6 0.888112 0.309143 0.734064
O O7 0.160350 0.379828 0.954203
O O8 0.000000 0.500000 0.000000
O O9 0.375703 0.249978 0.668614
O O10 0.070645 0.193387 0.491238
O O11 0.121246 0.541763 0.245219
O O12 0.049512 0.344687 0.137149
O O13 0.787575 0.258203 0.489535
O O14 0.117749 0.186031 0.271031
O O15 0.483378 0.819725 0.917804
O O16 0.996027 0.828591 0.924626
O O17 0.000000 0.000000 0.000000
#
# Coordination Sequence:
#
# PCOD8017323 Si02
#       8
#     2   2   2   2   2   2   2   2
#     4  10  23  39  64 102 136 172 224 288 349 415
#     4   9  20  38  64  94 139 181 217 274 339 421
#     4  10  22  40  64 101 135 175 221 280 359 413
#     4  10  23  41  63 101 138 178 227 277 348 413
#     4  11  23  42  69  91 135 180 232 280 346 408
#     4  10  22  38  66  96 135 180 222 277 344 424
#     4  12  28  44  75 102 139 181 233 293 338 407
#     4  12  27  49  73  99 135 187 242 284 344 400
#
# _framework density 21.186782000000001
#
# number of rings (size 3 to 8) (size 9 to 14) (size 15 to 20)
#    0.000    1.500    1.250    2.250   14.000    0.000 
#    0.000    1.250    0.000    0.000    0.000    0.000 
#    0.000    0.000    0.000    0.000    0.000    0.000 
#
# Total GULP energy -198250.263507 kJ/mol
# GULP energy per Si atom -12390.641469 kJ/mol
# Density = 2.113856 g / cm^3
# Si number density = 21.186782 Si / 1000 Ang^3
#
#
#
# Elastic Constant Matrix: (Units=GPa)
#
#
# Indices 1 2 3 4 5 6 
#
# 1 113.4667 53.6073 32.5837 -10.6800 11.2780 1.8135
# 2 53.6073 128.9380 56.0707 0.1146 -3.0201 -3.5385
# 3 32.5837 56.0707 123.4854 -6.6935 -2.6383 -6.7333
# 4 -10.6800 0.1146 -6.6935 36.5316 0.1218 -4.8998
# 5 11.2780 -3.0201 -2.6383 0.1218 31.3841 -2.6196
# 6 1.8135 -3.5385 -6.7333 -4.8998 -2.6196 27.8714
#
#
#
# Elastic Compliance Matrix: (Units=1/GPa)
#
#
# Indices 1 2 3 4 5 6 
#
# 1 0.012208 -0.004773 -0.001075 0.003192 -0.005081 -0.001576
# 2 -0.004773 0.011566 -0.004013 -0.002084 0.002556 0.000683
# 3 -0.001075 -0.004013 0.010472 0.001953 0.001085 0.002536
# 4 0.003192 -0.002084 0.001953 0.029355 -0.000874 0.005078
# 5 -0.005081 0.002556 0.001085 -0.000874 0.034363 0.003993
# 6 -0.001576 0.000683 0.002536 0.005078 0.003993 0.037949
#
#
# Mechanical properties :
#
#
# Convention : Reuss Voigt Hill
#
# Bulk Modulus (GPa) = 68.86289 72.26816 70.56552
# Shear Modulus (GPa) = 31.15740 34.06600 32.61170
#
# Velocity S-wave (km/s) = 3.83901 4.01420 3.92758
# Velocity P-wave (km/s) = 7.22661 7.46118 7.34483
#
# Compressibility (1/GPa) = 0.01452161
#
# Stress axis : x y z
#
# Youngs Moduli (GPa) = 81.91642 86.46219 95.49710
#
# Poissons Ratio (x) = 0.41267 0.10270
# Poissons Ratio (y) = 0.39097 0.38326
# Poissons Ratio (z) = 0.08810 0.34700
#
# Static dielectric constant tensor:
#      x y z
#    x 4.028080 0.067150 0.017360 
#    y 0.067150 3.839370 0.066200 
#    z 0.017360 0.066200 4.286710 
# 
# 
# High freq. dielectric constant tensor:
#      x y z
#    x 1.841190 0.000220 -0.008090 
#    y 0.000220 1.809380 0.014420 
#    z -0.008090 0.014420 1.842350 
# 
# From -- ./inp_files/95349.got.cif
#   From: 2010.06.25/outbox.cif.g09.slc.cpg/sg2_48_cif.got.tgz:95349.got - 2010.06.27 13:26:56.
