data_PCOD8017680
_publ_section_title
;
Structure prediction by ZEFSAII (Michael W. Deem and Ramdas Pophale) SiO2 
 PCOD8017680
Probable space group: P -1
;
_chemical_formula_sum "Si O2"
_cell_formula_units_Z 16
_cell_length_a 9.046621
_cell_length_b 12.008945
_cell_length_c 11.088306
_cell_angle_alpha 115.037055
_cell_angle_beta 120.974467
_cell_angle_gamma 48.673411
_cell_volume 769.102030
_symmetry_space_group_name_H-M "P -1"
_symmetry_group_IT_number 2
_symmetry_cell_setting 'triclinic'
loop_
_space_group_symop_operation_xyz
x,y,z
-x,-y,-z
loop_
_atom_site_type_symbol
_atom_site_label
_atom_site_fract_x
_atom_site_fract_y
_atom_site_fract_z
Si Si1 0.919893 0.093085 0.630624
Si Si2 0.691916 0.948212 0.474104
Si Si3 0.161315 0.155265 0.934736
Si Si4 0.711141 0.436044 0.896304
Si Si5 0.054268 0.396432 0.589671
Si Si6 0.290188 0.566358 0.370275
Si Si7 0.496107 0.065166 0.845914
Si Si8 0.451610 0.337072 0.853842
O O1 0.810967 0.261955 0.622025
O O2 0.090405 0.059421 0.789738
O O3 0.767541 0.050517 0.599457
O O4 0.000000 0.000000 0.500000
O O5 0.869616 0.772026 0.489013
O O6 0.612404 0.983624 0.317858
O O7 0.500000 0.000000 0.500000
O O8 0.320233 0.165385 0.919432
O O9 0.963309 0.320386 0.963904
O O10 0.288418 0.074478 0.072996
O O11 0.660804 0.510753 0.776322
O O12 0.608584 0.342937 0.831383
O O13 0.597136 0.570644 0.002540
O O14 0.231285 0.403607 0.730204
O O15 0.000000 0.500000 0.500000
O O16 0.859035 0.462895 0.629462
O O17 0.500000 0.500000 0.500000
O O18 0.561384 0.164406 0.853555
#
# Coordination Sequence:
#
# PCOD8017680 Si02
#       8
#     2   2   2   2   2   2   2   2
#     4  11  20  42  63  90 124 160 207 251 303 367
#     4  11  24  40  63  91 125 165 199 252 311 364
#     4  10  22  39  64  89 120 159 205 254 298 366
#     4  10  22  41  61  88 120 162 204 246 304 359
#     4  11  24  42  62  92 127 159 203 258 305 362
#     4  11  24  40  65  92 121 163 207 252 305 365
#     4  10  22  41  59  91 123 156 204 253 306 355
#     4  10  22  41  61  86 126 159 199 254 301 359
#
# _framework density 20.803481999999999
#
# number of rings (size 3 to 8) (size 9 to 14) (size 15 to 20)
#    0.000    1.500    2.500    3.000    8.750    4.500 
#    4.500    0.000    0.000    0.000    0.000    0.000 
#    0.000    0.000    0.000    0.000    0.000    0.000 
#
# Total GULP energy -198336.605283 kJ/mol
# GULP energy per Si atom -12396.037830 kJ/mol
# Density = 2.075613 g / cm^3
# Si number density = 20.803482 Si / 1000 Ang^3
#
#
#
# Elastic Constant Matrix: (Units=GPa)
#
#
# Indices 1 2 3 4 5 6 
#
# 1 123.5663 15.1961 14.9806 -20.8885 -9.0490 9.0580
# 2 15.1961 39.8668 39.6504 -24.3281 -1.0573 6.5768
# 3 14.9806 39.6504 85.3149 -30.2259 -5.6152 13.4728
# 4 -20.8885 -24.3281 -30.2259 42.3218 0.0577 2.1604
# 5 -9.0490 -1.0573 -5.6152 0.0577 38.3049 2.0205
# 6 9.0580 6.5768 13.4728 2.1604 2.0205 38.2302
#
#
#
# Elastic Compliance Matrix: (Units=1/GPa)
#
#
# Indices 1 2 3 4 5 6 
#
# 1 0.009323 -0.001353 0.001358 0.004937 0.002508 -0.002866
# 2 -0.001353 0.056085 -0.018865 0.018287 -0.001372 -0.003641
# 3 0.001358 -0.018865 0.024054 0.007315 0.003640 -0.006159
# 4 0.004937 0.018287 0.007315 0.042280 0.003178 -0.009451
# 5 0.002508 -0.001372 0.003640 0.003178 0.027362 -0.003267
# 6 -0.002866 -0.003641 -0.006159 -0.009451 -0.003267 0.030340
#
#
# Mechanical properties :
#
#
# Convention : Reuss Voigt Hill
#
# Bulk Modulus (GPa) = 19.32596 43.15583 31.24089
# Shear Modulus (GPa) = 20.45748 35.69943 28.07845
#
# Velocity S-wave (km/s) = 3.13927 4.14699 3.67781
# Velocity P-wave (km/s) = 4.73814 6.61208 5.75194
#
# Compressibility (1/GPa) = 0.05174387
#
# Stress axis : x y z
#
# Youngs Moduli (GPa) = 107.26346 17.83012 41.57288
#
# Poissons Ratio (x) = 0.02412 -0.05647
# Poissons Ratio (y) = 0.14508 0.78427
# Poissons Ratio (z) = -0.14571 0.33636
#
# Static dielectric constant tensor:
#      x y z
#    x 4.262090 0.057120 -0.389170 
#    y 0.057120 3.439420 -0.350180 
#    z -0.389170 -0.350180 3.773030 
# 
# 
# High freq. dielectric constant tensor:
#      x y z
#    x 1.837090 -0.000640 -0.003220 
#    y -0.000640 1.795490 -0.000160 
#    z -0.003220 -0.000160 1.820200 
# 
# From -- ./inp_files/175300.got.cif
#   From: 2010.06.25/outbox.cif.g09.slc.cpg/sg2_88_cif.got.tgz:175300.got - 2010.06.27 13:26:56.
