data_PCOD8017858
_publ_section_title
;
Structure prediction by ZEFSAII (Michael W. Deem and Ramdas Pophale) SiO2 
 PCOD8017858
Probable space group: P -1
;
_chemical_formula_sum "Si O2"
_cell_formula_units_Z 16
_cell_length_a 9.606716
_cell_length_b 12.164146
_cell_length_c 9.134801
_cell_angle_alpha 122.807607
_cell_angle_beta 115.589917
_cell_angle_gamma 65.149476
_cell_volume 784.397063
_symmetry_space_group_name_H-M "P -1"
_symmetry_group_IT_number 2
_symmetry_cell_setting 'triclinic'
loop_
_space_group_symop_operation_xyz
x,y,z
-x,-y,-z
loop_
_atom_site_type_symbol
_atom_site_label
_atom_site_fract_x
_atom_site_fract_y
_atom_site_fract_z
Si Si1 0.495810 0.565664 0.745616
Si Si2 0.165500 0.926185 0.590573
Si Si3 0.400685 0.307577 0.626076
Si Si4 0.477942 0.961296 0.630905
Si Si5 0.909321 0.124326 0.147219
Si Si6 0.584008 0.206620 0.919347
Si Si7 0.040114 0.359088 0.499392
Si Si8 0.247143 0.631840 0.433924
O O1 0.411593 0.454343 0.689829
O O2 0.374164 0.643861 0.625802
O O3 0.673228 0.494907 0.721339
O O4 0.528856 0.674574 0.952370
O O5 0.297825 0.997152 0.637449
O O6 0.150190 0.925391 0.760799
O O7 0.213862 0.774198 0.437942
O O8 0.000000 0.000000 0.500000
O O9 0.436331 0.198636 0.428738
O O10 0.538448 0.248500 0.762813
O O11 0.221658 0.320333 0.611460
O O12 0.500000 0.000000 0.500000
O O13 0.560426 0.057289 0.835294
O O14 0.015268 0.231624 0.301384
O O15 0.764155 0.205397 0.039923
O O16 0.000000 0.000000 0.000000
O O17 0.000000 0.500000 0.500000
O O18 0.921717 0.386147 0.602068
#
# Coordination Sequence:
#
# PCOD8017858 Si02
#       8
#     2   2   2   2   2   2   2   2
#     4  11  20  42  63  96 126 172 210 273 323 400
#     4  11  24  43  69  95 130 178 223 266 331 404
#     4  11  22  38  69  92 128 175 218 263 335 397
#     4  10  24  41  65  98 128 172 224 270 325 397
#     4  11  25  43  65  98 137 170 218 280 333 382
#     4  11  23  40  64  97 133 164 221 274 329 387
#     4  11  21  41  63  95 123 171 215 265 318 401
#     4  10  22  39  67  89 129 166 223 257 337 382
#
# _framework density 20.397832000000001
#
# number of rings (size 3 to 8) (size 9 to 14) (size 15 to 20)
#    0.000    1.250    5.000    1.125   10.500    0.500 
#    2.250    0.625    0.000    0.000    0.000    0.000 
#    0.000    0.000    0.000    0.000    0.000    0.000 
#
# Total GULP energy -198264.570052 kJ/mol
# GULP energy per Si atom -12391.535628 kJ/mol
# Density = 2.035141 g / cm^3
# Si number density = 20.397832 Si / 1000 Ang^3
#
#
#
# Elastic Constant Matrix: (Units=GPa)
#
#
# Indices 1 2 3 4 5 6 
#
# 1 131.4468 32.1276 40.4187 4.5258 -0.1706 -8.4295
# 2 32.1276 105.6946 48.8707 8.1249 -3.3764 -11.9764
# 3 40.4187 48.8707 93.6394 25.6560 -5.2566 -6.4201
# 4 4.5258 8.1249 25.6560 43.6391 -15.3006 1.0274
# 5 -0.1706 -3.3764 -5.2566 -15.3006 27.1388 0.7030
# 6 -8.4295 -11.9764 -6.4201 1.0274 0.7030 36.0354
#
#
#
# Elastic Compliance Matrix: (Units=1/GPa)
#
#
# Indices 1 2 3 4 5 6 
#
# 1 0.009004 -0.001034 -0.003650 0.001366 -0.000036 0.001074
# 2 -0.001034 0.013060 -0.006646 0.002003 0.001387 0.002830
# 3 -0.003650 -0.006646 0.018414 -0.010315 -0.003113 0.000573
# 4 0.001366 0.002003 -0.010315 0.034807 0.017940 -0.002195
# 5 -0.000036 0.001387 -0.003113 0.017940 0.046571 -0.001522
# 6 0.001074 0.002830 0.000573 -0.002195 -0.001522 0.029137
#
#
# Mechanical properties :
#
#
# Convention : Reuss Voigt Hill
#
# Bulk Modulus (GPa) = 56.12347 63.73497 59.92922
# Shear Modulus (GPa) = 27.84078 35.32025 31.58051
#
# Velocity S-wave (km/s) = 3.69845 4.16573 3.93902
# Velocity P-wave (km/s) = 6.76847 7.37913 7.08038
#
# Compressibility (1/GPa) = 0.01781786
#
# Stress axis : x y z
#
# Youngs Moduli (GPa) = 111.05635 76.57136 54.30584
#
# Poissons Ratio (x) = 0.07917 0.19821
# Poissons Ratio (y) = 0.11482 0.36094
# Poissons Ratio (z) = 0.40534 0.50893
#
# Static dielectric constant tensor:
#      x y z
#    x 3.972210 -0.101460 -0.038340 
#    y -0.101460 4.042360 0.391610 
#    z -0.038340 0.391610 3.752760 
# 
# 
# High freq. dielectric constant tensor:
#      x y z
#    x 1.802020 -0.013400 -0.000020 
#    y -0.013400 1.813430 0.019990 
#    z -0.000020 0.019990 1.775840 
# 
# From -- ./inp_files/190365.got.cif
#   From: 2010.06.25/outbox.cif.g09.slc.cpg/sg2_96_cif.got.tgz:190365.got - 2010.06.27 13:26:56.
