data_PCOD8017711
_publ_section_title
;
Structure prediction by ZEFSAII (Michael W. Deem and Ramdas Pophale) SiO2 
 PCOD8017711
Probable space group: P -1
;
_chemical_formula_sum "Si O2"
_cell_formula_units_Z 16
_cell_length_a 8.821701
_cell_length_b 12.418757
_cell_length_c 17.079155
_cell_angle_alpha 39.916758
_cell_angle_beta 137.615291
_cell_angle_gamma 136.186820
_cell_volume 755.547467
_symmetry_space_group_name_H-M "P -1"
_symmetry_group_IT_number 2
_symmetry_cell_setting 'triclinic'
loop_
_space_group_symop_operation_xyz
x,y,z
-x,-y,-z
loop_
_atom_site_type_symbol
_atom_site_label
_atom_site_fract_x
_atom_site_fract_y
_atom_site_fract_z
Si Si1 0.959874 0.659011 0.347434
Si Si2 0.231735 0.074530 0.798147
Si Si3 0.771797 0.197863 0.919114
Si Si4 0.914240 0.562311 0.855085
Si Si5 0.239194 0.129169 0.344863
Si Si6 0.805654 0.627816 0.130388
Si Si7 0.378838 0.716163 0.857396
Si Si8 0.443569 0.989076 0.360380
O O1 0.774848 0.736784 0.276492
O O2 0.859797 0.591535 0.260522
O O3 0.000000 0.500000 0.500000
O O4 0.215282 0.815961 0.350629
O O5 0.490523 0.098647 0.845567
O O6 0.038175 0.001416 0.696281
O O7 0.156339 0.923256 0.922263
O O8 0.787556 0.390944 0.849087
O O9 0.952571 0.229794 0.896844
O O10 0.150049 0.707504 0.825586
O O11 0.729512 0.662667 0.748071
O O12 0.000000 0.500000 0.000000
O O13 0.340572 0.068098 0.494550
O O14 0.387820 0.118660 0.330279
O O15 0.708074 0.440272 0.152823
O O16 0.592125 0.707276 0.000278
O O17 0.474254 0.907843 0.746115
#
# Coordination Sequence:
#
# PCOD8017711 Si02
#       8
#     2   2   2   2   2   2   2   2
#     4  11  26  41  64  97 126 171 213 259 319 380
#     4  10  22  39  64  94 127 167 213 258 326 368
#     4  10  22  41  62  97 126 165 213 264 318 372
#     4  11  23  38  64  97 126 165 212 259 319 377
#     4  10  22  40  66  89 128 169 208 267 309 384
#     4  10  23  42  64  93 133 161 215 262 314 376
#     4  10  24  40  66  96 124 170 210 265 317 369
#     4  10  24  42  64  94 125 168 216 257 319 375
#
# _framework density 21.176697000000001
#
# number of rings (size 3 to 8) (size 9 to 14) (size 15 to 20)
#    0.000    1.750    1.250    1.500   12.250    3.500 
#    0.000    0.625    0.000    0.000    0.000    0.000 
#    0.000    0.000    0.000    0.000    0.000    0.000 
#
# Total GULP energy -198416.401078 kJ/mol
# GULP energy per Si atom -12401.025067 kJ/mol
# Density = 2.112850 g / cm^3
# Si number density = 21.176697 Si / 1000 Ang^3
#
#
#
# Elastic Constant Matrix: (Units=GPa)
#
#
# Indices 1 2 3 4 5 6 
#
# 1 48.1506 21.8838 42.3791 -7.3705 -2.9358 3.1431
# 2 21.8838 56.1591 42.7345 -1.8595 -2.3543 6.0109
# 3 42.3791 42.7345 158.0885 -1.8230 -0.7207 -1.3336
# 4 -7.3705 -1.8595 -1.8230 47.5352 -1.3038 0.9972
# 5 -2.9358 -2.3543 -0.7207 -1.3038 37.8034 -5.1681
# 6 3.1431 6.0109 -1.3336 0.9972 -5.1681 35.3167
#
#
#
# Elastic Compliance Matrix: (Units=1/GPa)
#
#
# Indices 1 2 3 4 5 6 
#
# 1 0.030133 -0.006593 -0.006253 0.004257 0.001730 -0.001663
# 2 -0.006593 0.024503 -0.004888 -0.000162 0.000409 -0.003704
# 3 -0.006253 -0.004888 0.009326 -0.000850 -0.000408 0.001705
# 4 0.004257 -0.000162 -0.000850 0.021702 0.000935 -0.000859
# 5 0.001730 0.000409 -0.000408 0.000935 0.027144 0.003707
# 6 -0.001663 -0.003704 0.001705 -0.000859 0.003707 0.029725
#
#
# Mechanical properties :
#
#
# Convention : Reuss Voigt Hill
#
# Bulk Modulus (GPa) = 35.09273 52.93255 44.01264
# Shear Modulus (GPa) = 26.66706 34.49112 30.57909
#
# Velocity S-wave (km/s) = 3.55246 4.04013 3.80412
# Velocity P-wave (km/s) = 5.78221 6.84204 6.33433
#
# Compressibility (1/GPa) = 0.02849593
#
# Stress axis : x y z
#
# Youngs Moduli (GPa) = 33.18569 40.81132 107.23031
#
# Poissons Ratio (x) = 0.26906 0.67050
# Poissons Ratio (y) = 0.21878 0.52410
# Poissons Ratio (z) = 0.20751 0.19947
#
# Static dielectric constant tensor:
#      x y z
#    x 3.652850 0.148650 0.097400 
#    y 0.148650 3.692780 0.096530 
#    z 0.097400 0.096530 3.801910 
# 
# 
# High freq. dielectric constant tensor:
#      x y z
#    x 1.820580 0.007080 0.011850 
#    y 0.007080 1.838420 0.001110 
#    z 0.011850 0.001110 1.832510 
# 
# From -- ./inp_files/206962.got.cif
#   From: 2010.06.25/outbox.cif.g09.slc.cpg/sg2_104_cif.got.tgz:206962.got - 2010.06.27 13:26:56.
