data_PCOD8017502
_publ_section_title
;
Structure prediction by ZEFSAII (Michael W. Deem and Ramdas Pophale) SiO2 
 PCOD8017502
Probable space group: P -1
;
_chemical_formula_sum "Si O2"
_cell_formula_units_Z 14
_cell_length_a 11.091948
_cell_length_b 8.938544
_cell_length_c 15.837964
_cell_angle_alpha 56.310346
_cell_angle_beta 131.955929
_cell_angle_gamma 145.401331
_cell_volume 663.038775
_symmetry_space_group_name_H-M "P -1"
_symmetry_group_IT_number 2
_symmetry_cell_setting 'triclinic'
loop_
_space_group_symop_operation_xyz
x,y,z
-x,-y,-z
loop_
_atom_site_type_symbol
_atom_site_label
_atom_site_fract_x
_atom_site_fract_y
_atom_site_fract_z
Si Si1 0.721938 0.308419 0.414318
Si Si2 0.350449 0.435724 0.817281
Si Si3 0.242623 0.797516 0.034939
Si Si4 0.492926 0.245925 0.497381
Si Si5 0.885388 0.804324 0.587539
Si Si6 0.211747 0.134391 0.998755
Si Si7 0.671830 0.919551 0.183387
O O1 0.713073 0.417928 0.290461
O O2 0.586174 0.306683 0.425795
O O3 0.000000 0.500000 0.500000
O O4 0.580096 0.010046 0.423426
O O5 0.154215 0.190341 0.865366
O O6 0.382342 0.332679 0.783497
O O7 0.573122 0.610093 0.927990
O O8 0.441126 0.815710 0.153702
O O9 0.000000 0.500000 0.000000
O O10 0.233130 0.937967 0.059470
O O11 0.302147 0.943933 0.930600
O O12 0.708772 0.502167 0.571982
O O13 0.257535 0.178655 0.420863
O O14 0.000000 0.000000 0.500000
O O15 0.097596 0.879552 0.712828
O O16 0.000000 0.000000 0.000000
#
# Coordination Sequence:
#
# PCOD8017502 Si02
#       7
#     2   2   2   2   2   2   2
#     4  11  23  42  64  91 128 166 211 265 315 376
#     4  10  22  40  61  85 119 160 202 251 310 367
#     4  10  22  39  61  88 119 157 203 253 307 370
#     4  10  24  40  62  96 124 167 218 255 319 385
#     4  11  23  42  64  91 129 166 209 266 319 376
#     4  10  22  39  61  89 120 157 201 251 309 374
#     4  10  22  40  61  86 118 160 204 251 309 368
#
# _framework density 21.114903999999999
#
# number of rings (size 3 to 8) (size 9 to 14) (size 15 to 20)
#    0.000    1.714    0.000    3.429    0.000   12.571 
#    0.000    0.000    0.000    0.000    0.000    0.000 
#    0.000    0.000    0.000    0.000    0.000    0.000 
#
# Total GULP energy -173516.087169 kJ/mol
# GULP energy per Si atom -12394.006226 kJ/mol
# Density = 2.106685 g / cm^3
# Si number density = 21.114904 Si / 1000 Ang^3
#
#
#
# Elastic Constant Matrix: (Units=GPa)
#
#
# Indices 1 2 3 4 5 6 
#
# 1 141.3897 52.7659 47.7095 2.2138 17.0616 9.9109
# 2 52.7659 129.3284 44.0740 -0.5845 11.6037 -9.9748
# 3 47.7095 44.0740 126.9028 3.8192 18.4931 4.8155
# 4 2.2138 -0.5845 3.8192 36.1370 2.1564 2.4882
# 5 17.0616 11.6037 18.4931 2.1564 22.2432 9.5498
# 6 9.9109 -9.9748 4.8155 2.4882 9.5498 30.0123
#
#
#
# Elastic Compliance Matrix: (Units=1/GPa)
#
#
# Indices 1 2 3 4 5 6 
#
# 1 0.009452 -0.003188 -0.001941 -0.000058 -0.002674 -0.003014
# 2 -0.003188 0.010598 -0.002148 0.000408 -0.003978 0.006152
# 3 -0.001941 -0.002148 0.010231 -0.000659 -0.005931 0.000227
# 4 -0.000058 0.000408 -0.000659 0.027957 -0.001676 -0.001524
# 5 -0.002674 -0.003978 -0.005931 -0.001676 0.062426 -0.019212
# 6 -0.003014 0.006152 0.000227 -0.001524 -0.019212 0.042563
#
#
# Mechanical properties :
#
#
# Convention : Reuss Voigt Hill
#
# Bulk Modulus (GPa) = 63.58070 76.30218 69.94144
# Shear Modulus (GPa) = 27.31890 34.54993 30.93442
#
# Velocity S-wave (km/s) = 3.60087 4.04949 3.83175
# Velocity P-wave (km/s) = 6.88952 7.62099 7.26447
#
# Compressibility (1/GPa) = 0.01572804
#
# Stress axis : x y z
#
# Youngs Moduli (GPa) = 105.79769 94.35488 97.74039
#
# Poissons Ratio (x) = 0.30079 0.18967
# Poissons Ratio (y) = 0.33727 0.20998
# Poissons Ratio (z) = 0.20530 0.20271
#
# Static dielectric constant tensor:
#      x y z
#    x 4.212310 0.023620 0.057730 
#    y 0.023620 3.996360 -0.052010 
#    z 0.057730 -0.052010 3.686190 
# 
# 
# High freq. dielectric constant tensor:
#      x y z
#    x 1.836070 -0.002570 0.003790 
#    y -0.002570 1.845860 -0.001690 
#    z 0.003790 -0.001690 1.816820 
# 
# From -- ./inp_files/27670.got.cif
#   From: 2010.06.25/outbox.cif.g09.slc.cpg/sg2_14_cif.got.tgz:27670.got - 2010.06.27 13:26:56.
