data_PCOD8017678
_publ_section_title
;
Structure prediction by ZEFSAII (Michael W. Deem and Ramdas Pophale) SiO2 
 PCOD8017678
Probable space group: P -1
;
_chemical_formula_sum "Si O2"
_cell_formula_units_Z 16
_cell_length_a 5.503974
_cell_length_b 20.129619
_cell_length_c 21.064241
_cell_angle_alpha 21.424480
_cell_angle_beta 126.433239
_cell_angle_gamma 115.180693
_cell_volume 618.083972
_symmetry_space_group_name_H-M "P -1"
_symmetry_group_IT_number 2
_symmetry_cell_setting 'triclinic'
loop_
_space_group_symop_operation_xyz
x,y,z
-x,-y,-z
loop_
_atom_site_type_symbol
_atom_site_label
_atom_site_fract_x
_atom_site_fract_y
_atom_site_fract_z
Si Si1 0.613283 0.304372 0.456398
Si Si2 0.213369 0.854076 0.244277
Si Si3 0.188065 0.195671 0.174940
Si Si4 0.747368 0.794485 0.139359
Si Si5 0.153791 0.732151 0.065391
Si Si6 0.653363 0.764202 0.652126
Si Si7 0.686749 0.381028 0.047505
Si Si8 0.905951 0.527852 0.613643
O O1 0.724936 0.135236 0.680133
O O2 0.393469 0.524553 0.253619
O O3 0.402829 0.259283 0.409956
O O4 0.950344 0.318552 0.472949
O O5 0.507056 0.653975 0.437051
O O6 0.874032 0.826456 0.200150
O O7 0.188689 0.058356 0.029916
O O8 0.381492 0.327334 0.064325
O O9 0.872306 0.311235 0.069687
O O10 0.433624 0.998131 0.427302
O O11 0.070984 0.127120 0.152161
O O12 0.355394 0.840603 0.036847
O O13 0.961064 0.562722 0.354953
O O14 0.956445 0.668317 0.144132
O O15 0.044474 0.705499 0.776993
O O16 0.541257 0.625429 0.803823
#
# Coordination Sequence:
#
# PCOD8017678 Si02
#       8
#     2   2   2   2   2   2   2   2
#     4  10  22  44  62  98 130 175 226 282 341 417
#     4  10  23  40  63  93 129 170 230 274 339 415
#     4  12  26  47  75 105 147 189 239 293 358 431
#     4  10  23  41  61  93 130 173 222 283 336 408
#     4  10  23  41  65  94 134 173 226 287 341 410
#     4  11  25  45  76 102 144 192 231 297 364 418
#     4  11  27  50  71 112 145 183 243 296 351 435
#     4  10  22  39  64  88 128 174 221 278 344 396
#
# _framework density 25.88645
#
# number of rings (size 3 to 8) (size 9 to 14) (size 15 to 20)
#    0.000    1.500    1.250    1.875    5.250    8.500 
#    6.750    2.500    0.000    0.000    0.000    0.000 
#    0.000    0.000    0.000    0.000    0.000    0.000 
#
# Total GULP energy -198317.856240 kJ/mol
# GULP energy per Si atom -12394.866015 kJ/mol
# Density = 2.582753 g / cm^3
# Si number density = 25.886450 Si / 1000 Ang^3
#
#
#
# Elastic Constant Matrix: (Units=GPa)
#
#
# Indices 1 2 3 4 5 6 
#
# 1 82.9236 21.6838 -0.8870 -1.3382 -12.8074 14.9405
# 2 21.6838 105.8444 -12.1428 35.2233 -9.3087 7.8855
# 3 -0.8870 -12.1428 79.9282 10.0577 -7.1103 7.4704
# 4 -1.3382 35.2233 10.0577 40.9947 3.9669 -3.2917
# 5 -12.8074 -9.3087 -7.1103 3.9669 18.3563 -2.0676
# 6 14.9405 7.8855 7.4704 -3.2917 -2.0676 32.9489
#
#
#
# Elastic Compliance Matrix: (Units=1/GPa)
#
#
# Indices 1 2 3 4 5 6 
#
# 1 0.015083 -0.001773 0.001260 0.000313 0.009359 -0.006082
# 2 -0.001773 0.019291 0.007445 -0.020450 0.015105 -0.006596
# 3 0.001260 0.007445 0.016996 -0.012329 0.013157 -0.006612
# 4 0.000313 -0.020450 -0.012329 0.048205 -0.024123 0.010850
# 5 0.009359 0.015105 0.013157 -0.024123 0.078036 -0.008355
# 6 -0.006082 -0.006596 -0.006612 0.010850 -0.008355 0.036745
#
#
# Mechanical properties :
#
#
# Convention : Reuss Voigt Hill
#
# Bulk Modulus (GPa) = 15.33008 31.77823 23.55415
# Shear Modulus (GPa) = 22.49836 35.79611 29.14724
#
# Velocity S-wave (km/s) = 2.95128 3.72265 3.35918
# Velocity P-wave (km/s) = 4.18907 5.54799 4.91571
#
# Compressibility (1/GPa) = 0.06523125
#
# Stress axis : x y z
#
# Youngs Moduli (GPa) = 66.30036 51.83870 58.83701
#
# Poissons Ratio (x) = 0.09193 -0.07411
# Poissons Ratio (y) = 0.11757 -0.43801
# Poissons Ratio (z) = -0.08351 -0.38592
#
# Static dielectric constant tensor:
#      x y z
#    x 4.492370 0.085700 -0.103220 
#    y 0.085700 4.876860 0.202110 
#    z -0.103220 0.202110 4.989800 
# 
# 
# High freq. dielectric constant tensor:
#      x y z
#    x 2.014720 -0.000880 -0.002450 
#    y -0.000880 2.044290 0.001310 
#    z -0.002450 0.001310 2.052820 
# 
# From -- ./inp_files/605209.got.cif
#   From: 2010.06.25/outbox.cif.g09.slc.cpg/sg2_303_cif.got.tgz:605209.got - 2010.06.27 13:26:56.
