data_PCOD8017744
_publ_section_title
;
Structure prediction by ZEFSAII (Michael W. Deem and Ramdas Pophale) SiO2 
 PCOD8017744
Probable space group: P -1
;
_chemical_formula_sum "Si O2"
_cell_formula_units_Z 16
_cell_length_a 9.030560
_cell_length_b 12.470058
_cell_length_c 19.080789
_cell_angle_alpha 38.023399
_cell_angle_beta 43.677621
_cell_angle_gamma 72.541092
_cell_volume 706.851111
_symmetry_space_group_name_H-M "P -1"
_symmetry_group_IT_number 2
_symmetry_cell_setting 'triclinic'
loop_
_space_group_symop_operation_xyz
x,y,z
-x,-y,-z
loop_
_atom_site_type_symbol
_atom_site_label
_atom_site_fract_x
_atom_site_fract_y
_atom_site_fract_z
Si Si1 0.724880 0.646830 0.080371
Si Si2 0.930384 0.778420 0.668754
Si Si3 0.658507 0.498569 0.031007
Si Si4 0.787727 0.208056 0.063950
Si Si5 0.261476 0.949368 0.158277
Si Si6 0.377835 0.431815 0.440757
Si Si7 0.803465 0.410341 0.373015
Si Si8 0.389705 0.783496 0.326887
O O1 0.735216 0.522597 0.074212
O O2 0.464679 0.459612 0.314994
O O3 0.008464 0.777770 0.958263
O O4 0.697714 0.824752 0.966582
O O5 0.644194 0.569156 0.837629
O O6 0.182649 0.779284 0.564095
O O7 0.879182 0.737319 0.791665
O O8 0.000000 0.000000 0.500000
O O9 0.644894 0.299185 0.103655
O O10 0.583823 0.956147 0.234057
O O11 0.948673 0.349519 0.866528
O O12 0.289658 0.887283 0.258723
O O13 0.952897 0.739452 0.346768
O O14 0.500000 0.000000 0.000000
O O15 0.509213 0.343748 0.486131
O O16 0.508099 0.685343 0.290497
O O17 0.847641 0.426372 0.434252
#
# Coordination Sequence:
#
# PCOD8017744 Si02
#       8
#     2   2   2   2   2   2   2   2
#     4  11  25  44  70  99 141 183 223 285 340 407
#     4  10  22  39  65 102 135 180 228 277 340 394
#     4  10  23  41  68 101 139 176 231 279 333 405
#     4  10  24  46  68 103 135 183 232 274 342 399
#     4  12  28  44  67 102 138 179 230 280 347 408
#     4  11  26  47  66 103 136 182 228 279 346 404
#     4  10  24  41  68  97 137 175 225 279 331 405
#     4  12  25  42  73  96 136 180 227 285 335 410
#
# _framework density 22.635598999999999
#
# number of rings (size 3 to 8) (size 9 to 14) (size 15 to 20)
#    0.000    1.250    1.250    2.625   10.500    2.000 
#    0.000    0.000    0.000    9.000    0.000    0.000 
#    0.000    0.000    0.000    0.000    0.000    0.000 
#
# Total GULP energy -198328.665973 kJ/mol
# GULP energy per Si atom -12395.541623 kJ/mol
# Density = 2.258408 g / cm^3
# Si number density = 22.635599 Si / 1000 Ang^3
#
#
#
# Elastic Constant Matrix: (Units=GPa)
#
#
# Indices 1 2 3 4 5 6 
#
# 1 129.8496 51.7211 46.6715 14.3313 14.5548 -12.6855
# 2 51.7211 104.6656 47.8949 8.1231 0.5347 4.9806
# 3 46.6715 47.8949 81.8074 8.7072 10.6672 0.0382
# 4 14.3313 8.1231 8.7072 33.1802 3.6733 9.7459
# 5 14.5548 0.5347 10.6672 3.6733 50.0055 3.8613
# 6 -12.6855 4.9806 0.0382 9.7459 3.8613 44.2266
#
#
#
# Elastic Compliance Matrix: (Units=1/GPa)
#
#
# Indices 1 2 3 4 5 6 
#
# 1 0.011921 -0.004156 -0.003545 -0.004395 -0.002740 0.005098
# 2 -0.004156 0.014759 -0.006679 0.000581 0.002682 -0.003211
# 3 -0.003545 -0.006679 0.018682 -0.001514 -0.002794 0.000297
# 4 -0.004395 0.000581 -0.001514 0.034968 -0.000277 -0.009006
# 5 -0.002740 0.002682 -0.002794 -0.000277 0.021608 -0.002911
# 6 0.005098 -0.003211 0.000297 -0.009006 -0.002911 0.026673
#
#
# Mechanical properties :
#
#
# Convention : Reuss Voigt Hill
#
# Bulk Modulus (GPa) = 60.23943 67.65529 63.94736
# Shear Modulus (GPa) = 30.69258 36.81815 33.75537
#
# Velocity S-wave (km/s) = 3.68631 4.03744 3.86586
# Velocity P-wave (km/s) = 6.69246 7.18946 6.94540
#
# Compressibility (1/GPa) = 0.01660042
#
# Stress axis : x y z
#
# Youngs Moduli (GPa) = 83.88433 67.75738 53.52695
#
# Poissons Ratio (x) = 0.28161 0.18976
# Poissons Ratio (y) = 0.34864 0.35753
# Poissons Ratio (z) = 0.29738 0.45258
#
# Static dielectric constant tensor:
#      x y z
#    x 4.155760 -0.139270 0.226150 
#    y -0.139270 4.022600 0.285470 
#    z 0.226150 0.285470 4.190420 
# 
# 
# High freq. dielectric constant tensor:
#      x y z
#    x 1.899570 -0.011260 0.024140 
#    y -0.011260 1.889080 0.017170 
#    z 0.024140 0.017170 1.898640 
# 
# From -- ./inp_files/447903.got.cif
#   From: 2010.06.25/outbox.cif.g09.slc.cpg/sg2_224_cif.got.tgz:447903.got - 2010.06.27 13:26:56.
