data_PCOD8017635
_publ_section_title
;
Structure prediction by ZEFSAII (Michael W. Deem and Ramdas Pophale) SiO2 
 PCOD8017635
Probable space group: P -1
;
_chemical_formula_sum "Si O2"
_cell_formula_units_Z 16
_cell_length_a 6.860789
_cell_length_b 13.855718
_cell_length_c 8.904360
_cell_angle_alpha 106.525753
_cell_angle_beta 80.890137
_cell_angle_gamma 114.838910
_cell_volume 735.689689
_symmetry_space_group_name_H-M "P -1"
_symmetry_group_IT_number 2
_symmetry_cell_setting 'triclinic'
loop_
_space_group_symop_operation_xyz
x,y,z
-x,-y,-z
loop_
_atom_site_type_symbol
_atom_site_label
_atom_site_fract_x
_atom_site_fract_y
_atom_site_fract_z
Si Si1 0.710938 0.244155 0.394394
Si Si2 0.644370 0.668656 0.475926
Si Si3 0.542403 0.429753 0.834120
Si Si4 0.924576 0.131700 0.514810
Si Si5 0.997140 0.958072 0.243833
Si Si6 0.828523 0.626365 0.731250
Si Si7 0.644234 0.761571 0.025488
Si Si8 0.564792 0.908998 0.881884
O O1 0.584448 0.320117 0.482243
O O2 0.565961 0.136105 0.273545
O O3 0.778953 0.198175 0.517149
O O4 0.919488 0.318266 0.306242
O O5 0.637194 0.602899 0.292550
O O6 0.825306 0.790798 0.502037
O O7 0.688151 0.606075 0.585834
O O8 0.770385 0.506663 0.762978
O O9 0.526099 0.317774 0.867280
O O10 0.500000 0.500000 0.000000
O O11 0.883791 0.091948 0.673955
O O12 0.873916 0.025417 0.368919
O O13 0.825978 0.861112 0.130023
O O14 0.178995 0.040157 0.150259
O O15 0.761593 0.701216 0.885140
O O16 0.505898 0.806242 0.955977
O O17 0.500000 0.000000 0.000000
#
# Coordination Sequence:
#
# PCOD8017635 Si02
#       8
#     2   2   2   2   2   2   2   2
#     4  11  22  39  64  95 129 164 214 257 315 378
#     4  11  20  43  67  91 129 162 212 266 312 384
#     4  10  23  41  69  93 120 170 213 264 326 366
#     4  10  22  39  63  93 128 170 209 261 311 379
#     4  11  21  39  61  92 130 171 214 254 316 372
#     4  10  22  42  67  92 125 170 214 259 319 375
#     4  11  21  41  65  91 133 167 214 262 310 378
#     4  12  23  36  60  95 133 172 207 257 314 377
#
# _framework density 21.748298999999999
#
# number of rings (size 3 to 8) (size 9 to 14) (size 15 to 20)
#    0.000    1.250    3.750    3.000    0.000    2.000 
#    0.000    0.625    2.750    0.000    0.000    0.000 
#    0.000    0.000    0.000    0.000    0.000    0.000 
#
# Total GULP energy -198358.715313 kJ/mol
# GULP energy per Si atom -12397.419707 kJ/mol
# Density = 2.169880 g / cm^3
# Si number density = 21.748299 Si / 1000 Ang^3
#
#
#
# Elastic Constant Matrix: (Units=GPa)
#
#
# Indices 1 2 3 4 5 6 
#
# 1 83.6615 31.0079 19.1116 -1.1714 3.7779 -6.9659
# 2 31.0079 116.8031 32.2657 -21.7423 8.8313 10.0146
# 3 19.1116 32.2657 105.1362 10.8470 7.4286 0.0552
# 4 -1.1714 -21.7423 10.8470 42.6192 2.8398 10.4864
# 5 3.7779 8.8313 7.4286 2.8398 17.5116 0.0518
# 6 -6.9659 10.0146 0.0552 10.4864 0.0518 17.0966
#
#
#
# Elastic Compliance Matrix: (Units=1/GPa)
#
#
# Indices 1 2 3 4 5 6 
#
# 1 0.015440 -0.006485 -0.000244 -0.006327 0.001027 0.013968
# 2 -0.006485 0.017179 -0.005190 0.015933 -0.007581 -0.022438
# 3 -0.000244 -0.005190 0.012002 -0.007469 -0.001232 0.007487
# 4 -0.006327 0.015933 -0.007469 0.043496 -0.010441 -0.038534
# 5 0.001027 -0.007581 -0.001232 -0.010441 0.062890 0.011077
# 6 0.013968 -0.022438 0.007487 -0.038534 0.011077 0.100903
#
#
# Mechanical properties :
#
#
# Convention : Reuss Voigt Hill
#
# Bulk Modulus (GPa) = 48.11110 52.26347 50.18729
# Shear Modulus (GPa) = 17.68816 30.32650 24.00733
#
# Velocity S-wave (km/s) = 2.85496 3.73826 3.32606
# Velocity P-wave (km/s) = 5.74783 6.53575 6.15441
#
# Compressibility (1/GPa) = 0.02078522
#
# Stress axis : x y z
#
# Youngs Moduli (GPa) = 64.76673 58.20961 83.31749
#
# Poissons Ratio (x) = 0.37746 0.02031
# Poissons Ratio (y) = 0.41998 0.43241
# Poissons Ratio (z) = 0.01579 0.30210
#
# Static dielectric constant tensor:
#      x y z
#    x 3.339340 0.046300 0.232350 
#    y 0.046300 4.406980 -0.223550 
#    z 0.232350 -0.223550 4.235360 
# 
# 
# High freq. dielectric constant tensor:
#      x y z
#    x 1.814810 0.007790 0.011800 
#    y 0.007790 1.876650 -0.001400 
#    z 0.011800 -0.001400 1.871980 
# 
# From -- ./inp_files/80097.got.cif
#   From: 2010.06.25/outbox.cif.g09.slc.cpg/sg2_41_cif.got.tgz:80097.got - 2010.06.27 13:26:56.
