data_PCOD8017611
_publ_section_title
;
Structure prediction by ZEFSAII (Michael W. Deem and Ramdas Pophale) SiO2 
 PCOD8017611
Probable space group: P -1
;
_chemical_formula_sum "Si O2"
_cell_formula_units_Z 16
_cell_length_a 12.203104
_cell_length_b 8.952285
_cell_length_c 11.301363
_cell_angle_alpha 100.174709
_cell_angle_beta 98.325046
_cell_angle_gamma 39.973176
_cell_volume 780.598743
_symmetry_space_group_name_H-M "P -1"
_symmetry_group_IT_number 2
_symmetry_cell_setting 'triclinic'
loop_
_space_group_symop_operation_xyz
x,y,z
-x,-y,-z
loop_
_atom_site_type_symbol
_atom_site_label
_atom_site_fract_x
_atom_site_fract_y
_atom_site_fract_z
Si Si1 0.788855 0.372995 0.442918
Si Si2 0.449947 0.187363 0.185796
Si Si3 0.830062 0.029105 0.527475
Si Si4 0.472918 0.878569 0.555154
Si Si5 0.188072 0.863029 0.008644
Si Si6 0.620317 0.510298 0.205062
Si Si7 0.316585 0.643606 0.243220
Si Si8 0.618844 0.054475 0.944064
O O1 0.790436 0.188352 0.437479
O O2 0.643390 0.598315 0.533906
O O3 0.748554 0.456551 0.310703
O O4 0.977907 0.239191 0.487090
O O5 0.558918 0.040607 0.301489
O O6 0.328594 0.452230 0.241760
O O7 0.337192 0.157849 0.128620
O O8 0.568804 0.102493 0.080926
O O9 0.694542 0.034131 0.505779
O O10 0.823710 0.133324 0.663470
O O11 0.500000 0.000000 0.500000
O O12 0.281582 0.686374 0.105572
O O13 0.209615 0.022786 0.049058
O O14 0.278342 0.722200 0.882896
O O15 0.000000 0.000000 0.000000
O O16 0.490612 0.556293 0.278016
O O17 0.533020 0.719297 0.130069
#
# Coordination Sequence:
#
# PCOD8017611 Si02
#       8
#     2   2   2   2   2   2   2   2
#     4  11  23  40  67  96 126 162 211 266 308 370
#     4  11  21  39  65  87 122 159 209 255 308 373
#     4  11  24  41  65  96 125 164 217 260 309 372
#     4  12  25  42  66  93 128 172 208 254 322 372
#     4  11  22  36  60  93 122 158 208 255 308 370
#     4  11  19  38  63  92 118 161 209 253 312 368
#     4  11  19  39  65  88 120 163 209 257 306 368
#     4  10  22  39  63  90 119 163 204 253 314 370
#
# _framework density 20.497084999999998
#
# number of rings (size 3 to 8) (size 9 to 14) (size 15 to 20)
#    0.000    1.000    5.000    3.375    1.750    0.500 
#    0.000    0.625    0.000    0.000    0.000    0.000 
#    0.000    0.000    0.000    0.000    0.000    0.000 
#
# Total GULP energy -198309.860183 kJ/mol
# GULP energy per Si atom -12394.366261 kJ/mol
# Density = 2.045043 g / cm^3
# Si number density = 20.497085 Si / 1000 Ang^3
#
#
#
# Elastic Constant Matrix: (Units=GPa)
#
#
# Indices 1 2 3 4 5 6 
#
# 1 152.8195 59.2355 38.6999 -10.2208 11.1326 -0.3128
# 2 59.2355 71.8192 26.1447 -5.2584 5.5850 -10.0273
# 3 38.6999 26.1447 132.3360 -9.3623 -0.7131 2.1324
# 4 -10.2208 -5.2584 -9.3623 23.8672 4.0129 -2.2966
# 5 11.1326 5.5850 -0.7131 4.0129 26.3266 -2.4486
# 6 -0.3128 -10.0273 2.1324 -2.2966 -2.4486 35.0031
#
#
#
# Elastic Compliance Matrix: (Units=1/GPa)
#
#
# Indices 1 2 3 4 5 6 
#
# 1 0.010344 -0.007932 -0.001261 0.002536 -0.003314 -0.002168
# 2 -0.007932 0.022326 -0.002095 0.001503 -0.001066 0.006476
# 3 -0.001261 -0.002095 0.008508 0.002111 0.000800 -0.000935
# 4 0.002536 0.001503 0.002111 0.045764 -0.008052 0.002764
# 5 -0.003314 -0.001066 0.000800 -0.008052 0.041043 0.001959
# 6 -0.002168 0.006476 -0.000935 0.002764 0.001959 0.030780
#
#
# Mechanical properties :
#
#
# Convention : Reuss Voigt Hill
#
# Bulk Modulus (GPa) = 53.75972 67.23721 60.49846
# Shear Modulus (GPa) = 26.66066 32.56567 29.61317
#
# Velocity S-wave (km/s) = 3.61044 3.99029 3.80511
# Velocity P-wave (km/s) = 6.60797 7.35557 6.99177
#
# Compressibility (1/GPa) = 0.01860129
#
# Stress axis : x y z
#
# Youngs Moduli (GPa) = 96.67180 44.79126 117.53569
#
# Poissons Ratio (x) = 0.35528 0.14827
# Poissons Ratio (y) = 0.76680 0.24623
# Poissons Ratio (z) = 0.12195 0.09384
#
# Static dielectric constant tensor:
#      x y z
#    x 4.101870 -0.152040 -0.255950 
#    y -0.152040 3.715140 0.059820 
#    z -0.255950 0.059820 4.003000 
# 
# 
# High freq. dielectric constant tensor:
#      x y z
#    x 1.793640 0.010650 -0.005720 
#    y 0.010650 1.773490 -0.004890 
#    z -0.005720 -0.004890 1.825790 
# 
# From -- ./inp_files/171334.got.cif
#   From: 2010.06.25/outbox.cif.g09.slc.cpg/sg2_86_cif.got.tgz:171334.got - 2010.06.27 13:26:56.
