data_PCOD8017098
_publ_section_title
;
Structure prediction by ZEFSAII (Michael W. Deem and Ramdas Pophale) SiO2 
 PCOD8017098
Probable space group: P -1
;
_chemical_formula_sum "Si O2"
_cell_formula_units_Z 14
_cell_length_a 5.527221
_cell_length_b 11.963930
_cell_length_c 16.427114
_cell_angle_alpha 130.266703
_cell_angle_beta 58.565929
_cell_angle_gamma 97.313979
_cell_volume 669.517577
_symmetry_space_group_name_H-M "P -1"
_symmetry_group_IT_number 2
_symmetry_cell_setting 'triclinic'
loop_
_space_group_symop_operation_xyz
x,y,z
-x,-y,-z
loop_
_atom_site_type_symbol
_atom_site_label
_atom_site_fract_x
_atom_site_fract_y
_atom_site_fract_z
Si Si1 0.792339 0.267856 0.298897
Si Si2 0.418850 0.299669 0.981619
Si Si3 0.822529 0.270551 0.113416
Si Si4 0.577722 0.406259 0.670082
Si Si5 0.241097 0.388893 0.555883
Si Si6 0.276610 0.972761 0.092713
Si Si7 0.653742 0.567120 0.110230
O O1 0.831147 0.199710 0.168535
O O2 0.465185 0.286170 0.400428
O O3 0.852986 0.431108 0.368144
O O4 0.045892 0.134991 0.241317
O O5 0.559574 0.121410 0.901240
O O6 0.490613 0.310623 0.878480
O O7 0.539970 0.419371 0.064774
O O8 0.069043 0.355162 0.092903
O O9 0.505616 0.407098 0.226265
O O10 0.887565 0.135492 0.972634
O O11 0.427899 0.356006 0.592895
O O12 0.437561 0.347707 0.746671
O O13 0.941414 0.338673 0.580823
O O14 0.500000 0.000000 0.000000
O O15 0.000000 0.500000 0.000000
#
# Coordination Sequence:
#
# PCOD8017098 Si02
#       7
#     2   2   2   2   2   2   2
#     4  10  22  38  59  85 126 168 208 244 303 377
#     4  11  22  36  56  96 125 158 200 244 337 367
#     4  11  21  37  57  93 127 160 198 257 318 376
#     4  11  21  39  64  85 127 150 211 263 300 363
#     4  10  24  41  59  91 119 174 212 250 298 360
#     4  12  22  35  60  90 131 164 196 256 321 372
#     4  11  21  36  63  90 122 157 202 266 313 369
#
# _framework density 20.910578000000001
#
# number of rings (size 3 to 8) (size 9 to 14) (size 15 to 20)
#    0.000    1.143    4.286    3.000    2.000    6.286 
#    0.000    0.000    0.000    1.714    0.000    0.000 
#    0.000    0.000    0.000    0.000    0.000    0.000 
#
# Total GULP energy -173510.601768 kJ/mol
# GULP energy per Si atom -12393.614412 kJ/mol
# Density = 2.086298 g / cm^3
# Si number density = 20.910578 Si / 1000 Ang^3
#
#
#
# Elastic Constant Matrix: (Units=GPa)
#
#
# Indices 1 2 3 4 5 6 
#
# 1 97.2201 27.7767 20.8050 -13.2373 -15.6788 12.1752
# 2 27.7767 103.2922 26.5734 -15.4312 -8.3649 -16.3827
# 3 20.8050 26.5734 77.9534 -13.1042 -18.8308 4.2729
# 4 -13.2373 -15.4312 -13.1042 33.8844 1.2724 -9.7202
# 5 -15.6788 -8.3649 -18.8308 1.2724 31.5337 -7.4379
# 6 12.1752 -16.3827 4.2729 -9.7202 -7.4379 33.6448
#
#
#
# Elastic Compliance Matrix: (Units=1/GPa)
#
#
# Indices 1 2 3 4 5 6 
#
# 1 0.012909 -0.003523 -0.000800 0.001552 0.003763 -0.005005
# 2 -0.003523 0.014458 -0.002686 0.007335 0.002875 0.011411
# 3 -0.000800 -0.002686 0.016866 0.004697 0.008806 0.000143
# 4 0.001552 0.007335 0.004697 0.039432 0.007583 0.015482
# 5 0.003763 0.002875 0.008806 0.007583 0.041737 0.010337
# 6 -0.005005 0.011411 0.000143 0.015482 0.010337 0.043829
#
#
# Mechanical properties :
#
#
# Convention : Reuss Voigt Hill
#
# Bulk Modulus (GPa) = 33.09631 47.64177 40.36904
# Shear Modulus (GPa) = 25.86383 33.36663 29.61523
#
# Velocity S-wave (km/s) = 3.52074 3.99893 3.76743
# Velocity P-wave (km/s) = 5.69117 6.64492 6.18645
#
# Compressibility (1/GPa) = 0.03021484
#
# Stress axis : x y z
#
# Youngs Moduli (GPa) = 77.46822 69.16596 59.28935
#
# Poissons Ratio (x) = 0.24364 0.04744
# Poissons Ratio (y) = 0.27288 0.15927
# Poissons Ratio (z) = 0.06198 0.18581
#
# Static dielectric constant tensor:
#      x y z
#    x 3.917760 -0.224480 -0.047580 
#    y -0.224480 4.022890 -0.256070 
#    z -0.047580 -0.256070 3.742770 
# 
# 
# High freq. dielectric constant tensor:
#      x y z
#    x 1.824530 -0.016270 -0.015110 
#    y -0.016270 1.805530 -0.025690 
#    z -0.015110 -0.025690 1.794290 
# 
# From -- ./inp_files/64565.got.cif
#   From: 2010.06.25/outbox.cif.g09.slc.cpg/sg2_33_cif.got.tgz:64565.got - 2010.06.27 13:26:56.
