data_PCOD8017135
_publ_section_title
;
Structure prediction by ZEFSAII (Michael W. Deem and Ramdas Pophale) SiO2 
 PCOD8017135
Probable space group: P -1
;
_chemical_formula_sum "Si O2"
_cell_formula_units_Z 12
_cell_length_a 27.939056
_cell_length_b 5.277452
_cell_length_c 22.348067
_cell_angle_alpha 126.138206
_cell_angle_beta 11.053037
_cell_angle_gamma 126.055424
_cell_volume 509.173499
_symmetry_space_group_name_H-M "P -1"
_symmetry_group_IT_number 2
_symmetry_cell_setting 'triclinic'
loop_
_space_group_symop_operation_xyz
x,y,z
-x,-y,-z
loop_
_atom_site_type_symbol
_atom_site_label
_atom_site_fract_x
_atom_site_fract_y
_atom_site_fract_z
Si Si1 0.453154 0.863810 0.103873
Si Si2 0.421367 0.697735 0.890961
Si Si3 0.571992 0.149168 0.352100
Si Si4 0.890092 0.150627 0.077890
Si Si5 0.731533 0.172862 0.496449
Si Si6 0.955233 0.790675 0.768227
O O1 0.167206 0.926772 0.481472
O O2 0.638983 0.040198 0.948894
O O3 0.500000 0.500000 0.000000
O O4 0.500000 0.000000 0.000000
O O5 0.566482 0.445064 0.715104
O O6 0.575773 0.862526 0.669749
O O7 0.169896 0.532519 0.149695
O O8 0.500000 0.500000 0.500000
O O9 0.733490 0.067906 0.199273
O O10 0.305890 0.945261 0.642035
O O11 0.747639 0.057012 0.067830
O O12 0.000000 0.500000 0.000000
O O13 0.121345 0.930170 0.757972
O O14 0.917627 0.303047 0.338564
#
# Coordination Sequence:
#
# PCOD8017135 Si02
#       6
#     2   2   2   2   2   2
#     4  11  25  46  70 101 132 170 227 285 344 412
#     4  11  24  44  71 102 133 181 226 272 352 407
#     4  10  23  40  62  99 132 178 229 275 332 400
#     4  10  22  38  60  91 136 182 229 275 326 394
#     4  10  24  41  66 100 140 179 227 275 327 402
#     4  10  24  45  69  98 140 178 221 287 335 404
#
# _framework density 23.567602999999998
#
# number of rings (size 3 to 8) (size 9 to 14) (size 15 to 20)
#    0.000    1.667    0.000    3.000    9.333    6.000 
#    3.000    0.000    0.000    0.000    0.000    0.000 
#    0.000    0.000    0.000    0.000    0.000    0.000 
#
# Total GULP energy -148697.402333 kJ/mol
# GULP energy per Si atom -12391.450194 kJ/mol
# Density = 2.351396 g / cm^3
# Si number density = 23.567603 Si / 1000 Ang^3
#
#
#
# Elastic Constant Matrix: (Units=GPa)
#
#
# Indices 1 2 3 4 5 6 
#
# 1 73.1378 47.0563 49.7336 -5.8435 9.9325 -1.0949
# 2 47.0563 157.0952 54.0891 -12.1330 1.2868 10.2150
# 3 49.7336 54.0891 107.9087 -15.9538 38.2157 2.2256
# 4 -5.8435 -12.1330 -15.9538 44.1732 8.3181 -10.1270
# 5 9.9325 1.2868 38.2157 8.3181 35.2137 -1.9456
# 6 -1.0949 10.2150 2.2256 -10.1270 -1.9456 52.4948
#
#
#
# Elastic Compliance Matrix: (Units=1/GPa)
#
#
# Indices 1 2 3 4 5 6 
#
# 1 0.022586 -0.002943 -0.012300 -0.003493 0.007976 0.001187
# 2 -0.002943 0.009304 -0.006268 -0.001927 0.007654 -0.001694
# 3 -0.012300 -0.006268 0.033018 0.015594 -0.035749 0.001247
# 4 -0.003493 -0.001927 0.015594 0.032847 -0.023344 0.005112
# 5 0.007976 0.007654 -0.035749 -0.023344 0.070085 -0.001713
# 6 0.001187 -0.001694 0.001247 0.005112 -0.001713 0.020274
#
#
# Mechanical properties :
#
#
# Convention : Reuss Voigt Hill
#
# Bulk Modulus (GPa) = 45.69063 71.09997 58.39530
# Shear Modulus (GPa) = 20.97066 38.86050 29.91558
#
# Velocity S-wave (km/s) = 2.98620 4.06506 3.56666
# Velocity P-wave (km/s) = 5.59634 7.22959 6.46475
#
# Compressibility (1/GPa) = 0.02188633
#
# Stress axis : x y z
#
# Youngs Moduli (GPa) = 44.27615 107.48439 30.28663
#
# Poissons Ratio (x) = 0.31628 0.37252
# Poissons Ratio (y) = 0.13029 0.18983
# Poissons Ratio (z) = 0.54459 0.67370
#
# Static dielectric constant tensor:
#      x y z
#    x 4.359600 0.477920 0.400130 
#    y 0.477920 4.489660 0.115150 
#    z 0.400130 0.115150 4.997730 
# 
# 
# High freq. dielectric constant tensor:
#      x y z
#    x 1.932000 0.017420 0.001970 
#    y 0.017420 1.939460 -0.004450 
#    z 0.001970 -0.004450 1.936220 
# 
# From -- ./inp_files/46442.got.cif
#   From: 2010.06.25/outbox.cif.g09.slc.cpg/sg2_24_cif.got.tgz:46442.got - 2010.06.27 13:26:56.
