data_PCOD8017926
_publ_section_title
;
Structure prediction by ZEFSAII (Michael W. Deem and Ramdas Pophale) SiO2 
 PCOD8017926
Probable space group: P -1
;
_chemical_formula_sum "Si O2"
_cell_formula_units_Z 16
_cell_length_a 7.956732
_cell_length_b 11.609274
_cell_length_c 14.591282
_cell_angle_alpha 31.928866
_cell_angle_beta 88.052918
_cell_angle_gamma 88.909312
_cell_volume 712.284317
_symmetry_space_group_name_H-M "P -1"
_symmetry_group_IT_number 2
_symmetry_cell_setting 'triclinic'
loop_
_space_group_symop_operation_xyz
x,y,z
-x,-y,-z
loop_
_atom_site_type_symbol
_atom_site_label
_atom_site_fract_x
_atom_site_fract_y
_atom_site_fract_z
Si Si1 0.175540 0.272162 0.308135
Si Si2 0.781634 0.718143 0.347648
Si Si3 0.174945 0.096493 0.963984
Si Si4 0.703864 0.085525 0.579310
Si Si5 0.673608 0.942627 0.376194
Si Si6 0.817694 0.474546 0.211223
Si Si7 0.808168 0.418800 0.052306
Si Si8 0.179809 0.772783 0.327189
O O1 0.175101 0.056462 0.390923
O O2 0.269921 0.224680 0.433249
O O3 0.988416 0.340187 0.289681
O O4 0.268886 0.464769 0.115354
O O5 0.721736 0.830025 0.177908
O O6 0.675007 0.817442 0.364408
O O7 0.736962 0.462348 0.514175
O O8 0.979005 0.754404 0.336104
O O9 0.141891 0.296577 0.897423
O O10 0.261763 0.905851 0.149841
O O11 0.000000 0.000000 0.000000
O O12 0.515914 0.983445 0.650844
O O13 0.694608 0.331034 0.374503
O O14 0.780364 0.089543 0.676093
O O15 0.791626 0.157798 0.222086
O O16 0.728973 0.499947 0.095709
O O17 0.000000 0.500000 0.000000
#
# Coordination Sequence:
#
# PCOD8017926 Si02
#       8
#     2   2   2   2   2   2   2   2
#     4  11  25  42  70  93 129 172 216 267 322 382
#     4  10  23  41  67  94 128 168 222 265 317 380
#     4  10  22  39  68  99 127 156 221 280 311 369
#     4  12  24  44  65  96 136 174 211 266 330 389
#     4  12  27  43  64  96 139 172 211 266 329 389
#     4  11  22  42  70  99 125 170 219 269 322 382
#     4  10  25  41  68  99 124 167 221 268 318 386
#     4  10  22  41  69  95 125 169 218 271 319 375
#
# _framework density 22.462938999999999
#
# number of rings (size 3 to 8) (size 9 to 14) (size 15 to 20)
#    0.000    1.250    2.500    2.250   15.750    1.000 
#    2.250    0.625    0.000    0.000    0.000    0.000 
#    0.000    0.000    0.000    0.000    0.000    0.000 
#
# Total GULP energy -198338.389754 kJ/mol
# GULP energy per Si atom -12396.149360 kJ/mol
# Density = 2.241181 g / cm^3
# Si number density = 22.462939 Si / 1000 Ang^3
#
#
#
# Elastic Constant Matrix: (Units=GPa)
#
#
# Indices 1 2 3 4 5 6 
#
# 1 38.1079 14.4665 24.7557 -2.8701 -6.2459 -2.6533
# 2 14.4665 147.3824 61.7045 18.2424 4.3708 -3.2799
# 3 24.7557 61.7045 177.7647 28.8708 14.5461 7.3561
# 4 -2.8701 18.2424 28.8708 49.2527 11.1990 7.0521
# 5 -6.2459 4.3708 14.5461 11.1990 16.7370 0.3181
# 6 -2.6533 -3.2799 7.3561 7.0521 0.3181 14.5262
#
#
#
# Elastic Compliance Matrix: (Units=1/GPa)
#
#
# Indices 1 2 3 4 5 6 
#
# 1 0.034389 -0.001175 -0.006336 0.000880 0.017899 0.008405
# 2 -0.001175 0.008359 -0.002604 -0.002522 0.001249 0.004188
# 3 -0.006336 -0.002604 0.008567 -0.001960 -0.007725 -0.004963
# 4 0.000880 -0.002522 -0.001960 0.027801 -0.015673 -0.012570
# 5 0.017899 0.001249 -0.007725 -0.015673 0.083050 0.013254
# 6 0.008405 0.004188 -0.004963 -0.012570 0.013254 0.079647
#
#
# Mechanical properties :
#
#
# Convention : Reuss Voigt Hill
#
# Bulk Modulus (GPa) = 32.17073 62.78983 47.48028
# Shear Modulus (GPa) = 18.35495 33.59174 25.97334
#
# Velocity S-wave (km/s) = 2.86163 3.87127 3.40409
# Velocity P-wave (km/s) = 5.02707 6.92789 6.05256
#
# Compressibility (1/GPa) = 0.03108416
#
# Stress axis : x y z
#
# Youngs Moduli (GPa) = 29.07913 119.63348 116.72116
#
# Poissons Ratio (x) = 0.14060 0.73960
# Poissons Ratio (y) = 0.03418 0.30391
# Poissons Ratio (z) = 0.18426 0.31150
#
# Static dielectric constant tensor:
#      x y z
#    x 3.525950 0.140660 0.160980 
#    y 0.140660 4.273150 0.469130 
#    z 0.160980 0.469130 4.941890 
# 
# 
# High freq. dielectric constant tensor:
#      x y z
#    x 1.836130 0.008920 0.001850 
#    y 0.008920 1.897630 0.012740 
#    z 0.001850 0.012740 1.912900 
# 
# From -- ./inp_files/446633.got.cif
#   From: 2010.06.25/outbox.cif.g09.slc.cpg/sg2_224_cif.got.tgz:446633.got - 2010.06.27 13:26:56.
