data_PCOD8017666
_publ_section_title
;
Structure prediction by ZEFSAII (Michael W. Deem and Ramdas Pophale) SiO2 
 PCOD8017666
Probable space group: P -1
;
_chemical_formula_sum "Si O2"
_cell_formula_units_Z 16
_cell_length_a 11.136720
_cell_length_b 12.194268
_cell_length_c 11.251574
_cell_angle_alpha 103.768683
_cell_angle_beta 66.210029
_cell_angle_gamma 48.183720
_cell_volume 696.986206
_symmetry_space_group_name_H-M "P -1"
_symmetry_group_IT_number 2
_symmetry_cell_setting 'triclinic'
loop_
_space_group_symop_operation_xyz
x,y,z
-x,-y,-z
loop_
_atom_site_type_symbol
_atom_site_label
_atom_site_fract_x
_atom_site_fract_y
_atom_site_fract_z
Si Si1 0.860754 0.317264 0.741713
Si Si2 0.756359 0.741369 0.808193
Si Si3 0.937095 0.489272 0.147626
Si Si4 0.895614 0.253751 0.078616
Si Si5 0.386013 0.853179 0.467979
Si Si6 0.323538 0.773397 0.698979
Si Si7 0.801959 0.490695 0.577959
Si Si8 0.514249 0.375809 0.837705
O O1 0.910334 0.335079 0.600061
O O2 0.761984 0.261566 0.752067
O O3 0.652488 0.540674 0.959647
O O4 0.132181 0.115930 0.651120
O O5 0.698115 0.684908 0.723834
O O6 0.872726 0.605757 0.850625
O O7 0.969161 0.665022 0.646738
O O8 0.500000 0.000000 0.000000
O O9 0.961508 0.335431 0.095080
O O10 0.641379 0.738043 0.362794
O O11 0.000000 0.500000 0.000000
O O12 0.807147 0.252195 0.233475
O O13 0.670159 0.407613 0.111380
O O14 0.146674 0.008442 0.866746
O O15 0.384642 0.744655 0.527616
O O16 0.397665 0.799386 0.314130
O O17 0.577726 0.591519 0.627894
#
# Coordination Sequence:
#
# PCOD8017666 Si02
#       8
#     2   2   2   2   2   2   2   2
#     4  11  23  42  64  98 137 172 219 268 339 397
#     4  11  26  47  66  95 134 178 232 272 334 397
#     4  11  26  45  68  99 136 176 230 279 328 400
#     4  10  22  40  71 100 135 176 216 281 341 391
#     4  11  24  41  69  98 133 177 226 269 338 398
#     4  11  21  44  69 104 135 171 226 278 342 401
#     4  11  25  43  68  96 133 180 222 278 331 405
#     4  10  22  39  63  98 137 166 213 273 326 401
#
# _framework density 22.955978999999999
#
# number of rings (size 3 to 8) (size 9 to 14) (size 15 to 20)
#    0.000    1.250    3.750    1.125    5.250    3.000 
#    0.000    1.250    0.000    0.000    0.000    0.000 
#    0.000    0.000    0.000    0.000    0.000    0.000 
#
# Total GULP energy -198402.291468 kJ/mol
# GULP energy per Si atom -12400.143217 kJ/mol
# Density = 2.290373 g / cm^3
# Si number density = 22.955979 Si / 1000 Ang^3
#
#
#
# Elastic Constant Matrix: (Units=GPa)
#
#
# Indices 1 2 3 4 5 6 
#
# 1 62.7336 11.4347 26.2990 3.3646 -2.0884 -2.2353
# 2 11.4347 105.2193 41.0756 -16.4116 -15.1896 -7.4237
# 3 26.2990 41.0756 112.3125 -5.9941 -14.2887 0.1566
# 4 3.3646 -16.4116 -5.9941 50.0831 -6.9302 -2.1108
# 5 -2.0884 -15.1896 -14.2887 -6.9302 27.4585 -1.4043
# 6 -2.2353 -7.4237 0.1566 -2.1108 -1.4043 36.3699
#
#
#
# Elastic Compliance Matrix: (Units=1/GPa)
#
#
# Indices 1 2 3 4 5 6 
#
# 1 0.017961 -0.000852 -0.004247 -0.002217 -0.001836 0.000749
# 2 -0.000852 0.012881 -0.003401 0.004930 0.006696 0.003136
# 3 -0.004247 -0.003401 0.011729 0.001115 0.004141 -0.000781
# 4 -0.002217 0.004930 0.001115 0.023237 0.009135 0.002566
# 5 -0.001836 0.006696 0.004141 0.009135 0.044621 0.003489
# 6 0.000749 0.003136 -0.000781 0.002566 0.003489 0.028468
#
#
# Mechanical properties :
#
#
# Convention : Reuss Voigt Hill
#
# Bulk Modulus (GPa) = 39.10643 48.65379 43.88011
# Shear Modulus (GPa) = 30.40976 36.21272 33.31124
#
# Velocity S-wave (km/s) = 3.64359 3.97607 3.81345
# Velocity P-wave (km/s) = 5.89690 6.50532 6.20857
#
# Compressibility (1/GPa) = 0.02557124
#
# Stress axis : x y z
#
# Youngs Moduli (GPa) = 55.67749 77.63401 85.25602
#
# Poissons Ratio (x) = 0.06614 0.36209
# Poissons Ratio (y) = 0.04743 0.28994
# Poissons Ratio (z) = 0.23647 0.26402
#
# Static dielectric constant tensor:
#      x y z
#    x 3.950090 -0.218790 -0.166170 
#    y -0.218790 4.051280 -0.181700 
#    z -0.166170 -0.181700 4.318620 
# 
# 
# High freq. dielectric constant tensor:
#      x y z
#    x 1.891150 -0.012030 -0.009670 
#    y -0.012030 1.902830 -0.010950 
#    z -0.009670 -0.010950 1.923690 
# 
# From -- ./inp_files/428365.got.cif
#   From: 2010.06.25/outbox.cif.g09.slc.cpg/sg2_215_cif.got.tgz:428365.got - 2010.06.27 13:26:56.
