data_PCOD8017783
_publ_section_title
;
Structure prediction by ZEFSAII (Michael W. Deem and Ramdas Pophale) SiO2 
 PCOD8017783
Probable space group: P -1
;
_chemical_formula_sum "Si O2"
_cell_formula_units_Z 16
_cell_length_a 14.478210
_cell_length_b 16.109579
_cell_length_c 15.218649
_cell_angle_alpha 36.653116
_cell_angle_beta 161.161003
_cell_angle_gamma 141.938418
_cell_volume 676.950808
_symmetry_space_group_name_H-M "P -1"
_symmetry_group_IT_number 2
_symmetry_cell_setting 'triclinic'
loop_
_space_group_symop_operation_xyz
x,y,z
-x,-y,-z
loop_
_atom_site_type_symbol
_atom_site_label
_atom_site_fract_x
_atom_site_fract_y
_atom_site_fract_z
Si Si1 0.184586 0.124337 0.010526
Si Si2 0.894069 0.415239 0.733731
Si Si3 0.580229 0.146493 0.112443
Si Si4 0.707992 0.764279 0.661999
Si Si5 0.743377 0.889790 0.402902
Si Si6 0.177384 0.435601 0.787361
Si Si7 0.232446 0.938032 0.459701
Si Si8 0.189056 0.291494 0.531271
O O1 0.140111 0.268498 0.893447
O O2 0.075708 0.122282 0.811775
O O3 0.511773 0.096927 0.343180
O O4 0.000000 0.000000 0.000000
O O5 0.633403 0.289704 0.591528
O O6 0.761391 0.541492 0.555188
O O7 0.061288 0.475077 0.744861
O O8 0.125182 0.360763 0.051439
O O9 0.690190 0.139816 0.316478
O O10 0.861471 0.243853 0.243344
O O11 0.509003 0.990592 0.136549
O O12 0.294856 0.220840 0.776605
O O13 0.822487 0.808752 0.630107
O O14 0.769286 0.896604 0.669773
O O15 0.619541 0.770477 0.321111
O O16 0.000000 0.000000 0.500000
O O17 0.000000 0.500000 0.500000
O O18 0.500000 0.500000 0.000000
#
# Coordination Sequence:
#
# PCOD8017783 Si02
#       8
#     2   2   2   2   2   2   2   2
#     4  12  25  43  69  99 134 178 237 291 349 425
#     4  12  27  45  67  98 142 189 231 277 362 431
#     4  10  22  39  65  96 132 171 219 291 330 392
#     4  11  24  45  69 101 145 182 224 292 350 418
#     4   9  22  43  70 105 137 178 232 290 346 400
#     4  12  28  47  71 102 145 186 235 304 360 421
#     4  11  23  40  69  95 127 172 231 279 343 405
#     4  11  23  40  67  95 138 175 229 269 336 421
#
# _framework density 23.635394999999999
#
# number of rings (size 3 to 8) (size 9 to 14) (size 15 to 20)
#    0.000    1.000    0.000    6.000    5.250    8.000 
#    0.000    0.000    0.000    0.000    0.000    0.000 
#    0.000    0.000    0.000    0.000    0.000    0.000 
#
# Total GULP energy -198305.781565 kJ/mol
# GULP energy per Si atom -12394.111348 kJ/mol
# Density = 2.358160 g / cm^3
# Si number density = 23.635395 Si / 1000 Ang^3
#
#
#
# Elastic Constant Matrix: (Units=GPa)
#
#
# Indices 1 2 3 4 5 6 
#
# 1 87.9066 23.5353 29.4106 -9.3858 -15.0225 12.1398
# 2 23.5353 106.5266 30.6716 -14.7795 -4.6265 -11.7886
# 3 29.4106 30.6716 133.9977 -11.5013 -10.3841 6.2432
# 4 -9.3858 -14.7795 -11.5013 48.9111 7.2773 2.7930
# 5 -15.0225 -4.6265 -10.3841 7.2773 24.2687 -2.2085
# 6 12.1398 -11.7886 6.2432 2.7930 -2.2085 39.6294
#
#
#
# Elastic Compliance Matrix: (Units=1/GPa)
#
#
# Indices 1 2 3 4 5 6 
#
# 1 0.014671 -0.002852 -0.001729 0.000754 0.007142 -0.004725
# 2 -0.002852 0.011373 -0.002045 0.002271 -0.000755 0.004377
# 3 -0.001729 -0.002045 0.008592 0.000879 0.001826 -0.001392
# 4 0.000754 0.002271 0.000879 0.022404 -0.005587 -0.001584
# 5 0.007142 -0.000755 0.001826 -0.005587 0.047973 0.000367
# 6 -0.004725 0.004377 -0.001392 -0.001584 0.000367 0.028335
#
#
# Mechanical properties :
#
#
# Convention : Reuss Voigt Hill
#
# Bulk Modulus (GPa) = 46.76123 55.07399 50.91761
# Shear Modulus (GPa) = 32.52517 38.88272 35.70394
#
# Velocity S-wave (km/s) = 3.71364 4.06039 3.89088
# Velocity P-wave (km/s) = 6.18187 6.73309 6.46335
#
# Compressibility (1/GPa) = 0.02138524
#
# Stress axis : x y z
#
# Youngs Moduli (GPa) = 68.16043 87.92996 116.38531
#
# Poissons Ratio (x) = 0.25074 0.20123
# Poissons Ratio (y) = 0.19437 0.23798
# Poissons Ratio (z) = 0.11785 0.17980
#
# Static dielectric constant tensor:
#      x y z
#    x 5.079770 -0.381640 0.318950 
#    y -0.381640 4.405380 -0.040840 
#    z 0.318950 -0.040840 4.720550 
# 
# 
# High freq. dielectric constant tensor:
#      x y z
#    x 1.937080 -0.005740 -0.004010 
#    y -0.005740 1.932240 -0.008880 
#    z -0.004010 -0.008880 1.947380 
# 
# From -- ./inp_files/534307.got.cif
#   From: 2010.06.25/outbox.cif.g09.slc.cpg/sg2_268_cif.got.tgz:534307.got - 2010.06.27 13:26:56.
