data_PCOD8017818
_publ_section_title
;
Structure prediction by ZEFSAII (Michael W. Deem and Ramdas Pophale) SiO2 
 PCOD8017818
Probable space group: P -1
;
_chemical_formula_sum "Si O2"
_cell_formula_units_Z 14
_cell_length_a 19.440317
_cell_length_b 9.907036
_cell_length_c 13.181690
_cell_angle_alpha 130.443973
_cell_angle_beta 26.054415
_cell_angle_gamma 141.115867
_cell_volume 688.094555
_symmetry_space_group_name_H-M "P -1"
_symmetry_group_IT_number 2
_symmetry_cell_setting 'triclinic'
loop_
_space_group_symop_operation_xyz
x,y,z
-x,-y,-z
loop_
_atom_site_type_symbol
_atom_site_label
_atom_site_fract_x
_atom_site_fract_y
_atom_site_fract_z
Si Si1 0.550024 0.329467 0.358669
Si Si2 0.347889 0.673118 0.293309
Si Si3 0.663251 0.060524 0.393431
Si Si4 0.375724 0.985834 0.250033
Si Si5 0.056697 0.362436 0.915590
Si Si6 0.747594 0.774475 0.782995
Si Si7 0.137308 0.118380 0.534492
O O1 0.500000 0.500000 0.500000
O O2 0.510498 0.203231 0.244479
O O3 0.779551 0.467736 0.139493
O O4 0.416953 0.154528 0.537636
O O5 0.287647 0.734202 0.504814
O O6 0.228289 0.414537 0.308907
O O7 0.305153 0.769948 0.301591
O O8 0.569169 0.761685 0.059960
O O9 0.500000 0.000000 0.500000
O O10 0.868408 0.146154 0.111266
O O11 0.187774 0.968710 0.451977
O O12 0.500000 0.000000 0.000000
O O13 0.157604 0.291463 0.670894
O O14 0.000000 0.500000 0.000000
O O15 0.718731 0.764644 0.694563
O O16 0.928628 0.991922 0.697692
#
# Coordination Sequence:
#
# PCOD8017818 Si02
#       7
#     2   2   2   2   2   2   2
#     4  11  25  45  67  98 136 176 222 276 332 395
#     4  10  22  41  62  94 129 168 212 272 326 388
#     4  11  23  41  68  98 131 169 225 270 326 400
#     4  11  23  43  65  93 134 174 213 272 335 390
#     4  12  24  42  71  99 129 179 221 272 338 391
#     4  10  22  39  66  92 127 167 221 270 319 393
#     4  11  23  41  65  95 128 169 224 265 328 396
#
# _framework density 20.346042000000001
#
# number of rings (size 3 to 8) (size 9 to 14) (size 15 to 20)
#    0.000    1.143    4.286    1.714    2.000    2.286 
#    2.571    0.000    0.000    0.000    0.000    0.000 
#    0.000    0.000    0.000    0.000    0.000    0.000 
#
# Total GULP energy -173599.324155 kJ/mol
# GULP energy per Si atom -12399.951725 kJ/mol
# Density = 2.029973 g / cm^3
# Si number density = 20.346042 Si / 1000 Ang^3
#
#
#
# Elastic Constant Matrix: (Units=GPa)
#
#
# Indices 1 2 3 4 5 6 
#
# 1 111.9393 37.0818 28.8569 6.0803 1.1193 -9.1401
# 2 37.0818 84.8596 27.0238 3.4506 -0.3762 -17.6073
# 3 28.8569 27.0238 58.6980 1.7490 4.2077 1.0190
# 4 6.0803 3.4506 1.7490 40.6097 1.5504 -9.5194
# 5 1.1193 -0.3762 4.2077 1.5504 35.4445 6.7579
# 6 -9.1401 -17.6073 1.0190 -9.5194 6.7579 38.8085
#
#
#
# Elastic Compliance Matrix: (Units=1/GPa)
#
#
# Indices 1 2 3 4 5 6 
#
# 1 0.011207 -0.003408 -0.003923 -0.000991 -0.000065 0.000965
# 2 -0.003408 0.016690 -0.006137 0.001076 -0.000419 0.007268
# 3 -0.003923 -0.006137 0.022009 -0.000751 -0.001726 -0.004170
# 4 -0.000991 0.001076 -0.000751 0.026491 -0.002398 0.007190
# 5 -0.000065 -0.000419 -0.001726 -0.002398 0.029648 -0.005911
# 6 0.000965 0.007268 -0.004170 0.007190 -0.005911 0.032195
#
#
# Mechanical properties :
#
#
# Convention : Reuss Voigt Hill
#
# Bulk Modulus (GPa) = 43.53426 49.04687 46.29056
# Shear Modulus (GPa) = 28.93012 33.80817 31.36915
#
# Velocity S-wave (km/s) = 3.77491 4.08077 3.93081
# Velocity P-wave (km/s) = 6.35950 6.80898 6.58808
#
# Compressibility (1/GPa) = 0.02297041
#
# Stress axis : x y z
#
# Youngs Moduli (GPa) = 89.23118 59.91680 45.43639
#
# Poissons Ratio (x) = 0.20417 0.17826
# Poissons Ratio (y) = 0.30407 0.27883
# Poissons Ratio (z) = 0.35007 0.36769
#
# Static dielectric constant tensor:
#      x y z
#    x 3.245260 -0.468240 0.000040 
#    y -0.468240 3.467850 -0.008690 
#    z 0.000040 -0.008690 3.876260 
# 
# 
# High freq. dielectric constant tensor:
#      x y z
#    x 1.805550 -0.003330 0.002010 
#    y -0.003330 1.797430 0.010950 
#    z 0.002010 0.010950 1.796550 
# 
# From -- ./inp_files/175883.got.cif
#   From: 2010.06.25/outbox.cif.g09.slc.cpg/sg2_88_cif.got.tgz:175883.got - 2010.06.27 13:26:56.
