data_PCOD8017425
_publ_section_title
;
Structure prediction by ZEFSAII (Michael W. Deem and Ramdas Pophale) SiO2 
 PCOD8017425
Probable space group: P -1
;
_chemical_formula_sum "Si O2"
_cell_formula_units_Z 16
_cell_length_a 14.083000
_cell_length_b 11.500734
_cell_length_c 12.329032
_cell_angle_alpha 103.653528
_cell_angle_beta 129.249714
_cell_angle_gamma 32.818276
_cell_volume 594.825351
_symmetry_space_group_name_H-M "P -1"
_symmetry_group_IT_number 2
_symmetry_cell_setting 'triclinic'
loop_
_space_group_symop_operation_xyz
x,y,z
-x,-y,-z
loop_
_atom_site_type_symbol
_atom_site_label
_atom_site_fract_x
_atom_site_fract_y
_atom_site_fract_z
Si Si1 0.393134 0.208808 0.818535
Si Si2 0.015785 0.206028 0.955600
Si Si3 0.047319 0.641380 0.488401
Si Si4 0.668738 0.716683 0.956921
Si Si5 0.257251 0.314674 0.364046
Si Si6 0.272417 0.839625 0.625488
Si Si7 0.496526 0.338103 0.466208
Si Si8 0.591870 0.331600 0.768165
O O1 0.083593 0.538936 0.607586
O O2 0.400639 0.248318 0.957097
O O3 0.680066 0.994623 0.904269
O O4 0.405053 0.049382 0.788609
O O5 0.762503 0.513319 0.909077
O O6 0.101815 0.005959 0.037786
O O7 0.841959 0.317923 0.746461
O O8 0.095206 0.505204 0.397736
O O9 0.296905 0.525119 0.645573
O O10 0.740553 0.004902 0.314266
O O11 0.983617 0.513741 0.132820
O O12 0.470765 0.220347 0.440881
O O13 0.500000 0.000000 0.500000
O O14 0.241389 0.873149 0.480338
O O15 0.572264 0.494222 0.810048
O O16 0.000000 0.000000 0.500000
O O17 0.586342 0.330636 0.634202
#
# Coordination Sequence:
#
# PCOD8017425 Si02
#       8
#     2   2   2   2   2   2   2   2
#     4  10  22  39  58  90 132 180 212 269 324 377
#     4  11  23  43  67  97 136 172 226 266 328 404
#     4   9  21  38  65  91 129 168 219 268 326 394
#     4  11  23  39  62  91 142 176 214 270 325 389
#     4  11  23  39  62  99 131 173 228 255 323 408
#     4  10  22  43  67  95 129 166 217 284 337 384
#     4  11  23  40  70  95 128 177 217 270 332 391
#     4   9  21  43  67  93 125 167 219 275 337 386
#
# _framework density 26.898651000000001
#
# number of rings (size 3 to 8) (size 9 to 14) (size 15 to 20)
#    0.000    1.750    1.250    3.000    5.250    3.000 
#    2.250    0.000    2.750    4.500    0.000    0.000 
#    0.000    0.000    0.000    0.000    0.000    0.000 
#
# Total GULP energy -198270.300678 kJ/mol
# GULP energy per Si atom -12391.893792 kJ/mol
# Density = 2.683743 g / cm^3
# Si number density = 26.898651 Si / 1000 Ang^3
#
#
#
# Elastic Constant Matrix: (Units=GPa)
#
#
# Indices 1 2 3 4 5 6 
#
# 1 154.2623 92.4454 43.4535 -9.0003 -16.1422 22.5073
# 2 92.4454 146.8580 69.6280 -41.4925 -21.8459 26.7250
# 3 43.4535 69.6280 142.3491 -28.9899 -35.7147 27.3635
# 4 -9.0003 -41.4925 -28.9899 47.1543 -0.5074 -4.4859
# 5 -16.1422 -21.8459 -35.7147 -0.5074 43.1156 -5.3412
# 6 22.5073 26.7250 27.3635 -4.4859 -5.3412 58.7786
#
#
#
# Elastic Compliance Matrix: (Units=1/GPa)
#
#
# Indices 1 2 3 4 5 6 
#
# 1 0.011455 -0.008545 -0.000484 -0.005709 -0.000604 -0.000766
# 2 -0.008545 0.017742 -0.002048 0.012523 0.003928 -0.002529
# 3 -0.000484 -0.002048 0.011971 0.005241 0.008350 -0.003298
# 4 -0.005709 0.012523 0.005241 0.034209 0.008636 -0.002552
# 5 -0.000604 0.003928 0.008350 0.008636 0.031741 -0.001899
# 6 -0.000766 -0.002529 -0.003298 -0.002552 -0.001899 0.019624
#
#
# Mechanical properties :
#
#
# Convention : Reuss Voigt Hill
#
# Bulk Modulus (GPa) = 52.59145 94.94702 73.76923
# Shear Modulus (GPa) = 32.20958 45.67252 38.94105
#
# Velocity S-wave (km/s) = 3.46416 4.12509 3.80899
# Velocity P-wave (km/s) = 5.96613 7.61992 6.84317
#
# Compressibility (1/GPa) = 0.01901450
#
# Stress axis : x y z
#
# Youngs Moduli (GPa) = 87.29822 56.36424 83.53697
#
# Poissons Ratio (x) = 0.48162 0.04045
# Poissons Ratio (y) = 0.74594 0.17105
# Poissons Ratio (z) = 0.04227 0.11541
#
# Static dielectric constant tensor:
#      x y z
#    x 6.105470 0.168410 0.197360 
#    y 0.168410 5.427850 -0.735980 
#    z 0.197360 -0.735980 5.425920 
# 
# 
# High freq. dielectric constant tensor:
#      x y z
#    x 2.145090 0.015700 0.022000 
#    y 0.015700 2.082840 -0.029940 
#    z 0.022000 -0.029940 2.093310 
# 
# From -- ./inp_files/452499.got.cif
#   From: 2010.06.25/outbox.cif.g09.slc.cpg/sg2_227_cif.got.tgz:452499.got - 2010.06.27 13:26:56.
