data_PCOD8017717
_publ_section_title
;
Structure prediction by ZEFSAII (Michael W. Deem and Ramdas Pophale) SiO2 
 PCOD8017717
Probable space group: P -1
;
_chemical_formula_sum "Si O2"
_cell_formula_units_Z 16
_cell_length_a 15.816927
_cell_length_b 8.732595
_cell_length_c 9.475924
_cell_angle_alpha 90.658817
_cell_angle_beta 127.872734
_cell_angle_gamma 125.475686
_cell_volume 690.064362
_symmetry_space_group_name_H-M "P -1"
_symmetry_group_IT_number 2
_symmetry_cell_setting 'triclinic'
loop_
_space_group_symop_operation_xyz
x,y,z
-x,-y,-z
loop_
_atom_site_type_symbol
_atom_site_label
_atom_site_fract_x
_atom_site_fract_y
_atom_site_fract_z
Si Si1 0.777324 0.923836 0.515968
Si Si2 0.198370 0.976446 0.771711
Si Si3 0.716771 0.453059 0.879744
Si Si4 0.932198 0.769049 0.711132
Si Si5 0.036142 0.712925 0.082130
Si Si6 0.600841 0.094676 0.961897
Si Si7 0.439633 0.421295 0.196513
Si Si8 0.601565 0.303327 0.460558
O O1 0.836231 0.050612 0.428836
O O2 0.889349 0.901974 0.678416
O O3 0.591419 0.682281 0.304263
O O4 0.798591 0.081220 0.658658
O O5 0.342778 0.245874 0.963952
O O6 0.029571 0.837050 0.669867
O O7 0.249159 0.858070 0.862490
O O8 0.663429 0.325342 0.974183
O O9 0.681861 0.597261 0.844898
O O10 0.634479 0.288840 0.655278
O O11 0.904970 0.629569 0.059212
O O12 0.766133 0.498905 0.543432
O O13 0.042873 0.830442 0.954527
O O14 0.000000 0.500000 0.000000
O O15 0.491970 0.927043 0.718460
O O16 0.500000 0.000000 0.000000
O O17 0.497951 0.349322 0.359211
#
# Coordination Sequence:
#
# PCOD8017717 Si02
#       8
#     2   2   2   2   2   2   2   2
#     4  11  23  41  65  90 122 162 202 249 304 358
#     4  11  23  41  63  91 123 161 202 249 302 362
#     4  11  22  40  64  88 118 163 204 248 301 361
#     4  10  22  41  65  91 120 156 203 254 301 357
#     4  11  25  43  61  90 126 161 201 251 301 358
#     4  11  24  40  59  89 127 162 200 250 302 359
#     4  10  22  39  64  95 121 153 204 257 301 354
#     4   9  22  41  63  90 121 158 204 252 303 357
#
# _framework density 23.186243999999999
#
# number of rings (size 3 to 8) (size 9 to 14) (size 15 to 20)
#    0.000    1.500    0.000    4.125    0.000   12.000 
#    0.000    1.875    0.000    0.000    0.000    0.000 
#    0.000    0.000    0.000    0.000    0.000    0.000 
#
# Total GULP energy -198391.891307 kJ/mol
# GULP energy per Si atom -12399.493207 kJ/mol
# Density = 2.313347 g / cm^3
# Si number density = 23.186244 Si / 1000 Ang^3
#
#
#
# Elastic Constant Matrix: (Units=GPa)
#
#
# Indices 1 2 3 4 5 6 
#
# 1 98.5825 19.8244 9.0073 5.3414 12.5897 -4.2856
# 2 19.8244 81.2999 30.1851 -10.0178 -2.1880 3.9319
# 3 9.0073 30.1851 83.7751 -15.6369 -4.7053 -12.1979
# 4 5.3414 -10.0178 -15.6369 20.2497 6.6695 -9.2715
# 5 12.5897 -2.1880 -4.7053 6.6695 29.8057 -0.3456
# 6 -4.2856 3.9319 -12.1979 -9.2715 -0.3456 31.5373
#
#
#
# Elastic Compliance Matrix: (Units=1/GPa)
#
#
# Indices 1 2 3 4 5 6 
#
# 1 0.011643 -0.003053 -0.001035 -0.003716 -0.004469 0.000421
# 2 -0.003053 0.015509 -0.005301 0.002357 0.001021 -0.003695
# 3 -0.001035 -0.005301 0.019514 0.019357 -0.001043 0.013747
# 4 -0.003716 0.002357 0.019357 0.085598 -0.013988 0.031699
# 5 -0.004469 0.001021 -0.001043 -0.013988 0.038422 -0.004829
# 6 0.000421 -0.003695 0.013747 0.031699 -0.004829 0.046810
#
#
# Mechanical properties :
#
#
# Convention : Reuss Voigt Hill
#
# Bulk Modulus (GPa) = 35.85726 42.41013 39.13370
# Shear Modulus (GPa) = 20.36079 29.96126 25.16103
#
# Velocity S-wave (km/s) = 2.96656 3.59862 3.29777
# Velocity P-wave (km/s) = 5.21847 5.96637 5.60491
#
# Compressibility (1/GPa) = 0.02788835
#
# Stress axis : x y z
#
# Youngs Moduli (GPa) = 85.89072 64.47782 51.24536
#
# Poissons Ratio (x) = 0.19687 0.05304
# Poissons Ratio (y) = 0.26225 0.27163
# Poissons Ratio (z) = 0.08890 0.34176
#
# Static dielectric constant tensor:
#      x y z
#    x 4.167150 -0.075060 0.154790 
#    y -0.075060 4.049870 -0.004340 
#    z 0.154790 -0.004340 4.167650 
# 
# 
# High freq. dielectric constant tensor:
#      x y z
#    x 1.916590 -0.001020 0.007580 
#    y -0.001020 1.914640 -0.004500 
#    z 0.007580 -0.004500 1.918020 
# 
# From -- ./inp_files/244784.got.cif
#   From: 2010.06.25/outbox.cif.g09.slc.cpg/sg2_123_cif.got.tgz:244784.got - 2010.06.27 13:26:56.
