data_PCOD8017282
_publ_section_title
;
Structure prediction by ZEFSAII (Michael W. Deem and Ramdas Pophale) SiO2 
 PCOD8017282
Probable space group: P -1
;
_chemical_formula_sum "Si O2"
_cell_formula_units_Z 14
_cell_length_a 23.268327
_cell_length_b 9.766999
_cell_length_c 19.363270
_cell_angle_alpha 39.712183
_cell_angle_beta 163.960736
_cell_angle_gamma 146.612191
_cell_volume 652.941918
_symmetry_space_group_name_H-M "P -1"
_symmetry_group_IT_number 2
_symmetry_cell_setting 'triclinic'
loop_
_space_group_symop_operation_xyz
x,y,z
-x,-y,-z
loop_
_atom_site_type_symbol
_atom_site_label
_atom_site_fract_x
_atom_site_fract_y
_atom_site_fract_z
Si Si1 0.346621 0.706861 0.255342
Si Si2 0.027750 0.850922 0.902118
Si Si3 0.638746 0.097147 0.952777
Si Si4 0.072642 0.796454 0.422947
Si Si5 0.898674 0.033354 0.800497
Si Si6 0.218257 0.291477 0.743900
Si Si7 0.961342 0.473891 0.290002
O O1 0.166692 0.427812 0.185370
O O2 0.623970 0.792148 0.561368
O O3 0.317696 0.726695 0.132018
O O4 0.276087 0.885944 0.144709
O O5 0.094058 0.044069 0.967207
O O6 0.909240 0.937824 0.673006
O O7 0.712694 0.262740 0.044561
O O8 0.810428 0.981251 0.188617
O O9 0.353399 0.864816 0.719640
O O10 0.914241 0.580701 0.265117
O O11 0.943732 0.691674 0.388329
O O12 0.893504 0.288425 0.688291
O O13 0.000000 0.000000 0.000000
O O14 0.125557 0.354656 0.542063
O O15 0.500000 0.500000 0.000000
#
# Coordination Sequence:
#
# PCOD8017282 Si02
#       7
#     2   2   2   2   2   2   2
#     4  11  21  41  66  95 133 176 211 272 330 382
#     4  10  22  38  65  94 129 173 220 261 331 391
#     4  12  24  44  70  97 135 175 222 270 328 394
#     4  11  24  45  67  99 131 177 220 272 332 388
#     4  11  23  41  65  95 133 171 218 269 329 389
#     4  12  24  47  71  94 137 176 215 280 331 388
#     4  11  25  43  66 102 130 174 224 269 327 393
#
# _framework density 21.441414999999999
#
# number of rings (size 3 to 8) (size 9 to 14) (size 15 to 20)
#    0.000    0.857    5.714    2.143    2.000    1.143 
#    2.571    0.000    0.000    0.000    0.000    0.000 
#    0.000    0.000    0.000    0.000    0.000    0.000 
#
# Total GULP energy -173509.633252 kJ/mol
# GULP energy per Si atom -12393.545232 kJ/mol
# Density = 2.139261 g / cm^3
# Si number density = 21.441415 Si / 1000 Ang^3
#
#
#
# Elastic Constant Matrix: (Units=GPa)
#
#
# Indices 1 2 3 4 5 6 
#
# 1 119.5230 42.4466 68.6473 -1.3421 -11.4750 0.9523
# 2 42.4466 75.1426 28.0415 -13.1030 -18.7938 9.2263
# 3 68.6473 28.0415 95.3056 -14.2335 -19.6080 -2.0693
# 4 -1.3421 -13.1030 -14.2335 38.8284 0.7932 -7.1917
# 5 -11.4750 -18.7938 -19.6080 0.7932 40.9611 -8.3898
# 6 0.9523 9.2263 -2.0693 -7.1917 -8.3898 44.1981
#
#
#
# Elastic Compliance Matrix: (Units=1/GPa)
#
#
# Indices 1 2 3 4 5 6 
#
# 1 0.017714 -0.007479 -0.012535 -0.006665 -0.004620 -0.001369
# 2 -0.007479 0.020045 0.002063 0.006855 0.007680 -0.001353
# 3 -0.012535 0.002063 0.022116 0.008929 0.008663 0.003972
# 4 -0.006665 0.006855 0.008929 0.032003 0.006056 0.005488
# 5 -0.004620 0.007680 0.008663 0.006056 0.031889 0.005941
# 6 -0.001369 -0.001353 0.003972 0.005488 0.005941 0.025144
#
#
# Mechanical properties :
#
#
# Convention : Reuss Voigt Hill
#
# Bulk Modulus (GPa) = 41.70995 63.13800 52.42397
# Shear Modulus (GPa) = 25.93329 34.85322 30.39326
#
# Velocity S-wave (km/s) = 3.48155 4.03613 3.76906
# Velocity P-wave (km/s) = 5.97133 7.15760 6.59121
#
# Compressibility (1/GPa) = 0.02397509
#
# Stress axis : x y z
#
# Youngs Moduli (GPa) = 56.45209 49.88842 45.21611
#
# Poissons Ratio (x) = 0.37309 0.56677
# Poissons Ratio (y) = 0.42218 -0.09329
# Poissons Ratio (z) = 0.70761 -0.10293
#
# Static dielectric constant tensor:
#      x y z
#    x 4.118160 0.069010 0.051030 
#    y 0.069010 4.503470 -0.424370 
#    z 0.051030 -0.424370 3.751500 
# 
# 
# High freq. dielectric constant tensor:
#      x y z
#    x 1.839600 0.008800 -0.004760 
#    y 0.008800 1.865010 -0.027710 
#    z -0.004760 -0.027710 1.820020 
# 
# From -- ./inp_files/544182.got.cif
#   From: 2010.06.25/outbox.cif.g09.slc.cpg/sg2_273_cif.got.tgz:544182.got - 2010.06.27 13:26:56.
