data_PCOD8017125
_publ_section_title
;
Structure prediction by ZEFSAII (Michael W. Deem and Ramdas Pophale) SiO2 
 PCOD8017125
Probable space group: P -1
;
_chemical_formula_sum "Si O2"
_cell_formula_units_Z 16
_cell_length_a 14.486344
_cell_length_b 16.920980
_cell_length_c 14.692015
_cell_angle_alpha 39.776318
_cell_angle_beta 20.170060
_cell_angle_gamma 42.355673
_cell_volume 791.956116
_symmetry_space_group_name_H-M "P -1"
_symmetry_group_IT_number 2
_symmetry_cell_setting 'triclinic'
loop_
_space_group_symop_operation_xyz
x,y,z
-x,-y,-z
loop_
_atom_site_type_symbol
_atom_site_label
_atom_site_fract_x
_atom_site_fract_y
_atom_site_fract_z
Si Si1 0.428052 0.076335 0.274981
Si Si2 0.508899 0.712465 0.848830
Si Si3 0.053128 0.430646 0.327781
Si Si4 0.046493 0.354385 0.645361
Si Si5 0.852616 0.189495 0.656899
Si Si6 0.729557 0.085346 0.682209
Si Si7 0.957524 0.682816 0.118019
Si Si8 0.597326 0.190401 0.514708
O O1 0.476528 0.142301 0.268687
O O2 0.134353 0.110603 0.476848
O O3 0.471935 0.928311 0.375963
O O4 0.638330 0.117641 0.971709
O O5 0.648054 0.633739 0.874138
O O6 0.670744 0.683241 0.631664
O O7 0.203117 0.679752 0.154945
O O8 0.965293 0.498186 0.446572
O O9 0.855415 0.328177 0.571444
O O10 0.049808 0.534817 0.159605
O O11 0.031436 0.275614 0.822770
O O12 0.768157 0.192241 0.626811
O O13 0.661190 0.154068 0.590867
O O14 0.000000 0.000000 0.500000
O O15 0.500000 0.000000 0.000000
O O16 0.653101 0.707235 0.343847
O O17 0.147135 0.754913 0.814999
#
# Coordination Sequence:
#
# PCOD8017125 Si02
#       8
#     2   2   2   2   2   2   2   2
#     4  11  23  36  64  90 128 147 208 255 317 336
#     4  11  20  38  62  95 113 160 207 274 282 340
#     4   9  23  38  65  87 130 155 206 249 307 353
#     4  10  22  38  60  89 123 159 215 236 312 343
#     4  11  21  41  60 100 116 153 194 272 303 344
#     4  12  22  40  68  95 118 149 207 253 301 363
#     4  10  25  38  61  84 127 175 191 236 304 381
#     4  12  22  43  59  89 124 165 198 240 310 373
#
# _framework density 20.203140000000001
#
# number of rings (size 3 to 8) (size 9 to 14) (size 15 to 20)
#    0.750    0.500    2.500    4.500    0.000    5.000 
#    0.000    5.000    0.000    0.000    0.000    0.000 
#    0.000    0.000    0.000    0.000    0.000    0.000 
#
# Total GULP energy -198355.769854 kJ/mol
# GULP energy per Si atom -12397.235616 kJ/mol
# Density = 2.015716 g / cm^3
# Si number density = 20.203140 Si / 1000 Ang^3
#
#
#
# Elastic Constant Matrix: (Units=GPa)
#
#
# Indices 1 2 3 4 5 6 
#
# 1 83.9172 24.8422 17.5297 4.1776 -11.4132 2.1903
# 2 24.8422 54.8789 18.2729 -2.3144 -0.3716 0.8075
# 3 17.5297 18.2729 104.0575 7.6354 -2.3677 -7.0063
# 4 4.1776 -2.3144 7.6354 24.4527 -0.5089 -3.5500
# 5 -11.4132 -0.3716 -2.3677 -0.5089 29.9282 -1.5995
# 6 2.1903 0.8075 -7.0063 -3.5500 -1.5995 41.1881
#
#
#
# Elastic Compliance Matrix: (Units=1/GPa)
#
#
# Indices 1 2 3 4 5 6 
#
# 1 0.014971 -0.006476 -0.001113 -0.002839 0.005445 -0.000892
# 2 -0.006476 0.022390 -0.003224 0.004127 -0.002397 -0.000380
# 3 -0.001113 -0.003224 0.010722 -0.003210 0.000419 0.001686
# 4 -0.002839 0.004127 -0.003210 0.043235 -0.000377 0.003236
# 5 0.005445 -0.002397 0.000419 -0.000377 0.035550 0.001177
# 6 -0.000892 -0.000380 0.001686 0.003236 0.001177 0.024945
#
#
# Mechanical properties :
#
#
# Convention : Reuss Voigt Hill
#
# Bulk Modulus (GPa) = 37.79525 40.46034 39.12780
# Shear Modulus (GPa) = 27.43350 31.26106 29.34728
#
# Velocity S-wave (km/s) = 3.68894 3.93789 3.81545
# Velocity P-wave (km/s) = 6.07393 6.38327 6.23052
#
# Compressibility (1/GPa) = 0.02645835
#
# Stress axis : x y z
#
# Youngs Moduli (GPa) = 66.79439 44.66185 93.26462
#
# Poissons Ratio (x) = 0.28925 0.10377
# Poissons Ratio (y) = 0.43259 0.30067
# Poissons Ratio (z) = 0.07432 0.14398
#
# Static dielectric constant tensor:
#      x y z
#    x 3.828670 0.160340 -0.039210 
#    y 0.160340 3.791550 0.008500 
#    z -0.039210 0.008500 3.550210 
# 
# 
# High freq. dielectric constant tensor:
#      x y z
#    x 1.783620 0.005590 -0.005760 
#    y 0.005590 1.779650 0.005710 
#    z -0.005760 0.005710 1.801480 
# 
# From -- ./inp_files/535060.got.cif
#   From: 2010.06.25/outbox.cif.g09.slc.cpg/sg2_268_cif.got.tgz:535060.got - 2010.06.27 13:26:56.
