data_PCOD8017600
_publ_section_title
;
Structure prediction by ZEFSAII (Michael W. Deem and Ramdas Pophale) SiO2 
 PCOD8017600
Probable space group: P -1
;
_chemical_formula_sum "Si O2"
_cell_formula_units_Z 16
_cell_length_a 5.280868
_cell_length_b 9.145835
_cell_length_c 17.076837
_cell_angle_alpha 89.374901
_cell_angle_beta 123.590825
_cell_angle_gamma 103.438682
_cell_volume 661.149578
_symmetry_space_group_name_H-M "P -1"
_symmetry_group_IT_number 2
_symmetry_cell_setting 'triclinic'
loop_
_space_group_symop_operation_xyz
x,y,z
-x,-y,-z
loop_
_atom_site_type_symbol
_atom_site_label
_atom_site_fract_x
_atom_site_fract_y
_atom_site_fract_z
Si Si1 0.219374 0.390255 0.698308
Si Si2 0.669171 0.968915 0.770209
Si Si3 0.667860 0.855273 0.171756
Si Si4 0.378490 0.046640 0.561034
Si Si5 0.842523 0.612176 0.641419
Si Si6 0.199615 0.328484 0.203908
Si Si7 0.274398 0.600228 0.992952
Si Si8 0.724658 0.651300 0.459448
O O1 0.183426 0.238412 0.741121
O O2 0.580352 0.497865 0.758916
O O3 0.081796 0.336939 0.588224
O O4 0.014757 0.489221 0.701412
O O5 0.540280 0.055796 0.816283
O O6 0.507989 0.976300 0.658504
O O7 0.046837 0.033620 0.826934
O O8 0.617330 0.794098 0.793047
O O9 0.463458 0.742152 0.074514
O O10 0.492001 0.230903 0.583008
O O11 0.500000 0.000000 0.500000
O O12 0.000000 0.000000 0.500000
O O13 0.889559 0.729212 0.720734
O O14 0.956690 0.690841 0.575940
O O15 0.473938 0.524435 0.567621
O O16 0.881323 0.327526 0.104036
O O17 0.500000 0.500000 0.000000
O O18 0.000000 0.500000 0.000000
#
# Coordination Sequence:
#
# PCOD8017600 Si02
#       8
#     2   2   2   2   2   2   2   2
#     4  11  22  41  72  97 138 191 242 297 361 424
#     4  12  28  48  71 108 152 191 242 299 368 434
#     4  12  26  47  76 103 147 194 240 301 371 435
#     4  12  26  42  67  97 145 192 240 284 356 424
#     4  10  22  40  67  97 138 182 244 300 356 415
#     4  11  27  44  72 107 141 188 239 306 362 428
#     4  12  26  48  79 114 141 184 247 305 363 438
#     4  10  22  39  62  99 133 188 244 292 351 428
#
# _framework density 24.200272999999999
#
# number of rings (size 3 to 8) (size 9 to 14) (size 15 to 20)
#    0.000    0.750    2.500    4.125    7.000    1.000 
#    0.000    0.000    0.000    0.000    0.000    0.000 
#    0.000    0.000    0.000    0.000    0.000    0.000 
#
# Total GULP energy -198307.869442 kJ/mol
# GULP energy per Si atom -12394.241840 kJ/mol
# Density = 2.414519 g / cm^3
# Si number density = 24.200273 Si / 1000 Ang^3
#
#
#
# Elastic Constant Matrix: (Units=GPa)
#
#
# Indices 1 2 3 4 5 6 
#
# 1 122.7338 23.8219 30.3604 10.8267 -6.8868 -23.8054
# 2 23.8219 102.1243 22.2761 -9.2552 -4.9007 -25.8793
# 3 30.3604 22.2761 125.9794 -7.4338 -13.6640 -10.7462
# 4 10.8267 -9.2552 -7.4338 38.7810 -8.6240 5.5332
# 5 -6.8868 -4.9007 -13.6640 -8.6240 31.0952 2.8623
# 6 -23.8054 -25.8793 -10.7462 5.5332 2.8623 47.0255
#
#
#
# Elastic Compliance Matrix: (Units=1/GPa)
#
#
# Indices 1 2 3 4 5 6 
#
# 1 0.010134 -0.001155 -0.002156 -0.004274 -0.000488 0.004534
# 2 -0.001155 0.011949 -0.001082 0.002502 0.001351 0.005367
# 3 -0.002156 -0.001082 0.009283 0.003110 0.004312 -0.000194
# 4 -0.004274 0.002502 0.003110 0.030967 0.009800 -0.004316
# 5 -0.000488 0.001351 0.004312 0.009800 0.037054 -0.001926
# 6 0.004534 0.005367 -0.000194 -0.004316 -0.001926 0.027095
#
#
# Mechanical properties :
#
#
# Convention : Reuss Voigt Hill
#
# Bulk Modulus (GPa) = 44.28929 55.97270 50.13099
# Shear Modulus (GPa) = 35.01448 41.67228 38.34338
#
# Velocity S-wave (km/s) = 3.80789 4.15417 3.98479
# Velocity P-wave (km/s) = 6.13794 6.79623 6.47545
#
# Compressibility (1/GPa) = 0.02257882
#
# Stress axis : x y z
#
# Youngs Moduli (GPa) = 98.67299 83.68731 107.71849
#
# Poissons Ratio (x) = 0.09669 0.23228
# Poissons Ratio (y) = 0.11400 0.11660
# Poissons Ratio (z) = 0.21278 0.09059
#
# Static dielectric constant tensor:
#      x y z
#    x 4.392320 -0.013990 -0.181860 
#    y -0.013990 4.655700 0.002210 
#    z -0.181860 0.002210 4.575560 
# 
# 
# High freq. dielectric constant tensor:
#      x y z
#    x 1.966230 -0.009190 -0.006460 
#    y -0.009190 1.967150 0.003940 
#    z -0.006460 0.003940 1.961610 
# 
# From -- ./inp_files/323578.got.cif
#   From: 2010.06.25/outbox.cif.g09.slc.cpg/sg2_162_cif.got.tgz:323578.got - 2010.06.27 13:26:56.
