data_PCOD8017809
_publ_section_title
;
Structure prediction by ZEFSAII (Michael W. Deem and Ramdas Pophale) SiO2 
 PCOD8017809
Probable space group: P -1
;
_chemical_formula_sum "Si O2"
_cell_formula_units_Z 16
_cell_length_a 8.411554
_cell_length_b 13.272617
_cell_length_c 13.059103
_cell_angle_alpha 70.350529
_cell_angle_beta 34.314883
_cell_angle_gamma 78.037560
_cell_volume 767.201604
_symmetry_space_group_name_H-M "P -1"
_symmetry_group_IT_number 2
_symmetry_cell_setting 'triclinic'
loop_
_space_group_symop_operation_xyz
x,y,z
-x,-y,-z
loop_
_atom_site_type_symbol
_atom_site_label
_atom_site_fract_x
_atom_site_fract_y
_atom_site_fract_z
Si Si1 0.067232 0.686109 0.356109
Si Si2 0.524667 0.883957 0.070932
Si Si3 0.686677 0.940882 0.190001
Si Si4 0.602024 0.778118 0.469406
Si Si5 0.998503 0.750742 0.863316
Si Si6 0.590122 0.576251 0.059006
Si Si7 0.448495 0.845747 0.733537
Si Si8 0.671655 0.647787 0.765263
O O1 0.239786 0.805970 0.222737
O O2 0.267310 0.601559 0.237705
O O3 0.804173 0.685322 0.415191
O O4 0.953452 0.654076 0.542183
O O5 0.557574 0.888669 0.173509
O O6 0.800386 0.836174 0.893782
O O7 0.500000 0.000000 0.000000
O O8 0.696524 0.845535 0.297163
O O9 0.499954 0.034010 0.290677
O O10 0.000000 0.000000 0.000000
O O11 0.641443 0.852182 0.526019
O O12 0.265087 0.733672 0.653598
O O13 0.120201 0.798193 0.892469
O O14 0.797284 0.634593 0.017282
O O15 0.567657 0.446607 0.120378
O O16 0.729233 0.620294 0.861714
O O17 0.548572 0.761775 0.790143
#
# Coordination Sequence:
#
# PCOD8017809 Si02
#       8
#     2   2   2   2   2   2   2   2
#     4  10  22  40  63  87 125 157 199 250 301 358
#     4  11  24  37  57  92 120 160 201 246 293 365
#     4  12  21  34  60  85 120 159 193 242 296 356
#     4   9  21  39  57  84 120 158 197 242 294 361
#     4   9  21  40  58  82 121 153 196 249 295 348
#     4  10  22  39  66  87 121 155 203 258 297 361
#     4   9  21  37  57  83 116 155 195 237 295 353
#     4  10  22  40  62  91 117 160 205 245 312 353
#
# _framework density 20.855013
#
# number of rings (size 3 to 8) (size 9 to 14) (size 15 to 20)
#    0.750    1.250    1.250    1.500    7.000    1.500 
#    0.000    3.125    0.000    1.500    0.000    0.000 
#    0.000    0.000    0.000    0.000    0.000    0.000 
#
# Total GULP energy -198233.074183 kJ/mol
# GULP energy per Si atom -12389.567136 kJ/mol
# Density = 2.080755 g / cm^3
# Si number density = 20.855013 Si / 1000 Ang^3
#
#
#
# Elastic Constant Matrix: (Units=GPa)
#
#
# Indices 1 2 3 4 5 6 
#
# 1 56.0933 7.3807 22.5015 2.1595 0.3057 -5.6388
# 2 7.3807 37.0929 6.8527 8.0013 -2.4845 -2.9810
# 3 22.5015 6.8527 94.0899 9.7741 -0.9852 -15.6375
# 4 2.1595 8.0013 9.7741 25.1635 -3.2311 -4.1062
# 5 0.3057 -2.4845 -0.9852 -3.2311 34.8812 -5.7432
# 6 -5.6388 -2.9810 -15.6375 -4.1062 -5.7432 26.5871
#
#
#
# Elastic Compliance Matrix: (Units=1/GPa)
#
#
# Indices 1 2 3 4 5 6 
#
# 1 0.020159 -0.003360 -0.004475 0.001285 -0.000189 0.001424
# 2 -0.003360 0.029758 -0.000197 -0.008645 0.001592 0.001517
# 3 -0.004475 -0.000197 0.013162 -0.003461 0.001144 0.006482
# 4 0.001285 -0.008645 -0.003461 0.045119 0.004305 0.005166
# 5 -0.000189 0.001592 0.001144 0.004305 0.030544 0.008074
# 6 0.001424 0.001517 0.006482 0.005166 0.008074 0.044439
#
#
# Mechanical properties :
#
#
# Convention : Reuss Voigt Hill
#
# Bulk Modulus (GPa) = 21.26985 28.97175 25.12080
# Shear Modulus (GPa) = 23.26485 27.36243 25.31364
#
# Velocity S-wave (km/s) = 3.34361 3.62613 3.48773
# Velocity P-wave (km/s) = 5.01272 5.60837 5.31889
#
# Compressibility (1/GPa) = 0.04701490
#
# Stress axis : x y z
#
# Youngs Moduli (GPa) = 49.60451 33.60476 75.97886
#
# Poissons Ratio (x) = 0.11291 0.34001
# Poissons Ratio (y) = 0.16666 0.01496
# Poissons Ratio (z) = 0.22199 0.00662
#
# Static dielectric constant tensor:
#      x y z
#    x 3.636250 0.031820 -0.071060 
#    y 0.031820 3.915010 0.238450 
#    z -0.071060 0.238450 3.678090 
# 
# 
# High freq. dielectric constant tensor:
#      x y z
#    x 1.796680 -0.001370 -0.005130 
#    y -0.001370 1.814910 0.007930 
#    z -0.005130 0.007930 1.813490 
# 
# From -- ./inp_files/504048.got.cif
#   From: 2010.06.25/outbox.cif.g09.slc.cpg/sg2_253_cif.got.tgz:504048.got - 2010.06.27 13:26:56.
