data_PCOD8017472
_publ_section_title
;
Structure prediction by ZEFSAII (Michael W. Deem and Ramdas Pophale) SiO2 
 PCOD8017472
Probable space group: P -1
;
_chemical_formula_sum "Si O2"
_cell_formula_units_Z 14
_cell_length_a 12.153298
_cell_length_b 9.196929
_cell_length_c 8.209752
_cell_angle_alpha 82.205620
_cell_angle_beta 101.977762
_cell_angle_gamma 131.953913
_cell_volume 667.560989
_symmetry_space_group_name_H-M "P -1"
_symmetry_group_IT_number 2
_symmetry_cell_setting 'triclinic'
loop_
_space_group_symop_operation_xyz
x,y,z
-x,-y,-z
loop_
_atom_site_type_symbol
_atom_site_label
_atom_site_fract_x
_atom_site_fract_y
_atom_site_fract_z
Si Si1 0.933874 0.303456 0.600804
Si Si2 0.042083 0.085825 0.678279
Si Si3 0.695296 0.836814 0.074578
Si Si4 0.420661 0.694747 0.221224
Si Si5 0.274527 0.860912 0.157833
Si Si6 0.366543 0.088829 0.455529
Si Si7 0.260141 0.268513 0.228772
O O1 0.880068 0.304812 0.765996
O O2 0.000000 0.500000 0.500000
O O3 0.054082 0.274423 0.658740
O O4 0.788132 0.113852 0.487162
O O5 0.199675 0.149707 0.762581
O O6 0.000000 0.000000 0.500000
O O7 0.916970 0.919886 0.792347
O O8 0.534838 0.723476 0.124662
O O9 0.678614 0.714757 0.934735
O O10 0.759263 0.051070 0.007934
O O11 0.340506 0.769968 0.112101
O O12 0.496225 0.812297 0.395353
O O13 0.292264 0.464697 0.253221
O O14 0.395895 0.035791 0.297079
O O15 0.343151 0.241794 0.394019
#
# Coordination Sequence:
#
# PCOD8017472 Si02
#       7
#     2   2   2   2   2   2   2
#     4   9  20  40  62  92 124 152 211 251 313 353
#     4  11  23  41  69  90 119 161 208 262 306 363
#     4  11  22  42  62  87 129 165 202 255 310 363
#     4  12  21  38  62  93 125 165 210 244 306 374
#     4   9  22  39  63  88 127 166 197 260 307 359
#     4   8  19  38  60  87 122 162 201 255 301 353
#     4  10  22  39  60  91 126 161 208 253 305 365
#
# _framework density 20.971867
#
# number of rings (size 3 to 8) (size 9 to 14) (size 15 to 20)
#    0.857    1.143    1.429    3.857    2.000    0.000 
#    0.000    5.000    0.000    0.000    0.000    0.000 
#    0.000    0.000    0.000    0.000    0.000    0.000 
#
# Total GULP energy -173518.029270 kJ/mol
# GULP energy per Si atom -12394.144948 kJ/mol
# Density = 2.092413 g / cm^3
# Si number density = 20.971867 Si / 1000 Ang^3
#
#
#
# Elastic Constant Matrix: (Units=GPa)
#
#
# Indices 1 2 3 4 5 6 
#
# 1 123.8739 37.3910 32.3989 -10.8141 12.9968 -21.5781
# 2 37.3910 109.9805 36.8516 -27.2312 18.4616 -23.9893
# 3 32.3989 36.8516 82.0789 -10.8936 10.3897 -7.8436
# 4 -10.8141 -27.2312 -10.8936 26.6598 -6.4513 2.1716
# 5 12.9968 18.4616 10.3897 -6.4513 35.3783 -10.3068
# 6 -21.5781 -23.9893 -7.8436 2.1716 -10.3068 24.7748
#
#
#
# Elastic Compliance Matrix: (Units=1/GPa)
#
#
# Indices 1 2 3 4 5 6 
#
# 1 0.010472 -0.000410 -0.002942 0.001961 -0.000218 0.007530
# 2 -0.000410 0.017344 -0.004292 0.014438 -0.001118 0.013347
# 3 -0.002942 -0.004292 0.015311 0.000444 -0.001879 -0.002692
# 4 0.001961 0.014438 0.000444 0.053416 0.005238 0.013325
# 5 -0.000218 -0.001118 -0.001879 0.005238 0.033863 0.011761
# 6 0.007530 0.013347 -0.002692 0.013325 0.011761 0.062718
#
#
# Mechanical properties :
#
#
# Convention : Reuss Voigt Hill
#
# Bulk Modulus (GPa) = 35.92094 58.80179 47.36137
# Shear Modulus (GPa) = 22.96834 31.31536 27.14185
#
# Velocity S-wave (km/s) = 3.31297 3.86840 3.60141
# Velocity P-wave (km/s) = 5.63912 6.93195 6.31869
#
# Compressibility (1/GPa) = 0.02783891
#
# Stress axis : x y z
#
# Youngs Moduli (GPa) = 95.49669 57.65709 65.31146
#
# Poissons Ratio (x) = 0.02363 0.19215
# Poissons Ratio (y) = 0.03914 0.28032
# Poissons Ratio (z) = 0.28096 0.24746
#
# Static dielectric constant tensor:
#      x y z
#    x 3.833360 -0.102880 -0.009980 
#    y -0.102880 3.513240 -0.185500 
#    z -0.009980 -0.185500 3.532930 
# 
# 
# High freq. dielectric constant tensor:
#      x y z
#    x 1.826390 -0.017830 -0.001930 
#    y -0.017830 1.799690 -0.017250 
#    z -0.001930 -0.017250 1.806500 
# 
# From -- ./inp_files/237911.got.cif
#   From: 2010.06.25/outbox.cif.g09.slc.cpg/sg2_119_cif.got.tgz:237911.got - 2010.06.27 13:26:56.
