data_PCOD8017712
_publ_section_title
;
Structure prediction by ZEFSAII (Michael W. Deem and Ramdas Pophale) SiO2 
 PCOD8017712
Probable space group: P -1
;
_chemical_formula_sum "Si O2"
_cell_formula_units_Z 16
_cell_length_a 11.883300
_cell_length_b 8.535822
_cell_length_c 8.955855
_cell_angle_alpha 77.257804
_cell_angle_beta 121.484144
_cell_angle_gamma 101.088930
_cell_volume 752.356401
_symmetry_space_group_name_H-M "P -1"
_symmetry_group_IT_number 2
_symmetry_cell_setting 'triclinic'
loop_
_space_group_symop_operation_xyz
x,y,z
-x,-y,-z
loop_
_atom_site_type_symbol
_atom_site_label
_atom_site_fract_x
_atom_site_fract_y
_atom_site_fract_z
Si Si1 0.869430 0.441699 0.734491
Si Si2 0.479207 0.114302 0.187006
Si Si3 0.738165 0.895311 0.720080
Si Si4 0.613453 0.823691 0.200794
Si Si5 0.623056 0.615065 0.516530
Si Si6 0.129298 0.948938 0.678748
Si Si7 0.247192 0.791532 0.528837
Si Si8 0.993108 0.254271 0.109062
O O1 0.738980 0.517494 0.680668
O O2 0.834436 0.368595 0.561342
O O3 0.982055 0.592957 0.791154
O O4 0.905084 0.300383 0.899094
O O5 0.339986 0.081452 0.185104
O O6 0.593503 0.217814 0.341648
O O7 0.527685 0.942223 0.210869
O O8 0.453371 0.214492 0.998027
O O9 0.633766 0.788517 0.567115
O O10 0.873742 0.809961 0.853213
O O11 0.777538 0.062564 0.629286
O O12 0.620298 0.654852 0.328995
O O13 0.764010 0.898220 0.265206
O O14 0.500000 0.500000 0.500000
O O15 0.188885 0.812914 0.648317
O O16 0.094130 0.883976 0.832984
O O17 0.000000 0.000000 0.500000
#
# Coordination Sequence:
#
# PCOD8017712 Si02
#       8
#     2   2   2   2   2   2   2   2
#     4  10  24  41  60  94 129 163 215 250 315 384
#     4  10  22  39  64  94 128 154 215 271 303 372
#     4  11  21  40  63  95 123 160 217 257 308 375
#     4  10  23  40  61  98 126 166 207 257 325 365
#     4  11  22  40  64  90 129 171 200 256 323 378
#     4  11  20  40  64  89 129 167 208 262 307 371
#     4  11  22  38  64  94 124 164 212 261 314 367
#     4  10  23  43  63  92 130 168 209 256 316 377
#
# _framework density 21.266515999999999
#
# number of rings (size 3 to 8) (size 9 to 14) (size 15 to 20)
#    0.000    1.500    3.750    1.875    3.500    4.000 
#    0.000    6.250    0.000    0.000    0.000    0.000 
#    0.000    0.000    0.000    0.000    0.000    0.000 
#
# Total GULP energy -198313.371069 kJ/mol
# GULP energy per Si atom -12394.585692 kJ/mol
# Density = 2.121811 g / cm^3
# Si number density = 21.266516 Si / 1000 Ang^3
#
#
#
# Elastic Constant Matrix: (Units=GPa)
#
#
# Indices 1 2 3 4 5 6 
#
# 1 118.5366 27.2280 41.1766 -20.5786 -4.0600 6.9417
# 2 27.2280 57.7264 30.6663 -0.6521 8.1939 11.6399
# 3 41.1766 30.6663 129.1135 -15.7480 12.1210 5.2529
# 4 -20.5786 -0.6521 -15.7480 40.7885 0.5906 -3.9243
# 5 -4.0600 8.1939 12.1210 0.5906 22.6533 -2.2592
# 6 6.9417 11.6399 5.2529 -3.9243 -2.2592 27.0041
#
#
#
# Elastic Compliance Matrix: (Units=1/GPa)
#
#
# Indices 1 2 3 4 5 6 
#
# 1 0.011335 -0.004898 -0.002379 0.004723 0.005029 0.000767
# 2 -0.004898 0.024788 -0.003615 -0.004313 -0.008803 -0.010086
# 3 -0.002379 -0.003615 0.010117 0.002735 -0.004582 0.000216
# 4 0.004723 -0.004313 0.002735 0.028289 0.000632 0.004277
# 5 0.005029 -0.008803 -0.004582 0.000632 0.051441 0.007789
# 6 0.000767 -0.010086 0.000216 0.004277 0.007789 0.042413
#
#
# Mechanical properties :
#
#
# Convention : Reuss Voigt Hill
#
# Bulk Modulus (GPa) = 40.88775 55.94648 48.41712
# Shear Modulus (GPa) = 25.21190 31.84288 28.52739
#
# Velocity S-wave (km/s) = 3.44687 3.87373 3.66652
# Velocity P-wave (km/s) = 5.92531 6.80971 6.38285
#
# Compressibility (1/GPa) = 0.02445720
#
# Stress axis : x y z
#
# Youngs Moduli (GPa) = 88.22323 40.34185 98.83972
#
# Poissons Ratio (x) = 0.19759 0.23513
# Poissons Ratio (y) = 0.43210 0.35729
# Poissons Ratio (z) = 0.20987 0.14583
#
# Static dielectric constant tensor:
#      x y z
#    x 3.742400 -0.005120 -0.141240 
#    y -0.005120 3.866980 0.072890 
#    z -0.141240 0.072890 3.698580 
# 
# 
# High freq. dielectric constant tensor:
#      x y z
#    x 1.827810 0.002300 0.013830 
#    y 0.002300 1.817060 0.000500 
#    z 0.013830 0.000500 1.845240 
# 
# From -- ./inp_files/225750.got.cif
#   From: 2010.06.25/outbox.cif.g09.slc.cpg/sg2_113_cif.got.tgz:225750.got - 2010.06.27 13:26:56.
