data_PCOD8017274
_publ_section_title
;
Structure prediction by ZEFSAII (Michael W. Deem and Ramdas Pophale) SiO2 
 PCOD8017274
Probable space group: P -1
;
_chemical_formula_sum "Si O2"
_cell_formula_units_Z 14
_cell_length_a 9.318333
_cell_length_b 28.049480
_cell_length_c 21.325107
_cell_angle_alpha 16.869946
_cell_angle_beta 27.691899
_cell_angle_gamma 37.470574
_cell_volume 689.558590
_symmetry_space_group_name_H-M "P -1"
_symmetry_group_IT_number 2
_symmetry_cell_setting 'triclinic'
loop_
_space_group_symop_operation_xyz
x,y,z
-x,-y,-z
loop_
_atom_site_type_symbol
_atom_site_label
_atom_site_fract_x
_atom_site_fract_y
_atom_site_fract_z
Si Si1 0.700549 0.729404 0.971036
Si Si2 0.861970 0.344150 0.200240
Si Si3 0.630196 0.988222 0.582019
Si Si4 0.736517 0.589834 0.711867
Si Si5 0.764771 0.779652 0.583978
Si Si6 0.894416 0.047505 0.646160
Si Si7 0.594627 0.353263 0.682102
O O1 0.840133 0.611174 0.022707
O O2 0.022840 0.870541 0.703101
O O3 0.503454 0.819492 0.890635
O O4 0.442897 0.619363 0.263426
O O5 0.526210 0.335946 0.307538
O O6 0.768522 0.152205 0.511192
O O7 0.000000 0.500000 0.000000
O O8 0.339324 0.060191 0.598652
O O9 0.732544 0.936342 0.539568
O O10 0.900653 0.704693 0.566410
O O11 0.019898 0.612030 0.523380
O O12 0.559614 0.380516 0.060292
O O13 0.061991 0.857383 0.422502
O O14 0.630863 0.843770 0.008528
O O15 0.500000 0.500000 0.500000
#
# Coordination Sequence:
#
# PCOD8017274 Si02
#       7
#     2   2   2   2   2   2   2
#     4   9  19  38  60  86 120 165 201 255 307 361
#     4  11  21  41  67  93 123 164 215 254 297 380
#     4   9  17  34  62  87 114 159 215 246 296 367
#     4  11  24  38  65  94 125 167 205 255 319 364
#     4  11  21  38  64  93 121 163 217 254 298 374
#     4  10  22  38  65  92 124 165 206 257 307 365
#     4  11  25  42  62  91 132 163 202 261 322 364
#
# _framework density 20.302844
#
# number of rings (size 3 to 8) (size 9 to 14) (size 15 to 20)
#    0.000    1.714    2.857    3.000    2.000    1.143 
#    0.000    0.714    0.000    0.000    0.000    0.000 
#    0.000    0.000    0.000    0.000    0.000    0.000 
#
# Total GULP energy -173580.250621 kJ/mol
# GULP energy per Si atom -12398.589330 kJ/mol
# Density = 2.025663 g / cm^3
# Si number density = 20.302844 Si / 1000 Ang^3
#
#
#
# Elastic Constant Matrix: (Units=GPa)
#
#
# Indices 1 2 3 4 5 6 
#
# 1 89.6100 52.6449 34.1359 2.8979 16.2348 8.2899
# 2 52.6449 133.5598 59.6083 11.0824 15.3878 7.2576
# 3 34.1359 59.6083 92.7045 6.0453 22.6916 5.7355
# 4 2.8979 11.0824 6.0453 36.6939 4.2276 1.9032
# 5 16.2348 15.3878 22.6916 4.2276 27.2631 -11.6490
# 6 8.2899 7.2576 5.7355 1.9032 -11.6490 39.5025
#
#
#
# Elastic Compliance Matrix: (Units=1/GPa)
#
#
# Indices 1 2 3 4 5 6 
#
# 1 0.016353 -0.005122 -0.000289 0.001619 -0.009082 -0.005205
# 2 -0.005122 0.012308 -0.006380 -0.002515 0.001996 0.000450
# 3 -0.000289 -0.006380 0.018865 0.000821 -0.014549 -0.005836
# 4 0.001619 -0.002515 0.000821 0.028604 -0.006008 -0.003147
# 5 -0.009082 0.001996 -0.014549 -0.006008 0.063715 0.022730
# 6 -0.005205 0.000450 -0.005836 -0.003147 0.022730 0.034027
#
#
# Mechanical properties :
#
#
# Convention : Reuss Voigt Hill
#
# Bulk Modulus (GPa) = 41.76478 67.62807 54.69642
# Shear Modulus (GPa) = 24.33859 31.99091 28.16475
#
# Velocity S-wave (km/s) = 3.46609 3.97380 3.72860
# Velocity P-wave (km/s) = 6.05260 7.37812 6.74799
#
# Compressibility (1/GPa) = 0.02394362
#
# Stress axis : x y z
#
# Youngs Moduli (GPa) = 61.14994 81.24696 53.00961
#
# Poissons Ratio (x) = 0.41617 0.01530
# Poissons Ratio (y) = 0.31323 0.33822
# Poissons Ratio (z) = 0.01765 0.51838
#
# Static dielectric constant tensor:
#      x y z
#    x 3.843410 0.165650 0.410500 
#    y 0.165650 4.123540 -0.120240 
#    z 0.410500 -0.120240 3.525090 
# 
# 
# High freq. dielectric constant tensor:
#      x y z
#    x 1.793670 0.012440 0.027610 
#    y 0.012440 1.804730 -0.016770 
#    z 0.027610 -0.016770 1.764920 
# 
# From -- ./inp_files/198730.got.cif
#   From: 2010.06.25/outbox.cif.g09.slc.cpg/sg2_100_cif.got.tgz:198730.got - 2010.06.27 13:26:56.
