data_PCOD8017189
_publ_section_title
;
Structure prediction by ZEFSAII (Michael W. Deem and Ramdas Pophale) SiO2 
 PCOD8017189
Probable space group: P -1
;
_chemical_formula_sum "Si O2"
_cell_formula_units_Z 16
_cell_length_a 5.267602
_cell_length_b 24.901997
_cell_length_c 11.157889
_cell_angle_alpha 145.376065
_cell_angle_beta 118.621041
_cell_angle_gamma 65.767208
_cell_volume 729.606920
_symmetry_space_group_name_H-M "P -1"
_symmetry_group_IT_number 2
_symmetry_cell_setting 'triclinic'
loop_
_space_group_symop_operation_xyz
x,y,z
-x,-y,-z
loop_
_atom_site_type_symbol
_atom_site_label
_atom_site_fract_x
_atom_site_fract_y
_atom_site_fract_z
Si Si1 0.763258 0.826615 0.421900
Si Si2 0.780319 0.375853 0.444163
Si Si3 0.393795 0.082346 0.042114
Si Si4 0.282588 0.691505 0.961166
Si Si5 0.763743 0.509588 0.362655
Si Si6 0.367888 0.996689 0.639993
Si Si7 0.056835 0.801322 0.688840
Si Si8 0.927743 0.848625 0.251202
O O1 0.667197 0.937559 0.623466
O O2 0.992949 0.827027 0.366266
O O3 0.904211 0.783284 0.493480
O O4 0.512593 0.761367 0.195759
O O5 0.670233 0.334370 0.215676
O O6 0.528656 0.442324 0.564913
O O7 0.840461 0.297401 0.413177
O O8 0.080466 0.432881 0.602526
O O9 0.668783 0.135843 0.152631
O O10 0.169792 0.151922 0.184952
O O11 0.500000 0.000000 0.000000
O O12 0.239293 0.035431 0.808077
O O13 0.299294 0.599551 0.883103
O O14 0.970247 0.749175 0.006387
O O15 0.000000 0.500000 0.500000
O O16 0.159227 0.922972 0.394074
O O17 0.381432 0.093036 0.735940
#
# Coordination Sequence:
#
# PCOD8017189 Si02
#       8
#     2   2   2   2   2   2   2   2
#     4  11  24  39  62  90 134 172 211 263 328 385
#     4  11  24  44  70 101 129 166 218 273 324 389
#     4  12  24  42  67  90 131 179 227 259 319 379
#     4  10  23  39  67  96 122 169 214 268 334 383
#     4  10  22  43  72 100 130 161 215 276 331 385
#     4  10  22  39  59  93 123 176 221 268 315 374
#     4  12  27  43  66  97 136 173 220 268 323 385
#     4  10  22  38  62  90 133 163 222 267 320 384
#
# _framework density 21.929618000000001
#
# number of rings (size 3 to 8) (size 9 to 14) (size 15 to 20)
#    0.000    1.250    1.250    4.500   10.500    0.000 
#    0.000    1.250    0.000    0.000    0.000    0.000 
#    0.000    0.000    0.000    0.000    0.000    0.000 
#
# Total GULP energy -198219.561854 kJ/mol
# GULP energy per Si atom -12388.722616 kJ/mol
# Density = 2.187970 g / cm^3
# Si number density = 21.929618 Si / 1000 Ang^3
#
#
#
# Elastic Constant Matrix: (Units=GPa)
#
#
# Indices 1 2 3 4 5 6 
#
# 1 229.8298 80.6638 72.1039 80.2834 -31.9934 21.0744
# 2 80.6638 159.7854 72.4254 45.6959 -15.6069 17.0565
# 3 72.1039 72.4254 121.0534 39.5826 -18.1121 1.2646
# 4 80.2834 45.6959 39.5826 73.1979 -15.3305 6.7204
# 5 -31.9934 -15.6069 -18.1121 -15.3305 31.7112 4.0739
# 6 21.0744 17.0565 1.2646 6.7204 4.0739 36.0760
#
#
#
# Elastic Compliance Matrix: (Units=1/GPa)
#
#
# Indices 1 2 3 4 5 6 
#
# 1 0.008404 -0.000761 -0.001706 -0.006541 0.004453 -0.003774
# 2 -0.000761 0.009830 -0.004493 -0.002357 0.000840 -0.003702
# 3 -0.001706 -0.004493 0.012948 -0.002155 0.002056 0.002836
# 4 -0.006541 -0.002357 -0.002155 0.023989 0.002575 0.000251
# 5 0.004453 0.000840 0.002056 0.002575 0.039894 -0.008055
# 6 -0.003774 -0.003702 0.002836 0.000251 -0.008055 0.032437
#
#
# Mechanical properties :
#
#
# Convention : Reuss Voigt Hill
#
# Bulk Modulus (GPa) = 57.93043 106.78386 82.35714
# Shear Modulus (GPa) = 33.97257 47.22874 40.60065
#
# Velocity S-wave (km/s) = 3.94021 4.64578 4.30747
# Velocity P-wave (km/s) = 6.86835 8.80780 7.89783
#
# Compressibility (1/GPa) = 0.01726209
#
# Stress axis : x y z
#
# Youngs Moduli (GPa) = 118.98896 101.72627 77.23159
#
# Poissons Ratio (x) = 0.07740 0.13177
# Poissons Ratio (y) = 0.09054 0.34701
# Poissons Ratio (z) = 0.20301 0.45707
#
# Static dielectric constant tensor:
#      x y z
#    x 4.968240 1.353040 1.159350 
#    y 1.353040 6.387790 2.083440 
#    z 1.159350 2.083440 5.557810 
# 
# 
# High freq. dielectric constant tensor:
#      x y z
#    x 1.866270 0.003760 -0.008210 
#    y 0.003760 1.862530 0.022720 
#    z -0.008210 0.022720 1.859080 
# 
# From -- ./inp_files/371155.got.cif
#   From: 2010.06.25/outbox.cif.g09.slc.cpg/sg2_186_cif.got.tgz:371155.got - 2010.06.27 13:26:56.
