data_PCOD8017821
_publ_section_title
;
Structure prediction by ZEFSAII (Michael W. Deem and Ramdas Pophale) SiO2 
 PCOD8017821
Probable space group: P -1
;
_chemical_formula_sum "Si O2"
_cell_formula_units_Z 14
_cell_length_a 8.897682
_cell_length_b 7.233638
_cell_length_c 13.686495
_cell_angle_alpha 82.594350
_cell_angle_beta 107.030893
_cell_angle_gamma 49.285520
_cell_volume 572.835944
_symmetry_space_group_name_H-M "P -1"
_symmetry_group_IT_number 2
_symmetry_cell_setting 'triclinic'
loop_
_space_group_symop_operation_xyz
x,y,z
-x,-y,-z
loop_
_atom_site_type_symbol
_atom_site_label
_atom_site_fract_x
_atom_site_fract_y
_atom_site_fract_z
Si Si1 0.139620 0.925654 0.632236
Si Si2 0.654728 0.513019 0.473104
Si Si3 0.085732 0.187587 0.797479
Si Si4 0.405652 0.315994 0.349888
Si Si5 0.876558 0.401913 0.226538
Si Si6 0.417431 0.889326 0.044750
Si Si7 0.655568 0.005561 0.753022
O O1 0.186139 0.992321 0.737401
O O2 0.909407 0.209192 0.516715
O O3 0.362325 0.761651 0.615411
O O4 0.107597 0.733130 0.662362
O O5 0.500000 0.500000 0.500000
O O6 0.655196 0.675145 0.546704
O O7 0.534381 0.681626 0.338877
O O8 0.120366 0.378379 0.767832
O O9 0.816660 0.375757 0.750900
O O10 0.208500 0.997854 0.930562
O O11 0.427012 0.112962 0.304706
O O12 0.634691 0.561244 0.115470
O O13 0.089255 0.156353 0.217582
O O14 0.334578 0.017793 0.127723
O O15 0.500000 0.000000 0.000000
#
# Coordination Sequence:
#
# PCOD8017821 Si02
#       7
#     2   2   2   2   2   2   2
#     4  11  23  42  67  97 129 167 217 266 316 383
#     4  11  24  42  64  94 133 163 215 268 315 385
#     4   9  22  43  61  96 133 162 216 268 312 383
#     4  10  23  40  66  94 127 169 215 261 325 374
#     4  10  22  39  66  93 126 174 212 252 327 374
#     4  10  22  40  68  97 126 168 217 263 312 381
#     4  11  23  43  67  92 132 172 210 264 323 376
#
# _framework density 24.439807999999999
#
# number of rings (size 3 to 8) (size 9 to 14) (size 15 to 20)
#    0.000    1.714    1.429    2.143    2.000    9.143 
#    0.000    1.429    0.000    0.000    0.000    0.000 
#    0.000    0.000    0.000    0.000    0.000    0.000 
#
# Total GULP energy -173506.099771 kJ/mol
# GULP energy per Si atom -12393.292841 kJ/mol
# Density = 2.438418 g / cm^3
# Si number density = 24.439808 Si / 1000 Ang^3
#
#
#
# Elastic Constant Matrix: (Units=GPa)
#
#
# Indices 1 2 3 4 5 6 
#
# 1 80.1787 51.5086 43.1456 -2.6957 7.8040 -28.1913
# 2 51.5086 158.1458 72.1920 -3.2140 -0.0858 -34.2077
# 3 43.1456 72.1920 187.2848 1.9451 12.9278 -16.5935
# 4 -2.6957 -3.2140 1.9451 34.5920 -6.5575 1.7159
# 5 7.8040 -0.0858 12.9278 -6.5575 40.5502 -4.5399
# 6 -28.1913 -34.2077 -16.5935 1.7159 -4.5399 44.5247
#
#
#
# Elastic Compliance Matrix: (Units=1/GPa)
#
#
# Indices 1 2 3 4 5 6 
#
# 1 0.018967 -0.003343 -0.002209 0.000509 -0.001930 0.008401
# 2 -0.003343 0.009635 -0.002710 0.000980 0.002186 0.004461
# 3 -0.002209 -0.002710 0.006956 -0.001162 -0.002105 -0.001058
# 4 0.000509 0.000980 -0.001162 0.030078 0.005139 0.000007
# 5 -0.001930 0.002186 -0.002105 0.005139 0.026786 0.002206
# 6 0.008401 0.004461 -0.001058 0.000007 0.002206 0.031037
#
#
# Mechanical properties :
#
#
# Convention : Reuss Voigt Hill
#
# Bulk Modulus (GPa) = 52.53132 84.36686 68.44909
# Shear Modulus (GPa) = 34.16991 41.18424 37.67707
#
# Velocity S-wave (km/s) = 3.74321 4.10949 3.93062
# Velocity P-wave (km/s) = 6.34216 7.55727 6.97622
#
# Compressibility (1/GPa) = 0.01903626
#
# Stress axis : x y z
#
# Youngs Moduli (GPa) = 52.72267 103.78752 143.75225
#
# Poissons Ratio (x) = 0.34695 0.31750
# Poissons Ratio (y) = 0.17625 0.38952
# Poissons Ratio (z) = 0.11645 0.28123
#
# Static dielectric constant tensor:
#      x y z
#    x 4.572720 -0.490690 -0.036900 
#    y -0.490690 6.502250 3.240830 
#    z -0.036900 3.240830 11.834100 
# 
# 
# High freq. dielectric constant tensor:
#      x y z
#    x 1.960810 -0.010980 0.017370 
#    y -0.010980 1.998300 0.001540 
#    z 0.017370 0.001540 1.982710 
# 
# From -- ./inp_files/267013.got.cif
#   From: 2010.06.25/outbox.cif.g09.slc.cpg/sg2_134_cif.got.tgz:267013.got - 2010.06.27 13:26:56.
