data_PCOD8017100
_publ_section_title
;
Structure prediction by ZEFSAII (Michael W. Deem and Ramdas Pophale) SiO2 
 PCOD8017100
Probable space group: P -1
;
_chemical_formula_sum "Si O2"
_cell_formula_units_Z 16
_cell_length_a 6.413505
_cell_length_b 9.129373
_cell_length_c 20.214629
_cell_angle_alpha 127.620165
_cell_angle_beta 60.027754
_cell_angle_gamma 130.596481
_cell_volume 701.463970
_symmetry_space_group_name_H-M "P -1"
_symmetry_group_IT_number 2
_symmetry_cell_setting 'triclinic'
loop_
_space_group_symop_operation_xyz
x,y,z
-x,-y,-z
loop_
_atom_site_type_symbol
_atom_site_label
_atom_site_fract_x
_atom_site_fract_y
_atom_site_fract_z
Si Si1 0.819453 0.648781 0.419955
Si Si2 0.700242 0.344327 0.463492
Si Si3 0.426311 0.878622 0.356092
Si Si4 0.622813 0.487966 0.648121
Si Si5 0.137249 0.270831 0.920230
Si Si6 0.337051 0.125677 0.189656
Si Si7 0.383422 0.811255 0.190351
Si Si8 0.130993 0.567103 0.893978
O O1 0.862914 0.476059 0.408267
O O2 0.623904 0.713188 0.510320
O O3 0.667953 0.548338 0.346469
O O4 0.124851 0.848627 0.413376
O O5 0.812765 0.477445 0.553169
O O6 0.671791 0.110862 0.406750
O O7 0.466617 0.699089 0.336156
O O8 0.456243 0.858968 0.268532
O O9 0.774475 0.721072 0.721541
O O10 0.228393 0.465294 0.908077
O O11 0.402057 0.250832 0.893174
O O12 0.904977 0.049765 0.864761
O O13 0.021011 0.314880 0.017807
O O14 0.603246 0.259632 0.139102
O O15 0.418186 0.022402 0.208286
O O16 0.072930 0.614499 0.174992
#
# Coordination Sequence:
#
# PCOD8017100 Si02
#       8
#     2   2   2   2   2   2   2   2
#     4   9  21  40  59  84 118 157 200 258 303 356
#     4   9  21  42  58  87 121 155 206 257 301 359
#     4  12  22  38  62  86 118 166 204 247 308 361
#     4  10  22  38  59  87 121 156 205 250 300 359
#     4  10  23  43  66  96 124 161 204 256 309 375
#     4  11  23  41  62  94 126 166 204 256 309 364
#     4  11  25  38  63  95 127 162 207 255 306 370
#     4  10  22  44  68  91 127 161 205 253 313 369
#
# _framework density 22.809438
#
# number of rings (size 3 to 8) (size 9 to 14) (size 15 to 20)
#    0.750    1.000    0.000    3.750    0.000    6.000 
#    0.000    0.000    0.000    0.000    0.000    0.000 
#    0.000    0.000    0.000    0.000    0.000    0.000 
#
# Total GULP energy -198414.799681 kJ/mol
# GULP energy per Si atom -12400.924980 kJ/mol
# Density = 2.275752 g / cm^3
# Si number density = 22.809438 Si / 1000 Ang^3
#
#
#
# Elastic Constant Matrix: (Units=GPa)
#
#
# Indices 1 2 3 4 5 6 
#
# 1 59.7085 16.6520 7.2558 -4.5915 2.8261 -19.2680
# 2 16.6520 120.4676 40.0590 -4.1541 2.2767 -19.9250
# 3 7.2558 40.0590 103.9869 2.5244 4.4310 -15.0408
# 4 -4.5915 -4.1541 2.5244 37.2399 0.2048 -9.0751
# 5 2.8261 2.2767 4.4310 0.2048 34.0480 -0.2682
# 6 -19.2680 -19.9250 -15.0408 -9.0751 -0.2682 32.7327
#
#
#
# Elastic Compliance Matrix: (Units=1/GPa)
#
#
# Indices 1 2 3 4 5 6 
#
# 1 0.022138 -0.000631 0.000751 0.006200 -0.001815 0.014696
# 2 -0.000631 0.010427 -0.003278 0.002571 -0.000193 0.005181
# 3 0.000751 -0.003278 0.011412 -0.000153 -0.001299 0.003638
# 4 0.006200 0.002571 -0.000153 0.031284 -0.000746 0.013812
# 5 -0.001815 -0.000193 -0.001299 -0.000746 0.029694 -0.001746
# 6 0.014696 0.005181 0.003638 0.013812 -0.001746 0.047842
#
#
# Mechanical properties :
#
#
# Convention : Reuss Voigt Hill
#
# Bulk Modulus (GPa) = 26.55209 45.78851 36.17030
# Shear Modulus (GPa) = 29.12621 35.48388 32.30504
#
# Velocity S-wave (km/s) = 3.57730 3.94847 3.76746
# Velocity P-wave (km/s) = 5.35993 6.39572 5.90060
#
# Compressibility (1/GPa) = 0.03766182
#
# Stress axis : x y z
#
# Youngs Moduli (GPa) = 45.17135 95.90118 87.62636
#
# Poissons Ratio (x) = 0.06051 -0.06580
# Poissons Ratio (y) = 0.02850 0.28722
# Poissons Ratio (z) = -0.03392 0.31434
#
# Static dielectric constant tensor:
#      x y z
#    x 4.128540 -0.050530 -0.073610 
#    y -0.050530 4.049610 0.025760 
#    z -0.073610 0.025760 4.034910 
# 
# 
# High freq. dielectric constant tensor:
#      x y z
#    x 1.910280 0.002800 -0.001540 
#    y 0.002800 1.907290 -0.002560 
#    z -0.001540 -0.002560 1.898160 
# 
# From -- ./inp_files/582503.got.cif
#   From: 2010.06.25/outbox.cif.g09.slc.cpg/sg2_292_cif.got.tgz:582503.got - 2010.06.27 13:26:56.
