data_PCOD8017066
_publ_section_title
;
Structure prediction by ZEFSAII (Michael W. Deem and Ramdas Pophale) SiO2 
 PCOD8017066
Probable space group: P -1
;
_chemical_formula_sum "Si O2"
_cell_formula_units_Z 16
_cell_length_a 9.704421
_cell_length_b 16.480792
_cell_length_c 26.181210
_cell_angle_alpha 24.966746
_cell_angle_beta 135.056491
_cell_angle_gamma 151.117204
_cell_volume 774.073382
_symmetry_space_group_name_H-M "P -1"
_symmetry_group_IT_number 2
_symmetry_cell_setting 'triclinic'
loop_
_space_group_symop_operation_xyz
x,y,z
-x,-y,-z
loop_
_atom_site_type_symbol
_atom_site_label
_atom_site_fract_x
_atom_site_fract_y
_atom_site_fract_z
Si Si1 0.509849 0.738356 0.899909
Si Si2 0.644035 0.265657 0.030688
Si Si3 0.192675 0.633799 0.227590
Si Si4 0.792366 0.364733 0.371020
Si Si5 0.050092 0.392546 0.619723
Si Si6 0.307225 0.341597 0.365458
Si Si7 0.914550 0.706369 0.038546
Si Si8 0.451373 0.402145 0.820165
O O1 0.518268 0.868382 0.879825
O O2 0.158207 0.454598 0.943775
O O3 0.603227 0.596636 0.024844
O O4 0.760334 0.020266 0.764170
O O5 0.505721 0.997419 0.110917
O O6 0.589159 0.423750 0.896241
O O7 0.000000 0.500000 0.000000
O O8 0.323686 0.553102 0.278717
O O9 0.034648 0.464517 0.336775
O O10 0.937342 0.555288 0.172316
O O11 0.929285 0.456652 0.411197
O O12 0.720740 0.534772 0.243954
O O13 0.500000 0.000000 0.500000
O O14 0.373634 0.530175 0.614430
O O15 0.000000 0.500000 0.500000
O O16 0.272541 0.344099 0.293500
O O17 0.000000 0.000000 0.500000
O O18 0.215468 0.079168 0.910518
#
# Coordination Sequence:
#
# PCOD8017066 Si02
#       8
#     2   2   2   2   2   2   2   2
#     4  11  22  42  63 101 130 168 219 270 329 392
#     4  11  25  39  65  96 136 167 211 276 335 383
#     4  11  23  41  67  96 128 170 215 271 333 387
#     4  11  22  43  67  91 124 173 223 260 321 393
#     4  11  25  46  68  95 132 175 223 271 317 393
#     4  11  25  44  68  95 131 174 225 269 320 392
#     4  10  22  37  71  90 128 167 215 267 331 390
#     4  10  22  45  64  94 129 173 219 264 325 400
#
# _framework density 20.669874
#
# number of rings (size 3 to 8) (size 9 to 14) (size 15 to 20)
#    0.000    1.250    3.750    2.250    7.000    3.000 
#    2.250    0.625    0.000    0.000    0.000    0.000 
#    0.000    0.000    0.000    0.000    0.000    0.000 
#
# Total GULP energy -198270.606027 kJ/mol
# GULP energy per Si atom -12391.912877 kJ/mol
# Density = 2.062283 g / cm^3
# Si number density = 20.669874 Si / 1000 Ang^3
#
#
#
# Elastic Constant Matrix: (Units=GPa)
#
#
# Indices 1 2 3 4 5 6 
#
# 1 105.8674 33.0305 33.5199 13.5412 -7.8233 -2.0226
# 2 33.0305 140.6628 52.2231 13.3221 -2.6953 -5.8214
# 3 33.5199 52.2231 97.7528 10.4517 -6.8023 3.1609
# 4 13.5412 13.3221 10.4517 35.4396 -3.8154 -1.3720
# 5 -7.8233 -2.6953 -6.8023 -3.8154 34.2054 -7.0192
# 6 -2.0226 -5.8214 3.1609 -1.3720 -7.0192 28.4878
#
#
#
# Elastic Compliance Matrix: (Units=1/GPa)
#
#
# Indices 1 2 3 4 5 6 
#
# 1 0.011234 -0.001255 -0.002797 -0.002751 0.001848 0.001174
# 2 -0.001255 0.009296 -0.004443 -0.001639 -0.000173 0.002182
# 3 -0.002797 -0.004443 0.013861 -0.001322 0.001120 -0.002432
# 4 -0.002751 -0.001639 -0.001322 0.030640 0.002760 0.001772
# 5 0.001848 -0.000173 0.001120 0.002760 0.031804 0.007941
# 6 0.001174 0.002182 -0.002432 0.001772 0.007941 0.037944
#
#
# Mechanical properties :
#
#
# Convention : Reuss Voigt Hill
#
# Bulk Modulus (GPa) = 57.47084 64.64779 61.05932
# Shear Modulus (GPa) = 31.73232 34.66054 33.19643
#
# Velocity S-wave (km/s) = 3.92241 4.09939 4.01188
# Velocity P-wave (km/s) = 6.95545 7.33150 7.14595
#
# Compressibility (1/GPa) = 0.01740013
#
# Stress axis : x y z
#
# Youngs Moduli (GPa) = 89.01695 107.57730 72.14693
#
# Poissons Ratio (x) = 0.13501 0.20179
# Poissons Ratio (y) = 0.11171 0.32056
# Poissons Ratio (z) = 0.24897 0.47798
#
# Static dielectric constant tensor:
#      x y z
#    x 4.066630 -0.434090 0.019200 
#    y -0.434090 3.969460 0.056720 
#    z 0.019200 0.056720 3.800050 
# 
# 
# High freq. dielectric constant tensor:
#      x y z
#    x 1.809330 -0.014170 0.001260 
#    y -0.014170 1.809400 -0.000920 
#    z 0.001260 -0.000920 1.810070 
# 
# From -- ./inp_files/216651.got.cif
#   From: 2010.06.25/outbox.cif.g09.slc.cpg/sg2_109_cif.got.tgz:216651.got - 2010.06.27 13:26:56.
