data_PCOD8017504
_publ_section_title
;
Structure prediction by ZEFSAII (Michael W. Deem and Ramdas Pophale) SiO2 
 PCOD8017504
Probable space group: P -1
;
_chemical_formula_sum "Si O2"
_cell_formula_units_Z 12
_cell_length_a 8.577517
_cell_length_b 12.906759
_cell_length_c 9.062445
_cell_angle_alpha 143.382749
_cell_angle_beta 58.047419
_cell_angle_gamma 103.921364
_cell_volume 472.938511
_symmetry_space_group_name_H-M "P -1"
_symmetry_group_IT_number 2
_symmetry_cell_setting 'triclinic'
loop_
_space_group_symop_operation_xyz
x,y,z
-x,-y,-z
loop_
_atom_site_type_symbol
_atom_site_label
_atom_site_fract_x
_atom_site_fract_y
_atom_site_fract_z
Si Si1 0.789558 0.868132 0.649208
Si Si2 0.524205 0.726829 0.236984
Si Si3 0.436875 0.775124 0.661431
Si Si4 0.229824 0.018044 0.539029
Si Si5 0.907478 0.402269 0.627937
Si Si6 0.091425 0.693944 0.811423
O O1 0.667216 0.727892 0.527891
O O2 0.800041 0.973081 0.611788
O O3 0.011808 0.746228 0.449643
O O4 0.679153 0.008063 0.994297
O O5 0.406448 0.749868 0.474533
O O6 0.661786 0.847121 0.305003
O O7 0.359936 0.805473 0.279669
O O8 0.670005 0.511154 0.889247
O O9 0.327464 0.652916 0.661031
O O10 0.019245 0.100936 0.824458
O O11 0.965181 0.299212 0.325021
O O12 0.030654 0.538356 0.744041
#
# Coordination Sequence:
#
# PCOD8017504 Si02
#       6
#     2   2   2   2   2   2
#     4  10  22  40  62  89 120 154 198 250 296 344
#     4   9  19  37  60  85 118 159 197 237 294 359
#     4  10  22  39  61  88 120 159 199 240 295 360
#     4   9  19  37  60  85 118 159 197 237 294 359
#     4  10  22  40  62  89 120 154 198 250 296 344
#     4  10  22  39  61  88 120 159 199 240 295 360
#
# _framework density 25.373279
#
# number of rings (size 3 to 8) (size 9 to 14) (size 15 to 20)
#    0.000    2.333    0.000    1.000    0.000   18.667 
#    0.000    0.000    0.000    0.000    0.000    0.000 
#    0.000    0.000    0.000    0.000    0.000    0.000 
#
# Total GULP energy -148747.127851 kJ/mol
# GULP energy per Si atom -12395.593988 kJ/mol
# Density = 2.531553 g / cm^3
# Si number density = 25.373279 Si / 1000 Ang^3
#
#
#
# Elastic Constant Matrix: (Units=GPa)
#
#
# Indices 1 2 3 4 5 6 
#
# 1 79.4322 50.1496 55.0301 -1.3438 -16.1502 -16.9447
# 2 50.1496 72.9204 70.6681 -23.7635 -17.2406 -26.6746
# 3 55.0301 70.6681 144.6021 -15.1036 -13.5766 -38.9664
# 4 -1.3438 -23.7635 -15.1036 34.6322 2.6711 -10.6938
# 5 -16.1502 -17.2406 -13.5766 2.6711 38.6421 1.0168
# 6 -16.9447 -26.6746 -38.9664 -10.6938 1.0168 59.3778
#
#
#
# Elastic Compliance Matrix: (Units=1/GPa)
#
#
# Indices 1 2 3 4 5 6 
#
# 1 0.031151 -0.031550 -0.001968 -0.024724 0.000251 -0.011032
# 2 -0.031550 0.077632 -0.011472 0.054683 0.012904 0.027970
# 3 -0.001968 -0.011472 0.014002 -0.000722 -0.001060 0.003361
# 4 -0.024724 0.054683 -0.000722 0.073837 0.007912 0.030198
# 5 0.000251 0.012904 -0.001060 0.007912 0.030661 0.006073
# 6 -0.011032 0.027970 0.003361 0.030198 0.006073 0.033799
#
#
# Mechanical properties :
#
#
# Convention : Reuss Voigt Hill
#
# Bulk Modulus (GPa) = 30.48336 72.07226 51.27781
# Shear Modulus (GPa) = 13.81226 34.60420 24.20823
#
# Velocity S-wave (km/s) = 2.33569 3.69698 3.09218
# Velocity P-wave (km/s) = 4.39477 6.83301 5.74473
#
# Compressibility (1/GPa) = 0.03280478
#
# Stress axis : x y z
#
# Youngs Moduli (GPa) = 32.10154 12.88131 71.41848
#
# Poissons Ratio (x) = 0.40640 0.14056
# Poissons Ratio (y) = 1.01279 0.81933
# Poissons Ratio (z) = 0.06318 0.14778
#
# Static dielectric constant tensor:
#      x y z
#    x 4.717560 0.313240 -0.095560 
#    y 0.313240 4.341510 -0.075340 
#    z -0.095560 -0.075340 4.555300 
# 
# 
# High freq. dielectric constant tensor:
#      x y z
#    x 2.026700 0.032750 0.005350 
#    y 0.032750 2.000660 -0.014660 
#    z 0.005350 -0.014660 2.003440 
# 
# From -- ./inp_files/152405.got.cif
#   From: 2010.06.25/outbox.cif.g09.slc.cpg/sg2_77_cif.got.tgz:152405.got - 2010.06.27 13:26:56.
