data_PCOD8017255
_publ_section_title
;
Structure prediction by ZEFSAII (Michael W. Deem and Ramdas Pophale) SiO2 
 PCOD8017255
Probable space group: P -1
;
_chemical_formula_sum "Si O2"
_cell_formula_units_Z 16
_cell_length_a 11.682027
_cell_length_b 9.073643
_cell_length_c 9.577540
_cell_angle_alpha 48.062511
_cell_angle_beta 104.480247
_cell_angle_gamma 87.480401
_cell_volume 699.093023
_symmetry_space_group_name_H-M "P -1"
_symmetry_group_IT_number 2
_symmetry_cell_setting 'triclinic'
loop_
_space_group_symop_operation_xyz
x,y,z
-x,-y,-z
loop_
_atom_site_type_symbol
_atom_site_label
_atom_site_fract_x
_atom_site_fract_y
_atom_site_fract_z
Si Si1 0.171732 0.074728 0.271060
Si Si2 0.538733 0.406334 0.721156
Si Si3 0.759508 0.027925 0.945037
Si Si4 0.108374 0.754582 0.971798
Si Si5 0.659912 0.683628 0.095513
Si Si6 0.752565 0.253929 0.267665
Si Si7 0.292239 0.342798 0.311297
Si Si8 0.544623 0.055918 0.326304
O O1 0.255931 0.225116 0.240567
O O2 0.229386 0.942526 0.236537
O O3 0.166604 0.912270 0.493112
O O4 0.034173 0.222891 0.109579
O O5 0.500000 0.500000 0.500000
O O6 0.636746 0.183663 0.874048
O O7 0.413753 0.394124 0.759538
O O8 0.599281 0.546602 0.751628
O O9 0.878416 0.067664 0.030351
O O10 0.755914 0.793453 0.122937
O O11 0.170945 0.525930 0.205709
O O12 0.178192 0.782624 0.834553
O O13 0.740079 0.489848 0.154356
O O14 0.569755 0.868330 0.859363
O O15 0.613931 0.232859 0.235373
O O16 0.352509 0.158827 0.558953
O O17 0.500000 0.000000 0.500000
#
# Coordination Sequence:
#
# PCOD8017255 Si02
#       8
#     2   2   2   2   2   2   2   2
#     4  11  23  43  65  89 122 165 215 269 313 360
#     4  11  23  41  62  94 133 168 201 254 319 384
#     4  11  24  40  61  91 125 166 211 254 314 381
#     4  11  23  43  64  89 123 165 213 272 316 354
#     4  12  23  39  62  92 130 169 200 249 314 385
#     4  11  23  39  62  93 123 161 215 259 306 379
#     4  10  22  38  64  92 117 158 213 253 304 376
#     4  11  20  35  60  92 124 158 198 252 309 369
#
# _framework density 22.886796
#
# number of rings (size 3 to 8) (size 9 to 14) (size 15 to 20)
#    0.000    1.000    0.000    8.625    0.000    2.000 
#    0.000    0.625    0.000    0.000    0.000    0.000 
#    0.000    0.000    0.000    0.000    0.000    0.000 
#
# Total GULP energy -198300.897917 kJ/mol
# GULP energy per Si atom -12393.806120 kJ/mol
# Density = 2.283470 g / cm^3
# Si number density = 22.886796 Si / 1000 Ang^3
#
#
#
# Elastic Constant Matrix: (Units=GPa)
#
#
# Indices 1 2 3 4 5 6 
#
# 1 71.4339 39.6280 26.8103 0.8995 4.6561 9.1958
# 2 39.6280 160.3029 43.1460 -8.2970 -3.3581 23.0604
# 3 26.8103 43.1460 99.7954 -12.3054 3.7222 5.3872
# 4 0.8995 -8.2970 -12.3054 40.3966 -8.5186 -2.2390
# 5 4.6561 -3.3581 3.7222 -8.5186 37.7509 -0.9543
# 6 9.1958 23.0604 5.3872 -2.2390 -0.9543 28.8206
#
#
#
# Elastic Compliance Matrix: (Units=1/GPa)
#
#
# Indices 1 2 3 4 5 6 
#
# 1 0.017667 -0.003261 -0.003437 -0.002860 -0.002844 -0.002701
# 2 -0.003261 0.008543 -0.002456 0.001112 0.001524 -0.005199
# 3 -0.003437 -0.002456 0.012373 0.003347 -0.000234 0.001002
# 4 -0.002860 0.001112 0.003347 0.027507 0.006373 0.001745
# 5 -0.002844 0.001524 -0.000234 0.006373 0.028466 0.001169
# 6 -0.002701 -0.005199 0.001002 0.001745 0.001169 0.039706
#
#
# Mechanical properties :
#
#
# Convention : Reuss Voigt Hill
#
# Bulk Modulus (GPa) = 49.32435 61.18899 55.25667
# Shear Modulus (GPa) = 31.38132 36.19016 33.78574
#
# Velocity S-wave (km/s) = 3.70693 3.98083 3.84632
# Velocity P-wave (km/s) = 6.31823 6.92264 6.62732
#
# Compressibility (1/GPa) = 0.02027396
#
# Stress axis : x y z
#
# Youngs Moduli (GPa) = 56.60175 117.05573 80.81942
#
# Poissons Ratio (x) = 0.38176 0.27778
# Poissons Ratio (y) = 0.18460 0.19852
# Poissons Ratio (z) = 0.19454 0.28753
#
# Static dielectric constant tensor:
#      x y z
#    x 4.088420 0.133200 0.194250 
#    y 0.133200 4.434780 -0.196310 
#    z 0.194250 -0.196310 4.215860 
# 
# 
# High freq. dielectric constant tensor:
#      x y z
#    x 1.895170 0.010100 0.003570 
#    y 0.010100 1.914730 -0.012410 
#    z 0.003570 -0.012410 1.896530 
# 
# From -- ./inp_files/242146.got.cif
#   From: 2010.06.25/outbox.cif.g09.slc.cpg/sg2_122_cif.got.tgz:242146.got - 2010.06.27 13:26:56.
