data_PCOD8017495
_publ_section_title
;
Structure prediction by ZEFSAII (Michael W. Deem and Ramdas Pophale) SiO2 
 PCOD8017495
Probable space group: P -1
;
_chemical_formula_sum "Si O2"
_cell_formula_units_Z 16
_cell_length_a 22.058760
_cell_length_b 9.532672
_cell_length_c 6.243741
_cell_angle_alpha 127.547042
_cell_angle_beta 49.065000
_cell_angle_gamma 124.492112
_cell_volume 755.209430
_symmetry_space_group_name_H-M "P -1"
_symmetry_group_IT_number 2
_symmetry_cell_setting 'triclinic'
loop_
_space_group_symop_operation_xyz
x,y,z
-x,-y,-z
loop_
_atom_site_type_symbol
_atom_site_label
_atom_site_fract_x
_atom_site_fract_y
_atom_site_fract_z
Si Si1 0.841132 0.148353 0.172026
Si Si2 0.878441 0.506516 0.717211
Si Si3 0.212348 0.185000 0.727445
Si Si4 0.630088 0.658379 0.235120
Si Si5 0.960115 0.364829 0.778896
Si Si6 0.534160 0.274217 0.193124
Si Si7 0.558663 0.973192 0.152758
Si Si8 0.717599 0.914199 0.932032
O O1 0.843676 0.333885 0.473749
O O2 0.850171 0.985447 0.158128
O O3 0.911884 0.181735 0.851898
O O4 0.754569 0.070251 0.170665
O O5 0.894417 0.433560 0.847549
O O6 0.964357 0.649673 0.564172
O O7 0.813796 0.627343 0.004436
O O8 0.308738 0.222955 0.615048
O O9 0.211534 0.122087 0.423609
O O10 0.615296 0.444839 0.126103
O O11 0.538583 0.690403 0.455593
O O12 0.674754 0.716822 0.958165
O O13 0.000000 0.500000 0.000000
O O14 0.570447 0.121384 0.073242
O O15 0.489437 0.222551 0.019294
O O16 0.500000 0.000000 0.500000
O O17 0.651064 0.989633 0.030958
#
# Coordination Sequence:
#
# PCOD8017495 Si02
#       8
#     2   2   2   2   2   2   2   2
#     4  10  23  42  66  93 133 169 207 264 312 375
#     4  10  22  43  69  95 130 170 208 255 316 374
#     4  11  24  41  62  96 131 166 211 264 318 379
#     4  10  22  40  59  84 122 159 205 265 311 372
#     4   9  20  42  69  98 128 165 213 255 302 382
#     4  10  22  39  61  85 115 159 211 262 317 368
#     4  11  22  38  61  87 117 163 210 260 319 375
#     4  11  23  40  62  91 130 163 214 262 316 378
#
# _framework density 21.186177000000001
#
# number of rings (size 3 to 8) (size 9 to 14) (size 15 to 20)
#    0.000    1.750    2.500    0.750    0.000    9.000 
#    0.000    8.750    0.000    0.000    0.000    0.000 
#    0.000    0.000    0.000    0.000    0.000    0.000 
#
# Total GULP energy -198260.681753 kJ/mol
# GULP energy per Si atom -12391.292610 kJ/mol
# Density = 2.113796 g / cm^3
# Si number density = 21.186177 Si / 1000 Ang^3
#
#
#
# Elastic Constant Matrix: (Units=GPa)
#
#
# Indices 1 2 3 4 5 6 
#
# 1 98.7293 42.4834 39.4488 1.4467 13.6935 -0.5186
# 2 42.4834 138.5018 53.8127 -16.6710 8.6326 6.2614
# 3 39.4488 53.8127 100.6918 -4.8128 12.3808 -4.6450
# 4 1.4467 -16.6710 -4.8128 39.6376 -3.4247 2.4759
# 5 13.6935 8.6326 12.3808 -3.4247 31.2720 -0.9496
# 6 -0.5186 6.2614 -4.6450 2.4759 -0.9496 23.4496
#
#
#
# Elastic Compliance Matrix: (Units=1/GPa)
#
#
# Indices 1 2 3 4 5 6 
#
# 1 0.013259 -0.002870 -0.003266 -0.002463 -0.003975 0.000512
# 2 -0.002870 0.010551 -0.004564 0.004294 0.000493 -0.004218
# 3 -0.003266 -0.004564 0.014154 -0.000572 -0.002858 0.003895
# 4 -0.002463 0.004294 -0.000572 0.027572 0.003014 -0.004103
# 5 -0.003975 0.000493 -0.002858 0.003014 0.035053 0.000316
# 6 0.000512 -0.004218 0.003895 -0.004103 0.000316 0.045000
#
#
# Mechanical properties :
#
#
# Convention : Reuss Voigt Hill
#
# Bulk Modulus (GPa) = 60.37618 67.71252 64.04435
# Shear Modulus (GPa) = 28.98404 32.35038 30.66721
#
# Velocity S-wave (km/s) = 3.70275 3.91187 3.80874
# Velocity P-wave (km/s) = 6.84399 7.24111 7.04535
#
# Compressibility (1/GPa) = 0.01656282
#
# Stress axis : x y z
#
# Youngs Moduli (GPa) = 75.42245 94.78200 70.65187
#
# Poissons Ratio (x) = 0.27200 0.23076
# Poissons Ratio (y) = 0.21644 0.32247
# Poissons Ratio (z) = 0.24635 0.43261
#
# Static dielectric constant tensor:
#      x y z
#    x 3.883250 0.101340 0.188910 
#    y 0.101340 4.171120 -0.341460 
#    z 0.188910 -0.341460 3.795010 
# 
# 
# High freq. dielectric constant tensor:
#      x y z
#    x 1.831300 0.005780 0.019100 
#    y 0.005780 1.835400 -0.019220 
#    z 0.019100 -0.019220 1.818350 
# 
# From -- ./inp_files/51252.got.cif
#   From: 2010.06.25/outbox.cif.g09.slc.cpg/sg2_26_cif.got.tgz:51252.got - 2010.06.27 13:26:56.
