data_PCOD8017037
_publ_section_title
;
Structure prediction by ZEFSAII (Michael W. Deem and Ramdas Pophale) SiO2 
 PCOD8017037
Probable space group: P -1
;
_chemical_formula_sum "Si O2"
_cell_formula_units_Z 16
_cell_length_a 14.440561
_cell_length_b 8.934146
_cell_length_c 8.580951
_cell_angle_alpha 73.293646
_cell_angle_beta 81.682894
_cell_angle_gamma 131.324164
_cell_volume 704.968184
_symmetry_space_group_name_H-M "P -1"
_symmetry_group_IT_number 2
_symmetry_cell_setting 'triclinic'
loop_
_space_group_symop_operation_xyz
x,y,z
-x,-y,-z
loop_
_atom_site_type_symbol
_atom_site_label
_atom_site_fract_x
_atom_site_fract_y
_atom_site_fract_z
Si Si1 0.676523 0.072299 0.775268
Si Si2 0.439291 0.598845 0.481814
Si Si3 0.070809 0.742763 0.473363
Si Si4 0.339141 0.941791 0.857521
Si Si5 0.818173 0.545443 0.449039
Si Si6 0.920933 0.260027 0.166499
Si Si7 0.102765 0.260051 0.952932
Si Si8 0.602825 0.316696 0.203517
O O1 0.782326 0.059510 0.713909
O O2 0.720802 0.277513 0.599836
O O3 0.520103 0.818143 0.853350
O O4 0.688348 0.136590 0.933058
O O5 0.500000 0.500000 0.500000
O O6 0.274408 0.408484 0.534464
O O7 0.463946 0.721665 0.601898
O O8 0.514795 0.788537 0.270405
O O9 0.103658 0.762972 0.638404
O O10 0.000000 0.500000 0.500000
O O11 0.957352 0.738201 0.464169
O O12 0.228082 0.930603 0.824443
O O13 0.337954 0.786633 0.795570
O O14 0.867679 0.585432 0.245731
O O15 0.000000 0.500000 0.000000
O O16 0.017137 0.230500 0.121960
O O17 0.257799 0.401486 0.938314
O O18 0.000000 0.000000 0.000000
#
# Coordination Sequence:
#
# PCOD8017037 Si02
#       8
#     2   2   2   2   2   2   2   2
#     4  11  22  42  72 113 135 173 235 303 350 398
#     4  11  26  43  67 101 142 188 225 281 357 424
#     4  10  22  37  66 105 141 169 220 295 349 402
#     4  12  24  40  77 103 138 177 239 295 343 420
#     4  10  22  43  70  96 145 173 232 290 347 402
#     4  12  22  39  70 101 130 178 237 283 345 411
#     4  11  26  43  66  98 139 191 230 282 347 420
#     4  11  24  43  72 101 135 182 239 292 346 407
#
# _framework density 22.696058000000001
#
# number of rings (size 3 to 8) (size 9 to 14) (size 15 to 20)
#    0.000    1.000    2.500    5.250    8.750    0.000 
#    0.000    1.250    5.500    0.000    0.000    0.000 
#    0.000    0.000    0.000    0.000    0.000    0.000 
#
# Total GULP energy -198218.858379 kJ/mol
# GULP energy per Si atom -12388.678649 kJ/mol
# Density = 2.264440 g / cm^3
# Si number density = 22.696058 Si / 1000 Ang^3
#
#
#
# Elastic Constant Matrix: (Units=GPa)
#
#
# Indices 1 2 3 4 5 6 
#
# 1 157.4688 52.5462 42.1787 4.1638 -26.2031 29.8393
# 2 52.5462 107.4835 52.0189 2.4762 -10.4871 20.1709
# 3 42.1787 52.0189 111.3086 22.3645 -14.9481 -4.1193
# 4 4.1638 2.4762 22.3645 38.6080 6.9250 -5.8695
# 5 -26.2031 -10.4871 -14.9481 6.9250 33.1842 -1.2635
# 6 29.8393 20.1709 -4.1193 -5.8695 -1.2635 47.9245
#
#
#
# Elastic Compliance Matrix: (Units=1/GPa)
#
#
# Indices 1 2 3 4 5 6 
#
# 1 0.009639 -0.002338 -0.001498 -0.001965 0.006409 -0.005218
# 2 -0.002338 0.014462 -0.006731 0.002666 -0.001051 -0.004911
# 3 -0.001498 -0.006731 0.015338 -0.008656 0.005564 0.004171
# 4 -0.001965 0.002666 -0.008656 0.033495 -0.011478 0.003157
# 5 0.006409 -0.001051 0.005564 -0.011478 0.039635 -0.003431
# 6 -0.005218 -0.004911 0.004171 0.003157 -0.003431 0.026837
#
#
# Mechanical properties :
#
#
# Convention : Reuss Voigt Hill
#
# Bulk Modulus (GPa) = 54.62735 74.41649 64.52192
# Shear Modulus (GPa) = 30.00465 39.24448 34.62457
#
# Velocity S-wave (km/s) = 3.63990 4.16279 3.91010
# Velocity P-wave (km/s) = 6.46425 7.48095 6.99111
#
# Compressibility (1/GPa) = 0.01830585
#
# Stress axis : x y z
#
# Youngs Moduli (GPa) = 103.74661 69.14649 65.19688
#
# Poissons Ratio (x) = 0.16163 0.09764
# Poissons Ratio (y) = 0.24251 0.43887
# Poissons Ratio (z) = 0.15538 0.46545
#
# Static dielectric constant tensor:
#      x y z
#    x 5.151680 0.686430 -0.562160 
#    y 0.686430 3.935900 -0.094740 
#    z -0.562160 -0.094740 4.159070 
# 
# 
# High freq. dielectric constant tensor:
#      x y z
#    x 1.902100 0.028370 -0.035090 
#    y 0.028370 1.871370 0.009640 
#    z -0.035090 0.009640 1.894840 
# 
# From -- ./inp_files/297893.got.cif
#   From: 2010.06.25/outbox.cif.g09.slc.cpg/sg2_149_cif.got.tgz:297893.got - 2010.06.27 13:26:56.
