data_PCOD8017948
_publ_section_title
;
Structure prediction by ZEFSAII (Michael W. Deem and Ramdas Pophale) SiO2 
 PCOD8017948
Probable space group: P -1
;
_chemical_formula_sum "Si O2"
_cell_formula_units_Z 16
_cell_length_a 15.310442
_cell_length_b 9.997986
_cell_length_c 10.854846
_cell_angle_alpha 67.550591
_cell_angle_beta 72.633584
_cell_angle_gamma 132.052811
_cell_volume 672.363126
_symmetry_space_group_name_H-M "P -1"
_symmetry_group_IT_number 2
_symmetry_cell_setting 'triclinic'
loop_
_space_group_symop_operation_xyz
x,y,z
-x,-y,-z
loop_
_atom_site_type_symbol
_atom_site_label
_atom_site_fract_x
_atom_site_fract_y
_atom_site_fract_z
Si Si1 0.683049 0.559765 0.133825
Si Si2 0.537898 0.190695 0.995845
Si Si3 0.937841 0.828580 0.709629
Si Si4 0.429136 0.286577 0.832006
Si Si5 0.989123 0.370668 0.869506
Si Si6 0.541623 0.329574 0.516817
Si Si7 0.137838 0.866256 0.737609
Si Si8 0.597321 0.081920 0.610949
O O1 0.563637 0.543361 0.171905
O O2 0.733113 0.625034 0.239493
O O3 0.542884 0.219904 0.303708
O O4 0.864979 0.816959 0.867217
O O5 0.749819 0.467903 0.876761
O O6 0.532715 0.330708 0.873299
O O7 0.500000 0.000000 0.000000
O O8 0.374187 0.956280 0.255541
O O9 0.125856 0.995092 0.614194
O O10 0.000000 0.000000 0.500000
O O11 0.550975 0.443874 0.594873
O O12 0.200861 0.917309 0.037291
O O13 0.009225 0.567780 0.822312
O O14 0.184088 0.583289 0.649311
O O15 0.966953 0.247868 0.047683
O O16 0.503332 0.110660 0.652138
O O17 0.359778 0.122901 0.577324
#
# Coordination Sequence:
#
# PCOD8017948 Si02
#       8
#     2   2   2   2   2   2   2   2
#     4  11  25  43  67 102 136 172 228 281 334 402
#     4  11  24  44  68  96 136 177 226 268 333 409
#     4  11  27  45  69  95 136 181 221 279 340 396
#     4  11  25  44  66 102 145 177 216 279 346 391
#     4  10  22  39  70 100 132 170 226 277 325 393
#     4  11  22  44  75  96 136 180 226 276 336 401
#     4  10  22  40  70  98 129 171 234 270 323 399
#     4  11  23  41  73 100 130 183 225 277 329 402
#
# _framework density 23.796662000000001
#
# number of rings (size 3 to 8) (size 9 to 14) (size 15 to 20)
#    0.000    1.250    2.500    2.250   10.500    4.500 
#    0.000    3.125    0.000    0.000    0.000    0.000 
#    0.000    0.000    0.000    0.000    0.000    0.000 
#
# Total GULP energy -198235.686001 kJ/mol
# GULP energy per Si atom -12389.730375 kJ/mol
# Density = 2.374250 g / cm^3
# Si number density = 23.796662 Si / 1000 Ang^3
#
#
#
# Elastic Constant Matrix: (Units=GPa)
#
#
# Indices 1 2 3 4 5 6 
#
# 1 135.5659 20.0985 29.5864 17.2028 17.9343 0.3907
# 2 20.0985 63.9594 9.7469 13.6148 -8.9786 -7.2060
# 3 29.5864 9.7469 125.3996 36.2756 15.4182 5.4147
# 4 17.2028 13.6148 36.2756 36.2876 5.2157 0.8406
# 5 17.9343 -8.9786 15.4182 5.2157 36.6687 2.4112
# 6 0.3907 -7.2060 5.4147 0.8406 2.4112 36.3883
#
#
#
# Elastic Compliance Matrix: (Units=1/GPa)
#
#
# Indices 1 2 3 4 5 6 
#
# 1 0.008781 -0.002941 -0.000830 -0.001589 -0.004425 -0.000223
# 2 -0.002941 0.019423 0.000282 -0.007245 0.006873 0.003548
# 3 -0.000830 0.000282 0.011732 -0.011007 -0.002811 -0.001241
# 4 -0.001589 -0.007245 -0.011007 0.042385 -0.002358 -0.000603
# 5 -0.004425 0.006873 -0.002811 -0.002358 0.032654 -0.000282
# 6 -0.000223 0.003548 -0.001241 -0.000603 -0.000282 0.028404
#
#
# Mechanical properties :
#
#
# Convention : Reuss Voigt Hill
#
# Bulk Modulus (GPa) = 30.34228 49.30983 39.82606
# Shear Modulus (GPa) = 30.98967 39.56848 35.27908
#
# Velocity S-wave (km/s) = 3.61261 4.08214 3.85453
# Velocity P-wave (km/s) = 5.49360 6.55628 6.04832
#
# Compressibility (1/GPa) = 0.03295731
#
# Stress axis : x y z
#
# Youngs Moduli (GPa) = 113.87789 51.48547 85.23840
#
# Poissons Ratio (x) = 0.15143 0.07074
# Poissons Ratio (y) = 0.33494 -0.02402
# Poissons Ratio (z) = 0.09451 -0.01451
#
# Static dielectric constant tensor:
#      x y z
#    x 4.449620 -0.028750 0.254070 
#    y -0.028750 4.177430 0.252110 
#    z 0.254070 0.252110 4.669420 
# 
# 
# High freq. dielectric constant tensor:
#      x y z
#    x 1.938280 -0.010200 0.013700 
#    y -0.010200 1.941150 0.014090 
#    z 0.013700 0.014090 1.952520 
# 
# From -- ./inp_files/447137.got.cif
#   From: 2010.06.25/outbox.cif.g09.slc.cpg/sg2_224_cif.got.tgz:447137.got - 2010.06.27 13:26:56.
