data_PCOD8017219
_publ_section_title
;
Structure prediction by ZEFSAII (Michael W. Deem and Ramdas Pophale) SiO2 
 PCOD8017219
Probable space group: P -1
;
_chemical_formula_sum "Si O2"
_cell_formula_units_Z 16
_cell_length_a 12.196958
_cell_length_b 11.836343
_cell_length_c 12.331422
_cell_angle_alpha 66.183028
_cell_angle_beta 143.864497
_cell_angle_gamma 90.756502
_cell_volume 782.325188
_symmetry_space_group_name_H-M "P -1"
_symmetry_group_IT_number 2
_symmetry_cell_setting 'triclinic'
loop_
_space_group_symop_operation_xyz
x,y,z
-x,-y,-z
loop_
_atom_site_type_symbol
_atom_site_label
_atom_site_fract_x
_atom_site_fract_y
_atom_site_fract_z
Si Si1 0.649960 0.838314 0.911893
Si Si2 0.268030 0.843917 0.023980
Si Si3 0.351406 0.894422 0.841980
Si Si4 0.104842 0.648044 0.892864
Si Si5 0.946629 0.213389 0.422698
Si Si6 0.935976 0.194939 0.657489
Si Si7 0.412980 0.177536 0.535154
Si Si8 0.451241 0.302378 0.301775
O O1 0.581720 0.829577 0.984121
O O2 0.635704 0.725858 0.867415
O O3 0.479482 0.009261 0.666664
O O4 0.909562 0.786002 0.143460
O O5 0.439734 0.789838 0.282195
O O6 0.409748 0.823376 0.036427
O O7 0.168201 0.744922 0.975121
O O8 0.051565 0.017885 0.794902
O O9 0.201415 0.854048 0.672479
O O10 0.211841 0.077075 0.666014
O O11 0.132060 0.659526 0.780618
O O12 0.852028 0.701738 0.698513
O O13 0.275399 0.474900 0.131296
O O14 0.910734 0.279016 0.490456
O O15 0.695465 0.271361 0.493172
O O16 0.467478 0.193435 0.449627
#
# Coordination Sequence:
#
# PCOD8017219 Si02
#       8
#     2   2   2   2   2   2   2   2
#     4  11  22  39  64  91 118 155 198 248 297 348
#     4   9  22  39  65  94 110 151 206 251 290 343
#     4   9  16  34  64  92 116 143 198 255 290 342
#     4  11  23  40  63  86 120 162 195 244 293 351
#     4   9  17  35  63  88 118 149 197 246 295 344
#     4  10  22  38  63  90 120 154 194 251 298 343
#     4  11  24  41  65  85 115 162 207 243 282 349
#     4  12  26  41  55  89 130 159 194 236 299 361
#
# _framework density 20.451853
#
# number of rings (size 3 to 8) (size 9 to 14) (size 15 to 20)
#    0.000    1.750    2.500    2.250    1.750    6.500 
#    0.000    0.625    0.000    0.000    0.000    0.000 
#    0.000    0.000    0.000    0.000    0.000    0.000 
#
# Total GULP energy -198452.904622 kJ/mol
# GULP energy per Si atom -12403.306539 kJ/mol
# Density = 2.040530 g / cm^3
# Si number density = 20.451853 Si / 1000 Ang^3
#
#
#
# Elastic Constant Matrix: (Units=GPa)
#
#
# Indices 1 2 3 4 5 6 
#
# 1 84.6492 6.3816 29.6347 12.0881 8.7251 -5.9760
# 2 6.3816 54.2263 32.3177 8.4256 9.8350 3.7613
# 3 29.6347 32.3177 75.3705 11.2162 21.7242 -2.2590
# 4 12.0881 8.4256 11.2162 15.4341 4.6372 1.1277
# 5 8.7251 9.8350 21.7242 4.6372 32.2711 3.2818
# 6 -5.9760 3.7613 -2.2590 1.1277 3.2818 15.8942
#
#
#
# Elastic Compliance Matrix: (Units=1/GPa)
#
#
# Indices 1 2 3 4 5 6 
#
# 1 0.015315 0.002678 -0.005447 -0.009749 -0.000410 0.005127
# 2 0.002678 0.026659 -0.011759 -0.007885 0.000871 -0.006594
# 3 -0.005447 -0.011759 0.024641 -0.004235 -0.011629 0.006938
# 4 -0.009749 -0.007885 -0.004235 0.081268 -0.003021 -0.007544
# 5 -0.000410 0.000871 -0.011629 -0.003021 0.040121 -0.010083
# 6 0.005127 -0.006594 0.006938 -0.007544 -0.010083 0.070007
#
#
# Mechanical properties :
#
#
# Convention : Reuss Voigt Hill
#
# Bulk Modulus (GPa) = 26.62507 38.99046 32.80777
# Shear Modulus (GPa) = 16.68961 22.44734 19.56848
#
# Velocity S-wave (km/s) = 2.85975 3.31655 3.09659
# Velocity P-wave (km/s) = 4.89396 5.81136 5.37228
#
# Compressibility (1/GPa) = 0.03755858
#
# Stress axis : x y z
#
# Youngs Moduli (GPa) = 65.29540 37.51118 40.58195
#
# Poissons Ratio (x) = -0.10044 0.22105
# Poissons Ratio (y) = -0.17484 0.47720
# Poissons Ratio (z) = 0.35567 0.44109
#
# Static dielectric constant tensor:
#      x y z
#    x 3.696090 -0.013700 -0.052770 
#    y -0.013700 3.506620 0.185870 
#    z -0.052770 0.185870 3.557260 
# 
# 
# High freq. dielectric constant tensor:
#      x y z
#    x 1.803040 -0.000400 0.001050 
#    y -0.000400 1.783440 0.021400 
#    z 0.001050 0.021400 1.788970 
# 
# From -- ./inp_files/180215.got.cif
#   From: 2010.06.25/outbox.cif.g09.slc.cpg/sg2_91_cif.got.tgz:180215.got - 2010.06.27 13:26:56.
