data_PCOD8017015
_publ_section_title
;
Structure prediction by ZEFSAII (Michael W. Deem and Ramdas Pophale) SiO2 
 PCOD8017015
Probable space group: P -1
;
_chemical_formula_sum "Si O2"
_cell_formula_units_Z 14
_cell_length_a 9.226807
_cell_length_b 12.191305
_cell_length_c 17.556358
_cell_angle_alpha 31.908032
_cell_angle_beta 74.549746
_cell_angle_gamma 98.352134
_cell_volume 688.670203
_symmetry_space_group_name_H-M "P -1"
_symmetry_group_IT_number 2
_symmetry_cell_setting 'triclinic'
loop_
_space_group_symop_operation_xyz
x,y,z
-x,-y,-z
loop_
_atom_site_type_symbol
_atom_site_label
_atom_site_fract_x
_atom_site_fract_y
_atom_site_fract_z
Si Si1 0.145139 0.383567 0.841939
Si Si2 0.278660 0.345913 0.204819
Si Si3 0.753762 0.392488 0.455925
Si Si4 0.751290 0.937246 0.771613
Si Si5 0.877760 0.820184 0.314268
Si Si6 0.407640 0.223056 0.506447
Si Si7 0.158049 0.862985 0.609753
O O1 0.074092 0.336923 0.789961
O O2 0.380489 0.493983 0.742344
O O3 0.200163 0.668802 0.696833
O O4 0.952440 0.086173 0.092972
O O5 0.226917 0.222777 0.198720
O O6 0.089913 0.318886 0.268611
O O7 0.304494 0.170909 0.358755
O O8 0.500788 0.699502 0.974162
O O9 0.762153 0.527018 0.453735
O O10 0.506431 0.155778 0.593503
O O11 0.824605 0.228508 0.554418
O O12 0.902677 0.045430 0.758486
O O13 0.701248 0.703145 0.472354
O O14 0.218939 0.940884 0.644850
#
# Coordination Sequence:
#
# PCOD8017015 Si02
#       7
#     2   2   2   2   2   2   2
#     4  10  24  38  66  93 126 162 207 257 315 362
#     4  10  22  37  64  92 129 159 208 260 313 376
#     4  10  24  43  62  90 132 164 209 257 303 372
#     4  11  22  42  63  93 122 169 208 254 314 369
#     4  12  23  43  65  92 129 167 210 254 305 375
#     4  10  23  39  65  93 125 162 208 258 313 359
#     4  11  20  41  63  93 130 159 203 268 316 365
#
# _framework density 20.329034
#
# number of rings (size 3 to 8) (size 9 to 14) (size 15 to 20)
#    0.857    0.571    2.857    2.571    2.000    2.857 
#    0.000    0.000    0.000    3.429    0.000    0.000 
#    0.000    0.000    0.000    0.000    0.000    0.000 
#
# Total GULP energy -173478.679570 kJ/mol
# GULP energy per Si atom -12391.334255 kJ/mol
# Density = 2.028276 g / cm^3
# Si number density = 20.329034 Si / 1000 Ang^3
#
#
#
# Elastic Constant Matrix: (Units=GPa)
#
#
# Indices 1 2 3 4 5 6 
#
# 1 74.2690 35.7504 33.6753 -0.5061 2.0860 9.0349
# 2 35.7504 103.8340 4.2790 1.8175 -8.2256 8.6576
# 3 33.6753 4.2790 65.5042 8.1954 -2.2110 -2.4991
# 4 -0.5061 1.8175 8.1954 19.5211 -3.0491 -2.1524
# 5 2.0860 -8.2256 -2.2110 -3.0491 24.0885 8.2627
# 6 9.0349 8.6576 -2.4991 -2.1524 8.2627 32.4378
#
#
#
# Elastic Compliance Matrix: (Units=1/GPa)
#
#
# Indices 1 2 3 4 5 6 
#
# 1 0.023454 -0.007596 -0.012538 0.005550 -0.003641 -0.004176
# 2 -0.007596 0.012847 0.003440 -0.002198 0.006018 -0.002727
# 3 -0.012538 0.003440 0.022876 -0.009578 0.002058 0.003177
# 4 0.005550 -0.002198 -0.009578 0.056430 0.004745 0.000839
# 5 -0.003641 0.006018 0.002058 0.004745 0.048995 -0.012599
# 6 -0.004176 -0.002727 0.003177 0.000839 -0.012599 0.036229
#
#
# Mechanical properties :
#
#
# Convention : Reuss Voigt Hill
#
# Bulk Modulus (GPa) = 38.77632 43.44629 41.11130
# Shear Modulus (GPa) = 20.59184 26.53631 23.56408
#
# Velocity S-wave (km/s) = 3.18611 3.61687 3.40830
# Velocity P-wave (km/s) = 5.71409 6.23380 5.97959
#
# Compressibility (1/GPa) = 0.02578894
#
# Stress axis : x y z
#
# Youngs Moduli (GPa) = 42.63647 77.83992 43.71374
#
# Poissons Ratio (x) = 0.59128 0.54808
# Poissons Ratio (y) = 0.32387 -0.15037
# Poissons Ratio (z) = 0.53457 -0.26777
#
# Static dielectric constant tensor:
#      x y z
#    x 3.616660 0.101910 -0.036080 
#    y 0.101910 3.732160 0.185950 
#    z -0.036080 0.185950 3.455810 
# 
# 
# High freq. dielectric constant tensor:
#      x y z
#    x 1.793770 0.004920 -0.002880 
#    y 0.004920 1.802450 0.013570 
#    z -0.002880 0.013570 1.768030 
# 
# From -- ./inp_files/277268.got.cif
#   From: 2010.06.25/outbox.cif.g09.slc.cpg/sg2_139_cif.got.tgz:277268.got - 2010.06.27 13:26:56.
