data_PCOD8017460
_publ_section_title
;
Structure prediction by ZEFSAII (Michael W. Deem and Ramdas Pophale) SiO2 
 PCOD8017460
Probable space group: P -1
;
_chemical_formula_sum "Si O2"
_cell_formula_units_Z 16
_cell_length_a 8.404818
_cell_length_b 6.948122
_cell_length_c 17.080240
_cell_angle_alpha 130.327800
_cell_angle_beta 76.855910
_cell_angle_gamma 103.369729
_cell_volume 735.722922
_symmetry_space_group_name_H-M "P -1"
_symmetry_group_IT_number 2
_symmetry_cell_setting 'triclinic'
loop_
_space_group_symop_operation_xyz
x,y,z
-x,-y,-z
loop_
_atom_site_type_symbol
_atom_site_label
_atom_site_fract_x
_atom_site_fract_y
_atom_site_fract_z
Si Si1 0.368780 0.192217 0.087095
Si Si2 0.304048 0.365452 0.639727
Si Si3 0.949868 0.936070 0.299490
Si Si4 0.157417 0.042081 0.440076
Si Si5 0.132927 0.813251 0.096484
Si Si6 0.199239 0.280772 0.969083
Si Si7 0.673460 0.071717 0.263519
Si Si8 0.567773 0.270482 0.702070
O O1 0.447152 0.465553 0.181577
O O2 0.254826 0.068551 0.137685
O O3 0.252486 0.228204 0.036591
O O4 0.500000 0.000000 0.000000
O O5 0.147808 0.279887 0.690874
O O6 0.281355 0.259588 0.525320
O O7 0.466002 0.267501 0.632201
O O8 0.337841 0.667124 0.710674
O O9 0.824089 0.108374 0.318444
O O10 0.045199 0.797984 0.186418
O O11 0.086837 0.112967 0.381516
O O12 0.246682 0.783863 0.353278
O O13 0.000000 0.000000 0.500000
O O14 0.996829 0.794617 0.037813
O O15 0.240684 0.577202 0.019529
O O16 0.301348 0.132468 0.858705
O O17 0.505749 0.967553 0.298682
#
# Coordination Sequence:
#
# PCOD8017460 Si02
#       8
#     2   2   2   2   2   2   2   2
#     4  12  25  39  63  94 126 165 203 245 303 365
#     4  10  22  42  64  86 121 163 201 249 312 362
#     4   9  21  40  62  92 121 154 207 258 303 360
#     4  10  22  41  65  90 121 159 204 259 305 355
#     4  10  22  40  62  89 124 163 201 251 305 359
#     4  10  22  39  60  88 124 160 205 251 298 360
#     4  10  22  40  63  89 123 163 202 250 303 363
#     4  11  24  41  61  91 127 162 204 250 300 363
#
# _framework density 21.747316999999999
#
# number of rings (size 3 to 8) (size 9 to 14) (size 15 to 20)
#    0.000    1.750    0.000    3.000    0.000   16.000 
#    0.000    2.500    0.000    0.000    0.000    0.000 
#    0.000    0.000    0.000    0.000    0.000    0.000 
#
# Total GULP energy -198356.522010 kJ/mol
# GULP energy per Si atom -12397.282626 kJ/mol
# Density = 2.169782 g / cm^3
# Si number density = 21.747317 Si / 1000 Ang^3
#
#
#
# Elastic Constant Matrix: (Units=GPa)
#
#
# Indices 1 2 3 4 5 6 
#
# 1 94.8971 37.4505 46.1534 -7.0054 -2.6056 -4.8499
# 2 37.4505 110.5884 28.2169 2.6198 0.1270 3.0469
# 3 46.1534 28.2169 100.8314 -9.9023 -2.2439 -6.4541
# 4 -7.0054 2.6198 -9.9023 16.3613 -14.2885 2.0727
# 5 -2.6056 0.1270 -2.2439 -14.2885 38.1452 -1.9685
# 6 -4.8499 3.0469 -6.4541 2.0727 -1.9685 19.6533
#
#
#
# Elastic Compliance Matrix: (Units=1/GPa)
#
#
# Indices 1 2 3 4 5 6 
#
# 1 0.015314 -0.004168 -0.004921 0.007017 0.003524 0.002422
# 2 -0.004168 0.011304 -0.002277 -0.007609 -0.003465 -0.003073
# 3 -0.004921 -0.002277 0.014130 0.010392 0.004557 0.003139
# 4 0.007017 -0.007609 0.010392 0.108016 0.041530 -0.000908
# 5 0.003524 -0.003465 0.004557 0.041530 0.042435 0.002774
# 6 0.002422 -0.003073 0.003139 -0.000908 0.002774 0.053361
#
#
# Mechanical properties :
#
#
# Convention : Reuss Voigt Hill
#
# Bulk Modulus (GPa) = 55.50176 58.88431 57.19303
# Shear Modulus (GPa) = 18.29517 27.79835 23.04676
#
# Velocity S-wave (km/s) = 2.90360 3.57913 3.25891
# Velocity P-wave (km/s) = 6.06776 6.64948 6.36527
#
# Compressibility (1/GPa) = 0.01801745
#
# Stress axis : x y z
#
# Youngs Moduli (GPa) = 65.29860 88.46666 70.77128
#
# Poissons Ratio (x) = 0.36869 0.34826
# Poissons Ratio (y) = 0.27213 0.16113
# Poissons Ratio (z) = 0.32133 0.20142
#
# Static dielectric constant tensor:
#      x y z
#    x 4.204250 -0.199420 0.316620 
#    y -0.199420 3.801890 -0.186610 
#    z 0.316620 -0.186610 4.123480 
# 
# 
# High freq. dielectric constant tensor:
#      x y z
#    x 1.865320 -0.012810 0.006290 
#    y -0.012810 1.840850 -0.011910 
#    z 0.006290 -0.011910 1.856290 
# 
# From -- ./inp_files/279181.got.cif
#   From: 2010.06.25/outbox.cif.g09.slc.cpg/sg2_140_cif.got.tgz:279181.got - 2010.06.27 13:26:56.
