data_PCOD8017097
_publ_section_title
;
Structure prediction by ZEFSAII (Michael W. Deem and Ramdas Pophale) SiO2 
 PCOD8017097
Probable space group: P -1
;
_chemical_formula_sum "Si O2"
_cell_formula_units_Z 12
_cell_length_a 9.408028
_cell_length_b 14.470243
_cell_length_c 5.157625
_cell_angle_alpha 59.826850
_cell_angle_beta 78.191632
_cell_angle_gamma 68.399655
_cell_volume 564.212429
_symmetry_space_group_name_H-M "P -1"
_symmetry_group_IT_number 2
_symmetry_cell_setting 'triclinic'
loop_
_space_group_symop_operation_xyz
x,y,z
-x,-y,-z
loop_
_atom_site_type_symbol
_atom_site_label
_atom_site_fract_x
_atom_site_fract_y
_atom_site_fract_z
Si Si1 0.387345 0.238228 0.741933
Si Si2 0.876664 0.247455 0.492916
Si Si3 0.552034 0.167484 0.289004
Si Si4 0.923218 0.784481 0.047783
Si Si5 0.435986 0.624907 0.745737
Si Si6 0.836141 0.029916 0.643830
O O1 0.430856 0.164635 0.565841
O O2 0.205636 0.278044 0.804924
O O3 0.441944 0.349641 0.536455
O O4 0.478746 0.158662 0.052409
O O5 0.728327 0.356511 0.355469
O O6 0.816532 0.137365 0.689575
O O7 0.951763 0.265169 0.708714
O O8 0.997577 0.235622 0.233152
O O9 0.591181 0.285670 0.131557
O O10 0.706263 0.063262 0.422042
O O11 0.833171 0.917059 0.951420
O O12 0.500000 0.500000 0.000000
O O13 0.000000 0.000000 0.500000
#
# Coordination Sequence:
#
# PCOD8017097 Si02
#       6
#     2   2   2   2   2   2
#     4  10  22  38  59  83 122 145 191 234 286 334
#     4  10  22  38  59  85 116 150 196 230 277 340
#     4   9  21  37  57  85 115 145 194 230 276 339
#     4  11  22  38  58  86 121 153 182 235 284 335
#     4   9  22  41  64  83 110 151 194 240 286 335
#     4   9  20  34  59  85 118 152 191 224 282 335
#
# _framework density 21.268583
#
# number of rings (size 3 to 8) (size 9 to 14) (size 15 to 20)
#    1.000    1.333    0.000    1.500    7.000    4.667 
#    0.000    1.667    0.000    0.000    0.000    0.000 
#    0.000    0.000    0.000    0.000    0.000    0.000 
#
# Total GULP energy -148715.568326 kJ/mol
# GULP energy per Si atom -12392.964027 kJ/mol
# Density = 2.122017 g / cm^3
# Si number density = 21.268583 Si / 1000 Ang^3
#
#
#
# Elastic Constant Matrix: (Units=GPa)
#
#
# Indices 1 2 3 4 5 6 
#
# 1 116.5398 14.3264 56.8488 -17.7234 3.9335 -19.0319
# 2 14.3264 46.1621 31.1471 -22.8581 0.7719 -15.1860
# 3 56.8488 31.1471 114.6549 -3.0627 9.3019 -9.6353
# 4 -17.7234 -22.8581 -3.0627 31.5413 -7.1171 14.0466
# 5 3.9335 0.7719 9.3019 -7.1171 40.6671 4.5020
# 6 -19.0319 -15.1860 -9.6353 14.0466 4.5020 20.2727
#
#
#
# Elastic Compliance Matrix: (Units=1/GPa)
#
#
# Indices 1 2 3 4 5 6 
#
# 1 0.014956 0.009978 -0.009161 0.010900 0.001336 0.009312
# 2 0.009978 0.054355 -0.018247 0.039467 0.007717 0.012352
# 3 -0.009161 -0.018247 0.018266 -0.018145 -0.006160 0.000353
# 4 0.010900 0.039467 -0.018145 0.082970 0.020279 -0.030819
# 5 0.001336 0.007717 -0.006160 0.020279 0.031139 -0.016859
# 6 0.009312 0.012352 0.000353 -0.030819 -0.016859 0.092588
#
#
# Mechanical properties :
#
#
# Convention : Reuss Voigt Hill
#
# Bulk Modulus (GPa) = 18.96921 53.55570 36.26246
# Shear Modulus (GPa) = 14.42141 30.16517 22.29329
#
# Velocity S-wave (km/s) = 2.60679 3.77011 3.24107
# Velocity P-wave (km/s) = 4.24249 6.64733 5.57610
#
# Compressibility (1/GPa) = 0.05271700
#
# Stress axis : x y z
#
# Youngs Moduli (GPa) = 66.86183 18.39742 54.74713
#
# Poissons Ratio (x) = -0.18357 0.50154
# Poissons Ratio (y) = -0.66714 0.99898
# Poissons Ratio (z) = 0.61252 0.33570
#
# Static dielectric constant tensor:
#      x y z
#    x 3.886790 -0.125710 -0.065670 
#    y -0.125710 3.521730 -0.101780 
#    z -0.065670 -0.101780 3.775340 
# 
# 
# High freq. dielectric constant tensor:
#      x y z
#    x 1.839850 -0.021750 0.007200 
#    y -0.021750 1.788750 0.008070 
#    z 0.007200 0.008070 1.829820 
# 
# From -- ./inp_files/32595.got.cif
#   From: 2010.06.25/outbox.cif.g09.slc.cpg/sg2_17_cif.got.tgz:32595.got - 2010.06.27 13:26:56.
