data_PCOD8017257
_publ_section_title
;
Structure prediction by ZEFSAII (Michael W. Deem and Ramdas Pophale) SiO2 
 PCOD8017257
Probable space group: P -1
;
_chemical_formula_sum "Si O2"
_cell_formula_units_Z 14
_cell_length_a 10.734297
_cell_length_b 17.441258
_cell_length_c 9.410703
_cell_angle_alpha 62.962148
_cell_angle_beta 89.518790
_cell_angle_gamma 36.073837
_cell_volume 673.615997
_symmetry_space_group_name_H-M "P -1"
_symmetry_group_IT_number 2
_symmetry_cell_setting 'triclinic'
loop_
_space_group_symop_operation_xyz
x,y,z
-x,-y,-z
loop_
_atom_site_type_symbol
_atom_site_label
_atom_site_fract_x
_atom_site_fract_y
_atom_site_fract_z
Si Si1 0.216832 0.916655 0.661875
Si Si2 0.261314 0.375700 0.264132
Si Si3 0.744397 0.590893 0.451174
Si Si4 0.193112 0.644855 0.412661
Si Si5 0.237343 0.230192 0.201201
Si Si6 0.810481 0.046694 0.037978
Si Si7 0.116568 0.169801 0.458055
O O1 0.540826 0.695155 0.790038
O O2 0.123400 0.069454 0.488964
O O3 0.205172 0.911607 0.834768
O O4 0.000000 0.000000 0.500000
O O5 0.387178 0.305085 0.480867
O O6 0.248029 0.285328 0.293029
O O7 0.938469 0.618479 0.055124
O O8 0.833395 0.433612 0.590857
O O9 0.507735 0.755313 0.193608
O O10 0.000000 0.500000 0.500000
O O11 0.500000 0.500000 0.500000
O O12 0.140065 0.659013 0.568520
O O13 0.946270 0.865943 0.174871
O O14 0.064268 0.256216 0.242118
O O15 0.562578 0.006009 0.332065
O O16 0.000000 0.000000 0.000000
#
# Coordination Sequence:
#
# PCOD8017257 Si02
#       7
#     2   2   2   2   2   2   2
#     4  10  22  40  66  92 125 168 222 269 325 402
#     4  10  22  38  64  92 129 159 224 261 331 396
#     4  12  27  43  68 104 136 180 228 280 337 409
#     4  11  24  43  69  96 134 182 230 271 338 420
#     4   9  19  40  64  89 125 173 202 281 333 389
#     4  11  24  46  71  94 141 184 218 280 350 396
#     4   9  20  38  64  90 126 163 221 266 337 386
#
# _framework density 20.783355
#
# number of rings (size 3 to 8) (size 9 to 14) (size 15 to 20)
#    0.000    1.714    1.429    1.714   12.000    0.571 
#   10.286    0.714    0.000    0.000    0.000    0.000 
#    0.000    0.000    0.000    0.000    0.000    0.000 
#
# Total GULP energy -173460.184687 kJ/mol
# GULP energy per Si atom -12390.013192 kJ/mol
# Density = 2.073605 g / cm^3
# Si number density = 20.783355 Si / 1000 Ang^3
#
#
#
# Elastic Constant Matrix: (Units=GPa)
#
#
# Indices 1 2 3 4 5 6 
#
# 1 144.5487 48.9048 44.4741 10.6817 0.0308 -13.6137
# 2 48.9048 112.3554 44.7330 11.2504 3.8314 -17.1863
# 3 44.4741 44.7330 106.8427 12.2387 7.8471 7.3431
# 4 10.6817 11.2504 12.2387 31.7527 1.3743 0.1842
# 5 0.0308 3.8314 7.8471 1.3743 32.3112 1.0986
# 6 -13.6137 -17.1863 7.3431 0.1842 1.0986 34.6793
#
#
#
# Elastic Compliance Matrix: (Units=1/GPa)
#
#
# Indices 1 2 3 4 5 6 
#
# 1 0.008930 -0.002161 -0.002956 -0.001156 0.000911 0.003038
# 2 -0.002161 0.012944 -0.004697 -0.002064 -0.000528 0.006589
# 3 -0.002956 -0.004697 0.013434 -0.002380 -0.002389 -0.006244
# 4 -0.001156 -0.002064 -0.002380 0.033562 -0.000565 -0.001133
# 5 0.000911 -0.000528 -0.002389 -0.000565 0.031629 -0.000397
# 6 0.003038 0.006589 -0.006244 -0.001133 -0.000397 0.034634
#
#
# Mechanical properties :
#
#
# Convention : Reuss Voigt Hill
#
# Bulk Modulus (GPa) = 63.77748 71.10785 67.44267
# Shear Modulus (GPa) = 31.25273 34.79099 33.02186
#
# Velocity S-wave (km/s) = 3.88201 4.09587 3.99038
# Velocity P-wave (km/s) = 7.13069 7.52704 7.33155
#
# Compressibility (1/GPa) = 0.01567951
#
# Stress axis : x y z
#
# Youngs Moduli (GPa) = 111.98351 77.25854 74.43890
#
# Poissons Ratio (x) = 0.16693 0.22002
# Poissons Ratio (y) = 0.24197 0.34967
# Poissons Ratio (z) = 0.33100 0.36291
#
# Static dielectric constant tensor:
#      x y z
#    x 4.308730 -0.443020 -0.659840 
#    y -0.443020 4.211590 0.334530 
#    z -0.659840 0.334530 4.583540 
# 
# 
# High freq. dielectric constant tensor:
#      x y z
#    x 1.824440 -0.012480 -0.014430 
#    y -0.012480 1.817820 -0.007350 
#    z -0.014430 -0.007350 1.799850 
# 
# From -- ./inp_files/277702.got.cif
#   From: 2010.06.25/outbox.cif.g09.slc.cpg/sg2_139_cif.got.tgz:277702.got - 2010.06.27 13:26:56.
