data_PCOD8017584
_publ_section_title
;
Structure prediction by ZEFSAII (Michael W. Deem and Ramdas Pophale) SiO2 
 PCOD8017584
Probable space group: P -1
;
_chemical_formula_sum "Si O2"
_cell_formula_units_Z 16
_cell_length_a 11.388136
_cell_length_b 19.438620
_cell_length_c 16.584964
_cell_angle_alpha 156.977936
_cell_angle_beta 33.950383
_cell_angle_gamma 148.832834
_cell_volume 726.914320
_symmetry_space_group_name_H-M "P -1"
_symmetry_group_IT_number 2
_symmetry_cell_setting 'triclinic'
loop_
_space_group_symop_operation_xyz
x,y,z
-x,-y,-z
loop_
_atom_site_type_symbol
_atom_site_label
_atom_site_fract_x
_atom_site_fract_y
_atom_site_fract_z
Si Si1 0.849002 0.839048 0.300890
Si Si2 0.078514 0.633631 0.485065
Si Si3 0.091741 0.521076 0.175331
Si Si4 0.132666 0.110039 0.180834
Si Si5 0.605187 0.437855 0.299761
Si Si6 0.709821 0.805128 0.526268
Si Si7 0.245340 0.775712 0.703961
Si Si8 0.265374 0.936038 0.514574
O O1 0.796274 0.796022 0.377646
O O2 0.683185 0.913705 0.426625
O O3 0.804395 0.633812 0.064354
O O4 0.106776 0.013355 0.332420
O O5 0.153100 0.604852 0.321956
O O6 0.284531 0.744674 0.552574
O O7 0.933425 0.763061 0.707942
O O8 0.920990 0.425852 0.382463
O O9 0.208368 0.723955 0.278419
O O10 0.826715 0.412308 0.180225
O O11 0.409651 0.226863 0.161954
O O12 0.958730 0.070820 0.314399
O O13 0.109871 0.910202 0.939860
O O14 0.500000 0.500000 0.500000
O O15 0.666863 0.599368 0.368766
O O16 0.483006 0.846720 0.694644
O O17 0.500000 0.000000 0.500000
#
# Coordination Sequence:
#
# PCOD8017584 Si02
#       8
#     2   2   2   2   2   2   2   2
#     4  11  25  46  66  96 136 176 226 269 332 402
#     4  10  22  39  62  94 134 160 219 276 317 397
#     4  11  23  44  71  96 128 180 224 272 334 388
#     4  11  22  41  69  99 127 175 218 269 339 384
#     4  12  20  42  73  99 133 164 223 286 329 385
#     4  11  24  44  66  99 137 173 218 284 331 387
#     4  11  22  41  64  97 133 170 214 274 338 386
#     4  11  25  45  67  99 138 177 222 270 320 408
#
# _framework density 22.010846999999998
#
# number of rings (size 3 to 8) (size 9 to 14) (size 15 to 20)
#    0.000    1.000    5.000    1.875    3.500    1.000 
#    6.750    3.750    0.000    0.000    0.000    0.000 
#    0.000    0.000    0.000    0.000    0.000    0.000 
#
# Total GULP energy -198224.156248 kJ/mol
# GULP energy per Si atom -12389.009765 kJ/mol
# Density = 2.196075 g / cm^3
# Si number density = 22.010847 Si / 1000 Ang^3
#
#
#
# Elastic Constant Matrix: (Units=GPa)
#
#
# Indices 1 2 3 4 5 6 
#
# 1 108.7592 25.4239 31.7461 9.2918 -6.8864 -11.7314
# 2 25.4239 85.3795 35.8452 17.0463 1.9066 -8.1931
# 3 31.7461 35.8452 168.2966 55.1034 11.8170 -3.2417
# 4 9.2918 17.0463 55.1034 37.6397 9.3668 5.3432
# 5 -6.8864 1.9066 11.8170 9.3668 33.8011 10.1382
# 6 -11.7314 -8.1931 -3.2417 5.3432 10.1382 38.9948
#
#
#
# Elastic Compliance Matrix: (Units=1/GPa)
#
#
# Indices 1 2 3 4 5 6 
#
# 1 0.010567 -0.002324 -0.001600 -0.000058 0.002267 0.001976
# 2 -0.002324 0.014027 -0.000900 -0.004752 -0.000521 0.002960
# 3 -0.001600 -0.000900 0.012205 -0.017323 -0.000604 0.002875
# 4 -0.000058 -0.004752 -0.017323 0.057026 -0.006952 -0.008462
# 5 0.002267 -0.000521 -0.000604 -0.006952 0.034458 -0.007484
# 6 0.001976 0.002960 0.002875 -0.008462 -0.007484 0.030205
#
#
# Mechanical properties :
#
#
# Convention : Reuss Voigt Hill
#
# Bulk Modulus (GPa) = 36.83201 60.94063 48.88632
# Shear Modulus (GPa) = 28.21888 40.04847 34.13367
#
# Velocity S-wave (km/s) = 3.58445 4.27017 3.94225
# Velocity P-wave (km/s) = 5.82245 7.21521 6.55592
#
# Compressibility (1/GPa) = 0.02715030
#
# Stress axis : x y z
#
# Youngs Moduli (GPa) = 94.63729 71.29324 81.93265
#
# Poissons Ratio (x) = 0.16569 0.13113
# Poissons Ratio (y) = 0.21994 0.07370
# Poissons Ratio (z) = 0.15146 0.06413
#
# Static dielectric constant tensor:
#      x y z
#    x 4.433320 -0.266550 -0.099210 
#    y -0.266550 3.811120 0.264740 
#    z -0.099210 0.264740 3.768350 
# 
# 
# High freq. dielectric constant tensor:
#      x y z
#    x 1.882450 0.000560 -0.009730 
#    y 0.000560 1.868410 0.023650 
#    z -0.009730 0.023650 1.853790 
# 
# From -- ./inp_files/427878.got.cif
#   From: 2010.06.25/outbox.cif.g09.slc.cpg/sg2_214_cif.got.tgz:427878.got - 2010.06.27 13:26:56.
