data_PCOD8017211
_publ_section_title
;
Structure prediction by ZEFSAII (Michael W. Deem and Ramdas Pophale) SiO2 
 PCOD8017211
Probable space group: P -1
;
_chemical_formula_sum "Si O2"
_cell_formula_units_Z 16
_cell_length_a 9.665078
_cell_length_b 12.249393
_cell_length_c 13.710983
_cell_angle_alpha 150.977640
_cell_angle_beta 120.730152
_cell_angle_gamma 66.595084
_cell_volume 672.139357
_symmetry_space_group_name_H-M "P -1"
_symmetry_group_IT_number 2
_symmetry_cell_setting 'triclinic'
loop_
_space_group_symop_operation_xyz
x,y,z
-x,-y,-z
loop_
_atom_site_type_symbol
_atom_site_label
_atom_site_fract_x
_atom_site_fract_y
_atom_site_fract_z
Si Si1 0.229259 0.674198 0.489035
Si Si2 0.297227 0.667045 0.119775
Si Si3 0.983133 0.007055 0.615923
Si Si4 0.542579 0.912507 0.149406
Si Si5 0.221532 0.418140 0.084807
Si Si6 0.807871 0.097795 0.915992
Si Si7 0.087658 0.355906 0.343447
Si Si8 0.354959 0.192173 0.687647
O O1 0.073200 0.809735 0.541091
O O2 0.220534 0.520200 0.270281
O O3 0.224816 0.516902 0.460006
O O4 0.394567 0.848264 0.692376
O O5 0.215982 0.616678 0.156974
O O6 0.204225 0.827734 0.142546
O O7 0.482059 0.778237 0.294942
O O8 0.297331 0.435067 0.878242
O O9 0.791128 0.962500 0.541722
O O10 0.000000 0.000000 0.500000
O O11 0.060180 0.244130 0.874000
O O12 0.348842 0.863032 0.044259
O O13 0.614386 0.937029 0.302913
O O14 0.614718 0.702976 0.959876
O O15 0.826672 0.831732 0.714154
O O16 0.962189 0.241319 0.129939
O O17 0.000000 0.500000 0.500000
#
# Coordination Sequence:
#
# PCOD8017211 Si02
#       8
#     2   2   2   2   2   2   2   2
#     4  11  24  42  64  93 128 170 214 257 316 377
#     4   9  17  36  63  91 128 164 200 252 310 376
#     4  11  19  37  58  94 133 171 206 253 303 377
#     4   9  20  41  63  94 131 161 208 261 309 377
#     4  10  22  38  63 100 134 168 200 255 322 374
#     4  10  23  44  69  94 122 166 218 258 311 380
#     4  11  27  49  66  88 122 166 218 271 317 368
#     4   9  16  33  58  91 133 169 200 244 305 373
#
# _framework density 23.804587999999999
#
# number of rings (size 3 to 8) (size 9 to 14) (size 15 to 20)
#    0.000    2.000    3.750    1.500    0.000    6.000 
#    2.250    5.000    0.000    0.000    0.000    0.000 
#    0.000    0.000    0.000    0.000    0.000    0.000 
#
# Total GULP energy -198443.059825 kJ/mol
# GULP energy per Si atom -12402.691239 kJ/mol
# Density = 2.375041 g / cm^3
# Si number density = 23.804588 Si / 1000 Ang^3
#
#
#
# Elastic Constant Matrix: (Units=GPa)
#
#
# Indices 1 2 3 4 5 6 
#
# 1 102.7743 37.9614 27.4846 10.0676 11.9554 8.5834
# 2 37.9614 119.8239 34.0405 33.4885 -6.5883 17.1931
# 3 27.4846 34.0405 75.8115 23.9477 2.0841 15.6788
# 4 10.0676 33.4885 23.9477 31.7615 3.6107 5.9477
# 5 11.9554 -6.5883 2.0841 3.6107 39.0776 -4.3390
# 6 8.5834 17.1931 15.6788 5.9477 -4.3390 40.7392
#
#
#
# Elastic Compliance Matrix: (Units=1/GPa)
#
#
# Indices 1 2 3 4 5 6 
#
# 1 0.012456 -0.004168 -0.003604 0.003803 -0.004732 -0.000537
# 2 -0.004168 0.014096 -0.000165 -0.013465 0.004622 -0.002549
# 3 -0.003604 -0.000165 0.019514 -0.012579 0.000666 -0.004774
# 4 0.003803 -0.013465 -0.012579 0.054665 -0.007711 0.000920
# 5 -0.004732 0.004622 0.000666 -0.007711 0.028826 0.002986
# 6 -0.000537 -0.002549 -0.004774 0.000920 0.002986 0.027756
#
#
# Mechanical properties :
#
#
# Convention : Reuss Voigt Hill
#
# Bulk Modulus (GPa) = 33.12159 55.26474 44.19316
# Shear Modulus (GPa) = 27.28489 35.57721 31.43105
#
# Velocity S-wave (km/s) = 3.38923 3.87014 3.63764
# Velocity P-wave (km/s) = 5.40926 6.57549 6.02068
#
# Compressibility (1/GPa) = 0.03019179
#
# Stress axis : x y z
#
# Youngs Moduli (GPa) = 80.27961 70.94182 51.24633
#
# Poissons Ratio (x) = 0.29571 0.18471
# Poissons Ratio (y) = 0.33463 0.00843
# Poissons Ratio (z) = 0.28935 0.01167
#
# Static dielectric constant tensor:
#      x y z
#    x 4.516670 -0.154230 0.221350 
#    y -0.154230 4.281950 0.422840 
#    z 0.221350 0.422840 4.364930 
# 
# 
# High freq. dielectric constant tensor:
#      x y z
#    x 1.955330 -0.002340 0.003550 
#    y -0.002340 1.926170 0.027330 
#    z 0.003550 0.027330 1.951960 
# 
# From -- ./inp_files/519424.got.cif
#   From: 2010.06.25/outbox.cif.g09.slc.cpg/sg2_260_cif.got.tgz:519424.got - 2010.06.27 13:26:56.
