data_PCOD8017752
_publ_section_title
;
Structure prediction by ZEFSAII (Michael W. Deem and Ramdas Pophale) SiO2 
 PCOD8017752
Probable space group: P -1
;
_chemical_formula_sum "Si O2"
_cell_formula_units_Z 14
_cell_length_a 13.906448
_cell_length_b 9.108923
_cell_length_c 11.194300
_cell_angle_alpha 66.948640
_cell_angle_beta 123.281028
_cell_angle_gamma 65.870241
_cell_volume 638.523215
_symmetry_space_group_name_H-M "P -1"
_symmetry_group_IT_number 2
_symmetry_cell_setting 'triclinic'
loop_
_space_group_symop_operation_xyz
x,y,z
-x,-y,-z
loop_
_atom_site_type_symbol
_atom_site_label
_atom_site_fract_x
_atom_site_fract_y
_atom_site_fract_z
Si Si1 0.480172 0.548990 0.660248
Si Si2 0.255969 0.041287 0.980994
Si Si3 0.684727 0.660360 0.045898
Si Si4 0.977094 0.843353 0.415124
Si Si5 0.862428 0.293719 0.066122
Si Si6 0.637787 0.217244 0.244273
Si Si7 0.880364 0.981723 0.882277
O O1 0.346681 0.755903 0.614722
O O2 0.344479 0.717623 0.397328
O O3 0.672921 0.442893 0.816511
O O4 0.554285 0.283697 0.808720
O O5 0.335621 0.129499 0.016420
O O6 0.107355 0.195587 0.719015
O O7 0.132013 0.134811 0.984924
O O8 0.800267 0.496624 0.053827
O O9 0.800233 0.448565 0.303238
O O10 0.464288 0.839571 0.829679
O O11 0.967977 0.025684 0.288498
O O12 0.852695 0.981746 0.409186
O O13 0.007927 0.213384 0.095747
O O14 0.500000 0.500000 0.000000
O O15 0.000000 0.000000 0.000000
#
# Coordination Sequence:
#
# PCOD8017752 Si02
#       7
#     2   2   2   2   2   2   2
#     4  10  22  41  63  88 121 154 210 247 288 367
#     4  11  24  41  58  95 126 156 199 253 303 350
#     4  11  24  40  61  93 129 152 197 256 304 352
#     4  11  21  40  63  91 124 160 202 244 295 367
#     4  10  22  39  65  91 115 164 206 240 296 358
#     4  11  21  40  64  90 118 162 205 238 301 363
#     4  12  23  41  68  87 114 166 210 243 296 356
#
# _framework density 21.925595000000001
#
# number of rings (size 3 to 8) (size 9 to 14) (size 15 to 20)
#    0.000    1.143    7.143    2.143    2.000    1.143 
#    2.571    2.857    0.000    0.000    0.000    0.000 
#    0.000    0.000    0.000    0.000    0.000    0.000 
#
# Total GULP energy -173612.482387 kJ/mol
# GULP energy per Si atom -12400.891599 kJ/mol
# Density = 2.187569 g / cm^3
# Si number density = 21.925595 Si / 1000 Ang^3
#
#
#
# Elastic Constant Matrix: (Units=GPa)
#
#
# Indices 1 2 3 4 5 6 
#
# 1 84.2968 22.7415 1.8320 -0.8671 2.4201 -13.9480
# 2 22.7415 92.3958 16.6450 9.9207 -0.8186 13.8800
# 3 1.8320 16.6450 97.8155 11.1146 3.4633 -0.2503
# 4 -0.8671 9.9207 11.1146 16.9142 1.3263 6.6585
# 5 2.4201 -0.8186 3.4633 1.3263 15.4519 1.3142
# 6 -13.9480 13.8800 -0.2503 6.6585 1.3142 38.1108
#
#
#
# Elastic Compliance Matrix: (Units=1/GPa)
#
#
# Indices 1 2 3 4 5 6 
#
# 1 0.014413 -0.004813 0.000610 0.000652 -0.003303 0.007032
# 2 -0.004813 0.013800 -0.001805 -0.005006 0.002831 -0.006022
# 3 0.000610 -0.001805 0.011417 -0.007128 -0.002332 0.002281
# 4 0.000652 -0.005006 -0.007128 0.071134 -0.004002 -0.010275
# 5 -0.003303 0.002831 -0.002332 -0.004002 0.066578 -0.003852
# 6 0.007032 -0.006022 0.002281 -0.010275 -0.003852 0.032949
#
#
# Mechanical properties :
#
#
# Convention : Reuss Voigt Hill
#
# Bulk Modulus (GPa) = 36.21291 39.66056 37.93674
# Shear Modulus (GPa) = 21.59706 29.64802 25.62254
#
# Velocity S-wave (km/s) = 3.14190 3.68123 3.42221
# Velocity P-wave (km/s) = 5.45107 6.01636 5.74068
#
# Compressibility (1/GPa) = 0.02761446
#
# Stress axis : x y z
#
# Youngs Moduli (GPa) = 69.38133 72.46315 87.58559
#
# Poissons Ratio (x) = 0.34877 -0.05342
# Poissons Ratio (y) = 0.33393 0.15809
# Poissons Ratio (z) = -0.04232 0.13080
#
# Static dielectric constant tensor:
#      x y z
#    x 2.016950 1.288920 -0.799830 
#    y 1.288920 2.746970 1.090950 
#    z -0.799830 1.090950 3.538380 
# 
# 
# High freq. dielectric constant tensor:
#      x y z
#    x 1.850790 -0.022020 0.015040 
#    y -0.022020 1.858290 0.028490 
#    z 0.015040 0.028490 1.863770 
# 
# From -- ./inp_files/305661.got.cif
#   From: 2010.06.25/outbox.cif.g09.slc.cpg/sg2_153_cif.got.tgz:305661.got - 2010.06.27 13:26:56.
