data_PCOD8017350
_publ_section_title
;
Structure prediction by ZEFSAII (Michael W. Deem and Ramdas Pophale) SiO2 
 PCOD8017350
Probable space group: P -1
;
_chemical_formula_sum "Si O2"
_cell_formula_units_Z 12
_cell_length_a 9.828088
_cell_length_b 14.993978
_cell_length_c 6.168238
_cell_angle_alpha 105.348471
_cell_angle_beta 102.554350
_cell_angle_gamma 38.627752
_cell_volume 547.105954
_symmetry_space_group_name_H-M "P -1"
_symmetry_group_IT_number 2
_symmetry_cell_setting 'triclinic'
loop_
_space_group_symop_operation_xyz
x,y,z
-x,-y,-z
loop_
_atom_site_type_symbol
_atom_site_label
_atom_site_fract_x
_atom_site_fract_y
_atom_site_fract_z
Si Si1 0.466414 0.291954 0.855907
Si Si2 0.856357 0.848446 0.004611
Si Si3 0.512435 0.381934 0.312403
Si Si4 0.453575 0.092968 0.742472
Si Si5 0.744878 0.431911 0.278293
Si Si6 0.144323 0.846798 0.356879
O O1 0.386854 0.229566 0.725138
O O2 0.313279 0.447958 0.801013
O O3 0.712962 0.177341 0.791598
O O4 0.466144 0.309303 0.126903
O O5 0.008424 0.717821 0.798663
O O6 0.672296 0.994182 0.896078
O O7 0.744079 0.837248 0.129105
O O8 0.995236 0.846794 0.194732
O O9 0.584221 0.423982 0.186679
O O10 0.288595 0.525437 0.450433
O O11 0.706687 0.274188 0.483704
O O12 0.500000 0.000000 0.500000
O O13 0.000000 0.000000 0.500000
#
# Coordination Sequence:
#
# PCOD8017350 Si02
#       6
#     2   2   2   2   2   2
#     4  11  23  42  65  98 129 162 216 265 311 384
#     4  11  25  43  65  94 129 169 215 260 318 380
#     4  10  22  38  67  99 134 161 203 268 325 372
#     4  11  27  46  65  89 131 174 215 263 316 374
#     4  10  23  39  66  99 129 165 209 262 323 377
#     4  11  23  37  67 100 125 166 217 260 319 379
#
# _framework density 21.933595
#
# number of rings (size 3 to 8) (size 9 to 14) (size 15 to 20)
#    0.000    1.333    1.667    2.500    9.333    6.000 
#    0.000    1.667    0.000    0.000    0.000    0.000 
#    0.000    0.000    0.000    0.000    0.000    0.000 
#
# Total GULP energy -148735.750793 kJ/mol
# GULP energy per Si atom -12394.645899 kJ/mol
# Density = 2.188367 g / cm^3
# Si number density = 21.933595 Si / 1000 Ang^3
#
#
#
# Elastic Constant Matrix: (Units=GPa)
#
#
# Indices 1 2 3 4 5 6 
#
# 1 122.5846 51.5954 49.8632 13.7917 -7.5472 10.8483
# 2 51.5954 89.5755 37.7941 34.1406 -14.3101 1.0200
# 3 49.8632 37.7941 109.6587 24.9989 -3.9714 4.4039
# 4 13.7917 34.1406 24.9989 47.1649 -3.7200 -7.0924
# 5 -7.5472 -14.3101 -3.9714 -3.7200 35.6260 13.2717
# 6 10.8483 1.0200 4.4039 -7.0924 13.2717 41.3914
#
#
#
# Elastic Compliance Matrix: (Units=1/GPa)
#
#
# Indices 1 2 3 4 5 6 
#
# 1 0.012404 -0.006376 -0.003946 0.002774 0.000835 -0.002466
# 2 -0.006376 0.021402 -0.001145 -0.012951 0.006952 -0.003183
# 3 -0.003946 -0.001145 0.012439 -0.004773 -0.000007 -0.001077
# 4 0.002774 -0.012951 -0.004773 0.033028 -0.004365 0.007159
# 5 0.000835 0.006952 -0.000007 -0.004365 0.035212 -0.012428
# 6 -0.002466 -0.003183 -0.001077 0.007159 -0.012428 0.030210
#
#
# Mechanical properties :
#
#
# Convention : Reuss Voigt Hill
#
# Bulk Modulus (GPa) = 42.89675 66.70268 54.79971
# Shear Modulus (GPa) = 28.50636 37.00753 32.75695
#
# Velocity S-wave (km/s) = 3.60900 4.11208 3.86872
# Velocity P-wave (km/s) = 6.08001 7.28167 6.70780
#
# Compressibility (1/GPa) = 0.02331179
#
# Stress axis : x y z
#
# Youngs Moduli (GPa) = 80.62106 46.72404 80.39058
#
# Poissons Ratio (x) = 0.29789 0.31722
# Poissons Ratio (y) = 0.51400 0.09207
# Poissons Ratio (z) = 0.31813 0.05351
#
# Static dielectric constant tensor:
#      x y z
#    x 3.939150 0.002730 -0.178260 
#    y 0.002730 4.051040 0.241260 
#    z -0.178260 0.241260 4.155760 
# 
# 
# High freq. dielectric constant tensor:
#      x y z
#    x 1.852760 0.009700 -0.011600 
#    y 0.009700 1.867160 0.022290 
#    z -0.011600 0.022290 1.873360 
# 
# From -- ./inp_files/23773.got.cif
#   From: 2010.06.25/outbox.cif.g09.slc.cpg/sg2_12_cif.got.tgz:23773.got - 2010.06.27 13:26:56.
