data_PCOD8017002
_publ_section_title
;
Structure prediction by ZEFSAII (Michael W. Deem and Ramdas Pophale) SiO2 
 PCOD8017002
Probable space group: P -1
;
_chemical_formula_sum "Si O2"
_cell_formula_units_Z 14
_cell_length_a 11.629540
_cell_length_b 13.546850
_cell_length_c 13.740741
_cell_angle_alpha 61.775414
_cell_angle_beta 158.585884
_cell_angle_gamma 114.626954
_cell_volume 694.522972
_symmetry_space_group_name_H-M "P -1"
_symmetry_group_IT_number 2
_symmetry_cell_setting 'triclinic'
loop_
_space_group_symop_operation_xyz
x,y,z
-x,-y,-z
loop_
_atom_site_type_symbol
_atom_site_label
_atom_site_fract_x
_atom_site_fract_y
_atom_site_fract_z
Si Si1 0.215561 0.782571 0.673697
Si Si2 0.400801 0.408033 0.039374
Si Si3 0.780996 0.150696 0.960868
Si Si4 0.335428 0.067479 0.926565
Si Si5 0.339312 0.563876 0.557508
Si Si6 0.374598 0.261360 0.438025
Si Si7 0.719326 0.674085 0.459079
O O1 0.435102 0.713076 0.802290
O O2 0.985068 0.867266 0.391642
O O3 0.028464 0.696432 0.630683
O O4 0.424865 0.848724 0.881135
O O5 0.512473 0.445295 0.215038
O O6 0.500000 0.500000 0.000000
O O7 0.028504 0.397635 0.747075
O O8 0.671778 0.181582 0.750008
O O9 0.552651 0.225196 0.821565
O O10 0.138923 0.179955 0.241114
O O11 0.754144 0.019475 0.020173
O O12 0.500000 0.000000 0.000000
O O13 0.520138 0.653179 0.598436
O O14 0.405513 0.443550 0.615517
O O15 0.206317 0.329854 0.364475
#
# Coordination Sequence:
#
# PCOD8017002 Si02
#       7
#     2   2   2   2   2   2   2
#     4  12  25  40  65  94 137 157 218 256 319 387
#     4  12  27  44  65  91 130 180 209 258 308 375
#     4  10  22  37  63  95 132 157 208 257 335 368
#     4  12  22  39  65  97 126 169 201 268 331 370
#     4  12  25  42  69  90 134 172 216 252 315 384
#     4  10  22  41  62  99 130 165 210 264 322 371
#     4  10  24  36  67  99 132 163 203 273 320 382
#
# _framework density 20.157720000000001
#
# number of rings (size 3 to 8) (size 9 to 14) (size 15 to 20)
#    0.857    0.000    2.857    4.714    4.000    0.571 
#    0.000    0.000    0.000   17.143    0.000    0.000 
#    0.000    0.000    0.000    0.000    0.000    0.000 
#
# Total GULP energy -173620.879669 kJ/mol
# GULP energy per Si atom -12401.491405 kJ/mol
# Density = 2.011184 g / cm^3
# Si number density = 20.157720 Si / 1000 Ang^3
#
#
#
# Elastic Constant Matrix: (Units=GPa)
#
#
# Indices 1 2 3 4 5 6 
#
# 1 89.3955 21.3338 16.9951 6.5611 -16.4058 30.4808
# 2 21.3338 83.0302 29.5510 7.5782 -8.8919 16.5109
# 3 16.9951 29.5510 132.6407 8.4305 -25.2124 -6.5374
# 4 6.5611 7.5782 8.4305 46.0187 -3.9868 8.6492
# 5 -16.4058 -8.8919 -25.2124 -3.9868 37.8993 -2.5201
# 6 30.4808 16.5109 -6.5374 8.6492 -2.5201 40.0794
#
#
#
# Elastic Compliance Matrix: (Units=1/GPa)
#
#
# Indices 1 2 3 4 5 6 
#
# 1 0.016912 -0.000739 -0.001679 0.000859 0.005278 -0.012685
# 2 -0.000739 0.014696 -0.003349 -0.000555 0.000450 -0.005890
# 3 -0.001679 -0.003349 0.009823 -0.001481 0.005193 0.004905
# 4 0.000859 -0.000555 -0.001481 0.023133 0.001319 -0.005575
# 5 0.005278 0.000450 0.005193 0.001319 0.032262 -0.001608
# 6 -0.012685 -0.005890 0.004905 -0.005575 -0.001608 0.038926
#
#
# Mechanical properties :
#
#
# Convention : Reuss Voigt Hill
#
# Bulk Modulus (GPa) = 33.44666 48.98068 41.21367
# Shear Modulus (GPa) = 31.79613 40.61193 36.20403
#
# Velocity S-wave (km/s) = 3.97592 4.49342 4.24257
# Velocity P-wave (km/s) = 6.14050 7.16049 6.67002
#
# Compressibility (1/GPa) = 0.02989835
#
# Stress axis : x y z
#
# Youngs Moduli (GPa) = 59.12810 68.04723 101.79896
#
# Poissons Ratio (x) = 0.05026 0.17093
# Poissons Ratio (y) = 0.04367 0.34091
# Poissons Ratio (z) = 0.09928 0.22788
#
# Static dielectric constant tensor:
#      x y z
#    x 3.574530 0.053990 -0.035560 
#    y 0.053990 3.686790 -0.026080 
#    z -0.035560 -0.026080 3.730830 
# 
# 
# High freq. dielectric constant tensor:
#      x y z
#    x 1.777960 0.011790 -0.010090 
#    y 0.011790 1.791180 0.006230 
#    z -0.010090 0.006230 1.797910 
# 
# From -- ./inp_files/410456.got.cif
#   From: 2010.06.25/outbox.cif.g09.slc.cpg/sg2_206_cif.got.tgz:410456.got - 2010.06.27 13:26:56.
