data_PCOD8017397
_publ_section_title
;
Structure prediction by ZEFSAII (Michael W. Deem and Ramdas Pophale) SiO2 
 PCOD8017397
Probable space group: P -1
;
_chemical_formula_sum "Si O2"
_cell_formula_units_Z 12
_cell_length_a 15.253849
_cell_length_b 7.446658
_cell_length_c 8.687494
_cell_angle_alpha 107.647912
_cell_angle_beta 138.018347
_cell_angle_gamma 62.159470
_cell_volume 582.053234
_symmetry_space_group_name_H-M "P -1"
_symmetry_group_IT_number 2
_symmetry_cell_setting 'triclinic'
loop_
_space_group_symop_operation_xyz
x,y,z
-x,-y,-z
loop_
_atom_site_type_symbol
_atom_site_label
_atom_site_fract_x
_atom_site_fract_y
_atom_site_fract_z
Si Si1 0.854696 0.851263 0.310072
Si Si2 0.623709 0.855988 0.800547
Si Si3 0.316525 0.952441 0.361752
Si Si4 0.919030 0.179545 0.633405
Si Si5 0.951790 0.801674 0.744726
Si Si6 0.226459 0.590086 0.222934
O O1 0.913251 0.722348 0.509807
O O2 0.964206 0.761303 0.288041
O O3 0.836840 0.087147 0.381069
O O4 0.704850 0.842527 0.064640
O O5 0.456257 0.941915 0.635868
O O6 0.666199 0.638608 0.716635
O O7 0.664998 0.006900 0.782638
O O8 0.302150 0.736744 0.301095
O O9 0.184094 0.137769 0.306679
O O10 0.812582 0.375343 0.636712
O O11 0.988984 0.004303 0.811771
O O12 0.084809 0.625471 0.947823
#
# Coordination Sequence:
#
# PCOD8017397 Si02
#       6
#     2   2   2   2   2   2
#     4   9  18  33  55  86 111 145 176 230 283 318
#     4  11  23  36  58  83 112 147 185 223 273 333
#     4  10  22  39  56  79 116 149 181 222 278 327
#     4   8  17  33  55  83 114 141 178 229 278 315
#     4   9  18  33  59  80 109 145 180 227 273 319
#     4  11  20  37  61  83 107 145 190 227 265 326
#
# _framework density 20.616672000000001
#
# number of rings (size 3 to 8) (size 9 to 14) (size 15 to 20)
#    1.000    1.333    0.000    4.500    0.000    4.000 
#    0.000    0.000    0.000    2.000    0.000    0.000 
#    0.000    0.000    0.000    0.000    0.000    0.000 
#
# Total GULP energy -148749.217788 kJ/mol
# GULP energy per Si atom -12395.768149 kJ/mol
# Density = 2.056975 g / cm^3
# Si number density = 20.616672 Si / 1000 Ang^3
#
#
#
# Elastic Constant Matrix: (Units=GPa)
#
#
# Indices 1 2 3 4 5 6 
#
# 1 81.5909 8.4596 48.6925 -2.7343 7.1209 -6.3600
# 2 8.4596 32.9186 9.8848 0.9874 2.4623 0.1975
# 3 48.6925 9.8848 97.5708 7.5365 9.3993 -4.1929
# 4 -2.7343 0.9874 7.5365 19.1895 -6.5393 4.2276
# 5 7.1209 2.4623 9.3993 -6.5393 24.1711 2.7805
# 6 -6.3600 0.1975 -4.1929 4.2276 2.7805 16.1012
#
#
#
# Elastic Compliance Matrix: (Units=1/GPa)
#
#
# Indices 1 2 3 4 5 6 
#
# 1 0.018489 -0.002122 -0.009209 0.005348 -0.000621 0.003634
# 2 -0.002122 0.031703 -0.001828 -0.001812 -0.002288 -0.000832
# 3 -0.009209 -0.001828 0.016834 -0.011433 -0.007319 0.005035
# 4 0.005348 -0.001812 -0.011433 0.071268 0.025084 -0.023886
# 5 -0.000621 -0.002288 -0.007319 0.025084 0.053485 -0.017945
# 6 0.003634 -0.000832 0.005035 -0.023886 -0.017945 0.074235
#
#
# Mechanical properties :
#
#
# Convention : Reuss Voigt Hill
#
# Bulk Modulus (GPa) = 24.56535 38.46156 31.51345
# Shear Modulus (GPa) = 16.34521 21.56192 18.95357
#
# Velocity S-wave (km/s) = 2.81875 3.23747 3.03534
# Velocity P-wave (km/s) = 4.74710 5.71585 5.25385
#
# Compressibility (1/GPa) = 0.04070775
#
# Stress axis : x y z
#
# Youngs Moduli (GPa) = 54.08701 31.54304 59.40204
#
# Poissons Ratio (x) = 0.06693 0.54703
# Poissons Ratio (y) = 0.11477 0.10860
# Poissons Ratio (z) = 0.49808 0.05767
#
# Static dielectric constant tensor:
#      x y z
#    x 3.669680 -0.046460 -0.010810 
#    y -0.046460 3.293720 0.059470 
#    z -0.010810 0.059470 3.644600 
# 
# 
# High freq. dielectric constant tensor:
#      x y z
#    x 1.804620 -0.001000 -0.000460 
#    y -0.001000 1.776560 0.010740 
#    z -0.000460 0.010740 1.798340 
# 
# From -- ./inp_files/196994.got.cif
#   From: 2010.06.25/outbox.cif.g09.slc.cpg/sg2_99_cif.got.tgz:196994.got - 2010.06.27 13:26:56.
