data_PCOD8017474
_publ_section_title
;
Structure prediction by ZEFSAII (Michael W. Deem and Ramdas Pophale) SiO2 
 PCOD8017474
Probable space group: P -1
;
_chemical_formula_sum "Si O2"
_cell_formula_units_Z 16
_cell_length_a 14.702777
_cell_length_b 14.140243
_cell_length_c 9.620218
_cell_angle_alpha 93.195688
_cell_angle_beta 116.054843
_cell_angle_gamma 33.119748
_cell_volume 757.715393
_symmetry_space_group_name_H-M "P -1"
_symmetry_group_IT_number 2
_symmetry_cell_setting 'triclinic'
loop_
_space_group_symop_operation_xyz
x,y,z
-x,-y,-z
loop_
_atom_site_type_symbol
_atom_site_label
_atom_site_fract_x
_atom_site_fract_y
_atom_site_fract_z
Si Si1 0.253060 0.175023 0.723509
Si Si2 0.672504 0.495958 0.602034
Si Si3 0.378696 0.257111 0.927744
Si Si4 0.639696 0.860028 0.721667
Si Si5 0.737289 0.302414 0.234343
Si Si6 0.210720 0.805575 0.436915
Si Si7 0.858533 0.485457 0.931629
Si Si8 0.772442 0.481837 0.372278
O O1 0.203075 0.315921 0.782773
O O2 0.016483 0.334451 0.509256
O O3 0.453764 0.030389 0.734488
O O4 0.355907 0.007380 0.882464
O O5 0.393890 0.715603 0.467394
O O6 0.807618 0.282300 0.651067
O O7 0.803490 0.434214 0.813426
O O8 0.682204 0.552787 0.475453
O O9 0.414199 0.299503 0.827122
O O10 0.265658 0.410152 0.992686
O O11 0.751087 0.660372 0.778304
O O12 0.500000 0.000000 0.500000
O O13 0.855654 0.750703 0.879081
O O14 0.697693 0.278921 0.349213
O O15 0.812952 0.345103 0.322067
O O16 0.500000 0.500000 0.000000
O O17 0.950565 0.073498 0.271998
#
# Coordination Sequence:
#
# PCOD8017474 Si02
#       8
#     2   2   2   2   2   2   2   2
#     4  10  23  40  61  90 130 177 213 254 324 371
#     4  10  23  42  69  98 129 173 213 266 339 380
#     4  10  23  40  61  89 129 170 215 263 305 381
#     4  10  22  39  60  91 130 170 217 267 316 368
#     4  10  23  43  71  98 124 166 219 266 328 393
#     4   9  22  48  67  91 137 165 203 282 330 384
#     4  10  23  39  62  92 128 168 216 264 317 386
#     4  11  24  39  65  95 126 169 217 261 316 390
#
# _framework density 21.116107
#
# number of rings (size 3 to 8) (size 9 to 14) (size 15 to 20)
#    0.000    2.000    0.000    1.125   14.000    2.000 
#    0.000    6.875    0.000    0.000    0.000    0.000 
#    0.000    0.000    0.000    0.000    0.000    0.000 
#
# Total GULP energy -198448.740899 kJ/mol
# GULP energy per Si atom -12403.046306 kJ/mol
# Density = 2.106805 g / cm^3
# Si number density = 21.116107 Si / 1000 Ang^3
#
#
#
# Elastic Constant Matrix: (Units=GPa)
#
#
# Indices 1 2 3 4 5 6 
#
# 1 86.5500 49.7437 49.0029 4.7648 -6.4686 -3.8176
# 2 49.7437 127.2412 60.7802 8.4086 6.5039 0.9034
# 3 49.0029 60.7802 134.5759 2.3562 -3.6087 5.2989
# 4 4.7648 8.4086 2.3562 32.5898 8.2315 5.3839
# 5 -6.4686 6.5039 -3.6087 8.2315 36.0005 4.0857
# 6 -3.8176 0.9034 5.2989 5.3839 4.0857 22.2780
#
#
#
# Elastic Compliance Matrix: (Units=1/GPa)
#
#
# Indices 1 2 3 4 5 6 
#
# 1 0.017259 -0.004825 -0.004122 -0.002586 0.003688 0.004082
# 2 -0.004825 0.011714 -0.003610 -0.001350 -0.003087 0.000450
# 3 -0.004122 -0.003610 0.010715 0.001060 0.001149 -0.003576
# 4 -0.002586 -0.001350 0.001060 0.034394 -0.007111 -0.007648
# 5 0.003688 -0.003087 0.001149 -0.007111 0.031137 -0.003508
# 6 0.004082 0.000450 -0.003576 -0.007648 -0.003508 0.048911
#
#
# Mechanical properties :
#
#
# Convention : Reuss Voigt Hill
#
# Bulk Modulus (GPa) = 68.61714 74.15788 71.38751
# Shear Modulus (GPa) = 27.15891 30.76301 28.96096
#
# Velocity S-wave (km/s) = 3.59021 3.82101 3.70741
# Velocity P-wave (km/s) = 7.05350 7.39339 7.22544
#
# Compressibility (1/GPa) = 0.01457362
#
# Stress axis : x y z
#
# Youngs Moduli (GPa) = 57.94144 85.36969 93.32420
#
# Poissons Ratio (x) = 0.41189 0.38468
# Poissons Ratio (y) = 0.27955 0.33694
# Poissons Ratio (z) = 0.23883 0.30822
#
# Static dielectric constant tensor:
#      x y z
#    x 3.916990 -0.126250 -0.302300 
#    y -0.126250 4.070240 0.381570 
#    z -0.302300 0.381570 4.153540 
# 
# 
# High freq. dielectric constant tensor:
#      x y z
#    x 1.825380 0.002420 -0.003080 
#    y 0.002420 1.831720 0.008740 
#    z -0.003080 0.008740 1.826850 
# 
# From -- ./inp_files/315274.got.cif
#   From: 2010.06.25/outbox.cif.g09.slc.cpg/sg2_158_cif.got.tgz:315274.got - 2010.06.27 13:26:56.
