data_PCOD8017887
_publ_section_title
;
Structure prediction by ZEFSAII (Michael W. Deem and Ramdas Pophale) SiO2 
 PCOD8017887
Probable space group: P -1
;
_chemical_formula_sum "Si O2"
_cell_formula_units_Z 16
_cell_length_a 11.738640
_cell_length_b 8.824796
_cell_length_c 24.157343
_cell_angle_alpha 133.357828
_cell_angle_beta 28.047843
_cell_angle_gamma 115.410976
_cell_volume 732.245127
_symmetry_space_group_name_H-M "P -1"
_symmetry_group_IT_number 2
_symmetry_cell_setting 'triclinic'
loop_
_space_group_symop_operation_xyz
x,y,z
-x,-y,-z
loop_
_atom_site_type_symbol
_atom_site_label
_atom_site_fract_x
_atom_site_fract_y
_atom_site_fract_z
Si Si1 0.600383 0.518667 0.831677
Si Si2 0.799273 0.023969 0.810213
Si Si3 0.208022 0.871275 0.686711
Si Si4 0.782389 0.439448 0.303333
Si Si5 0.775646 0.279431 0.154103
Si Si6 0.721916 0.641318 0.692701
Si Si7 0.177210 0.633509 0.190553
Si Si8 0.037236 0.560415 0.060022
O O1 0.745682 0.507880 0.707723
O O2 0.838878 0.331985 0.726585
O O3 0.367122 0.445029 0.903134
O O4 0.447257 0.781372 0.994235
O O5 0.668559 0.903790 0.797518
O O6 0.054834 0.826866 0.689436
O O7 0.956026 0.118294 0.725109
O O8 0.545201 0.688622 0.496454
O O9 0.095818 0.803197 0.772274
O O10 0.135851 0.147630 0.785726
O O11 0.636080 0.396747 0.302253
O O12 0.042953 0.477039 0.188347
O O13 0.548070 0.317918 0.215440
O O14 0.927226 0.428082 0.112696
O O15 0.000000 0.000000 0.000000
O O16 0.000000 0.500000 0.500000
O O17 0.500000 0.500000 0.000000
O O18 0.000000 0.500000 0.000000
#
# Coordination Sequence:
#
# PCOD8017887 Si02
#       8
#     2   2   2   2   2   2   2   2
#     4  10  22  42  71  95 124 178 224 279 325 407
#     4  10  22  41  69  94 129 174 229 270 329 403
#     4  10  23  42  71  96 129 177 222 283 333 401
#     4  11  23  42  65  99 135 169 226 278 340 398
#     4  12  27  40  68 100 141 180 225 283 339 404
#     4  12  26  43  64  99 142 180 220 280 347 408
#     4  10  22  39  67  98 127 164 228 281 320 395
#     4  11  22  44  68  96 130 171 230 270 341 402
#
# _framework density 21.850608000000001
#
# number of rings (size 3 to 8) (size 9 to 14) (size 15 to 20)
#    0.000    1.250    1.250    4.875    7.000    4.000 
#    0.000    0.625    0.000    0.000    0.000    0.000 
#    0.000    0.000    0.000    0.000    0.000    0.000 
#
# Total GULP energy -198271.704201 kJ/mol
# GULP energy per Si atom -12391.981513 kJ/mol
# Density = 2.180087 g / cm^3
# Si number density = 21.850608 Si / 1000 Ang^3
#
#
#
# Elastic Constant Matrix: (Units=GPa)
#
#
# Indices 1 2 3 4 5 6 
#
# 1 173.7878 54.1392 26.1592 -9.6360 16.7030 -9.2482
# 2 54.1392 151.5090 31.2497 -9.3825 11.2673 -7.7076
# 3 26.1592 31.2497 65.3942 -13.6514 9.1112 -1.3967
# 4 -9.6360 -9.3825 -13.6514 27.1983 -2.2088 1.6185
# 5 16.7030 11.2673 9.1112 -2.2088 24.5605 -1.4439
# 6 -9.2482 -7.7076 -1.3967 1.6185 -1.4439 53.3792
#
#
#
# Elastic Compliance Matrix: (Units=1/GPa)
#
#
# Indices 1 2 3 4 5 6 
#
# 1 0.006930 -0.001888 -0.001213 0.000883 -0.003271 0.000781
# 2 -0.001888 0.008010 -0.002763 0.000562 -0.001274 0.000706
# 3 -0.001213 -0.002763 0.019373 0.008011 -0.004401 -0.000464
# 4 0.000883 0.000562 0.008011 0.041330 -0.000161 -0.000814
# 5 -0.003271 -0.001274 -0.004401 -0.000161 0.045164 0.000361
# 6 0.000781 0.000706 -0.000464 -0.000814 0.000361 0.018993
#
#
# Mechanical properties :
#
#
# Convention : Reuss Voigt Hill
#
# Bulk Modulus (GPa) = 44.27671 68.19857 56.23764
# Shear Modulus (GPa) = 31.43525 39.63713 35.53619
#
# Velocity S-wave (km/s) = 3.79706 4.26374 4.03715
# Velocity P-wave (km/s) = 6.28736 7.45106 6.89381
#
# Compressibility (1/GPa) = 0.02258524
#
# Stress axis : x y z
#
# Youngs Moduli (GPa) = 144.30156 124.83936 51.61852
#
# Poissons Ratio (x) = 0.23575 0.06261
# Poissons Ratio (y) = 0.27250 0.14260
# Poissons Ratio (z) = 0.17503 0.34487
#
# Static dielectric constant tensor:
#      x y z
#    x 4.565940 -0.399150 -0.031780 
#    y -0.399150 4.468810 0.000710 
#    z -0.031780 0.000710 3.576720 
# 
# 
# High freq. dielectric constant tensor:
#      x y z
#    x 1.888790 -0.009550 -0.000930 
#    y -0.009550 1.871570 -0.011420 
#    z -0.000930 -0.011420 1.821810 
# 
# From -- ./inp_files/609867.got.cif
#   From: 2010.06.25/outbox.cif.g09.slc.cpg/sg2_305_cif.got.tgz:609867.got - 2010.06.27 13:26:56.
