data_PCOD8017223
_publ_section_title
;
Structure prediction by ZEFSAII (Michael W. Deem and Ramdas Pophale) SiO2 
 PCOD8017223
Probable space group: P -1
;
_chemical_formula_sum "Si O2"
_cell_formula_units_Z 14
_cell_length_a 8.268294
_cell_length_b 19.006621
_cell_length_c 5.237773
_cell_angle_alpha 61.221578
_cell_angle_beta 127.242080
_cell_angle_gamma 121.682949
_cell_volume 541.123965
_symmetry_space_group_name_H-M "P -1"
_symmetry_group_IT_number 2
_symmetry_cell_setting 'triclinic'
loop_
_space_group_symop_operation_xyz
x,y,z
-x,-y,-z
loop_
_atom_site_type_symbol
_atom_site_label
_atom_site_fract_x
_atom_site_fract_y
_atom_site_fract_z
Si Si1 0.253459 0.484051 0.748916
Si Si2 0.303435 0.660625 0.682424
Si Si3 0.925193 0.617303 0.746698
Si Si4 0.729080 0.051625 0.245688
Si Si5 0.150153 0.092981 0.249608
Si Si6 0.562264 0.194066 0.794456
Si Si7 0.697574 0.744346 0.189336
O O1 0.209853 0.573391 0.583748
O O2 0.200987 0.451279 0.467526
O O3 0.500000 0.500000 0.000000
O O4 0.110669 0.420586 0.938128
O O5 0.273722 0.740759 0.361278
O O6 0.174983 0.649394 0.847849
O O7 0.563381 0.684988 0.932041
O O8 0.851154 0.700082 0.540855
O O9 0.912756 0.072008 0.170516
O O10 0.802899 0.995308 0.631361
O O11 0.697072 0.139437 0.155565
O O12 0.500000 0.000000 0.000000
O O13 0.337951 0.135221 0.559257
O O14 0.166356 0.157689 0.920212
O O15 0.500030 0.254161 0.828006
#
# Coordination Sequence:
#
# PCOD8017223 Si02
#       7
#     2   2   2   2   2   2   2
#     4  12  25  46  69  95 134 177 226 280 333 392
#     4  11  25  42  65  94 130 169 223 269 333 393
#     4  12  27  43  69  97 133 179 223 280 333 393
#     4   9  18  39  65  88 127 167 212 267 324 394
#     4   9  20  39  61  92 125 168 212 266 327 393
#     4  10  22  38  63  91 128 169 211 271 324 395
#     4  11  24  40  63  94 131 170 217 273 331 394
#
# _framework density 25.872074000000001
#
# number of rings (size 3 to 8) (size 9 to 14) (size 15 to 20)
#    0.000    1.429    1.429    3.000    6.000    1.714 
#    0.000    6.429    0.000    0.000    0.000    0.000 
#    0.000    0.000    0.000    0.000    0.000    0.000 
#
# Total GULP energy -173467.476329 kJ/mol
# GULP energy per Si atom -12390.534024 kJ/mol
# Density = 2.581319 g / cm^3
# Si number density = 25.872074 Si / 1000 Ang^3
#
#
#
# Elastic Constant Matrix: (Units=GPa)
#
#
# Indices 1 2 3 4 5 6 
#
# 1 117.5491 35.6892 21.5653 -16.1530 14.8950 14.8966
# 2 35.6892 102.9023 33.9260 -39.4990 7.4249 11.0968
# 3 21.5653 33.9260 62.7467 -30.2756 14.2340 3.0952
# 4 -16.1530 -39.4990 -30.2756 37.0880 -7.7313 3.7900
# 5 14.8950 7.4249 14.2340 -7.7313 41.7445 -8.4866
# 6 14.8966 11.0968 3.0952 3.7900 -8.4866 50.9743
#
#
#
# Elastic Compliance Matrix: (Units=1/GPa)
#
#
# Indices 1 2 3 4 5 6 
#
# 1 0.010338 -0.002397 -0.000961 0.000766 -0.003416 -0.003067
# 2 -0.002397 0.018336 0.000480 0.019371 0.000052 -0.004752
# 3 -0.000961 0.000480 0.028455 0.022473 -0.006146 -0.004246
# 4 0.000766 0.019371 0.022473 0.067150 -0.001180 -0.010995
# 5 -0.003416 0.000052 -0.006146 -0.001180 0.028294 0.006158
# 6 -0.003067 -0.004752 -0.004246 -0.010995 0.006158 0.023649
#
#
# Mechanical properties :
#
#
# Convention : Reuss Voigt Hill
#
# Bulk Modulus (GPa) = 19.46618 51.72877 35.59747
# Shear Modulus (GPa) = 25.11261 38.76253 31.93757
#
# Velocity S-wave (km/s) = 3.11890 3.87491 3.51727
# Velocity P-wave (km/s) = 4.52884 6.32909 5.50308
#
# Compressibility (1/GPa) = 0.05137116
#
# Stress axis : x y z
#
# Youngs Moduli (GPa) = 96.73020 54.53840 35.14304
#
# Poissons Ratio (x) = 0.13075 0.03377
# Poissons Ratio (y) = 0.23190 -0.01685
# Poissons Ratio (z) = 0.09295 -0.02615
#
# Static dielectric constant tensor:
#      x y z
#    x 4.640120 0.017450 0.299520 
#    y 0.017450 5.186140 -0.432230 
#    z 0.299520 -0.432230 4.656240 
# 
# 
# High freq. dielectric constant tensor:
#      x y z
#    x 2.030740 0.019490 0.023300 
#    y 0.019490 2.055130 -0.013460 
#    z 0.023300 -0.013460 2.030130 
# 
# From -- ./inp_files/46905.got.cif
#   From: 2010.06.25/outbox.cif.g09.slc.cpg/sg2_24_cif.got.tgz:46905.got - 2010.06.27 13:26:56.
