data_PCOD8017083
_publ_section_title
;
Structure prediction by ZEFSAII (Michael W. Deem and Ramdas Pophale) SiO2 
 PCOD8017083
Probable space group: P -1
;
_chemical_formula_sum "Si O2"
_cell_formula_units_Z 16
_cell_length_a 12.902751
_cell_length_b 7.193557
_cell_length_c 13.898281
_cell_angle_alpha 73.707706
_cell_angle_beta 133.583633
_cell_angle_gamma 86.742045
_cell_volume 836.802302
_symmetry_space_group_name_H-M "P -1"
_symmetry_group_IT_number 2
_symmetry_cell_setting 'triclinic'
loop_
_space_group_symop_operation_xyz
x,y,z
-x,-y,-z
loop_
_atom_site_type_symbol
_atom_site_label
_atom_site_fract_x
_atom_site_fract_y
_atom_site_fract_z
Si Si1 0.341002 0.777075 0.387639
Si Si2 0.164575 0.932769 0.068033
Si Si3 0.676002 0.963812 0.126115
Si Si4 0.170142 0.095039 0.386920
Si Si5 0.373300 0.025280 0.697653
Si Si6 0.714487 0.746821 0.993332
Si Si7 0.355949 0.345559 0.496709
Si Si8 0.824543 0.259131 0.101323
O O1 0.284029 0.785062 0.240893
O O2 0.319704 0.585904 0.458444
O O3 0.520816 0.741243 0.498687
O O4 0.243637 0.979894 0.353054
O O5 0.204630 0.137235 0.041488
O O6 0.171710 0.790901 0.001173
O O7 0.000000 0.000000 0.000000
O O8 0.723819 0.899455 0.276566
O O9 0.705796 0.175551 0.091234
O O10 0.759391 0.786493 0.126283
O O11 0.500000 0.000000 0.000000
O O12 0.263072 0.966368 0.558691
O O13 0.199252 0.313134 0.368899
O O14 0.991091 0.137832 0.272596
O O15 0.416473 0.215563 0.653488
O O16 0.530725 0.832669 0.845626
O O17 0.777222 0.503593 0.049049
#
# Coordination Sequence:
#
# PCOD8017083 Si02
#       8
#     2   2   2   2   2   2   2   2
#     4  11  20  39  59  83 121 163 192 238 292 347
#     4  11  22  36  58  84 123 158 192 235 293 345
#     4   9  21  43  63  84 121 151 199 253 294 350
#     4  10  22  38  57  89 124 148 195 245 290 351
#     4   9  20  42  60  84 118 151 199 250 288 347
#     4  10  22  41  62  88 118 155 202 243 290 357
#     4   9  22  36  59  86 116 157 201 237 287 354
#     4  11  24  38  62  92 118 155 198 243 305 351
#
# _framework density 19.120407
#
# number of rings (size 3 to 8) (size 9 to 14) (size 15 to 20)
#    0.750    1.250    2.500    0.375    1.750    6.000 
#    2.250    0.625    0.000    0.000    0.000    0.000 
#    0.000    0.000    0.000    0.000    0.000    0.000 
#
# Total GULP energy -198269.591598 kJ/mol
# GULP energy per Si atom -12391.849475 kJ/mol
# Density = 1.907689 g / cm^3
# Si number density = 19.120407 Si / 1000 Ang^3
#
#
#
# Elastic Constant Matrix: (Units=GPa)
#
#
# Indices 1 2 3 4 5 6 
#
# 1 106.6692 46.3950 36.2995 2.8879 -10.7261 2.8376
# 2 46.3950 105.5901 32.9832 -2.2167 -13.9440 2.7558
# 3 36.2995 32.9832 88.5750 16.4194 -6.0869 -5.4038
# 4 2.8879 -2.2167 16.4194 23.3983 3.5576 -4.4099
# 5 -10.7261 -13.9440 -6.0869 3.5576 33.2983 9.2770
# 6 2.8376 2.7558 -5.4038 -4.4099 9.2770 24.4126
#
#
#
# Elastic Compliance Matrix: (Units=1/GPa)
#
#
# Indices 1 2 3 4 5 6 
#
# 1 0.012716 -0.004042 -0.003644 -0.000326 0.002570 -0.002864
# 2 -0.004042 0.013057 -0.003702 0.003227 0.003903 -0.002724
# 3 -0.003644 -0.003702 0.016420 -0.011155 0.000877 0.002128
# 4 -0.000326 0.003227 -0.011155 0.054378 -0.009574 0.010665
# 5 0.002570 0.003903 0.000877 -0.009574 0.038374 -0.016857
# 6 -0.002864 -0.002724 0.002128 0.010665 -0.016857 0.050406
#
#
# Mechanical properties :
#
#
# Convention : Reuss Voigt Hill
#
# Bulk Modulus (GPa) = 51.49897 59.13218 55.31558
# Shear Modulus (GPa) = 23.29931 28.56562 25.93247
#
# Velocity S-wave (km/s) = 3.49457 3.86941 3.68675
# Velocity P-wave (km/s) = 6.57839 7.13838 6.86410
#
# Compressibility (1/GPa) = 0.01941786
#
# Stress axis : x y z
#
# Youngs Moduli (GPa) = 78.63980 76.58642 60.90258
#
# Poissons Ratio (x) = 0.30954 0.22193
# Poissons Ratio (y) = 0.31784 0.22545
# Poissons Ratio (z) = 0.28656 0.28351
#
# Static dielectric constant tensor:
#      x y z
#    x 3.749840 -0.036160 -0.133220 
#    y -0.036160 3.348420 0.282090 
#    z -0.133220 0.282090 3.595590 
# 
# 
# High freq. dielectric constant tensor:
#      x y z
#    x 1.752110 0.003490 -0.001020 
#    y 0.003490 1.730410 0.014910 
#    z -0.001020 0.014910 1.733450 
# 
# From -- ./inp_files/510906.got.cif
#   From: 2010.06.25/outbox.cif.g09.slc.cpg/sg2_256_cif.got.tgz:510906.got - 2010.06.27 13:26:56.
