data_PCOD8017965
_publ_section_title
;
Structure prediction by ZEFSAII (Michael W. Deem and Ramdas Pophale) SiO2 
 PCOD8017965
Probable space group: P -1
;
_chemical_formula_sum "Si O2"
_cell_formula_units_Z 16
_cell_length_a 12.152893
_cell_length_b 12.656168
_cell_length_c 21.018771
_cell_angle_alpha 49.177405
_cell_angle_beta 119.398612
_cell_angle_gamma 156.007351
_cell_volume 933.460690
_symmetry_space_group_name_H-M "P -1"
_symmetry_group_IT_number 2
_symmetry_cell_setting 'triclinic'
loop_
_space_group_symop_operation_xyz
x,y,z
-x,-y,-z
loop_
_atom_site_type_symbol
_atom_site_label
_atom_site_fract_x
_atom_site_fract_y
_atom_site_fract_z
Si Si1 0.706555 0.473315 0.273256
Si Si2 0.544505 0.331498 0.038978
Si Si3 0.930891 0.220984 0.627066
Si Si4 0.801503 0.402533 0.564591
Si Si5 0.119367 0.584485 0.931999
Si Si6 0.706989 0.647370 0.081835
Si Si7 0.161429 0.705562 0.664143
Si Si8 0.244778 0.764467 0.154559
O O1 0.762629 0.646990 0.168245
O O2 0.783308 0.399798 0.295505
O O3 0.903008 0.698529 0.302068
O O4 0.374048 0.154468 0.325652
O O5 0.516363 0.444705 0.945353
O O6 0.823892 0.526173 0.015062
O O7 0.582225 0.402000 0.097190
O O8 0.263077 0.949930 0.102600
O O9 0.872306 0.319595 0.592814
O O10 0.122349 0.410745 0.542578
O O11 0.000889 0.630057 0.592442
O O12 0.466559 0.084211 0.614260
O O13 0.883129 0.394817 0.888341
O O14 0.426586 0.968947 0.855528
O O15 0.000000 0.500000 0.000000
O O16 0.000000 0.000000 0.000000
O O17 0.960109 0.516375 0.743137
#
# Coordination Sequence:
#
# PCOD8017965 Si02
#       8
#     2   2   2   2   2   2   2   2
#     4  10  20  27  45  57  90 123 161 201 228 273
#     4   9  22  31  51  66 100 128 170 204 235 281
#     4   9  18  30  38  61  82 121 164 190 234 284
#     4   9  17  27  43  58  87 118 155 197 235 278
#     4  10  20  35  52  70  96 132 163 200 244 290
#     4  11  21  33  46  71  98 132 172 206 235 270
#     4  10  17  27  45  65  87 120 154 199 235 274
#     4  10  20  33  49  74  94 123 168 197 238 292
#
# _framework density 17.140518
#
# number of rings (size 3 to 8) (size 9 to 14) (size 15 to 20)
#    0.750    1.500    0.000    4.125    8.750    3.000 
#    0.000    0.000    0.000    0.000    0.000    0.000 
#    0.000    0.000    0.000   22.500    0.000    3.750 
#
# Total GULP energy -198302.897447 kJ/mol
# GULP energy per Si atom -12393.931090 kJ/mol
# Density = 1.710151 g / cm^3
# Si number density = 17.140518 Si / 1000 Ang^3
#
#
#
# Elastic Constant Matrix: (Units=GPa)
#
#
# Indices 1 2 3 4 5 6 
#
# 1 35.9423 11.4468 21.4223 2.6774 -12.4586 2.7847
# 2 11.4468 124.2241 47.3633 8.1769 -12.5315 8.5060
# 3 21.4223 47.3633 122.2804 11.2310 -19.7267 4.0380
# 4 2.6774 8.1769 11.2310 36.7791 6.4554 -5.7549
# 5 -12.4586 -12.5315 -19.7267 6.4554 20.5939 1.0194
# 6 2.7847 8.5060 4.0380 -5.7549 1.0194 16.2961
#
#
#
# Elastic Compliance Matrix: (Units=1/GPa)
#
#
# Indices 1 2 3 4 5 6 
#
# 1 0.039127 0.001106 -0.001919 -0.008849 0.025849 -0.011530
# 2 0.001106 0.010231 -0.002687 -0.003559 0.005758 -0.006481
# 3 -0.001919 -0.002687 0.011838 -0.005282 0.010383 -0.003718
# 4 -0.008849 -0.003559 -0.005282 0.037761 -0.025386 0.019602
# 5 0.025849 0.005758 0.010383 -0.025386 0.086810 -0.024391
# 6 -0.011530 -0.006481 -0.003718 0.019602 -0.024391 0.076087
#
#
# Mechanical properties :
#
#
# Convention : Reuss Voigt Hill
#
# Bulk Modulus (GPa) = 18.45177 49.21242 33.83209
# Shear Modulus (GPa) = 17.42652 28.21477 22.82064
#
# Velocity S-wave (km/s) = 3.19201 4.06160 3.65277
# Velocity P-wave (km/s) = 4.93696 7.12523 6.12954
#
# Compressibility (1/GPa) = 0.05419535
#
# Stress axis : x y z
#
# Youngs Moduli (GPa) = 25.55795 97.73842 84.47521
#
# Poissons Ratio (x) = -0.10810 0.16214
# Poissons Ratio (y) = -0.02827 0.22698
# Poissons Ratio (z) = 0.04906 0.26262
#
# Static dielectric constant tensor:
#      x y z
#    x 2.692500 0.196350 -0.055030 
#    y 0.196350 3.527810 0.109780 
#    z -0.055030 0.109780 3.211850 
# 
# 
# High freq. dielectric constant tensor:
#      x y z
#    x 1.586780 0.017230 -0.020660 
#    y 0.017230 1.685110 0.005720 
#    z -0.020660 0.005720 1.655690 
# 
# From -- ./inp_files/579424.got.cif
#   From: 2010.06.25/outbox.cif.g09.slc.cpg/sg2_290_cif.got.tgz:579424.got - 2010.06.27 13:26:56.
