data_PCOD8017014
_publ_section_title
;
Structure prediction by ZEFSAII (Michael W. Deem and Ramdas Pophale) SiO2 
 PCOD8017014
Probable space group: P -1
;
_chemical_formula_sum "Si O2"
_cell_formula_units_Z 16
_cell_length_a 13.228538
_cell_length_b 12.570193
_cell_length_c 12.121673
_cell_angle_alpha 81.335727
_cell_angle_beta 133.379956
_cell_angle_gamma 136.583953
_cell_volume 721.844639
_symmetry_space_group_name_H-M "P -1"
_symmetry_group_IT_number 2
_symmetry_cell_setting 'triclinic'
loop_
_space_group_symop_operation_xyz
x,y,z
-x,-y,-z
loop_
_atom_site_type_symbol
_atom_site_label
_atom_site_fract_x
_atom_site_fract_y
_atom_site_fract_z
Si Si1 0.941388 0.771495 0.335304
Si Si2 0.338337 0.406056 0.630485
Si Si3 0.669034 0.324610 0.150245
Si Si4 0.948165 0.017955 0.254351
Si Si5 0.755163 0.211896 0.388990
Si Si6 0.357563 0.990999 0.317685
Si Si7 0.744095 0.835145 0.751652
Si Si8 0.218127 0.446618 0.977505
O O1 0.721715 0.588305 0.293727
O O2 0.832245 0.664762 0.149217
O O3 0.240321 0.914579 0.570379
O O4 0.970652 0.918109 0.345658
O O5 0.479431 0.595075 0.637302
O O6 0.052958 0.180088 0.391263
O O7 0.529275 0.427508 0.779960
O O8 0.686733 0.208647 0.213628
O O9 0.719885 0.390592 0.048865
O O10 0.923255 0.546057 0.375654
O O11 0.370609 0.171237 0.988946
O O12 0.155043 0.155849 0.284309
O O13 0.522857 0.111174 0.308229
O O14 0.045100 0.734739 0.109107
O O15 0.500000 0.000000 0.500000
O O16 0.344011 0.100023 0.346335
O O17 0.000000 0.000000 0.000000
#
# Coordination Sequence:
#
# PCOD8017014 Si02
#       8
#     2   2   2   2   2   2   2   2
#     4  11  22  40  66  96 121 169 216 262 305 380
#     4  12  26  40  65  96 130 168 208 267 322 371
#     4  10  22  37  64  91 127 163 205 269 312 368
#     4  12  24  44  64  93 133 166 210 261 325 376
#     4  10  23  37  64  97 130 158 219 265 315 363
#     4  12  21  39  64  98 124 161 206 274 312 366
#     4  12  25  41  69  95 122 165 217 264 312 374
#     4  11  22  38  66  95 127 159 224 258 314 365
#
# _framework density 22.165436
#
# number of rings (size 3 to 8) (size 9 to 14) (size 15 to 20)
#    0.000    0.750    6.250    1.875   10.500    0.000 
#    0.000    0.625    2.750    1.500    0.000    0.000 
#    0.000    0.000    0.000    0.000    0.000    0.000 
#
# Total GULP energy -198244.174665 kJ/mol
# GULP energy per Si atom -12390.260917 kJ/mol
# Density = 2.211499 g / cm^3
# Si number density = 22.165436 Si / 1000 Ang^3
#
#
#
# Elastic Constant Matrix: (Units=GPa)
#
#
# Indices 1 2 3 4 5 6 
#
# 1 63.2728 26.2464 39.6506 8.5849 22.7265 13.2229
# 2 26.2464 124.1351 43.2457 -13.9329 9.6907 10.6169
# 3 39.6506 43.2457 79.8902 -5.0372 21.5687 0.4004
# 4 8.5849 -13.9329 -5.0372 39.0806 -2.3907 17.5460
# 5 22.7265 9.6907 21.5687 -2.3907 28.2823 0.8661
# 6 13.2229 10.6169 0.4004 17.5460 0.8661 37.0485
#
#
#
# Elastic Compliance Matrix: (Units=1/GPa)
#
#
# Indices 1 2 3 4 5 6 
#
# 1 0.031751 -0.001894 -0.010479 -0.006913 -0.017244 -0.006999
# 2 -0.001894 0.011366 -0.005454 0.006448 0.002504 -0.005635
# 3 -0.010479 -0.005454 0.022583 0.000626 -0.007032 0.004927
# 4 -0.006913 0.006448 0.000626 0.037700 0.006587 -0.017396
# 5 -0.017244 0.002504 -0.007032 0.006587 0.054241 0.001125
# 6 -0.006999 -0.005635 0.004927 -0.017396 0.001125 0.039263
#
#
# Mechanical properties :
#
#
# Convention : Reuss Voigt Hill
#
# Bulk Modulus (GPa) = 33.28055 53.95371 43.61713
# Shear Modulus (GPa) = 20.61226 31.42598 26.01912
#
# Velocity S-wave (km/s) = 3.05278 3.76944 3.42988
# Velocity P-wave (km/s) = 5.24149 6.58325 5.95031
#
# Compressibility (1/GPa) = 0.03004758
#
# Stress axis : x y z
#
# Youngs Moduli (GPa) = 31.49501 87.97800 44.28026
#
# Poissons Ratio (x) = 0.16662 0.46400
# Poissons Ratio (y) = 0.05965 0.24151
# Poissons Ratio (z) = 0.33002 0.47984
#
# Static dielectric constant tensor:
#      x y z
#    x 4.155530 0.260440 0.568800 
#    y 0.260440 4.850340 -0.256890 
#    z 0.568800 -0.256890 3.993320 
# 
# 
# High freq. dielectric constant tensor:
#      x y z
#    x 1.844630 0.016230 0.037510 
#    y 0.016230 1.897050 -0.019970 
#    z 0.037510 -0.019970 1.855260 
# 
# From -- ./inp_files/426059.got.cif
#   From: 2010.06.25/outbox.cif.g09.slc.cpg/sg2_214_cif.got.tgz:426059.got - 2010.06.27 13:26:56.
