data_PCOD8017554
_publ_section_title
;
Structure prediction by ZEFSAII (Michael W. Deem and Ramdas Pophale) SiO2 
 PCOD8017554
Probable space group: P -1
;
_chemical_formula_sum "Si O2"
_cell_formula_units_Z 12
_cell_length_a 7.277396
_cell_length_b 16.832265
_cell_length_c 6.613812
_cell_angle_alpha 76.501857
_cell_angle_beta 112.610603
_cell_angle_gamma 126.359450
_cell_volume 602.269346
_symmetry_space_group_name_H-M "P -1"
_symmetry_group_IT_number 2
_symmetry_cell_setting 'triclinic'
loop_
_space_group_symop_operation_xyz
x,y,z
-x,-y,-z
loop_
_atom_site_type_symbol
_atom_site_label
_atom_site_fract_x
_atom_site_fract_y
_atom_site_fract_z
Si Si1 0.014860 0.871003 0.104063
Si Si2 0.356580 0.803745 0.325971
Si Si3 0.787922 0.366739 0.354280
Si Si4 0.492563 0.282729 0.887819
Si Si5 0.841142 0.950910 0.657287
Si Si6 0.681588 0.466824 0.581000
O O1 0.210099 0.847012 0.157772
O O2 0.794010 0.776127 0.180077
O O3 0.139031 0.967575 0.236556
O O4 0.929515 0.889452 0.844636
O O5 0.186152 0.699934 0.431825
O O6 0.462406 0.788384 0.178207
O O7 0.565134 0.878845 0.521596
O O8 0.678815 0.422223 0.386595
O O9 0.046429 0.441695 0.317551
O O10 0.605091 0.297292 0.146623
O O11 0.603676 0.387911 0.770825
O O12 0.000000 0.000000 0.500000
O O13 0.500000 0.500000 0.500000
#
# Coordination Sequence:
#
# PCOD8017554 Si02
#       6
#     2   2   2   2   2   2
#     4  11  24  40  64  91 122 166 202 250 309 351
#     4  11  23  41  63  91 125 163 202 250 305 356
#     4  10  22  40  61  89 127 155 201 255 293 364
#     4  11  22  40  62  92 124 158 207 249 298 369
#     4  11  23  43  62  89 127 158 209 255 294 368
#     4  10  22  39  62  90 121 162 200 245 307 360
#
# _framework density 19.92464
#
# number of rings (size 3 to 8) (size 9 to 14) (size 15 to 20)
#    0.000    1.333    3.333    2.000    0.000    4.000 
#    0.000    0.000    0.000    0.000    0.000    0.000 
#    0.000    0.000    0.000    0.000    0.000    0.000 
#
# Total GULP energy -148844.513082 kJ/mol
# GULP energy per Si atom -12403.709423 kJ/mol
# Density = 1.987929 g / cm^3
# Si number density = 19.924640 Si / 1000 Ang^3
#
#
#
# Elastic Constant Matrix: (Units=GPa)
#
#
# Indices 1 2 3 4 5 6 
#
# 1 128.8162 42.5714 50.1861 -6.4120 19.9689 -1.5892
# 2 42.5714 96.3379 29.9393 1.5996 9.6913 14.2652
# 3 50.1861 29.9393 87.6498 8.1390 6.7418 -1.7461
# 4 -6.4120 1.5996 8.1390 39.1115 1.8634 -1.6861
# 5 19.9689 9.6913 6.7418 1.8634 30.1276 -6.0992
# 6 -1.5892 14.2652 -1.7461 -1.6861 -6.0992 28.3491
#
#
#
# Elastic Compliance Matrix: (Units=1/GPa)
#
#
# Indices 1 2 3 4 5 6 
#
# 1 0.012141 -0.003197 -0.005734 0.003629 -0.005776 0.000909
# 2 -0.003197 0.014284 -0.002882 -0.000702 -0.003475 -0.008334
# 3 -0.005734 -0.002882 0.015962 -0.004135 0.001871 0.002269
# 4 0.003629 -0.000702 -0.004135 0.027237 -0.002666 0.001349
# 5 -0.005776 -0.003475 0.001871 -0.002666 0.039902 0.009966
# 6 0.000909 -0.008334 0.002269 0.001349 0.009966 0.041883
#
#
# Mechanical properties :
#
#
# Convention : Reuss Voigt Hill
#
# Bulk Modulus (GPa) = 53.30402 62.02194 57.66298
# Shear Modulus (GPa) = 27.58048 32.19145 29.88596
#
# Velocity S-wave (km/s) = 3.72457 4.02389 3.87712
# Velocity P-wave (km/s) = 6.73108 7.26531 7.00329
#
# Compressibility (1/GPa) = 0.01876031
#
# Stress axis : x y z
#
# Youngs Moduli (GPa) = 82.36804 70.01018 62.64886
#
# Poissons Ratio (x) = 0.22381 0.35923
# Poissons Ratio (y) = 0.26331 0.18056
# Poissons Ratio (z) = 0.47230 0.20178
#
# Static dielectric constant tensor:
#      x y z
#    x 3.525510 0.034710 -0.109630 
#    y 0.034710 3.935540 0.022500 
#    z -0.109630 0.022500 3.628340 
# 
# 
# High freq. dielectric constant tensor:
#      x y z
#    x 1.774540 0.006880 -0.007130 
#    y 0.006880 1.798460 -0.000600 
#    z -0.007130 -0.000600 1.776980 
# 
# From -- ./inp_files/3183.got.cif
#   From: 2010.06.25/outbox.cif.g09.slc.cpg/sg2_2_cif.got.tgz:3183.got - 2010.06.27 13:26:56.
