data_PCOD8017120
_publ_section_title
;
Structure prediction by ZEFSAII (Michael W. Deem and Ramdas Pophale) SiO2 
 PCOD8017120
Probable space group: P -1
;
_chemical_formula_sum "Si O2"
_cell_formula_units_Z 16
_cell_length_a 8.727595
_cell_length_b 16.799461
_cell_length_c 11.212529
_cell_angle_alpha 126.530232
_cell_angle_beta 144.046750
_cell_angle_gamma 65.935161
_cell_volume 765.970465
_symmetry_space_group_name_H-M "P -1"
_symmetry_group_IT_number 2
_symmetry_cell_setting 'triclinic'
loop_
_space_group_symop_operation_xyz
x,y,z
-x,-y,-z
loop_
_atom_site_type_symbol
_atom_site_label
_atom_site_fract_x
_atom_site_fract_y
_atom_site_fract_z
Si Si1 0.087219 0.939075 0.199679
Si Si2 0.295926 0.305254 0.868139
Si Si3 0.461531 0.108912 0.714598
Si Si4 0.318083 0.615177 0.245027
Si Si5 0.078241 0.547545 0.273543
Si Si6 0.133165 0.807401 0.333163
Si Si7 0.725539 0.481414 0.376058
Si Si8 0.484158 0.024990 0.151317
O O1 0.247070 0.888912 0.154568
O O2 0.033297 0.869211 0.218548
O O3 0.249347 0.045245 0.437288
O O4 0.807262 0.953297 0.979956
O O5 0.387469 0.220123 0.767271
O O6 0.119820 0.374079 0.745447
O O7 0.126460 0.256450 0.829943
O O8 0.558186 0.375547 0.140403
O O9 0.452985 0.065535 0.805502
O O10 0.283211 0.596348 0.347343
O O11 0.325284 0.733677 0.333661
O O12 0.584347 0.576383 0.336900
O O13 0.074993 0.556497 0.965750
O O14 0.242140 0.521608 0.465550
O O15 0.296755 0.878602 0.598115
O O16 0.000000 0.500000 0.500000
O O17 0.500000 0.000000 0.000000
#
# Coordination Sequence:
#
# PCOD8017120 Si02
#       8
#     2   2   2   2   2   2   2   2
#     4  10  22  39  59  85 120 154 189 238 287 337
#     4  10  22  39  58  85 116 151 194 236 286 345
#     4  10  22  39  58  86 122 155 188 234 290 340
#     4   9  20  38  59  82 112 148 190 238 281 335
#     4   9  20  39  59  81 111 148 190 237 284 336
#     4  10  22  38  60  88 112 151 200 236 283 338
#     4  11  24  38  58  88 118 150 188 237 295 347
#     4  11  22  37  60  88 119 154 195 238 279 336
#
# _framework density 20.888532000000001
#
# number of rings (size 3 to 8) (size 9 to 14) (size 15 to 20)
#    0.000    2.000    0.000    3.000    0.000   13.000 
#    0.000    0.000    0.000    0.000    0.000    0.000 
#    0.000    0.000    0.000    0.000    0.000    0.000 
#
# Total GULP energy -198418.028068 kJ/mol
# GULP energy per Si atom -12401.126754 kJ/mol
# Density = 2.084099 g / cm^3
# Si number density = 20.888532 Si / 1000 Ang^3
#
#
#
# Elastic Constant Matrix: (Units=GPa)
#
#
# Indices 1 2 3 4 5 6 
#
# 1 61.3766 8.1668 21.6667 12.4023 9.6659 -21.8754
# 2 8.1668 81.9590 28.5525 19.8044 -3.9866 -24.7689
# 3 21.6667 28.5525 71.6423 7.6883 14.0241 -0.4918
# 4 12.4023 19.8044 7.6883 26.0000 -2.8898 -2.6282
# 5 9.6659 -3.9866 14.0241 -2.8898 36.4385 -1.8016
# 6 -21.8754 -24.7689 -0.4918 -2.6282 -1.8016 31.7182
#
#
#
# Elastic Compliance Matrix: (Units=1/GPa)
#
#
# Indices 1 2 3 4 5 6 
#
# 1 0.039092 0.019911 -0.016419 -0.025118 -0.001883 0.040067
# 2 0.019911 0.034669 -0.017782 -0.026162 0.005191 0.038657
# 3 -0.016419 -0.017782 0.026336 0.010218 -0.008123 -0.024416
# 4 -0.025118 -0.026162 0.010218 0.064487 0.003397 -0.032059
# 5 -0.001883 0.005191 -0.008123 0.003397 0.032141 0.004736
# 6 0.040067 0.038657 -0.024416 -0.032059 0.004736 0.086582
#
#
# Mechanical properties :
#
#
# Convention : Reuss Voigt Hill
#
# Bulk Modulus (GPa) = 13.98252 36.86109 25.42180
# Shear Modulus (GPa) = 14.89315 29.27078 22.08196
#
# Velocity S-wave (km/s) = 2.67307 3.74743 3.25489
# Velocity P-wave (km/s) = 4.02933 6.03401 5.13053
#
# Compressibility (1/GPa) = 0.07151789
#
# Stress axis : x y z
#
# Youngs Moduli (GPa) = 25.58084 28.84443 37.97017
#
# Poissons Ratio (x) = -0.57432 0.62342
# Poissons Ratio (y) = -0.50934 0.67518
# Poissons Ratio (z) = 0.42000 0.51291
#
# Static dielectric constant tensor:
#      x y z
#    x 3.672340 -0.156800 0.051990 
#    y -0.156800 3.987320 -0.007580 
#    z 0.051990 -0.007580 3.691260 
# 
# 
# High freq. dielectric constant tensor:
#      x y z
#    x 1.814040 -0.012390 0.003210 
#    y -0.012390 1.825950 -0.002590 
#    z 0.003210 -0.002590 1.813730 
# 
# From -- ./inp_files/46309.got.cif
#   From: 2010.06.25/outbox.cif.g09.slc.cpg/sg2_24_cif.got.tgz:46309.got - 2010.06.27 13:26:56.
