data_PCOD8017064
_publ_section_title
;
Structure prediction by ZEFSAII (Michael W. Deem and Ramdas Pophale) SiO2 
 PCOD8017064
Probable space group: P -1
;
_chemical_formula_sum "Si O2"
_cell_formula_units_Z 16
_cell_length_a 16.061971
_cell_length_b 4.951809
_cell_length_c 11.320958
_cell_angle_alpha 100.763440
_cell_angle_beta 52.006942
_cell_angle_gamma 121.099995
_cell_volume 596.019036
_symmetry_space_group_name_H-M "P -1"
_symmetry_group_IT_number 2
_symmetry_cell_setting 'triclinic'
loop_
_space_group_symop_operation_xyz
x,y,z
-x,-y,-z
loop_
_atom_site_type_symbol
_atom_site_label
_atom_site_fract_x
_atom_site_fract_y
_atom_site_fract_z
Si Si1 0.369534 0.937295 0.367369
Si Si2 0.854731 0.228618 0.303185
Si Si3 0.004145 0.733493 0.383588
Si Si4 0.314472 0.423067 0.701309
Si Si5 0.193716 0.590709 0.288272
Si Si6 0.886908 0.832977 0.879189
Si Si7 0.140727 0.623443 0.946488
Si Si8 0.495514 0.664604 0.361707
O O1 0.266652 0.760676 0.546876
O O2 0.317438 0.787125 0.271334
O O3 0.485620 0.897937 0.294945
O O4 0.415257 0.308470 0.348779
O O5 0.915025 0.443307 0.144959
O O6 0.946328 0.371835 0.347348
O O7 0.804577 0.854161 0.289080
O O8 0.137321 0.815721 0.324110
O O9 0.004712 0.939033 0.287843
O O10 0.912792 0.719682 0.566400
O O11 0.270413 0.629604 0.830517
O O12 0.432312 0.674278 0.541685
O O13 0.363313 0.241498 0.729990
O O14 0.219005 0.453970 0.134409
O O15 0.831953 0.030695 0.005008
O O16 0.940471 0.680624 0.916146
#
# Coordination Sequence:
#
# PCOD8017064 Si02
#       8
#     2   2   2   2   2   2   2   2
#     4  10  22  39  67 100 127 161 214 275 319 371
#     4  10  22  41  64  98 134 167 209 263 327 377
#     4  10  23  44  68  97 125 171 222 271 309 372
#     4  10  22  40  66  95 139 164 206 261 329 387
#     4  10  23  45  69  92 131 167 223 271 312 361
#     4  12  25  43  63  91 128 183 216 252 318 380
#     4  12  24  41  63  92 134 176 207 258 319 395
#     4  10  22  37  69 100 126 164 212 264 329 381
#
# _framework density 26.844781999999999
#
# number of rings (size 3 to 8) (size 9 to 14) (size 15 to 20)
#    0.000    1.500    3.750    0.375    3.500    3.500 
#    4.500    0.000    0.000    4.500    0.000    0.000 
#    0.000    0.000    0.000    0.000    0.000    0.000 
#
# Total GULP energy -198321.381577 kJ/mol
# GULP energy per Si atom -12395.086349 kJ/mol
# Density = 2.678368 g / cm^3
# Si number density = 26.844782 Si / 1000 Ang^3
#
#
#
# Elastic Constant Matrix: (Units=GPa)
#
#
# Indices 1 2 3 4 5 6 
#
# 1 145.6484 22.4429 51.9611 28.9928 7.0468 -17.1584
# 2 22.4429 53.7455 26.3655 13.3919 7.0587 -18.5282
# 3 51.9611 26.3655 113.1391 29.1602 21.2065 -10.9916
# 4 28.9928 13.3919 29.1602 44.1811 -5.5811 2.2725
# 5 7.0468 7.0587 21.2065 -5.5811 31.6637 7.9755
# 6 -17.1584 -18.5282 -10.9916 2.2725 7.9755 45.5726
#
#
#
# Elastic Compliance Matrix: (Units=1/GPa)
#
#
# Indices 1 2 3 4 5 6 
#
# 1 0.009181 0.000077 -0.002064 -0.005194 -0.002523 0.003691
# 2 0.000077 0.027429 -0.000418 -0.010180 -0.011052 0.013521
# 3 -0.002064 -0.000418 0.015757 -0.010902 -0.013367 0.005736
# 4 -0.005194 -0.010180 -0.010902 0.039767 0.021375 -0.014448
# 5 -0.002523 -0.011052 -0.013367 0.021375 0.052074 -0.018846
# 6 0.003691 0.013521 0.005736 -0.014448 -0.018846 0.034232
#
#
# Mechanical properties :
#
#
# Convention : Reuss Voigt Hill
#
# Bulk Modulus (GPa) = 21.02830 57.11912 39.07371
# Shear Modulus (GPa) = 25.11264 38.40105 31.75684
#
# Velocity S-wave (km/s) = 3.06187 3.78628 3.44318
# Velocity P-wave (km/s) = 4.51114 6.35911 5.51311
#
# Compressibility (1/GPa) = 0.04755496
#
# Stress axis : x y z
#
# Youngs Moduli (GPa) = 108.91659 36.45821 63.46521
#
# Poissons Ratio (x) = -0.00280 0.13101
# Poissons Ratio (y) = -0.00836 0.02655
# Poissons Ratio (z) = 0.22484 0.01525
#
# Static dielectric constant tensor:
#      x y z
#    x 4.779140 -0.077670 0.121950 
#    y -0.077670 4.832510 0.199850 
#    z 0.121950 0.199850 5.182210 
# 
# 
# High freq. dielectric constant tensor:
#      x y z
#    x 2.079180 -0.012070 0.005440 
#    y -0.012070 2.081890 0.026660 
#    z 0.005440 0.026660 2.071350 
# 
# From -- ./inp_files/458935.got.cif
#   From: 2010.06.25/outbox.cif.g09.slc.cpg/sg2_230_cif.got.tgz:458935.got - 2010.06.27 13:26:56.
