data_PCOD8017110
_publ_section_title
;
Structure prediction by ZEFSAII (Michael W. Deem and Ramdas Pophale) SiO2 
 PCOD8017110
Probable space group: P -1
;
_chemical_formula_sum "Si O2"
_cell_formula_units_Z 16
_cell_length_a 14.022981
_cell_length_b 8.996802
_cell_length_c 15.187314
_cell_angle_alpha 91.565416
_cell_angle_beta 40.930251
_cell_angle_gamma 59.227853
_cell_volume 731.078469
_symmetry_space_group_name_H-M "P -1"
_symmetry_group_IT_number 2
_symmetry_cell_setting 'triclinic'
loop_
_space_group_symop_operation_xyz
x,y,z
-x,-y,-z
loop_
_atom_site_type_symbol
_atom_site_label
_atom_site_fract_x
_atom_site_fract_y
_atom_site_fract_z
Si Si1 0.476593 0.318935 0.138388
Si Si2 0.023426 0.074434 0.122615
Si Si3 0.240159 0.788296 0.385176
Si Si4 0.701039 0.713921 0.887183
Si Si5 0.270136 0.316689 0.436947
Si Si6 0.575895 0.779967 0.174930
Si Si7 0.352992 0.545786 0.469652
Si Si8 0.851639 0.304103 0.071132
O O1 0.761359 0.044523 0.963535
O O2 0.443061 0.519837 0.187816
O O3 0.404070 0.349603 0.087439
O O4 0.288239 0.372263 0.327665
O O5 0.034274 0.888149 0.091636
O O6 0.756649 0.328103 0.356520
O O7 0.038947 0.157101 0.021701
O O8 0.341392 0.868446 0.327036
O O9 0.171746 0.770182 0.525997
O O10 0.000000 0.000000 0.500000
O O11 0.983039 0.512051 0.657114
O O12 0.703112 0.705645 0.991022
O O13 0.500000 0.000000 0.000000
O O14 0.365281 0.358049 0.442900
O O15 0.462477 0.018887 0.305146
O O16 0.778737 0.529209 0.092451
O O17 0.620719 0.397969 0.269228
#
# Coordination Sequence:
#
# PCOD8017110 Si02
#       8
#     2   2   2   2   2   2   2   2
#     4  11  22  41  63  94 123 168 214 254 316 377
#     4  11  21  42  73  91 124 162 223 261 317 375
#     4  10  22  38  59  92 131 161 201 270 312 362
#     4  12  25  37  66  93 129 177 209 248 317 388
#     4  11  23  42  62  90 136 166 206 262 307 387
#     4  11  24  42  61  95 132 164 213 257 326 371
#     4  10  22  40  68  93 123 168 215 252 321 381
#     4  10  23  45  67  96 123 164 209 283 313 359
#
# _framework density 21.885477000000002
#
# number of rings (size 3 to 8) (size 9 to 14) (size 15 to 20)
#    0.000    1.250    5.000    2.250    5.250    3.500 
#    0.000    1.250    0.000    0.000    0.000    0.000 
#    0.000    0.000    0.000    0.000    0.000    0.000 
#
# Total GULP energy -198322.061139 kJ/mol
# GULP energy per Si atom -12395.128821 kJ/mol
# Density = 2.183566 g / cm^3
# Si number density = 21.885477 Si / 1000 Ang^3
#
#
#
# Elastic Constant Matrix: (Units=GPa)
#
#
# Indices 1 2 3 4 5 6 
#
# 1 58.7602 17.6021 35.0758 2.8040 6.0221 6.9395
# 2 17.6021 109.2981 34.3359 16.7415 6.2452 7.1943
# 3 35.0758 34.3359 94.5131 11.1144 23.9526 12.6378
# 4 2.8040 16.7415 11.1144 25.0021 3.4753 -0.7963
# 5 6.0221 6.2452 23.9526 3.4753 31.0268 8.6965
# 6 6.9395 7.1943 12.6378 -0.7963 8.6965 35.3328
#
#
#
# Elastic Compliance Matrix: (Units=1/GPa)
#
#
# Indices 1 2 3 4 5 6 
#
# 1 0.022298 -0.001218 -0.008499 0.001651 0.002781 -0.001739
# 2 -0.001218 0.011292 -0.003084 -0.006303 0.001459 -0.001458
# 3 -0.008499 -0.003084 0.018282 -0.003634 -0.010982 -0.001621
# 4 0.001651 -0.006303 -0.003634 0.046121 -0.002510 0.003916
# 5 0.002781 0.001459 -0.010982 -0.002510 0.042220 -0.007363
# 6 -0.001739 -0.001458 -0.001621 0.003916 -0.007363 0.031421
#
#
# Mechanical properties :
#
#
# Convention : Reuss Voigt Hill
#
# Bulk Modulus (GPa) = 38.06596 48.51102 43.28849
# Shear Modulus (GPa) = 24.27243 29.97618 27.12431
#
# Velocity S-wave (km/s) = 3.33388 3.70494 3.52429
# Velocity P-wave (km/s) = 5.67897 6.36522 6.03186
#
# Compressibility (1/GPa) = 0.02627019
#
# Stress axis : x y z
#
# Youngs Moduli (GPa) = 44.84653 88.55533 54.69721
#
# Poissons Ratio (x) = 0.10790 0.46488
# Poissons Ratio (y) = 0.05464 0.16867
# Poissons Ratio (z) = 0.38116 0.27308
#
# Static dielectric constant tensor:
#      x y z
#    x 4.121840 0.031010 0.291110 
#    y 0.031010 3.772910 0.098340 
#    z 0.291110 0.098340 4.161430 
# 
# 
# High freq. dielectric constant tensor:
#      x y z
#    x 1.863550 0.000780 0.006200 
#    y 0.000780 1.850060 0.016500 
#    z 0.006200 0.016500 1.857140 
# 
# From -- ./inp_files/528570.got.cif
#   From: 2010.06.25/outbox.cif.g09.slc.cpg/sg2_265_cif.got.tgz:528570.got - 2010.06.27 13:26:56.
