data_PCOD8017519
_publ_section_title
;
Structure prediction by ZEFSAII (Michael W. Deem and Ramdas Pophale) SiO2 
 PCOD8017519
Probable space group: P -1
;
_chemical_formula_sum "Si O2"
_cell_formula_units_Z 14
_cell_length_a 8.705589
_cell_length_b 9.048929
_cell_length_c 20.031144
_cell_angle_alpha 111.276670
_cell_angle_beta 30.878381
_cell_angle_gamma 91.788748
_cell_volume 611.524362
_symmetry_space_group_name_H-M "P -1"
_symmetry_group_IT_number 2
_symmetry_cell_setting 'triclinic'
loop_
_space_group_symop_operation_xyz
x,y,z
-x,-y,-z
loop_
_atom_site_type_symbol
_atom_site_label
_atom_site_fract_x
_atom_site_fract_y
_atom_site_fract_z
Si Si1 0.331617 0.249928 0.206840
Si Si2 0.337014 0.716988 0.212268
Si Si3 0.455626 0.002743 0.796441
Si Si4 0.644633 0.290863 0.435523
Si Si5 0.225111 0.210341 0.667818
Si Si6 0.101066 0.714723 0.057712
Si Si7 0.827796 0.701619 0.494056
O O1 0.624772 0.084819 0.123778
O O2 0.085668 0.175347 0.261478
O O3 0.054881 0.466258 0.378520
O O4 0.558738 0.263280 0.063795
O O5 0.174998 0.688860 0.200313
O O6 0.085494 0.755204 0.375282
O O7 0.337109 0.906245 0.237997
O O8 0.739800 0.513599 0.040146
O O9 0.713190 0.808326 0.624749
O O10 0.104860 0.179114 0.916730
O O11 0.500000 0.500000 0.500000
O O12 0.420288 0.316413 0.592028
O O13 0.538004 0.202196 0.401083
O O14 0.181031 0.193381 0.760149
O O15 0.500000 0.000000 0.500000
#
# Coordination Sequence:
#
# PCOD8017519 Si02
#       7
#     2   2   2   2   2   2   2
#     4  10  22  41  63  92 125 162 206 256 310 358
#     4  10  22  39  61  91 124 161 205 252 309 365
#     4  12  22  38  60  90 126 168 207 249 299 367
#     4   9  19  39  64  92 119 151 203 254 302 361
#     4  11  22  42  67  93 119 156 207 258 306 367
#     4  11  24  42  61  89 129 165 201 253 307 365
#     4   9  20  39  64  91 123 159 205 258 307 363
#
# _framework density 22.893609999999999
#
# number of rings (size 3 to 8) (size 9 to 14) (size 15 to 20)
#    0.000    1.714    0.000    5.571    0.000    1.143 
#    0.000   16.429    0.000    0.000    0.000    0.000 
#    0.000    0.000    0.000    0.000    0.000    0.000 
#
# Total GULP energy -173450.324049 kJ/mol
# GULP energy per Si atom -12389.308861 kJ/mol
# Density = 2.284150 g / cm^3
# Si number density = 22.893610 Si / 1000 Ang^3
#
#
#
# Elastic Constant Matrix: (Units=GPa)
#
#
# Indices 1 2 3 4 5 6 
#
# 1 56.3610 39.6774 22.8203 -9.5485 -3.1491 -12.1268
# 2 39.6774 141.8068 41.8037 -13.8873 7.2971 -8.9371
# 3 22.8203 41.8037 78.0578 -7.8800 4.8698 -1.0241
# 4 -9.5485 -13.8873 -7.8800 42.7662 -7.9094 -4.6234
# 5 -3.1491 7.2971 4.8698 -7.9094 31.1562 2.5483
# 6 -12.1268 -8.9371 -1.0241 -4.6234 2.5483 37.6847
#
#
#
# Elastic Compliance Matrix: (Units=1/GPa)
#
#
# Indices 1 2 3 4 5 6 
#
# 1 0.025971 -0.005262 -0.004500 0.005013 0.005241 0.007248
# 2 -0.005262 0.009809 -0.003466 0.001075 -0.002081 0.000811
# 3 -0.004500 -0.003466 0.016113 0.000298 -0.001950 -0.001664
# 4 0.005013 0.001075 0.000298 0.026632 0.006585 0.004698
# 5 0.005241 -0.002081 -0.001950 0.006585 0.035125 -0.000427
# 6 0.007248 0.000811 -0.001664 0.004698 -0.000427 0.029621
#
#
# Mechanical properties :
#
#
# Convention : Reuss Voigt Hill
#
# Bulk Modulus (GPa) = 39.31370 53.86981 46.59176
# Shear Modulus (GPa) = 28.05733 33.78301 30.92017
#
# Velocity S-wave (km/s) = 3.50459 3.84559 3.67904
# Velocity P-wave (km/s) = 5.79533 6.58025 6.20022
#
# Compressibility (1/GPa) = 0.02543643
#
# Stress axis : x y z
#
# Youngs Moduli (GPa) = 38.50462 101.94337 62.06208
#
# Poissons Ratio (x) = 0.53641 0.27931
# Poissons Ratio (y) = 0.20261 0.21511
# Poissons Ratio (z) = 0.17329 0.35335
#
# Static dielectric constant tensor:
#      x y z
#    x 4.498490 0.029250 -0.453330 
#    y 0.029250 4.536820 -0.158970 
#    z -0.453330 -0.158970 3.921570 
# 
# 
# High freq. dielectric constant tensor:
#      x y z
#    x 1.883120 -0.013180 -0.021660 
#    y -0.013180 1.931250 0.001020 
#    z -0.021660 0.001020 1.884830 
# 
# From -- ./inp_files/237415.got.cif
#   From: 2010.06.25/outbox.cif.g09.slc.cpg/sg2_119_cif.got.tgz:237415.got - 2010.06.27 13:26:56.
