data_PCOD8017902
_publ_section_title
;
Structure prediction by ZEFSAII (Michael W. Deem and Ramdas Pophale) SiO2 
 PCOD8017902
Probable space group: P -1
;
_chemical_formula_sum "Si O2"
_cell_formula_units_Z 14
_cell_length_a 27.169891
_cell_length_b 15.424885
_cell_length_c 16.140266
_cell_angle_alpha 162.127589
_cell_angle_beta 160.338868
_cell_angle_gamma 19.975107
_cell_volume 633.188350
_symmetry_space_group_name_H-M "P -1"
_symmetry_group_IT_number 2
_symmetry_cell_setting 'triclinic'
loop_
_space_group_symop_operation_xyz
x,y,z
-x,-y,-z
loop_
_atom_site_type_symbol
_atom_site_label
_atom_site_fract_x
_atom_site_fract_y
_atom_site_fract_z
Si Si1 0.650376 0.143010 0.107362
Si Si2 0.606270 0.749569 0.829246
Si Si3 0.177563 0.434789 0.251772
Si Si4 0.980205 0.211066 0.239735
Si Si5 0.306082 0.564211 0.887052
Si Si6 0.683238 0.848328 0.621998
Si Si7 0.287165 0.924016 0.572068
O O1 0.779279 0.287631 0.462083
O O2 0.485981 0.437390 0.093157
O O3 0.632257 0.939489 0.968224
O O4 0.702585 0.908826 0.900309
O O5 0.416516 0.852052 0.637497
O O6 0.680968 0.377930 0.594509
O O7 0.698703 0.804841 0.104824
O O8 0.198527 0.414056 0.365824
O O9 0.000000 0.500000 0.000000
O O10 0.806078 0.345390 0.128090
O O11 0.000000 0.500000 0.500000
O O12 0.110951 0.032694 0.354395
O O13 0.000000 0.000000 0.000000
O O14 0.290830 0.306477 0.568769
O O15 0.262985 0.871521 0.043614
O O16 0.500000 0.000000 0.500000
#
# Coordination Sequence:
#
# PCOD8017902 Si02
#       7
#     2   2   2   2   2   2   2
#     4  12  23  43  67  97 130 172 232 267 337 411
#     4  10  22  39  68  90 129 175 219 265 330 408
#     4  12  27  43  66  98 136 172 217 292 345 387
#     4  12  26  44  67 100 142 169 223 285 327 393
#     4  12  25  42  74 100 125 189 225 269 342 405
#     4  12  23  46  70  95 137 173 230 284 326 408
#     4  10  22  42  62  96 132 174 214 272 336 385
#
# _framework density 22.110323999999999
#
# number of rings (size 3 to 8) (size 9 to 14) (size 15 to 20)
#    0.000    0.571    2.857    5.143    0.000    6.857 
#    0.000    0.000    0.000    0.000    0.000    0.000 
#    0.000    0.000    0.000    0.000    0.000    0.000 
#
# Total GULP energy -173625.518563 kJ/mol
# GULP energy per Si atom -12401.822754 kJ/mol
# Density = 2.206000 g / cm^3
# Si number density = 22.110324 Si / 1000 Ang^3
#
#
#
# Elastic Constant Matrix: (Units=GPa)
#
#
# Indices 1 2 3 4 5 6 
#
# 1 118.2161 45.4092 38.0100 5.2711 11.8621 -0.6388
# 2 45.4092 83.5119 38.8839 1.0319 6.5253 7.0623
# 3 38.0100 38.8839 116.6472 12.4322 9.4591 -2.0445
# 4 5.2711 1.0319 12.4322 44.4332 7.8567 -4.0227
# 5 11.8621 6.5253 9.4591 7.8567 43.9543 16.7024
# 6 -0.6388 7.0623 -2.0445 -4.0227 16.7024 40.3444
#
#
#
# Elastic Compliance Matrix: (Units=1/GPa)
#
#
# Indices 1 2 3 4 5 6 
#
# 1 0.011336 -0.005371 -0.001637 -0.000088 -0.002711 0.002150
# 2 -0.005371 0.017054 -0.004178 0.000900 0.001031 -0.003619
# 3 -0.001637 -0.004178 0.010898 -0.002347 -0.001487 0.001639
# 4 -0.000088 0.000900 -0.002347 0.024575 -0.005723 0.004542
# 5 -0.002711 0.001031 -0.001487 -0.005723 0.029671 -0.013153
# 6 0.002150 -0.003619 0.001639 0.004542 -0.013153 0.031435
#
#
# Mechanical properties :
#
#
# Convention : Reuss Voigt Hill
#
# Bulk Modulus (GPa) = 59.10870 62.55350 60.83110
# Shear Modulus (GPa) = 32.68419 38.81786 35.75102
#
# Velocity S-wave (km/s) = 3.84895 4.19459 4.02548
# Velocity P-wave (km/s) = 6.82232 7.19808 7.01272
#
# Compressibility (1/GPa) = 0.01691798
#
# Stress axis : x y z
#
# Youngs Moduli (GPa) = 88.21534 58.63627 91.75774
#
# Poissons Ratio (x) = 0.31492 0.15017
# Poissons Ratio (y) = 0.47378 0.38335
# Poissons Ratio (z) = 0.14437 0.24498
#
# Static dielectric constant tensor:
#      x y z
#    x 3.998140 -0.005280 -0.002660 
#    y -0.005280 4.022280 0.192000 
#    z -0.002660 0.192000 4.114650 
# 
# 
# High freq. dielectric constant tensor:
#      x y z
#    x 1.872370 0.004950 0.004050 
#    y 0.004950 1.871610 0.012860 
#    z 0.004050 0.012860 1.884920 
# 
# From -- ./inp_files/544242.got.cif
#   From: 2010.06.25/outbox.cif.g09.slc.cpg/sg2_273_cif.got.tgz:544242.got - 2010.06.27 13:26:56.
