data_PCOD8017041
_publ_section_title
;
Structure prediction by ZEFSAII (Michael W. Deem and Ramdas Pophale) SiO2 
 PCOD8017041
Probable space group: P -1
;
_chemical_formula_sum "Si O2"
_cell_formula_units_Z 16
_cell_length_a 10.217347
_cell_length_b 8.015973
_cell_length_c 13.646399
_cell_angle_alpha 112.727825
_cell_angle_beta 94.157902
_cell_angle_gamma 46.896217
_cell_volume 721.590709
_symmetry_space_group_name_H-M "P -1"
_symmetry_group_IT_number 2
_symmetry_cell_setting 'triclinic'
loop_
_space_group_symop_operation_xyz
x,y,z
-x,-y,-z
loop_
_atom_site_type_symbol
_atom_site_label
_atom_site_fract_x
_atom_site_fract_y
_atom_site_fract_z
Si Si1 0.687797 0.196027 0.557734
Si Si2 0.286485 0.742211 0.060964
Si Si3 0.650307 0.948519 0.806911
Si Si4 0.713686 0.407888 0.418398
Si Si5 0.902514 0.513490 0.857605
Si Si6 0.079091 0.891788 0.275860
Si Si7 0.782128 0.558709 0.077778
Si Si8 0.218102 0.259314 0.448102
O O1 0.730087 0.232992 0.460757
O O2 0.468199 0.450411 0.626545
O O3 0.825172 0.171895 0.629193
O O4 0.722713 0.945014 0.511928
O O5 0.241420 0.753269 0.174278
O O6 0.256643 0.985899 0.102357
O O7 0.500000 0.500000 0.000000
O O8 0.181802 0.696538 0.976171
O O9 0.733045 0.695463 0.810756
O O10 0.726585 0.881750 0.685269
O O11 0.426172 0.179247 0.841654
O O12 0.686282 0.638165 0.511333
O O13 0.905548 0.201545 0.319925
O O14 0.003618 0.227987 0.768439
O O15 0.066243 0.503181 0.855254
O O16 0.811577 0.605182 0.980775
O O17 0.000000 0.500000 0.500000
#
# Coordination Sequence:
#
# PCOD8017041 Si02
#       8
#     2   2   2   2   2   2   2   2
#     4  11  24  43  66  93 132 169 215 270 314 382
#     4   9  19  39  62  87 125 162 202 254 316 374
#     4  11  21  39  62  92 122 167 206 255 323 374
#     4  11  25  43  66  97 129 173 215 263 326 376
#     4  10  22  37  66  93 121 163 209 260 313 382
#     4  11  21  42  63  89 128 165 209 259 316 378
#     4   9  21  41  60  90 127 158 206 262 312 382
#     4  12  24  43  67  96 132 171 216 265 321 381
#
# _framework density 22.173234000000001
#
# number of rings (size 3 to 8) (size 9 to 14) (size 15 to 20)
#    0.000    1.500    2.500    1.875    1.750    3.500 
#    4.500    6.250    0.000    0.000    0.000    0.000 
#    0.000    0.000    0.000    0.000    0.000    0.000 
#
# Total GULP energy -198222.169015 kJ/mol
# GULP energy per Si atom -12388.885563 kJ/mol
# Density = 2.212277 g / cm^3
# Si number density = 22.173234 Si / 1000 Ang^3
#
#
#
# Elastic Constant Matrix: (Units=GPa)
#
#
# Indices 1 2 3 4 5 6 
#
# 1 106.7435 33.1885 44.4557 19.3916 3.4385 -6.0958
# 2 33.1885 100.2211 32.5404 18.5008 -7.4657 -3.2180
# 3 44.4557 32.5404 90.5692 31.3255 -0.5278 -7.6380
# 4 19.3916 18.5008 31.3255 23.3372 1.8648 -3.5014
# 5 3.4385 -7.4657 -0.5278 1.8648 35.1646 6.4305
# 6 -6.0958 -3.2180 -7.6380 -3.5014 6.4305 44.9288
#
#
#
# Elastic Compliance Matrix: (Units=1/GPa)
#
#
# Indices 1 2 3 4 5 6 
#
# 1 0.012469 -0.002385 -0.004419 -0.002264 -0.001828 0.000855
# 2 -0.002385 0.012620 -0.000924 -0.007146 0.003391 -0.000619
# 3 -0.004419 -0.000924 0.022601 -0.025940 0.001786 0.000899
# 4 -0.002264 -0.007146 -0.025940 0.086117 -0.006698 0.002441
# 5 -0.001828 0.003391 0.001786 -0.006698 0.030559 -0.004597
# 6 0.000855 -0.000619 0.000899 0.002441 -0.004597 0.023330
#
#
# Mechanical properties :
#
#
# Convention : Reuss Voigt Hill
#
# Bulk Modulus (GPa) = 31.02436 57.54479 44.28457
# Shear Modulus (GPa) = 23.37569 33.17605 28.27587
#
# Velocity S-wave (km/s) = 3.25041 3.87230 3.57490
# Velocity P-wave (km/s) = 5.30180 6.78245 6.08731
#
# Compressibility (1/GPa) = 0.03223274
#
# Stress axis : x y z
#
# Youngs Moduli (GPa) = 80.19709 79.24113 44.24654
#
# Poissons Ratio (x) = 0.18901 0.19552
# Poissons Ratio (y) = 0.19129 0.04090
# Poissons Ratio (z) = 0.35438 0.07324
#
# Static dielectric constant tensor:
#      x y z
#    x 4.576310 0.171950 0.230530 
#    y 0.171950 3.883450 0.319120 
#    z 0.230530 0.319120 4.002050 
# 
# 
# High freq. dielectric constant tensor:
#      x y z
#    x 1.892380 0.001340 0.004260 
#    y 0.001340 1.859080 0.022670 
#    z 0.004260 0.022670 1.866090 
# 
# From -- ./inp_files/514624.got.cif
#   From: 2010.06.25/outbox.cif.g09.slc.cpg/sg2_258_cif.got.tgz:514624.got - 2010.06.27 13:26:56.
