data_PCOD8017759
_publ_section_title
;
Structure prediction by ZEFSAII (Michael W. Deem and Ramdas Pophale) SiO2 
 PCOD8017759
Probable space group: P -1
;
_chemical_formula_sum "Si O2"
_cell_formula_units_Z 16
_cell_length_a 9.631267
_cell_length_b 12.929532
_cell_length_c 14.444937
_cell_angle_alpha 105.291208
_cell_angle_beta 28.690124
_cell_angle_gamma 115.138820
_cell_volume 756.801753
_symmetry_space_group_name_H-M "P -1"
_symmetry_group_IT_number 2
_symmetry_cell_setting 'triclinic'
loop_
_space_group_symop_operation_xyz
x,y,z
-x,-y,-z
loop_
_atom_site_type_symbol
_atom_site_label
_atom_site_fract_x
_atom_site_fract_y
_atom_site_fract_z
Si Si1 0.176649 0.681194 0.975575
Si Si2 0.548210 0.589412 0.857498
Si Si3 0.699052 0.006501 0.628637
Si Si4 0.219752 0.749653 0.426830
Si Si5 0.290669 0.760603 0.726745
Si Si6 0.595019 0.669112 0.052828
Si Si7 0.346365 0.250173 0.658190
Si Si8 0.678893 0.073142 0.999622
O O1 0.402242 0.812478 0.913475
O O2 0.807283 0.657144 0.205523
O O3 0.264429 0.586075 0.955171
O O4 0.242668 0.680743 0.827298
O O5 0.482169 0.456957 0.887126
O O6 0.875130 0.647856 0.624222
O O7 0.553258 0.660978 0.964736
O O8 0.807961 0.126792 0.536132
O O9 0.529236 0.896511 0.633648
O O10 0.000000 0.000000 0.500000
O O11 0.446431 0.006377 0.854261
O O12 0.351474 0.718738 0.247527
O O13 0.451270 0.757659 0.376466
O O14 0.435986 0.705946 0.549788
O O15 0.955602 0.757213 0.887799
O O16 0.061048 0.119224 0.777883
O O17 0.500000 0.000000 0.000000
#
# Coordination Sequence:
#
# PCOD8017759 Si02
#       8
#     2   2   2   2   2   2   2   2
#     4   9  22  41  63  95 131 167 220 267 321 386
#     4  11  25  44  68  98 128 176 223 273 330 378
#     4  11  24  39  64 100 133 170 215 264 330 394
#     4  12  23  44  67  95 133 173 216 270 328 392
#     4  11  21  45  64  96 138 167 221 268 318 398
#     4  11  25  44  69  94 133 172 225 274 321 392
#     4  10  22  39  65  92 131 171 215 264 321 385
#     4   9  19  36  57  90 130 164 209 258 315 385
#
# _framework density 21.1416
#
# number of rings (size 3 to 8) (size 9 to 14) (size 15 to 20)
#    0.750    0.750    2.500    2.625    1.750    4.000 
#    0.000    0.625    0.000    0.000    0.000    0.000 
#    0.000    0.000    0.000    0.000    0.000    0.000 
#
# Total GULP energy -198372.848153 kJ/mol
# GULP energy per Si atom -12398.303010 kJ/mol
# Density = 2.109348 g / cm^3
# Si number density = 21.141600 Si / 1000 Ang^3
#
#
#
# Elastic Constant Matrix: (Units=GPa)
#
#
# Indices 1 2 3 4 5 6 
#
# 1 80.7432 16.8219 34.9679 15.9332 -0.1426 -15.2306
# 2 16.8219 58.6889 22.3167 5.7751 -4.2369 -11.1415
# 3 34.9679 22.3167 138.9813 13.2970 7.5235 -7.7711
# 4 15.9332 5.7751 13.2970 24.2465 4.4081 -4.4268
# 5 -0.1426 -4.2369 7.5235 4.4081 42.9235 5.3140
# 6 -15.2306 -11.1415 -7.7711 -4.4268 5.3140 32.5835
#
#
#
# Elastic Compliance Matrix: (Units=1/GPa)
#
#
# Indices 1 2 3 4 5 6 
#
# 1 0.016579 -0.001842 -0.002842 -0.008036 0.000545 0.005261
# 2 -0.001842 0.019677 -0.002376 -0.001655 0.001933 0.004760
# 3 -0.002842 -0.002376 0.008559 -0.002006 -0.001523 -0.000124
# 4 -0.008036 -0.001655 -0.002006 0.049483 -0.005264 0.002781
# 5 0.000545 0.001933 -0.001523 -0.005264 0.024819 -0.004210
# 6 0.005261 0.004760 -0.000124 0.002781 -0.004210 0.035812
#
#
# Mechanical properties :
#
#
# Convention : Reuss Voigt Hill
#
# Bulk Modulus (GPa) = 32.58004 47.40293 39.99149
# Shear Modulus (GPa) = 27.88928 33.57114 30.73021
#
# Velocity S-wave (km/s) = 3.63597 3.98919 3.81667
# Velocity P-wave (km/s) = 5.75073 6.60973 6.19514
#
# Compressibility (1/GPa) = 0.03069364
#
# Stress axis : x y z
#
# Youngs Moduli (GPa) = 60.31882 50.82146 116.83266
#
# Poissons Ratio (x) = 0.09363 0.33203
# Poissons Ratio (y) = 0.11113 0.27761
# Poissons Ratio (z) = 0.17142 0.12076
#
# Static dielectric constant tensor:
#      x y z
#    x 3.842570 0.118010 0.113800 
#    y 0.118010 3.599500 0.274760 
#    z 0.113800 0.274760 5.465060 
# 
# 
# High freq. dielectric constant tensor:
#      x y z
#    x 1.835980 0.007990 0.004370 
#    y 0.007990 1.803940 -0.004320 
#    z 0.004370 -0.004320 1.841930 
# 
# From -- ./inp_files/500387.got.cif
#   From: 2010.06.25/outbox.cif.g09.slc.cpg/sg2_251_cif.got.tgz:500387.got - 2010.06.27 13:26:56.
