data_PCOD8017294
_publ_section_title
;
Structure prediction by ZEFSAII (Michael W. Deem and Ramdas Pophale) SiO2 
 PCOD8017294
Probable space group: P -1
;
_chemical_formula_sum "Si O2"
_cell_formula_units_Z 12
_cell_length_a 5.063787
_cell_length_b 24.631375
_cell_length_c 11.243474
_cell_angle_alpha 156.666502
_cell_angle_beta 114.695503
_cell_angle_gamma 68.506590
_cell_volume 504.076171
_symmetry_space_group_name_H-M "P -1"
_symmetry_group_IT_number 2
_symmetry_cell_setting 'triclinic'
loop_
_space_group_symop_operation_xyz
x,y,z
-x,-y,-z
loop_
_atom_site_type_symbol
_atom_site_label
_atom_site_fract_x
_atom_site_fract_y
_atom_site_fract_z
Si Si1 0.070789 0.797914 0.539407
Si Si2 0.253540 0.719592 0.809546
Si Si3 0.703401 0.071355 0.584516
Si Si4 0.272942 0.955921 0.109035
Si Si5 0.496030 0.383773 0.868170
Si Si6 0.236651 0.451303 0.541387
O O1 0.814794 0.700416 0.354169
O O2 0.249023 0.716446 0.313832
O O3 0.968427 0.933311 0.728079
O O4 0.296666 0.855361 0.798380
O O5 0.546016 0.646904 0.682870
O O6 0.960825 0.625054 0.548406
O O7 0.272941 0.766686 0.048479
O O8 0.191736 0.856361 0.002129
O O9 0.500000 0.000000 0.500000
O O10 0.569977 0.045677 0.375648
O O11 0.000000 0.000000 0.500000
O O12 0.500000 0.500000 0.000000
O O13 0.564620 0.439397 0.126363
O O14 0.000000 0.500000 0.500000
#
# Coordination Sequence:
#
# PCOD8017294 Si02
#       6
#     2   2   2   2   2   2
#     4  11  26  43  72 101 137 177 228 291 330 418
#     4  11  23  44  69  98 138 176 224 282 345 409
#     4  10  22  38  65  99 132 173 214 270 340 406
#     4  10  24  44  70 104 136 176 228 281 358 398
#     4  12  26  47  70  98 139 186 232 276 343 407
#     4  12  27  43  70  99 136 183 234 281 335 402
#
# _framework density 23.805928000000002
#
# number of rings (size 3 to 8) (size 9 to 14) (size 15 to 20)
#    0.000    1.000    0.000    6.000    4.667    9.333 
#    0.000    0.000    0.000    0.000    0.000    0.000 
#    0.000    0.000    0.000    0.000    0.000    0.000 
#
# Total GULP energy -148689.968305 kJ/mol
# GULP energy per Si atom -12390.830692 kJ/mol
# Density = 2.375174 g / cm^3
# Si number density = 23.805928 Si / 1000 Ang^3
#
#
#
# Elastic Constant Matrix: (Units=GPa)
#
#
# Indices 1 2 3 4 5 6 
#
# 1 139.1829 24.0692 48.7138 2.1792 -23.8684 -17.3319
# 2 24.0692 107.0046 69.3519 -23.4113 -5.9469 -10.1946
# 3 48.7138 69.3519 150.0750 -15.9604 -19.0235 -12.5336
# 4 2.1792 -23.4113 -15.9604 42.2161 -7.1366 9.6576
# 5 -23.8684 -5.9469 -19.0235 -7.1366 39.1548 4.7239
# 6 -17.3319 -10.1946 -12.5336 9.6576 4.7239 25.5941
#
#
#
# Elastic Compliance Matrix: (Units=1/GPa)
#
#
# Indices 1 2 3 4 5 6 
#
# 1 0.009309 -0.000482 -0.002144 -0.002155 0.003537 0.005223
# 2 -0.000482 0.014613 -0.005941 0.005803 0.000050 0.000386
# 3 -0.002144 -0.005941 0.010674 0.001314 0.003177 0.000327
# 4 -0.002155 0.005803 0.001314 0.031438 0.007351 -0.011724
# 5 0.003537 0.000050 0.003177 0.007351 0.031136 -0.004549
# 6 0.005223 0.000386 0.000327 -0.011724 -0.004549 0.048186
#
#
# Mechanical properties :
#
#
# Convention : Reuss Voigt Hill
#
# Bulk Modulus (GPa) = 57.26094 75.61470 66.43782
# Shear Modulus (GPa) = 29.70694 38.33483 34.02089
#
# Velocity S-wave (km/s) = 3.53637 4.01722 3.78444
# Velocity P-wave (km/s) = 6.38592 7.30406 6.86037
#
# Compressibility (1/GPa) = 0.01746391
#
# Stress axis : x y z
#
# Youngs Moduli (GPa) = 107.42212 68.43033 93.68312
#
# Poissons Ratio (x) = 0.03298 0.20082
# Poissons Ratio (y) = 0.05177 0.55656
# Poissons Ratio (z) = 0.23027 0.40653
#
# Static dielectric constant tensor:
#      x y z
#    x 4.658620 -0.222660 1.262230 
#    y -0.222660 4.748630 -0.913030 
#    z 1.262230 -0.913030 7.275360 
# 
# 
# High freq. dielectric constant tensor:
#      x y z
#    x 1.938700 -0.007670 0.005190 
#    y -0.007670 1.944220 -0.008560 
#    z 0.005190 -0.008560 1.974210 
# 
# From -- ./inp_files/371379.got.cif
#   From: 2010.06.25/outbox.cif.g09.slc.cpg/sg2_186_cif.got.tgz:371379.got - 2010.06.27 13:26:56.
