data_PCOD8017973
_publ_section_title
;
Structure prediction by ZEFSAII (Michael W. Deem and Ramdas Pophale) SiO2 
 PCOD8017973
Probable space group: P -1
;
_chemical_formula_sum "Si O2"
_cell_formula_units_Z 14
_cell_length_a 12.232999
_cell_length_b 5.008365
_cell_length_c 13.010428
_cell_angle_alpha 107.968260
_cell_angle_beta 66.582767
_cell_angle_gamma 124.904061
_cell_volume 596.386602
_symmetry_space_group_name_H-M "P -1"
_symmetry_group_IT_number 2
_symmetry_cell_setting 'triclinic'
loop_
_space_group_symop_operation_xyz
x,y,z
-x,-y,-z
loop_
_atom_site_type_symbol
_atom_site_label
_atom_site_fract_x
_atom_site_fract_y
_atom_site_fract_z
Si Si1 0.328896 0.720181 0.888421
Si Si2 0.842000 0.527613 0.514028
Si Si3 0.124802 0.814852 0.362594
Si Si4 0.027906 0.226797 0.920365
Si Si5 0.769954 0.983467 0.863077
Si Si6 0.508357 0.406372 0.801514
Si Si7 0.564449 0.369454 0.540687
O O1 0.190984 0.423264 0.847570
O O2 0.414119 0.560896 0.881670
O O3 0.425027 0.019724 0.811685
O O4 0.285559 0.858522 0.016756
O O5 0.787651 0.228939 0.582701
O O6 0.726012 0.498773 0.475476
O O7 0.964375 0.523898 0.403275
O O8 0.886537 0.861127 0.598082
O O9 0.192158 0.797623 0.228644
O O10 0.914120 0.008672 0.849552
O O11 0.000000 0.500000 0.000000
O O12 0.000000 0.000000 0.000000
O O13 0.650208 0.606774 0.839022
O O14 0.545643 0.460076 0.673771
O O15 0.500000 0.500000 0.500000
O O16 0.500000 0.000000 0.500000
#
# Coordination Sequence:
#
# PCOD8017973 Si02
#       7
#     2   2   2   2   2   2   2
#     4  11  25  45  67 106 149 182 229 281 351 429
#     4  10  22  44  62  98 131 167 233 288 345 398
#     4  10  22  39  71  94 129 173 224 296 339 398
#     4  10  23  44  66  95 139 185 231 282 337 407
#     4  11  24  43  74 104 138 190 234 285 348 418
#     4  12  26  44  70 104 144 185 234 288 347 417
#     4  12  26  45  71  97 137 187 232 288 355 421
#
# _framework density 23.474705
#
# number of rings (size 3 to 8) (size 9 to 14) (size 15 to 20)
#    0.000    1.143    1.429    4.286    2.000    8.000 
#    0.000    0.000    0.000    0.000    0.000    0.000 
#    0.000    0.000    0.000    0.000    0.000    0.000 
#
# Total GULP energy -173481.917979 kJ/mol
# GULP energy per Si atom -12391.565570 kJ/mol
# Density = 2.342128 g / cm^3
# Si number density = 23.474705 Si / 1000 Ang^3
#
#
#
# Elastic Constant Matrix: (Units=GPa)
#
#
# Indices 1 2 3 4 5 6 
#
# 1 157.0067 71.0578 24.6428 -10.5879 22.4666 22.2944
# 2 71.0578 126.7739 23.0014 -12.9527 15.9072 20.2750
# 3 24.6428 23.0014 62.1506 -2.1282 4.0723 14.4447
# 4 -10.5879 -12.9527 -2.1282 37.4149 -0.9162 2.5356
# 5 22.4666 15.9072 4.0723 -0.9162 27.8427 0.0650
# 6 22.2944 20.2750 14.4447 2.5356 0.0650 60.7375
#
#
#
# Elastic Compliance Matrix: (Units=1/GPa)
#
#
# Indices 1 2 3 4 5 6 
#
# 1 0.009480 -0.003984 -0.001479 0.001219 -0.005112 -0.001843
# 2 -0.003984 0.011444 -0.001897 0.002791 -0.002949 -0.002020
# 3 -0.001479 -0.001897 0.018139 0.000161 -0.000363 -0.003144
# 4 0.001219 0.002791 0.000161 0.028182 -0.001668 -0.002592
# 5 -0.005112 -0.002949 -0.000363 -0.001668 0.041717 0.002972
# 6 -0.001843 -0.002020 -0.003144 -0.002592 0.002972 0.018668
#
#
# Mechanical properties :
#
#
# Convention : Reuss Voigt Hill
#
# Bulk Modulus (GPa) = 41.08319 64.81502 52.94910
# Shear Modulus (GPa) = 33.23028 40.34763 36.78895
#
# Velocity S-wave (km/s) = 3.76650 4.15030 3.96305
# Velocity P-wave (km/s) = 6.03775 7.11598 6.59892
#
# Compressibility (1/GPa) = 0.02434086
#
# Stress axis : x y z
#
# Youngs Moduli (GPa) = 105.48421 87.38356 55.13132
#
# Poissons Ratio (x) = 0.34818 0.08155
# Poissons Ratio (y) = 0.42030 0.10460
# Poissons Ratio (z) = 0.15602 0.16578
#
# Static dielectric constant tensor:
#      x y z
#    x 5.442290 0.990360 0.094970 
#    y 0.990360 5.096090 -0.122080 
#    z 0.094970 -0.122080 4.189540 
# 
# 
# High freq. dielectric constant tensor:
#      x y z
#    x 1.947410 0.004430 -0.005690 
#    y 0.004430 1.936770 -0.015150 
#    z -0.005690 -0.015150 1.909580 
# 
# From -- ./inp_files/410769.got.cif
#   From: 2010.06.25/outbox.cif.g09.slc.cpg/sg2_206_cif.got.tgz:410769.got - 2010.06.27 13:26:56.
