data_PCOD8017240
_publ_section_title
;
Structure prediction by ZEFSAII (Michael W. Deem and Ramdas Pophale) SiO2 
 PCOD8017240
Probable space group: P -1
;
_chemical_formula_sum "Si O2"
_cell_formula_units_Z 16
_cell_length_a 19.707117
_cell_length_b 26.997264
_cell_length_c 21.597813
_cell_angle_alpha 11.091288
_cell_angle_beta 23.745195
_cell_angle_gamma 22.631029
_cell_volume 843.442838
_symmetry_space_group_name_H-M "P -1"
_symmetry_group_IT_number 2
_symmetry_cell_setting 'triclinic'
loop_
_space_group_symop_operation_xyz
x,y,z
-x,-y,-z
loop_
_atom_site_type_symbol
_atom_site_label
_atom_site_fract_x
_atom_site_fract_y
_atom_site_fract_z
Si Si1 0.473656 0.113917 0.979339
Si Si2 0.905278 0.652235 0.532838
Si Si3 0.754465 0.245143 0.936420
Si Si4 0.405980 0.491179 0.686309
Si Si5 0.204944 0.385986 0.453420
Si Si6 0.839732 0.021724 0.652185
Si Si7 0.162126 0.334588 0.799393
Si Si8 0.347382 0.754359 0.112363
O O1 0.404264 0.255208 0.929561
O O2 0.472505 0.339076 0.652261
O O3 0.338093 0.960159 0.259859
O O4 0.670468 0.895776 0.089224
O O5 0.779848 0.570459 0.686947
O O6 0.064144 0.716053 0.285969
O O7 0.985635 0.405660 0.816290
O O8 0.789110 0.939164 0.308914
O O9 0.683039 0.456230 0.794099
O O10 0.619560 0.303179 0.918715
O O11 0.473613 0.365294 0.851091
O O12 0.207979 0.702545 0.604742
O O13 0.000000 0.500000 0.500000
O O14 0.272433 0.071018 0.801235
O O15 0.893014 0.760040 0.973100
O O16 0.000000 0.000000 0.500000
O O17 0.205616 0.614849 0.427375
#
# Coordination Sequence:
#
# PCOD8017240 Si02
#       8
#     2   2   2   2   2   2   2   2
#     4  10  20  35  53  75 102 128 171 219 254 303
#     4   8  15  25  39  66 103 131 157 195 242 304
#     4   8  15  26  37  67 108 132 149 197 249 299
#     4  10  20  34  53  79  98 133 174 210 259 303
#     4   9  16  24  38  68 108 134 151 192 259 297
#     4  11  22  38  53  71 105 136 170 217 255 300
#     4  10  17  33  52  75 102 134 169 208 252 298
#     4  10  17  26  48  72 105 131 164 202 245 309
#
# _framework density 18.969867000000001
#
# number of rings (size 3 to 8) (size 9 to 14) (size 15 to 20)
#    0.000    2.500    2.500    3.000    5.250    0.500 
#    0.000    0.000    0.000    0.000    0.000    3.500 
#    0.000    9.000    0.000    0.000    0.000    0.000 
#
# Total GULP energy -198230.069382 kJ/mol
# GULP energy per Si atom -12389.379336 kJ/mol
# Density = 1.892669 g / cm^3
# Si number density = 18.969867 Si / 1000 Ang^3
#
#
#
# Elastic Constant Matrix: (Units=GPa)
#
#
# Indices 1 2 3 4 5 6 
#
# 1 145.5448 46.8665 60.1906 -27.7828 4.0843 0.4852
# 2 46.8665 57.9789 40.7031 -13.5389 7.1537 12.2941
# 3 60.1906 40.7031 69.6954 -29.2893 4.0081 5.0598
# 4 -27.7828 -13.5389 -29.2893 28.8986 2.8590 2.8692
# 5 4.0843 7.1537 4.0081 2.8590 30.3255 -15.6334
# 6 0.4852 12.2941 5.0598 2.8692 -15.6334 25.0299
#
#
#
# Elastic Compliance Matrix: (Units=1/GPa)
#
#
# Indices 1 2 3 4 5 6 
#
# 1 0.011823 -0.006847 -0.007282 -0.000501 0.005069 0.007830
# 2 -0.006847 0.045276 -0.012370 0.008785 -0.028875 -0.038647
# 3 -0.007282 -0.012370 0.044329 0.034872 -0.012866 -0.014777
# 4 -0.000501 0.008785 0.034872 0.081566 -0.036839 -0.043714
# 5 0.005069 -0.028875 -0.012866 -0.036839 0.081202 0.071626
# 6 0.007830 -0.038647 -0.014777 -0.043714 0.071626 0.111517
#
#
# Mechanical properties :
#
#
# Convention : Reuss Voigt Hill
#
# Bulk Modulus (GPa) = 20.64891 63.19328 41.92110
# Shear Modulus (GPa) = 11.23958 25.21472 18.22715
#
# Velocity S-wave (km/s) = 2.43677 3.64977 3.10312
# Velocity P-wave (km/s) = 4.33888 7.15164 5.91489
#
# Compressibility (1/GPa) = 0.04842869
#
# Stress axis : x y z
#
# Youngs Moduli (GPa) = 84.57852 22.08690 22.55851
#
# Poissons Ratio (x) = 0.15124 0.16428
# Poissons Ratio (y) = 0.57914 0.27905
# Poissons Ratio (z) = 0.61592 0.27322
#
# Static dielectric constant tensor:
#      x y z
#    x 4.217960 0.085920 -0.222060 
#    y 0.085920 3.111300 -0.576520 
#    z -0.222060 -0.576520 3.439240 
# 
# 
# High freq. dielectric constant tensor:
#      x y z
#    x 1.753430 -0.004800 -0.001850 
#    y -0.004800 1.685370 -0.052860 
#    z -0.001850 -0.052860 1.711980 
# 
# From -- ./inp_files/306270.got.cif
#   From: 2010.06.25/outbox.cif.g09.slc.cpg/sg2_154_cif.got.tgz:306270.got - 2010.06.27 13:26:56.
