data_PCOD8017769
_publ_section_title
;
Structure prediction by ZEFSAII (Michael W. Deem and Ramdas Pophale) SiO2 
 PCOD8017769
Probable space group: P -1
;
_chemical_formula_sum "Si O2"
_cell_formula_units_Z 16
_cell_length_a 8.554217
_cell_length_b 28.603626
_cell_length_c 15.482947
_cell_angle_alpha 161.400611
_cell_angle_beta 128.140068
_cell_angle_gamma 40.653421
_cell_volume 686.979928
_symmetry_space_group_name_H-M "P -1"
_symmetry_group_IT_number 2
_symmetry_cell_setting 'triclinic'
loop_
_space_group_symop_operation_xyz
x,y,z
-x,-y,-z
loop_
_atom_site_type_symbol
_atom_site_label
_atom_site_fract_x
_atom_site_fract_y
_atom_site_fract_z
Si Si1 0.251637 0.778362 0.840174
Si Si2 0.353269 0.039716 0.609481
Si Si3 0.674537 0.262459 0.903977
Si Si4 0.139344 0.168530 0.472625
Si Si5 0.083156 0.607293 0.376806
Si Si6 0.908558 0.514991 0.315142
Si Si7 0.848416 0.360867 0.284393
Si Si8 0.467339 0.525655 0.136126
O O1 0.098421 0.764566 0.691223
O O2 0.575205 0.583555 0.611054
O O3 0.123897 0.799239 0.926885
O O4 0.207075 0.965962 0.125988
O O5 0.187792 0.967992 0.435690
O O6 0.609427 0.884178 0.486958
O O7 0.500000 0.000000 0.500000
O O8 0.141500 0.270320 0.973080
O O9 0.387279 0.397129 0.092201
O O10 0.850676 0.304312 0.085888
O O11 0.623111 0.320464 0.886360
O O12 0.114278 0.282216 0.579023
O O13 0.856788 0.317661 0.689681
O O14 0.947259 0.569736 0.332193
O O15 0.922433 0.629719 0.598592
O O16 0.600551 0.605646 0.363177
O O17 0.500000 0.500000 0.000000
#
# Coordination Sequence:
#
# PCOD8017769 Si02
#       8
#     2   2   2   2   2   2   2   2
#     4   9  16  34  63  97 123 154 207 271 314 358
#     4  12  22  37  68  99 119 163 228 262 299 375
#     4  10  22  39  65  94 127 168 213 260 319 376
#     4  11  22  38  65  93 125 167 217 259 308 384
#     4   9  20  36  64  94 128 160 210 261 320 373
#     4  11  22  42  66  94 130 169 205 268 320 371
#     4   9  18  37  65  97 125 156 211 272 317 362
#     4  11  27  43  58  89 142 174 200 260 335 376
#
# _framework density 23.290347000000001
#
# number of rings (size 3 to 8) (size 9 to 14) (size 15 to 20)
#    0.000    1.750    2.500    2.625    1.750    2.000 
#    0.000    2.500    0.000    0.000    0.000    0.000 
#    0.000    0.000    0.000    0.000    0.000    0.000 
#
# Total GULP energy -198249.767484 kJ/mol
# GULP energy per Si atom -12390.610468 kJ/mol
# Density = 2.323734 g / cm^3
# Si number density = 23.290347 Si / 1000 Ang^3
#
#
#
# Elastic Constant Matrix: (Units=GPa)
#
#
# Indices 1 2 3 4 5 6 
#
# 1 46.4700 17.3914 26.0641 -0.0631 16.9048 12.1043
# 2 17.3914 110.7185 38.6617 -12.5899 2.2101 7.9990
# 3 26.0641 38.6617 92.1798 -5.8099 27.1252 4.4367
# 4 -0.0631 -12.5899 -5.8099 29.5758 -3.3362 1.9205
# 5 16.9048 2.2101 27.1252 -3.3362 28.5014 0.0746
# 6 12.1043 7.9990 4.4367 1.9205 0.0746 37.3847
#
#
#
# Elastic Compliance Matrix: (Units=1/GPa)
#
#
# Indices 1 2 3 4 5 6 
#
# 1 0.033024 -0.003685 -0.002447 -0.003324 -0.017337 -0.009408
# 2 -0.003685 0.012143 -0.005877 0.004906 0.007414 -0.000975
# 3 -0.002447 -0.005877 0.018655 -0.000632 -0.015921 -0.000100
# 4 -0.003324 0.004906 -0.000632 0.036617 0.006483 -0.001793
# 5 -0.017337 0.007414 -0.015921 0.006483 0.060690 0.005462
# 6 -0.009408 -0.000975 -0.000100 -0.001793 0.005462 0.030097
#
#
# Mechanical properties :
#
#
# Convention : Reuss Voigt Hill
#
# Bulk Modulus (GPa) = 25.12271 45.95585 35.53928
# Shear Modulus (GPa) = 21.88083 30.24245 26.06164
#
# Velocity S-wave (km/s) = 3.06842 3.60738 3.34876
# Velocity P-wave (km/s) = 4.83361 6.09306 5.49951
#
# Compressibility (1/GPa) = 0.03980463
#
# Stress axis : x y z
#
# Youngs Moduli (GPa) = 30.28131 82.35141 53.60521
#
# Poissons Ratio (x) = 0.30346 0.13118
# Poissons Ratio (y) = 0.11158 0.31501
# Poissons Ratio (z) = 0.07410 0.48394
#
# Static dielectric constant tensor:
#      x y z
#    x 4.189390 0.013390 0.265110 
#    y 0.013390 4.886170 -0.123800 
#    z 0.265110 -0.123800 4.084350 
# 
# 
# High freq. dielectric constant tensor:
#      x y z
#    x 1.915400 0.006560 0.026400 
#    y 0.006560 1.931860 -0.006070 
#    z 0.026400 -0.006070 1.908760 
# 
# From -- ./inp_files/392109.got.cif
#   From: 2010.06.25/outbox.cif.g09.slc.cpg/sg2_197_cif.got.tgz:392109.got - 2010.06.27 13:26:56.
