data_PCOD8017585
_publ_section_title
;
Structure prediction by ZEFSAII (Michael W. Deem and Ramdas Pophale) SiO2 
 PCOD8017585
Probable space group: P -1
;
_chemical_formula_sum "Si O2"
_cell_formula_units_Z 12
_cell_length_a 11.655663
_cell_length_b 17.238776
_cell_length_c 14.007607
_cell_angle_alpha 20.893276
_cell_angle_beta 29.171029
_cell_angle_gamma 29.686112
_cell_volume 465.950417
_symmetry_space_group_name_H-M "P -1"
_symmetry_group_IT_number 2
_symmetry_cell_setting 'triclinic'
loop_
_space_group_symop_operation_xyz
x,y,z
-x,-y,-z
loop_
_atom_site_type_symbol
_atom_site_label
_atom_site_fract_x
_atom_site_fract_y
_atom_site_fract_z
Si Si1 0.541750 0.320317 0.260709
Si Si2 0.086258 0.537943 0.734378
Si Si3 0.221145 0.022655 0.877200
Si Si4 0.416746 0.782841 0.277966
Si Si5 0.424611 0.468933 0.810196
Si Si6 0.923162 0.785295 0.037478
O O1 0.470912 0.459440 0.250312
O O2 0.827291 0.161815 0.236271
O O3 0.380809 0.150265 0.553944
O O4 0.500000 0.500000 0.000000
O O5 0.169091 0.766121 0.418325
O O6 0.336403 0.344758 0.816379
O O7 0.047449 0.472612 0.726688
O O8 0.853042 0.545622 0.959869
O O9 0.393755 0.777264 0.069774
O O10 0.114494 0.189460 0.852045
O O11 0.000000 0.000000 0.000000
O O12 0.423235 0.669856 0.507013
O O13 0.324670 0.063698 0.016917
#
# Coordination Sequence:
#
# PCOD8017585 Si02
#       6
#     2   2   2   2   2   2
#     4  11  27  48  70  98 137 183 231 284 338 398
#     4  10  22  39  62  94 134 175 216 266 327 397
#     4  12  27  46  71 101 134 179 234 285 338 401
#     4  11  22  39  68 101 136 175 218 271 338 407
#     4  11  25  43  68 100 137 176 223 278 339 405
#     4  11  25  43  68 100 137 176 223 278 339 405
#
# _framework density 25.753813000000001
#
# number of rings (size 3 to 8) (size 9 to 14) (size 15 to 20)
#    0.000    1.000    0.000    6.000    0.000   16.000 
#    0.000    0.000    0.000    3.000    0.000    0.000 
#    0.000    0.000    0.000    0.000    0.000    0.000 
#
# Total GULP energy -148766.577886 kJ/mol
# GULP energy per Si atom -12397.214824 kJ/mol
# Density = 2.569520 g / cm^3
# Si number density = 25.753813 Si / 1000 Ang^3
#
#
#
# Elastic Constant Matrix: (Units=GPa)
#
#
# Indices 1 2 3 4 5 6 
#
# 1 128.5325 21.9293 44.0320 8.7272 -4.2770 -0.6145
# 2 21.9293 108.2272 37.0635 15.9331 -3.2709 -4.1440
# 3 44.0320 37.0635 137.7674 17.3824 -10.0097 -3.4162
# 4 8.7272 15.9331 17.3824 36.1730 -12.5722 -8.6381
# 5 -4.2770 -3.2709 -10.0097 -12.5722 43.0538 8.9107
# 6 -0.6145 -4.1440 -3.4162 -8.6381 8.9107 43.5250
#
#
#
# Elastic Compliance Matrix: (Units=1/GPa)
#
#
# Indices 1 2 3 4 5 6 
#
# 1 0.008830 -0.000849 -0.002520 -0.000574 0.000120 -0.000292
# 2 -0.000849 0.010693 -0.002198 -0.003701 -0.000923 0.000288
# 3 -0.002520 -0.002198 0.009035 -0.002470 0.001010 -0.000233
# 4 -0.000574 -0.003701 -0.002470 0.034562 0.008224 0.004621
# 5 0.000120 -0.000923 0.001010 0.008224 0.026595 -0.003820
# 6 -0.000292 0.000288 -0.000233 0.004621 -0.003820 0.024679
#
#
# Mechanical properties :
#
#
# Convention : Reuss Voigt Hill
#
# Bulk Modulus (GPa) = 57.39743 64.50849 60.95296
# Shear Modulus (GPa) = 38.07035 42.65051 40.36043
#
# Velocity S-wave (km/s) = 3.84896 4.07392 3.96304
# Velocity P-wave (km/s) = 6.48753 6.87252 6.68280
#
# Compressibility (1/GPa) = 0.01742238
#
# Stress axis : x y z
#
# Youngs Moduli (GPa) = 113.25302 93.52217 110.68585
#
# Poissons Ratio (x) = 0.07943 0.27890
# Poissons Ratio (y) = 0.09619 0.24331
# Poissons Ratio (z) = 0.28537 0.20558
#
# Static dielectric constant tensor:
#      x y z
#    x 4.886390 -0.078560 -0.763940 
#    y -0.078560 4.955220 0.184020 
#    z -0.763940 0.184020 4.892020 
# 
# 
# High freq. dielectric constant tensor:
#      x y z
#    x 2.046940 -0.002310 -0.041780 
#    y -0.002310 2.043890 0.009190 
#    z -0.041780 0.009190 2.039050 
# 
# From -- ./inp_files/523392.got.cif
#   From: 2010.06.25/outbox.cif.g09.slc.cpg/sg2_262_cif.got.tgz:523392.got - 2010.06.27 13:26:56.
