data_PCOD8017173
_publ_section_title
;
Structure prediction by ZEFSAII (Michael W. Deem and Ramdas Pophale) SiO2 
 PCOD8017173
Probable space group: P -1
;
_chemical_formula_sum "Si O2"
_cell_formula_units_Z 16
_cell_length_a 14.718421
_cell_length_b 7.679271
_cell_length_c 20.579259
_cell_angle_alpha 90.113185
_cell_angle_beta 19.497238
_cell_angle_gamma 81.734400
_cell_volume 698.537508
_symmetry_space_group_name_H-M "P -1"
_symmetry_group_IT_number 2
_symmetry_cell_setting 'triclinic'
loop_
_space_group_symop_operation_xyz
x,y,z
-x,-y,-z
loop_
_atom_site_type_symbol
_atom_site_label
_atom_site_fract_x
_atom_site_fract_y
_atom_site_fract_z
Si Si1 0.535158 0.992492 0.141334
Si Si2 0.734647 0.908058 0.534935
Si Si3 0.339706 0.000537 0.676339
Si Si4 0.191033 0.079514 0.248483
Si Si5 0.756252 0.289651 0.016805
Si Si6 0.008131 0.564915 0.815493
Si Si7 0.385684 0.590653 0.666687
Si Si8 0.719587 0.517187 0.562144
O O1 0.450874 0.005385 0.273895
O O2 0.247209 0.056807 0.288090
O O3 0.703566 0.127948 0.011327
O O4 0.747642 0.774773 0.979036
O O5 0.838870 0.676865 0.462205
O O6 0.529569 0.012022 0.610656
O O7 0.022500 0.952589 0.339046
O O8 0.500000 0.000000 0.500000
O O9 0.278502 0.812864 0.720509
O O10 0.009291 0.181270 0.901419
O O11 0.992009 0.307119 0.370518
O O12 0.500000 0.000000 0.000000
O O13 0.430997 0.440031 0.265070
O O14 0.878043 0.408703 0.887906
O O15 0.138991 0.530314 0.801451
O O16 0.277041 0.539752 0.586826
O O17 0.428525 0.546498 0.714049
#
# Coordination Sequence:
#
# PCOD8017173 Si02
#       8
#     2   2   2   2   2   2   2   2
#     4  11  25  44  66  96 138 171 227 267 328 390
#     4  10  26  44  69  98 133 176 216 277 331 386
#     4  11  22  41  69 100 140 169 218 269 335 401
#     4  12  27  45  72  94 131 180 227 274 319 391
#     4  11  24  39  68  98 129 177 208 272 331 389
#     4  11  22  37  62  97 128 179 210 270 326 388
#     4  10  22  38  61  93 141 166 217 269 323 393
#     4  10  25  44  63 100 130 169 224 268 329 394
#
# _framework density 22.904997999999999
#
# number of rings (size 3 to 8) (size 9 to 14) (size 15 to 20)
#    0.000    1.250    2.500    1.875    5.250    5.500 
#    0.000    0.000    0.000    0.000    0.000    0.000 
#    0.000    0.000    0.000    0.000    0.000    0.000 
#
# Total GULP energy -198370.144522 kJ/mol
# GULP energy per Si atom -12398.134033 kJ/mol
# Density = 2.285287 g / cm^3
# Si number density = 22.904998 Si / 1000 Ang^3
#
#
#
# Elastic Constant Matrix: (Units=GPa)
#
#
# Indices 1 2 3 4 5 6 
#
# 1 98.2600 19.1229 9.5498 -8.2141 -7.3557 4.0938
# 2 19.1229 101.1455 39.2998 12.9752 -15.9093 7.0132
# 3 9.5498 39.2998 87.2437 9.8477 -7.5176 0.7549
# 4 -8.2141 12.9752 9.8477 40.9960 6.6064 -8.4478
# 5 -7.3557 -15.9093 -7.5176 6.6064 29.3032 -7.9753
# 6 4.0938 7.0132 0.7549 -8.4478 -7.9753 26.3707
#
#
#
# Elastic Compliance Matrix: (Units=1/GPa)
#
#
# Indices 1 2 3 4 5 6 
#
# 1 0.010936 -0.002112 -0.000496 0.002853 0.000841 0.000046
# 2 -0.002112 0.014085 -0.004950 -0.005332 0.006203 -0.003108
# 3 -0.000496 -0.004950 0.014090 -0.001990 0.001468 0.000797
# 4 0.002853 -0.005332 -0.001990 0.030031 -0.007149 0.008490
# 5 0.000841 0.006203 0.001468 -0.007149 0.042034 0.008600
# 6 0.000046 -0.003108 0.000797 0.008490 0.008600 0.044038
#
#
# Mechanical properties :
#
#
# Convention : Reuss Voigt Hill
#
# Bulk Modulus (GPa) = 41.67462 46.95491 44.31477
# Shear Modulus (GPa) = 28.03826 33.91243 30.97535
#
# Velocity S-wave (km/s) = 3.50253 3.85199 3.68141
# Velocity P-wave (km/s) = 5.88141 6.35044 6.12042
#
# Compressibility (1/GPa) = 0.02399542
#
# Stress axis : x y z
#
# Youngs Moduli (GPa) = 91.44330 70.99981 70.96996
#
# Poissons Ratio (x) = 0.14994 0.03518
# Poissons Ratio (y) = 0.19311 0.35131
# Poissons Ratio (z) = 0.04533 0.35146
#
# Static dielectric constant tensor:
#      x y z
#    x 4.365050 0.190080 -0.115190 
#    y 0.190080 4.235260 0.020340 
#    z -0.115190 0.020340 3.944860 
# 
# 
# High freq. dielectric constant tensor:
#      x y z
#    x 1.901820 0.009540 -0.003350 
#    y 0.009540 1.912560 0.007130 
#    z -0.003350 0.007130 1.898080 
# 
# From -- ./inp_files/597376.got.cif
#   From: 2010.06.25/outbox.cif.g09.slc.cpg/sg2_299_cif.got.tgz:597376.got - 2010.06.27 13:26:56.
