data_PCOD8017617
_publ_section_title
;
Structure prediction by ZEFSAII (Michael W. Deem and Ramdas Pophale) SiO2 
 PCOD8017617
Probable space group: P -1
;
_chemical_formula_sum "Si O2"
_cell_formula_units_Z 14
_cell_length_a 11.742496
_cell_length_b 23.943441
_cell_length_c 7.150401
_cell_angle_alpha 43.428713
_cell_angle_beta 42.664904
_cell_angle_gamma 27.267418
_cell_volume 606.889635
_symmetry_space_group_name_H-M "P -1"
_symmetry_group_IT_number 2
_symmetry_cell_setting 'triclinic'
loop_
_space_group_symop_operation_xyz
x,y,z
-x,-y,-z
loop_
_atom_site_type_symbol
_atom_site_label
_atom_site_fract_x
_atom_site_fract_y
_atom_site_fract_z
Si Si1 0.522417 0.313248 0.851954
Si Si2 0.380656 0.119637 0.750025
Si Si3 0.575191 0.383697 0.259763
Si Si4 0.779189 0.539862 0.790563
Si Si5 0.094203 0.152516 0.679281
Si Si6 0.288274 0.924513 0.844800
Si Si7 0.942916 0.727754 0.908040
O O1 0.437818 0.408049 0.562899
O O2 0.790759 0.241713 0.804328
O O3 0.291916 0.392729 0.090004
O O4 0.542025 0.217339 0.959229
O O5 0.152080 0.175270 0.749385
O O6 0.609631 0.084192 0.459238
O O7 0.264829 0.220979 0.806608
O O8 0.500000 0.000000 0.000000
O O9 0.481631 0.359753 0.264570
O O10 0.881925 0.266478 0.215492
O O11 0.500000 0.500000 0.000000
O O12 0.000000 0.500000 0.500000
O O13 0.874847 0.413605 0.028831
O O14 0.183788 0.184427 0.334613
O O15 0.284087 0.003357 0.798099
O O16 0.000000 0.000000 0.000000
#
# Coordination Sequence:
#
# PCOD8017617 Si02
#       7
#     2   2   2   2   2   2   2
#     4  10  22  42  64  91 130 169 201 261 321 366
#     4  12  23  39  67  93 123 165 215 258 310 367
#     4   9  21  40  62  89 124 163 213 253 302 376
#     4  11  23  39  61  94 128 163 209 254 315 373
#     4  10  22  42  65  93 122 164 211 260 311 367
#     4  10  22  42  61  90 131 161 204 258 314 372
#     4  10  22  39  63  91 124 159 211 257 303 374
#
# _framework density 23.068444
#
# number of rings (size 3 to 8) (size 9 to 14) (size 15 to 20)
#    0.000    1.714    1.429    2.143    0.000    9.143 
#    2.571    1.429    0.000    0.000    0.000    0.000 
#    0.000    0.000    0.000    0.000    0.000    0.000 
#
# Total GULP energy -173455.940616 kJ/mol
# GULP energy per Si atom -12389.710044 kJ/mol
# Density = 2.301594 g / cm^3
# Si number density = 23.068444 Si / 1000 Ang^3
#
#
#
# Elastic Constant Matrix: (Units=GPa)
#
#
# Indices 1 2 3 4 5 6 
#
# 1 47.5349 17.4020 23.7226 -18.3053 10.3031 7.8413
# 2 17.4020 93.6348 42.0249 1.7548 8.9527 22.6096
# 3 23.7226 42.0249 152.9490 1.3187 5.9674 6.7371
# 4 -18.3053 1.7548 1.3187 41.5287 -1.8960 6.8366
# 5 10.3031 8.9527 5.9674 -1.8960 35.6439 2.7455
# 6 7.8413 22.6096 6.7371 6.8366 2.7455 29.0482
#
#
#
# Elastic Compliance Matrix: (Units=1/GPa)
#
#
# Indices 1 2 3 4 5 6 
#
# 1 0.032937 -0.001535 -0.004124 0.016026 -0.006832 -0.009866
# 2 -0.001535 0.015225 -0.003407 0.000437 -0.001973 -0.010562
# 3 -0.004124 -0.003407 0.008012 -0.002307 0.000398 0.002412
# 4 0.016026 0.000437 -0.002307 0.033056 -0.001692 -0.011751
# 5 -0.006832 -0.001973 0.000398 -0.001692 0.030306 0.000822
# 6 -0.009866 -0.010562 0.002412 -0.011751 0.000822 0.047438
#
#
# Mechanical properties :
#
#
# Convention : Reuss Voigt Hill
#
# Bulk Modulus (GPa) = 26.28650 51.15749 38.72200
# Shear Modulus (GPa) = 25.27982 35.30880 30.29431
#
# Velocity S-wave (km/s) = 3.31397 3.91655 3.62779
# Velocity P-wave (km/s) = 5.10519 6.53276 5.86259
#
# Compressibility (1/GPa) = 0.03804234
#
# Stress axis : x y z
#
# Youngs Moduli (GPa) = 30.36084 65.68166 124.81454
#
# Poissons Ratio (x) = 0.10085 0.51471
# Poissons Ratio (y) = 0.04662 0.42520
# Poissons Ratio (z) = 0.12520 0.22376
#
# Static dielectric constant tensor:
#      x y z
#    x 4.494600 -0.075290 -0.079320 
#    y -0.075290 4.419020 0.028010 
#    z -0.079320 0.028010 4.436410 
# 
# 
# High freq. dielectric constant tensor:
#      x y z
#    x 1.895770 -0.003740 -0.004730 
#    y -0.003740 1.904660 0.003130 
#    z -0.004730 0.003130 1.924180 
# 
# From -- ./inp_files/84143.got.cif
#   From: 2010.06.25/outbox.cif.g09.slc.cpg/sg2_43_cif.got.tgz:84143.got - 2010.06.27 13:26:56.
