data_PCOD8017169
_publ_section_title
;
Structure prediction by ZEFSAII (Michael W. Deem and Ramdas Pophale) SiO2 
 PCOD8017169
Probable space group: P -1
;
_chemical_formula_sum "Si O2"
_cell_formula_units_Z 14
_cell_length_a 10.059234
_cell_length_b 11.115092
_cell_length_c 10.166733
_cell_angle_alpha 84.844037
_cell_angle_beta 39.254120
_cell_angle_gamma 97.809238
_cell_volume 677.228781
_symmetry_space_group_name_H-M "P -1"
_symmetry_group_IT_number 2
_symmetry_cell_setting 'triclinic'
loop_
_space_group_symop_operation_xyz
x,y,z
-x,-y,-z
loop_
_atom_site_type_symbol
_atom_site_label
_atom_site_fract_x
_atom_site_fract_y
_atom_site_fract_z
Si Si1 0.486008 0.472744 0.755475
Si Si2 0.325184 0.822053 0.036848
Si Si3 0.656457 0.897383 0.006234
Si Si4 0.114742 0.313109 0.494579
Si Si5 0.597355 0.254270 0.548958
Si Si6 0.913921 0.722468 0.781089
Si Si7 0.485289 0.259924 0.349491
O O1 0.722160 0.539092 0.643789
O O2 0.526716 0.377562 0.625655
O O3 0.408981 0.584473 0.736551
O O4 0.296749 0.400422 0.010761
O O5 0.527869 0.831344 0.978964
O O6 0.115330 0.702087 0.253706
O O7 0.377512 0.797539 0.849920
O O8 0.260478 0.950670 0.083238
O O9 0.494692 0.855187 0.260405
O O10 0.868662 0.848562 0.861118
O O11 0.055086 0.262865 0.399164
O O12 0.234877 0.224817 0.488527
O O13 0.488935 0.200971 0.496499
O O14 0.862294 0.289267 0.326697
#
# Coordination Sequence:
#
# PCOD8017169 Si02
#       7
#     2   2   2   2   2   2   2
#     4   9  23  38  63  88 126 156 207 240 297 371
#     4  11  22  41  65  88 121 163 201 253 299 355
#     4  10  23  41  63  92 119 155 215 246 293 367
#     4  10  22  38  61  92 122 156 202 247 300 351
#     4  11  23  41  64  90 125 162 194 252 308 349
#     4  11  21  40  63  92 120 162 201 251 298 353
#     4  10  24  41  60  94 126 154 204 246 302 365
#
# _framework density 20.672483
#
# number of rings (size 3 to 8) (size 9 to 14) (size 15 to 20)
#    0.857    0.857    2.857    0.857    2.000    5.714 
#    0.000    1.429    0.000    0.000    0.000    0.000 
#    0.000    0.000    0.000    0.000    0.000    0.000 
#
# Total GULP energy -173554.844307 kJ/mol
# GULP energy per Si atom -12396.774593 kJ/mol
# Density = 2.062543 g / cm^3
# Si number density = 20.672483 Si / 1000 Ang^3
#
#
#
# Elastic Constant Matrix: (Units=GPa)
#
#
# Indices 1 2 3 4 5 6 
#
# 1 86.7970 16.0910 31.4406 9.5516 17.1913 9.7172
# 2 16.0910 35.5546 20.4556 3.4995 2.4941 -4.2716
# 3 31.4406 20.4556 100.2421 16.9973 8.0378 10.8602
# 4 9.5516 3.4995 16.9973 26.8347 1.3181 2.3636
# 5 17.1913 2.4941 8.0378 1.3181 32.7820 0.4449
# 6 9.7172 -4.2716 10.8602 2.3636 0.4449 20.3569
#
#
#
# Elastic Compliance Matrix: (Units=1/GPa)
#
#
# Indices 1 2 3 4 5 6 
#
# 1 0.015911 -0.006244 -0.001885 -0.002647 -0.007199 -0.007435
# 2 -0.006244 0.036734 -0.007400 0.000740 0.002068 0.014506
# 3 -0.001885 -0.007400 0.014117 -0.006579 -0.001545 -0.007387
# 4 -0.002647 0.000740 -0.006579 0.042217 0.001247 0.000000
# 5 -0.007199 0.002068 -0.001545 0.001247 0.034400 0.003798
# 6 -0.007435 0.014506 -0.007387 0.000000 0.003798 0.059574
#
#
# Mechanical properties :
#
#
# Convention : Reuss Voigt Hill
#
# Bulk Modulus (GPa) = 28.00850 39.84088 33.92469
# Shear Modulus (GPa) = 20.33239 26.30181 23.31710
#
# Velocity S-wave (km/s) = 3.13956 3.57082 3.36211
# Velocity P-wave (km/s) = 5.16919 6.02621 5.61408
#
# Compressibility (1/GPa) = 0.03570345
#
# Stress axis : x y z
#
# Youngs Moduli (GPa) = 62.84948 27.22252 70.83706
#
# Poissons Ratio (x) = 0.16999 0.13350
# Poissons Ratio (y) = 0.39245 0.52423
# Poissons Ratio (z) = 0.11845 0.20146
#
# Static dielectric constant tensor:
#      x y z
#    x 3.550850 -0.095800 -0.041240 
#    y -0.095800 3.484290 0.028770 
#    z -0.041240 0.028770 3.673530 
# 
# 
# High freq. dielectric constant tensor:
#      x y z
#    x 1.795790 -0.007910 0.000600 
#    y -0.007910 1.792000 0.007680 
#    z 0.000600 0.007680 1.815670 
# 
# From -- ./inp_files/179806.got.cif
#   From: 2010.06.25/outbox.cif.g09.slc.cpg/sg2_90_cif.got.tgz:179806.got - 2010.06.27 13:26:56.
