data_PCOD8017940
_publ_section_title
;
Structure prediction by ZEFSAII (Michael W. Deem and Ramdas Pophale) SiO2 
 PCOD8017940
Probable space group: P -1
;
_chemical_formula_sum "Si O2"
_cell_formula_units_Z 14
_cell_length_a 10.067642
_cell_length_b 18.958256
_cell_length_c 10.189731
_cell_angle_alpha 30.456298
_cell_angle_beta 137.336118
_cell_angle_gamma 138.196561
_cell_volume 631.869431
_symmetry_space_group_name_H-M "P -1"
_symmetry_group_IT_number 2
_symmetry_cell_setting 'triclinic'
loop_
_space_group_symop_operation_xyz
x,y,z
-x,-y,-z
loop_
_atom_site_type_symbol
_atom_site_label
_atom_site_fract_x
_atom_site_fract_y
_atom_site_fract_z
Si Si1 0.950553 0.010504 0.156951
Si Si2 0.802009 0.342623 0.818260
Si Si3 0.593898 0.226555 0.113086
Si Si4 0.614465 0.748608 0.460304
Si Si5 0.608995 0.564727 0.252652
Si Si6 0.831217 0.747337 0.878715
Si Si7 0.740071 0.072139 0.668277
O O1 0.023027 0.100334 0.198615
O O2 0.776140 0.855771 0.306922
O O3 0.868960 0.109827 0.836384
O O4 0.143284 0.980508 0.279186
O O5 0.614332 0.238114 0.756762
O O6 0.794116 0.510065 0.532905
O O7 0.769752 0.293260 0.025595
O O8 0.023419 0.337555 0.942477
O O9 0.692534 0.215364 0.346708
O O10 0.468068 0.062168 0.238321
O O11 0.445989 0.327334 0.856595
O O12 0.595948 0.578193 0.690474
O O13 0.686948 0.787130 0.600719
O O14 0.680085 0.645432 0.037817
#
# Coordination Sequence:
#
# PCOD8017940 Si02
#       7
#     2   2   2   2   2   2   2
#     4  11  22  43  64  98 127 170 213 272 317 376
#     4  10  24  41  67  94 134 163 219 261 319 385
#     4  11  20  44  66  95 123 175 212 267 321 375
#     4  10  24  41  64  94 139 160 217 263 317 385
#     4  10  23  44  66  92 133 171 211 267 320 378
#     4  12  23  43  66  97 131 174 209 263 326 378
#     4  10  22  39  69  93 129 161 226 263 314 386
#
# _framework density 22.156476999999999
#
# number of rings (size 3 to 8) (size 9 to 14) (size 15 to 20)
#    0.857    0.571    2.857    2.571    0.000    1.714 
#    2.571    1.429    0.000    0.000    0.000    0.000 
#    0.000    0.000    0.000    0.000    0.000    0.000 
#
# Total GULP energy -173538.158560 kJ/mol
# GULP energy per Si atom -12395.582754 kJ/mol
# Density = 2.210605 g / cm^3
# Si number density = 22.156477 Si / 1000 Ang^3
#
#
#
# Elastic Constant Matrix: (Units=GPa)
#
#
# Indices 1 2 3 4 5 6 
#
# 1 77.9843 11.1025 29.1439 -2.0523 -9.7339 -1.9335
# 2 11.1025 62.7921 26.5114 1.5175 -7.9537 -3.0531
# 3 29.1439 26.5114 82.1227 2.5071 -17.9290 -2.4336
# 4 -2.0523 1.5175 2.5071 30.4348 -1.5983 -5.6364
# 5 -9.7339 -7.9537 -17.9290 -1.5983 34.9146 0.6722
# 6 -1.9335 -3.0531 -2.4336 -5.6364 0.6722 28.3999
#
#
#
# Elastic Compliance Matrix: (Units=1/GPa)
#
#
# Indices 1 2 3 4 5 6 
#
# 1 0.014962 -0.000387 -0.004850 0.001673 0.001653 0.000854
# 2 -0.000387 0.018563 -0.005536 -0.000165 0.001243 0.001433
# 3 -0.004850 -0.005536 0.017054 -0.001104 0.006090 0.000173
# 4 0.001673 -0.000165 -0.001104 0.034396 0.001306 0.006797
# 5 0.001653 0.001243 0.006090 0.001306 0.032567 0.000256
# 6 0.000854 0.001433 0.000173 0.006797 0.000256 0.036781
#
#
# Mechanical properties :
#
#
# Convention : Reuss Voigt Hill
#
# Bulk Modulus (GPa) = 34.44513 39.60164 37.02339
# Shear Modulus (GPa) = 26.94731 29.15927 28.05329
#
# Velocity S-wave (km/s) = 3.49123 3.63169 3.56215
# Velocity P-wave (km/s) = 5.64195 5.95802 5.80214
#
# Compressibility (1/GPa) = 0.02903168
#
# Stress axis : x y z
#
# Youngs Moduli (GPa) = 66.83538 53.87189 58.63867
#
# Poissons Ratio (x) = 0.02087 0.28437
# Poissons Ratio (y) = 0.02590 0.32464
# Poissons Ratio (z) = 0.32413 0.29825
#
# Static dielectric constant tensor:
#      x y z
#    x 3.789970 0.061940 -0.219470 
#    y 0.061940 3.785220 0.100490 
#    z -0.219470 0.100490 4.224980 
# 
# 
# High freq. dielectric constant tensor:
#      x y z
#    x 1.865390 0.011480 -0.022830 
#    y 0.011480 1.853790 0.006300 
#    z -0.022830 0.006300 1.879110 
# 
# From -- ./inp_files/221588.got.cif
#   From: 2010.06.25/outbox.cif.g09.slc.cpg/sg2_111_cif.got.tgz:221588.got - 2010.06.27 13:26:56.
