data_PCOD8017184
_publ_section_title
;
Structure prediction by ZEFSAII (Michael W. Deem and Ramdas Pophale) SiO2 
 PCOD8017184
Probable space group: P -1
;
_chemical_formula_sum "Si O2"
_cell_formula_units_Z 16
_cell_length_a 21.223591
_cell_length_b 9.011965
_cell_length_c 12.200549
_cell_angle_alpha 127.323119
_cell_angle_beta 139.972855
_cell_angle_gamma 84.173310
_cell_volume 841.346971
_symmetry_space_group_name_H-M "P -1"
_symmetry_group_IT_number 2
_symmetry_cell_setting 'triclinic'
loop_
_space_group_symop_operation_xyz
x,y,z
-x,-y,-z
loop_
_atom_site_type_symbol
_atom_site_label
_atom_site_fract_x
_atom_site_fract_y
_atom_site_fract_z
Si Si1 0.681296 0.271350 0.211688
Si Si2 0.774862 0.011228 0.180188
Si Si3 0.507592 0.724314 0.807252
Si Si4 0.168418 0.874126 0.300148
Si Si5 0.998029 0.718963 0.215821
Si Si6 0.213825 0.252759 0.114711
Si Si7 0.523513 0.723044 0.073718
Si Si8 0.150506 0.162663 0.232838
O O1 0.772086 0.234602 0.253964
O O2 0.776004 0.536559 0.527426
O O3 0.577826 0.260773 0.994728
O O4 0.573766 0.020857 0.037376
O O5 0.902753 0.120894 0.475909
O O6 0.628428 0.755209 0.928604
O O7 0.789909 0.934647 0.049465
O O8 0.371727 0.537010 0.465631
O O9 0.466835 0.608020 0.823145
O O10 0.089982 0.862476 0.292734
O O11 0.316948 0.994104 0.590730
O O12 0.207554 0.075743 0.348002
O O13 0.072856 0.578294 0.996973
O O14 0.878843 0.713712 0.051325
O O15 0.152008 0.102798 0.081642
O O16 0.500000 0.500000 0.000000
O O17 0.000000 0.000000 0.000000
#
# Coordination Sequence:
#
# PCOD8017184 Si02
#       8
#     2   2   2   2   2   2   2   2
#     4  10  22  38  62  88 124 158 210 248 307 362
#     4  10  24  41  63  92 126 163 212 248 311 369
#     4  10  22  38  64  90 125 158 210 250 308 363
#     4  11  22  38  61  97 123 154 205 266 306 359
#     4  11  23  39  67  89 124 160 211 254 308 363
#     4  12  23  41  66  92 125 166 206 256 307 371
#     4  12  20  35  63  95 120 157 204 260 307 355
#     4  12  23  38  62  92 125 163 204 253 313 365
#
# _framework density 19.017123000000002
#
# number of rings (size 3 to 8) (size 9 to 14) (size 15 to 20)
#    0.750    0.250    5.000    2.625    3.500    0.000 
#    0.000    2.500    2.750    1.500    0.000    0.000 
#    0.000    0.000    0.000    0.000    0.000    0.000 
#
# Total GULP energy -198244.419580 kJ/mol
# GULP energy per Si atom -12390.276224 kJ/mol
# Density = 1.897384 g / cm^3
# Si number density = 19.017123 Si / 1000 Ang^3
#
#
#
# Elastic Constant Matrix: (Units=GPa)
#
#
# Indices 1 2 3 4 5 6 
#
# 1 111.3826 56.7956 66.7688 2.0018 -10.8549 -8.6663
# 2 56.7956 116.5699 46.1497 -7.7682 -13.9497 -7.1236
# 3 66.7688 46.1497 133.5251 -18.6828 5.7984 -5.1151
# 4 2.0018 -7.7682 -18.6828 27.5647 -9.4782 10.1162
# 5 -10.8549 -13.9497 5.7984 -9.4782 26.5309 -4.5707
# 6 -8.6663 -7.1236 -5.1151 10.1162 -4.5707 25.3592
#
#
#
# Elastic Compliance Matrix: (Units=1/GPa)
#
#
# Indices 1 2 3 4 5 6 
#
# 1 0.017745 -0.004981 -0.008404 -0.009697 0.004326 0.007618
# 2 -0.004981 0.012826 -0.001507 0.005047 0.006983 0.000842
# 3 -0.008404 -0.001507 0.013573 0.009728 -0.004630 -0.005273
# 4 -0.009697 0.005047 0.009728 0.057065 0.013454 -0.020273
# 5 0.004326 0.006983 -0.004630 0.013454 0.050012 0.006153
# 6 0.007618 0.000842 -0.005273 -0.020273 0.006153 0.050406
#
#
# Mechanical properties :
#
#
# Convention : Reuss Voigt Hill
#
# Bulk Modulus (GPa) = 69.64690 77.87843 73.76266
# Shear Modulus (GPa) = 21.16886 28.67519 24.92202
#
# Velocity S-wave (km/s) = 3.34001 3.88733 3.62402
# Velocity P-wave (km/s) = 7.18171 7.82235 7.50886
#
# Compressibility (1/GPa) = 0.01435814
#
# Stress axis : x y z
#
# Youngs Moduli (GPa) = 56.35482 77.96966 73.67710
#
# Poissons Ratio (x) = 0.38840 0.61920
# Poissons Ratio (y) = 0.28073 0.11101
# Poissons Ratio (z) = 0.47362 0.11747
#
# Static dielectric constant tensor:
#      x y z
#    x 3.921990 1.104100 0.323340 
#    y 1.104100 6.675170 -0.353340 
#    z 0.323340 -0.353340 3.847580 
# 
# 
# High freq. dielectric constant tensor:
#      x y z
#    x 1.722370 -0.011150 0.026230 
#    y -0.011150 1.733740 -0.010170 
#    z 0.026230 -0.010170 1.754020 
# 
# From -- ./inp_files/469601.got.cif
#   From: 2010.06.25/outbox.cif.g09.slc.cpg/sg2_235_cif.got.tgz:469601.got - 2010.06.27 13:26:56.
