data_PCOD8017149
_publ_section_title
;
Structure prediction by ZEFSAII (Michael W. Deem and Ramdas Pophale) SiO2 
 PCOD8017149
Probable space group: P -1
;
_chemical_formula_sum "Si O2"
_cell_formula_units_Z 16
_cell_length_a 5.859925
_cell_length_b 27.447043
_cell_length_c 5.003525
_cell_angle_alpha 65.074404
_cell_angle_beta 86.817189
_cell_angle_gamma 113.114375
_cell_volume 647.227045
_symmetry_space_group_name_H-M "P -1"
_symmetry_group_IT_number 2
_symmetry_cell_setting 'triclinic'
loop_
_space_group_symop_operation_xyz
x,y,z
-x,-y,-z
loop_
_atom_site_type_symbol
_atom_site_label
_atom_site_fract_x
_atom_site_fract_y
_atom_site_fract_z
Si Si1 0.263199 0.151051 0.741751
Si Si2 0.049121 0.569101 0.600808
Si Si3 0.908297 0.175345 0.057708
Si Si4 0.959315 0.044263 0.700330
Si Si5 0.402047 0.544101 0.283933
Si Si6 0.199098 0.767710 0.574761
Si Si7 0.589033 0.932019 0.775968
Si Si8 0.056597 0.374467 0.030824
O O1 0.493576 0.207095 0.441666
O O2 0.173722 0.175683 0.948329
O O3 0.002615 0.108123 0.684350
O O4 0.404561 0.109362 0.883355
O O5 0.315718 0.573549 0.464244
O O6 0.086140 0.599513 0.819221
O O7 0.838653 0.497474 0.797404
O O8 0.964989 0.606881 0.313320
O O9 0.833527 0.214182 0.765942
O O10 0.940612 0.206163 0.273015
O O11 0.692011 0.104023 0.256530
O O12 0.175959 0.065043 0.416668
O O13 0.666695 0.001948 0.699356
O O14 0.000000 0.000000 0.000000
O O15 0.500000 0.500000 0.500000
O O16 0.637901 0.596667 0.983695
O O17 0.066784 0.696561 0.771740
#
# Coordination Sequence:
#
# PCOD8017149 Si02
#       8
#     2   2   2   2   2   2   2   2
#     4  10  22  38  61  82 119 156 195 245 303 355
#     4  10  22  39  63  92 120 162 200 240 299 354
#     4  11  24  40  64  86 116 160 200 244 305 354
#     4   9  17  35  59  84 116 151 185 250 297 352
#     4   9  21  39  63  93 128 157 197 246 297 350
#     4  11  25  42  59  89 121 155 205 252 288 349
#     4   9  19  37  58  84 119 146 196 245 297 360
#     4  11  23  40  62  87 123 161 202 248 292 347
#
# _framework density 24.720846999999999
#
# number of rings (size 3 to 8) (size 9 to 14) (size 15 to 20)
#    0.000    2.000    1.250    1.125    1.750    9.000 
#    0.000    5.625    0.000    0.000    0.000    0.000 
#    0.000    0.000    0.000    0.000    0.000    0.000 
#
# Total GULP energy -198271.398471 kJ/mol
# GULP energy per Si atom -12391.962404 kJ/mol
# Density = 2.466458 g / cm^3
# Si number density = 24.720847 Si / 1000 Ang^3
#
#
#
# Elastic Constant Matrix: (Units=GPa)
#
#
# Indices 1 2 3 4 5 6 
#
# 1 41.9232 26.2225 5.1582 -11.3552 -30.0997 -8.9260
# 2 26.2225 158.7316 57.3856 -20.2693 -29.9687 -8.4452
# 3 5.1582 57.3856 87.5895 -21.3137 -25.1698 1.7424
# 4 -11.3552 -20.2693 -21.3137 53.3501 -0.7835 -5.6988
# 5 -30.0997 -29.9687 -25.1698 -0.7835 36.2655 8.2513
# 6 -8.9260 -8.4452 1.7424 -5.6988 8.2513 30.7293
#
#
#
# Elastic Compliance Matrix: (Units=1/GPa)
#
#
# Indices 1 2 3 4 5 6 
#
# 1 0.145338 -0.007495 0.051956 0.051742 0.150135 0.006493
# 2 -0.007495 0.009350 -0.006954 -0.000699 -0.003712 0.001654
# 3 0.051956 -0.006954 0.037222 0.024048 0.064113 -0.001686
# 4 0.051742 -0.000699 0.024048 0.040519 0.058747 0.005214
# 5 0.150135 -0.003712 0.064113 0.058747 0.195484 -0.002641
# 6 0.006493 0.001654 -0.001686 0.005214 -0.002641 0.036654
#
#
# Mechanical properties :
#
#
# Convention : Reuss Voigt Hill
#
# Bulk Modulus (GPa) = 3.74638 51.75298 27.74968
# Shear Modulus (GPa) = 10.44869 37.36750 23.90809
#
# Velocity S-wave (km/s) = 2.05812 3.89212 3.11323
# Velocity P-wave (km/s) = 2.67704 6.41705 4.91656
#
# Compressibility (1/GPa) = 0.26692432
#
# Stress axis : x y z
#
# Youngs Moduli (GPa) = 6.88049 106.95006 26.86576
#
# Poissons Ratio (x) = 0.80158 -1.39583
# Poissons Ratio (y) = 0.05157 0.18683
# Poissons Ratio (z) = -0.35748 0.74374
#
# Static dielectric constant tensor:
#      x y z
#    x 4.551940 0.475500 -0.438850 
#    y 0.475500 4.675790 -0.044690 
#    z -0.438850 -0.044690 4.194840 
# 
# 
# High freq. dielectric constant tensor:
#      x y z
#    x 1.967320 0.000700 -0.008240 
#    y 0.000700 1.976460 -0.003020 
#    z -0.008240 -0.003020 1.991220 
# 
# From -- ./inp_files/13630.got.cif
#   From: 2010.06.25/outbox.cif.g09.slc.cpg/sg2_7_cif.got.tgz:13630.got - 2010.06.27 13:26:56.
