data_PCOD8017003
_publ_section_title
;
Structure prediction by ZEFSAII (Michael W. Deem and Ramdas Pophale) SiO2 
 PCOD8017003
Probable space group: P -1
;
_chemical_formula_sum "Si O2"
_cell_formula_units_Z 16
_cell_length_a 11.317333
_cell_length_b 11.146886
_cell_length_c 8.521316
_cell_angle_alpha 104.024156
_cell_angle_beta 61.291163
_cell_angle_gamma 128.115222
_cell_volume 739.512978
_symmetry_space_group_name_H-M "P -1"
_symmetry_group_IT_number 2
_symmetry_cell_setting 'triclinic'
loop_
_space_group_symop_operation_xyz
x,y,z
-x,-y,-z
loop_
_atom_site_type_symbol
_atom_site_label
_atom_site_fract_x
_atom_site_fract_y
_atom_site_fract_z
Si Si1 0.481872 0.668361 0.698963
Si Si2 0.766631 0.652659 0.376639
Si Si3 0.446328 0.610740 0.065929
Si Si4 0.762883 0.907524 0.981458
Si Si5 0.942281 0.795631 0.993807
Si Si6 0.933058 0.291221 0.615704
Si Si7 0.378460 0.022614 0.185578
Si Si8 0.084701 0.448273 0.255713
O O1 0.646637 0.680392 0.554644
O O2 0.328520 0.529663 0.651898
O O3 0.519597 0.836892 0.708241
O O4 0.430155 0.633597 0.901567
O O5 0.925767 0.719910 0.406916
O O6 0.830531 0.754099 0.208298
O O7 0.270334 0.535425 0.239071
O O8 0.500000 0.500000 0.000000
O O9 0.579494 0.771614 0.121407
O O10 0.873141 0.840905 0.906525
O O11 0.732388 0.941188 0.836239
O O12 0.862462 0.065751 0.063474
O O13 0.936408 0.648307 0.913130
O O14 0.750521 0.133979 0.692062
O O15 0.942470 0.426585 0.745281
O O16 0.955427 0.333535 0.432117
O O17 0.500000 0.000000 0.000000
#
# Coordination Sequence:
#
# PCOD8017003 Si02
#       8
#     2   2   2   2   2   2   2   2
#     4  10  23  38  63  96 129 165 214 270 312 385
#     4  11  22  41  64  99 131 168 217 264 326 383
#     4  11  18  38  63  88 122 172 207 259 317 379
#     4  10  22  37  63  96 123 161 212 263 316 379
#     4  11  22  40  63  96 129 167 212 266 322 380
#     4  11  25  42  63  95 129 172 216 268 322 383
#     4  11  24  43  66  97 132 172 214 265 329 387
#     4  11  24  42  64  91 130 172 219 262 320 389
#
# _framework density 21.635861999999999
#
# number of rings (size 3 to 8) (size 9 to 14) (size 15 to 20)
#    0.000    1.250    3.750    2.250    1.750    5.000 
#    0.000    0.000    0.000    4.500    0.000    0.000 
#    0.000    0.000    0.000    0.000    0.000    0.000 
#
# Total GULP energy -198252.039488 kJ/mol
# GULP energy per Si atom -12390.752468 kJ/mol
# Density = 2.158662 g / cm^3
# Si number density = 21.635862 Si / 1000 Ang^3
#
#
#
# Elastic Constant Matrix: (Units=GPa)
#
#
# Indices 1 2 3 4 5 6 
#
# 1 41.9356 16.9802 10.9415 -5.9069 -6.3889 0.7570
# 2 16.9802 163.8964 44.5924 -14.5127 -15.7718 14.6975
# 3 10.9415 44.5924 66.5150 -10.5898 -16.1889 -2.0805
# 4 -5.9069 -14.5127 -10.5898 39.9742 -0.9039 -3.9754
# 5 -6.3889 -15.7718 -16.1889 -0.9039 28.9984 -6.9964
# 6 0.7570 14.6975 -2.0805 -3.9754 -6.9964 38.2877
#
#
#
# Elastic Compliance Matrix: (Units=1/GPa)
#
#
# Indices 1 2 3 4 5 6 
#
# 1 0.026001 -0.001684 -0.001585 0.003022 0.004298 0.001146
# 2 -0.001684 0.008036 -0.004904 0.001073 0.000546 -0.003107
# 3 -0.001585 -0.004904 0.022133 0.004648 0.010831 0.005578
# 4 0.003022 0.001073 0.004648 0.027575 0.005588 0.003665
# 5 0.004298 0.000546 0.010831 0.005588 0.044104 0.008933
# 6 0.001146 -0.003107 0.005578 0.003665 0.008933 0.029604
#
#
# Mechanical properties :
#
#
# Convention : Reuss Voigt Hill
#
# Bulk Modulus (GPa) = 25.11011 46.37503 35.74257
# Shear Modulus (GPa) = 26.72718 34.77425 30.75072
#
# Velocity S-wave (km/s) = 3.51852 4.01340 3.77408
# Velocity P-wave (km/s) = 5.30449 6.55419 5.96217
#
# Compressibility (1/GPa) = 0.03982460
#
# Stress axis : x y z
#
# Youngs Moduli (GPa) = 38.45944 124.43460 45.18078
#
# Poissons Ratio (x) = 0.20956 0.07161
# Poissons Ratio (y) = 0.06477 0.22157
# Poissons Ratio (z) = 0.06096 0.61025
#
# Static dielectric constant tensor:
#      x y z
#    x 3.764600 0.108680 -0.159020 
#    y 0.108680 4.518690 -0.183430 
#    z -0.159020 -0.183430 3.701210 
# 
# 
# High freq. dielectric constant tensor:
#      x y z
#    x 1.830910 0.002970 -0.012840 
#    y 0.002970 1.878500 -0.017980 
#    z -0.012840 -0.017980 1.825680 
# 
# From -- ./inp_files/258918.got.cif
#   From: 2010.06.25/outbox.cif.g09.slc.cpg/sg2_130_cif.got.tgz:258918.got - 2010.06.27 13:26:56.
