data_PCOD8017579
_publ_section_title
;
Structure prediction by ZEFSAII (Michael W. Deem and Ramdas Pophale) SiO2 
 PCOD8017579
Probable space group: P -1
;
_chemical_formula_sum "Si O2"
_cell_formula_units_Z 16
_cell_length_a 27.481116
_cell_length_b 5.131261
_cell_length_c 8.410739
_cell_angle_alpha 120.546754
_cell_angle_beta 45.332275
_cell_angle_gamma 101.584799
_cell_volume 702.324033
_symmetry_space_group_name_H-M "P -1"
_symmetry_group_IT_number 2
_symmetry_cell_setting 'triclinic'
loop_
_space_group_symop_operation_xyz
x,y,z
-x,-y,-z
loop_
_atom_site_type_symbol
_atom_site_label
_atom_site_fract_x
_atom_site_fract_y
_atom_site_fract_z
Si Si1 0.829041 0.115504 0.679933
Si Si2 0.951417 0.314318 0.639771
Si Si3 0.745861 0.377579 0.462392
Si Si4 0.568333 0.043299 0.938267
Si Si5 0.261027 0.295304 0.092923
Si Si6 0.632339 0.099037 0.504035
Si Si7 0.519901 0.747660 0.238295
Si Si8 0.163543 0.222016 0.764571
O O1 0.897105 0.207075 0.616943
O O2 0.771388 0.430664 0.869291
O O3 0.793535 0.922406 0.826540
O O4 0.854637 0.916595 0.402048
O O5 0.000000 0.500000 0.500000
O O6 0.910098 0.554804 0.940471
O O7 0.000000 0.000000 0.500000
O O8 0.720078 0.573292 0.742350
O O9 0.678778 0.343453 0.505220
O O10 0.781728 0.569706 0.320218
O O11 0.801909 0.047950 0.271799
O O12 0.558923 0.410978 0.115572
O O13 0.577056 0.849555 0.022303
O O14 0.631091 0.928818 0.627492
O O15 0.500000 0.000000 0.000000
O O16 0.334488 0.123148 0.786968
O O17 0.551802 0.277198 0.697846
O O18 0.500000 0.000000 0.500000
#
# Coordination Sequence:
#
# PCOD8017579 Si02
#       8
#     2   2   2   2   2   2   2   2
#     4  10  22  42  61  86 132 158 200 255 308 362
#     4  12  24  37  62  94 119 163 211 244 295 368
#     4  10  22  39  63  91 120 161 207 256 311 373
#     4  10  23  43  62  89 125 166 208 257 326 378
#     4  10  22  39  62  94 116 164 205 255 316 364
#     4  11  23  40  68  91 126 159 214 264 311 380
#     4  11  25  44  64  91 129 174 207 263 328 384
#     4  10  22  42  61  87 128 163 196 257 314 351
#
# _framework density 22.781507000000001
#
# number of rings (size 3 to 8) (size 9 to 14) (size 15 to 20)
#    0.000    1.500    0.000    4.875    1.750    7.000 
#    4.500    0.000    0.000    0.000    0.000    0.000 
#    0.000    0.000    0.000    0.000    0.000    0.000 
#
# Total GULP energy -198362.568480 kJ/mol
# GULP energy per Si atom -12397.660530 kJ/mol
# Density = 2.272965 g / cm^3
# Si number density = 22.781507 Si / 1000 Ang^3
#
#
#
# Elastic Constant Matrix: (Units=GPa)
#
#
# Indices 1 2 3 4 5 6 
#
# 1 10.3479 8.4909 71.2192 -10.5491 5.0210 14.3456
# 2 8.4909 126.8653 58.1884 6.0101 8.5160 3.0525
# 3 71.2192 58.1884 111.9606 12.4723 -3.6044 -1.3889
# 4 -10.5491 6.0101 12.4723 25.1046 -1.8411 1.4997
# 5 5.0210 8.5160 -3.6044 -1.8411 20.4702 -0.5339
# 6 14.3456 3.0525 -1.3889 1.4997 -0.5339 24.8145
#
#
#
# Elastic Compliance Matrix: (Units=1/GPa)
#
#
# Indices 1 2 3 4 5 6 
#
# 1 -0.013182 -0.005059 0.012541 -0.010638 0.006843 0.009735
# 2 -0.005059 0.009089 -0.001125 -0.004082 -0.003055 0.001925
# 3 0.012541 -0.001125 0.000771 0.005441 -0.002177 -0.007444
# 4 -0.010638 -0.004082 0.005441 0.033953 0.008452 0.005086
# 5 0.006843 -0.003055 -0.002177 0.008452 0.048738 -0.003164
# 6 0.009735 0.001925 -0.007444 0.005086 -0.003164 0.033642
#
#
# Mechanical properties :
#
#
# Convention : Reuss Voigt Hill
#
# Bulk Modulus (GPa) = 106.49417 58.33008 82.41213
# Shear Modulus (GPa) = 48.34143 21.49620 34.91882
#
# Velocity S-wave (km/s) = 4.61147 3.07511 3.91931
# Velocity P-wave (km/s) = 8.67188 6.18612 7.53225
#
# Compressibility (1/GPa) = 0.00939019
#
# Stress axis : x y z
#
# Youngs Moduli (GPa) = -75.86268 110.01893 1297.17801
#
# Poissons Ratio (x) = 0.55662 -16.26734
# Poissons Ratio (y) = -0.38381 1.45989
# Poissons Ratio (z) = 0.95136 0.12382
#
# Static dielectric constant tensor:
#      x y z
#    x 3.721200 -0.141790 0.405310 
#    y -0.141790 5.739580 -2.107150 
#    z 0.405310 -2.107150 8.113300 
# 
# 
# High freq. dielectric constant tensor:
#      x y z
#    x 1.889810 0.008240 0.012310 
#    y 0.008240 1.917800 -0.001580 
#    z 0.012310 -0.001580 1.909420 
# 
# From -- ./inp_files/358171.got.cif
#   From: 2010.06.25/outbox.cif.g09.slc.cpg/sg2_180_cif.got.tgz:358171.got - 2010.06.27 13:26:56.
