data_PCOD8017500
_publ_section_title
;
Structure prediction by ZEFSAII (Michael W. Deem and Ramdas Pophale) SiO2 
 PCOD8017500
Probable space group: P -1
;
_chemical_formula_sum "Si O2"
_cell_formula_units_Z 14
_cell_length_a 9.189942
_cell_length_b 5.185904
_cell_length_c 14.930732
_cell_angle_alpha 109.126815
_cell_angle_beta 99.558295
_cell_angle_gamma 114.513408
_cell_volume 572.702127
_symmetry_space_group_name_H-M "P -1"
_symmetry_group_IT_number 2
_symmetry_cell_setting 'triclinic'
loop_
_space_group_symop_operation_xyz
x,y,z
-x,-y,-z
loop_
_atom_site_type_symbol
_atom_site_label
_atom_site_fract_x
_atom_site_fract_y
_atom_site_fract_z
Si Si1 0.905411 0.693683 0.016926
Si Si2 0.718307 0.089374 0.445229
Si Si3 0.642767 0.805501 0.941437
Si Si4 0.262307 0.585446 0.866091
Si Si5 0.674008 0.885424 0.754502
Si Si6 0.689109 0.297586 0.652249
Si Si7 0.268942 0.502386 0.659005
O O1 0.880490 0.712155 0.124171
O O2 0.710013 0.559964 0.944503
O O3 0.000000 0.500000 0.000000
O O4 0.000000 0.000000 0.000000
O O5 0.773140 0.241544 0.566597
O O6 0.801168 0.363454 0.409996
O O7 0.514664 0.904542 0.396208
O O8 0.795073 0.861417 0.410735
O O9 0.440105 0.583622 0.888794
O O10 0.724038 0.983385 0.874692
O O11 0.707040 0.082407 0.053401
O O12 0.198261 0.539238 0.752080
O O13 0.751291 0.666298 0.707794
O O14 0.472243 0.695821 0.701520
O O15 0.754933 0.194803 0.735123
#
# Coordination Sequence:
#
# PCOD8017500 Si02
#       7
#     2   2   2   2   2   2   2
#     4  12  25  42  59  82 118 158 198 242 291 340
#     4   9  16  27  43  68 106 146 179 221 279 336
#     4  10  22  39  61  87 119 158 197 237 287 346
#     4  10  22  39  61  87 119 158 197 237 287 346
#     4   9  18  29  47  74 105 144 187 224 272 339
#     4   9  16  27  43  68 106 146 179 221 279 336
#     4   9  18  29  47  74 105 144 187 224 272 339
#
# _framework density 24.445516999999999
#
# number of rings (size 3 to 8) (size 9 to 14) (size 15 to 20)
#    0.000    2.286    1.429    1.286    4.000    3.429 
#    0.000    0.000    0.000    0.000    0.000    0.000 
#    0.000   22.857    0.000    0.000    0.000    0.000 
#
# Total GULP energy -173464.515633 kJ/mol
# GULP energy per Si atom -12390.322545 kJ/mol
# Density = 2.438988 g / cm^3
# Si number density = 24.445517 Si / 1000 Ang^3
#
#
#
# Elastic Constant Matrix: (Units=GPa)
#
#
# Indices 1 2 3 4 5 6 
#
# 1 62.6591 40.2521 37.8416 -12.7681 -8.6198 -31.0150
# 2 40.2521 138.0756 58.6507 -37.8151 -17.5658 -31.0670
# 3 37.8416 58.6507 170.4614 -37.4686 -34.4060 -14.7957
# 4 -12.7681 -37.8151 -37.4686 49.4061 0.0906 -0.9928
# 5 -8.6198 -17.5658 -34.4060 0.0906 25.2694 -8.2783
# 6 -31.0150 -31.0670 -14.7957 -0.9928 -8.2783 40.4700
#
#
#
# Elastic Compliance Matrix: (Units=1/GPa)
#
#
# Indices 1 2 3 4 5 6 
#
# 1 0.044569 0.009437 0.007038 0.025086 0.049157 0.054644
# 2 0.009437 0.020464 0.006440 0.023590 0.037090 0.033461
# 3 0.007038 0.006440 0.015534 0.018941 0.035755 0.023795
# 4 0.025086 0.023590 0.018941 0.060222 0.070217 0.060099
# 5 0.049157 0.037090 0.035755 0.070217 0.168352 0.115376
# 6 0.054644 0.033461 0.023795 0.060099 0.115376 0.126048
#
#
# Mechanical properties :
#
#
# Convention : Reuss Voigt Hill
#
# Bulk Modulus (GPa) = 7.91171 71.63165 39.77168
# Shear Modulus (GPa) = 11.58775 38.65922 25.12349
#
# Velocity S-wave (km/s) = 2.17957 3.98105 3.20931
# Velocity P-wave (km/s) = 3.09476 7.10619 5.48067
#
# Compressibility (1/GPa) = 0.12639494
#
# Stress axis : x y z
#
# Youngs Moduli (GPa) = 22.43736 48.86696 64.37614
#
# Poissons Ratio (x) = -0.46114 -0.45308
# Poissons Ratio (y) = -0.21173 -0.41457
# Poissons Ratio (z) = -0.15792 -0.31470
#
# Static dielectric constant tensor:
#      x y z
#    x 4.507780 -0.143300 -0.216930 
#    y -0.143300 4.128040 -0.365800 
#    z -0.216930 -0.365800 4.570580 
# 
# 
# High freq. dielectric constant tensor:
#      x y z
#    x 1.954270 -0.021600 -0.013730 
#    y -0.021600 1.963220 -0.026830 
#    z -0.013730 -0.026830 1.970610 
# 
# From -- ./inp_files/487907.got.cif
#   From: 2010.06.25/outbox.cif.g09.slc.cpg/sg2_244_cif.got.tgz:487907.got - 2010.06.27 13:26:56.
