data_PCOD8017603
_publ_section_title
;
Structure prediction by ZEFSAII (Michael W. Deem and Ramdas Pophale) SiO2 
 PCOD8017603
Probable space group: P -1
;
_chemical_formula_sum "Si O2"
_cell_formula_units_Z 16
_cell_length_a 14.021183
_cell_length_b 9.556916
_cell_length_c 11.317600
_cell_angle_alpha 96.090541
_cell_angle_beta 30.711261
_cell_angle_gamma 84.965153
_cell_volume 720.730292
_symmetry_space_group_name_H-M "P -1"
_symmetry_group_IT_number 2
_symmetry_cell_setting 'triclinic'
loop_
_space_group_symop_operation_xyz
x,y,z
-x,-y,-z
loop_
_atom_site_type_symbol
_atom_site_label
_atom_site_fract_x
_atom_site_fract_y
_atom_site_fract_z
Si Si1 0.216018 0.513263 0.775969
Si Si2 0.057235 0.557585 0.323046
Si Si3 0.380274 0.878076 0.844198
Si Si4 0.664408 0.581582 0.614276
Si Si5 0.491884 0.341088 0.805369
Si Si6 0.583730 0.272300 0.446366
Si Si7 0.991714 0.108992 0.627373
Si Si8 0.431841 0.955814 0.192415
O O1 0.331099 0.471028 0.528019
O O2 0.362076 0.399804 0.702162
O O3 0.232320 0.677776 0.794847
O O4 0.000000 0.500000 0.000000
O O5 0.078301 0.719901 0.329958
O O6 0.000000 0.500000 0.500000
O O7 0.880927 0.576560 0.420333
O O8 0.256766 0.434924 0.047122
O O9 0.505989 0.749984 0.793053
O O10 0.420619 0.852566 0.657109
O O11 0.439797 0.019810 0.831131
O O12 0.150770 0.910798 0.119888
O O13 0.592756 0.461805 0.751069
O O14 0.602429 0.236620 0.563796
O O15 0.528123 0.223149 0.864408
O O16 0.203056 0.058469 0.462960
O O17 0.000000 0.000000 0.500000
O O18 0.500000 0.000000 0.000000
#
# Coordination Sequence:
#
# PCOD8017603 Si02
#       8
#     2   2   2   2   2   2   2   2
#     4   9  17  32  62  92 134 165 210 265 325 391
#     4  12  26  40  68  99 128 174 229 271 331 391
#     4  11  23  42  69  95 135 176 223 266 332 409
#     4  10  22  39  63 101 129 170 215 273 330 384
#     4  11  25  44  67  99 139 165 221 288 324 390
#     4   9  21  38  61  99 130 173 213 270 336 384
#     4  12  26  44  66  93 131 176 220 272 328 395
#     4  12  26  45  67  95 133 181 222 268 341 395
#
# _framework density 22.199704000000001
#
# number of rings (size 3 to 8) (size 9 to 14) (size 15 to 20)
#    0.000    1.250    3.750    2.250    3.500    1.000 
#    0.000    0.625    0.000    0.000    0.000    0.000 
#    0.000    0.000    0.000    0.000    0.000    0.000 
#
# Total GULP energy -198243.072614 kJ/mol
# GULP energy per Si atom -12390.192038 kJ/mol
# Density = 2.214918 g / cm^3
# Si number density = 22.199704 Si / 1000 Ang^3
#
#
#
# Elastic Constant Matrix: (Units=GPa)
#
#
# Indices 1 2 3 4 5 6 
#
# 1 56.2768 6.1614 20.5495 -2.0102 0.4959 12.3711
# 2 6.1614 97.5018 21.6860 -3.5838 -0.7129 -1.7458
# 3 20.5495 21.6860 119.5986 -3.8463 -16.7385 3.9281
# 4 -2.0102 -3.5838 -3.8463 28.1094 7.1718 -5.8361
# 5 0.4959 -0.7129 -16.7385 7.1718 43.9273 1.3370
# 6 12.3711 -1.7458 3.9281 -5.8361 1.3370 30.3621
#
#
#
# Elastic Compliance Matrix: (Units=1/GPa)
#
#
# Indices 1 2 3 4 5 6 
#
# 1 0.020864 -0.000741 -0.003367 -0.000444 -0.001210 -0.008140
# 2 -0.000741 0.010817 -0.001954 0.001596 -0.000868 0.001522
# 3 -0.003367 -0.001954 0.009825 -0.000153 0.003782 -0.000208
# 4 -0.000444 0.001596 -0.000153 0.039107 -0.006659 0.008103
# 5 -0.001210 -0.000868 0.003782 -0.006659 0.025367 -0.002443
# 6 -0.008140 0.001522 -0.000208 0.008103 -0.002443 0.038032
#
#
# Mechanical properties :
#
#
# Convention : Reuss Voigt Hill
#
# Bulk Modulus (GPa) = 34.03309 41.13012 37.58160
# Shear Modulus (GPa) = 30.13308 35.47845 32.80576
#
# Velocity S-wave (km/s) = 3.68824 4.00202 3.84833
# Velocity P-wave (km/s) = 5.78802 6.31842 6.05903
#
# Compressibility (1/GPa) = 0.02938317
#
# Stress axis : x y z
#
# Youngs Moduli (GPa) = 47.92938 92.44501 101.77809
#
# Poissons Ratio (x) = 0.06846 0.34268
# Poissons Ratio (y) = 0.03549 0.19890
# Poissons Ratio (z) = 0.16137 0.18066
#
# Static dielectric constant tensor:
#      x y z
#    x 4.262640 0.252620 -0.068490 
#    y 0.252620 4.131020 -0.124850 
#    z -0.068490 -0.124850 4.023290 
# 
# 
# High freq. dielectric constant tensor:
#      x y z
#    x 1.877450 0.016800 -0.001690 
#    y 0.016800 1.862670 -0.011160 
#    z -0.001690 -0.011160 1.874950 
# 
# From -- ./inp_files/447446.got.cif
#   From: 2010.06.25/outbox.cif.g09.slc.cpg/sg2_224_cif.got.tgz:447446.got - 2010.06.27 13:26:56.
