data_PCOD8017059
_publ_section_title
;
Structure prediction by ZEFSAII (Michael W. Deem and Ramdas Pophale) SiO2 
 PCOD8017059
Probable space group: P -1
;
_chemical_formula_sum "Si O2"
_cell_formula_units_Z 16
_cell_length_a 9.584793
_cell_length_b 8.022943
_cell_length_c 17.082066
_cell_angle_alpha 77.025916
_cell_angle_beta 38.139120
_cell_angle_gamma 64.434483
_cell_volume 716.071905
_symmetry_space_group_name_H-M "P -1"
_symmetry_group_IT_number 2
_symmetry_cell_setting 'triclinic'
loop_
_space_group_symop_operation_xyz
x,y,z
-x,-y,-z
loop_
_atom_site_type_symbol
_atom_site_label
_atom_site_fract_x
_atom_site_fract_y
_atom_site_fract_z
Si Si1 0.993686 0.701616 0.322654
Si Si2 0.184209 0.303336 0.761538
Si Si3 0.784867 0.365624 0.061323
Si Si4 0.733218 0.827190 0.842778
Si Si5 0.548750 0.877628 0.605311
Si Si6 0.191181 0.673771 0.768152
Si Si7 0.701119 0.684429 0.713495
Si Si8 0.467011 0.757008 0.094922
O O1 0.962256 0.612988 0.263385
O O2 0.733444 0.860434 0.453483
O O3 0.118174 0.537421 0.349333
O O4 0.179336 0.797087 0.214259
O O5 0.299141 0.450501 0.720465
O O6 0.388838 0.095212 0.673117
O O7 0.004405 0.282852 0.909705
O O8 0.901537 0.313204 0.102250
O O9 0.585375 0.277402 0.145520
O O10 0.636702 0.592660 0.096129
O O11 0.812054 0.761151 0.726848
O O12 0.967818 0.800154 0.796740
O O13 0.534138 0.045231 0.899685
O O14 0.593090 0.709601 0.957616
O O15 0.397813 0.754977 0.661664
O O16 0.718153 0.785076 0.615944
#
# Coordination Sequence:
#
# PCOD8017059 Si02
#       8
#     2   2   2   2   2   2   2   2
#     4  11  22  46  64  90 129 176 215 257 310 381
#     4  12  23  40  68  94 130 169 211 263 324 379
#     4  10  22  41  65  97 129 162 207 269 330 374
#     4  11  21  38  64 101 125 159 211 269 328 375
#     4  11  27  43  65  93 131 176 217 255 310 382
#     4  11  24  42  64 100 130 164 208 271 321 376
#     4  10  22  42  66  91 125 169 213 265 319 370
#     4  10  22  37  68  93 130 160 210 270 317 379
#
# _framework density 22.344124000000001
#
# number of rings (size 3 to 8) (size 9 to 14) (size 15 to 20)
#    0.000    1.250    2.500    2.625    1.750    6.500 
#    2.250    0.625    0.000    0.000    0.000    0.000 
#    0.000    0.000    0.000    0.000    0.000    0.000 
#
# Total GULP energy -198345.581103 kJ/mol
# GULP energy per Si atom -12396.598819 kJ/mol
# Density = 2.229327 g / cm^3
# Si number density = 22.344124 Si / 1000 Ang^3
#
#
#
# Elastic Constant Matrix: (Units=GPa)
#
#
# Indices 1 2 3 4 5 6 
#
# 1 111.7980 25.1385 39.5154 4.4935 10.9445 -5.7747
# 2 25.1385 76.8302 13.2793 10.9012 -1.2471 6.4254
# 3 39.5154 13.2793 113.5891 15.1951 -3.5908 9.5394
# 4 4.4935 10.9012 15.1951 30.6354 -2.2162 3.5818
# 5 10.9445 -1.2471 -3.5908 -2.2162 25.3267 0.9441
# 6 -5.7747 6.4254 9.5394 3.5818 0.9441 22.4624
#
#
#
# Elastic Compliance Matrix: (Units=1/GPa)
#
#
# Indices 1 2 3 4 5 6 
#
# 1 0.012445 -0.004007 -0.004705 0.000709 -0.006422 0.006500
# 2 -0.004007 0.015300 0.000702 -0.004436 0.002386 -0.005098
# 3 -0.004705 0.000702 0.011536 -0.004352 0.003537 -0.005764
# 4 0.000709 -0.004436 -0.004352 0.036742 0.002172 -0.002651
# 5 -0.006422 0.002386 0.003537 0.002172 0.043292 -0.006002
# 6 0.006500 -0.005098 -0.005764 -0.002651 -0.006002 0.050771
#
#
# Mechanical properties :
#
#
# Convention : Reuss Voigt Hill
#
# Bulk Modulus (GPa) = 42.98851 50.89818 46.94334
# Shear Modulus (GPa) = 25.79194 30.63716 28.21455
#
# Velocity S-wave (km/s) = 3.40119 3.70692 3.55734
# Velocity P-wave (km/s) = 5.89111 6.41486 6.15855
#
# Compressibility (1/GPa) = 0.02326203
#
# Stress axis : x y z
#
# Youngs Moduli (GPa) = 80.35651 65.35952 86.68311
#
# Poissons Ratio (x) = 0.26191 0.40781
# Poissons Ratio (y) = 0.32200 -0.06088
# Poissons Ratio (z) = 0.37804 -0.04591
#
# Static dielectric constant tensor:
#      x y z
#    x 4.016340 -0.123860 0.099280 
#    y -0.123860 3.986750 -0.114280 
#    z 0.099280 -0.114280 3.919130 
# 
# 
# High freq. dielectric constant tensor:
#      x y z
#    x 1.879340 -0.012740 0.009130 
#    y -0.012740 1.887590 -0.002900 
#    z 0.009130 -0.002900 1.868020 
# 
# From -- ./inp_files/470172.got.cif
#   From: 2010.06.25/outbox.cif.g09.slc.cpg/sg2_236_cif.got.tgz:470172.got - 2010.06.27 13:26:56.
