data_PCOD8017267
_publ_section_title
;
Structure prediction by ZEFSAII (Michael W. Deem and Ramdas Pophale) SiO2 
 PCOD8017267
Probable space group: P -1
;
_chemical_formula_sum "Si O2"
_cell_formula_units_Z 14
_cell_length_a 11.147415
_cell_length_b 5.083321
_cell_length_c 11.587031
_cell_angle_alpha 78.843005
_cell_angle_beta 101.012990
_cell_angle_gamma 60.993780
_cell_volume 531.425795
_symmetry_space_group_name_H-M "P -1"
_symmetry_group_IT_number 2
_symmetry_cell_setting 'triclinic'
loop_
_space_group_symop_operation_xyz
x,y,z
-x,-y,-z
loop_
_atom_site_type_symbol
_atom_site_label
_atom_site_fract_x
_atom_site_fract_y
_atom_site_fract_z
Si Si1 0.013065 0.245480 0.112791
Si Si2 0.527203 0.263184 0.624526
Si Si3 0.277728 0.245760 0.808977
Si Si4 0.216330 0.490730 0.541520
Si Si5 0.828718 0.867891 0.621182
Si Si6 0.529066 0.485035 0.157636
Si Si7 0.212120 0.887138 0.989390
O O1 0.869059 0.232344 0.096200
O O2 0.046796 0.280421 0.247306
O O3 0.000000 0.500000 0.000000
O O4 0.148936 0.924055 0.104475
O O5 0.500000 0.500000 0.500000
O O6 0.391024 0.219846 0.598894
O O7 0.682394 0.942216 0.654519
O O8 0.532615 0.413106 0.733459
O O9 0.375653 0.893473 0.801931
O O10 0.184223 0.220842 0.899420
O O11 0.170145 0.487226 0.666707
O O12 0.377867 0.361360 0.869318
O O13 0.183290 0.834542 0.471545
O O14 0.132389 0.396472 0.446423
O O15 0.386577 0.633964 0.035714
#
# Coordination Sequence:
#
# PCOD8017267 Si02
#       7
#     2   2   2   2   2   2   2
#     4  11  28  45  71  94 131 184 232 278 323 390
#     4   9  18  34  60  95 130 167 205 267 329 389
#     4  11  24  43  70 103 138 172 216 276 343 406
#     4  10  22  38  64  98 132 170 215 270 337 397
#     4  11  22  42  64  94 134 171 223 272 325 391
#     4  11  23  40  68 104 136 174 217 272 345 399
#     4  11  26  46  66  99 134 179 229 276 328 397
#
# _framework density 26.344225000000002
#
# number of rings (size 3 to 8) (size 9 to 14) (size 15 to 20)
#    0.000    1.429    1.429    3.857    8.000    3.429 
#    0.000    1.429    0.000    0.000    0.000    0.000 
#    0.000    0.000    0.000    0.000    0.000    0.000 
#
# Total GULP energy -173573.215045 kJ/mol
# GULP energy per Si atom -12398.086789 kJ/mol
# Density = 2.628426 g / cm^3
# Si number density = 26.344225 Si / 1000 Ang^3
#
#
#
# Elastic Constant Matrix: (Units=GPa)
#
#
# Indices 1 2 3 4 5 6 
#
# 1 141.8333 39.7084 69.2874 10.2150 -2.7320 23.0306
# 2 39.7084 69.2290 20.4363 -1.1226 4.5148 25.4923
# 3 69.2874 20.4363 160.3485 9.1313 5.1103 19.5132
# 4 10.2150 -1.1226 9.1313 43.1015 11.0460 -4.7416
# 5 -2.7320 4.5148 5.1103 11.0460 51.7784 14.1586
# 6 23.0306 25.4923 19.5132 -4.7416 14.1586 46.7469
#
#
#
# Elastic Compliance Matrix: (Units=1/GPa)
#
#
# Indices 1 2 3 4 5 6 
#
# 1 0.010732 -0.004387 -0.003708 -0.002796 0.002570 -0.002409
# 2 -0.004387 0.020168 0.000396 0.000388 0.000370 -0.009075
# 3 -0.003708 0.000396 0.008064 -0.000920 -0.000354 -0.001741
# 4 -0.002796 0.000388 -0.000920 0.026735 -0.007588 0.006560
# 5 0.002570 0.000370 -0.000354 -0.007588 0.023596 -0.009236
# 6 -0.002409 -0.009075 -0.001741 0.006560 -0.009236 0.031717
#
#
# Mechanical properties :
#
#
# Convention : Reuss Voigt Hill
#
# Bulk Modulus (GPa) = 42.43460 70.03055 56.23258
# Shear Modulus (GPa) = 34.65842 44.45726 39.55784
#
# Velocity S-wave (km/s) = 3.63105 4.11244 3.87922
# Velocity P-wave (km/s) = 5.80707 7.01357 6.43864
#
# Compressibility (1/GPa) = 0.02356568
#
# Stress axis : x y z
#
# Youngs Moduli (GPa) = 93.17826 49.58341 124.01230
#
# Poissons Ratio (x) = 0.21752 0.45981
# Poissons Ratio (y) = 0.40877 -0.04907
# Poissons Ratio (z) = 0.34548 -0.01962
#
# Static dielectric constant tensor:
#      x y z
#    x 5.353160 -0.455570 -0.355740 
#    y -0.455570 4.883470 0.373150 
#    z -0.355740 0.373150 5.094870 
# 
# 
# High freq. dielectric constant tensor:
#      x y z
#    x 2.071450 -0.009970 -0.012020 
#    y -0.009970 2.054190 0.016850 
#    z -0.012020 0.016850 2.073370 
# 
# From -- ./inp_files/409068.got.cif
#   From: 2010.06.25/outbox.cif.g09.slc.cpg/sg2_205_cif.got.tgz:409068.got - 2010.06.27 13:26:56.
