data_PCOD8017825
_publ_section_title
;
Structure prediction by ZEFSAII (Michael W. Deem and Ramdas Pophale) SiO2 
 PCOD8017825
Probable space group: P -1
;
_chemical_formula_sum "Si O2"
_cell_formula_units_Z 14
_cell_length_a 6.762715
_cell_length_b 9.605264
_cell_length_c 10.165741
_cell_angle_alpha 107.600264
_cell_angle_beta 73.665708
_cell_angle_gamma 68.738904
_cell_volume 526.747789
_symmetry_space_group_name_H-M "P -1"
_symmetry_group_IT_number 2
_symmetry_cell_setting 'triclinic'
loop_
_space_group_symop_operation_xyz
x,y,z
-x,-y,-z
loop_
_atom_site_type_symbol
_atom_site_label
_atom_site_fract_x
_atom_site_fract_y
_atom_site_fract_z
Si Si1 0.359568 0.342951 0.505248
Si Si2 0.753221 0.860897 0.361473
Si Si3 0.058071 0.018183 0.279010
Si Si4 0.391701 0.148906 0.899702
Si Si5 0.777624 0.358011 0.557092
Si Si6 0.582687 0.576554 0.891085
Si Si7 0.297472 0.865916 0.841942
O O1 0.176589 0.297586 0.599787
O O2 0.528766 0.361519 0.584996
O O3 0.198713 0.514943 0.510519
O O4 0.526879 0.194534 0.333015
O O5 0.744682 0.805479 0.199194
O O6 0.950586 0.917690 0.349307
O O7 0.500000 0.000000 0.500000
O O8 0.335470 0.905723 0.189828
O O9 0.963482 0.058808 0.154691
O O10 0.356139 0.711286 0.884327
O O11 0.997923 0.179634 0.426009
O O12 0.345309 0.008491 0.941008
O O13 0.287737 0.320665 0.052273
O O14 0.770095 0.419600 0.725606
O O15 0.500000 0.500000 0.000000
#
# Coordination Sequence:
#
# PCOD8017825 Si02
#       7
#     2   2   2   2   2   2   2
#     4   9  16  34  60  85 113 161 199 236 294 351
#     4  11  19  38  62  90 124 157 198 252 296 349
#     4  10  22  39  66  94 115 155 212 249 288 352
#     4  11  23  39  64  93 120 159 203 247 295 362
#     4   9  18  36  61  86 120 159 195 244 302 356
#     4  11  23  38  61  91 124 162 198 243 312 365
#     4   9  20  42  62  83 123 165 199 244 298 355
#
# _framework density 26.578184
#
# number of rings (size 3 to 8) (size 9 to 14) (size 15 to 20)
#    0.000    2.000    4.286    2.143    0.000    1.143 
#    0.000    4.286    0.000   18.857    0.000    0.000 
#    0.000    0.000    0.000    0.000    0.000    0.000 
#
# Total GULP energy -173610.584954 kJ/mol
# GULP energy per Si atom -12400.756068 kJ/mol
# Density = 2.651769 g / cm^3
# Si number density = 26.578184 Si / 1000 Ang^3
#
#
#
# Elastic Constant Matrix: (Units=GPa)
#
#
# Indices 1 2 3 4 5 6 
#
# 1 96.8516 30.8753 48.8279 6.2072 1.9142 20.6201
# 2 30.8753 144.2964 23.4516 -14.6564 0.5293 27.8502
# 3 48.8279 23.4516 104.6136 15.3660 40.2185 12.7386
# 4 6.2072 -14.6564 15.3660 36.6551 14.8683 8.4362
# 5 1.9142 0.5293 40.2185 14.8683 43.9051 -0.2970
# 6 20.6201 27.8502 12.7386 8.4362 -0.2970 32.6075
#
#
#
# Elastic Compliance Matrix: (Units=1/GPa)
#
#
# Indices 1 2 3 4 5 6 
#
# 1 0.016918 -0.001120 -0.010328 -0.001517 0.009215 -0.005231
# 2 -0.001120 0.009875 -0.000979 0.007387 -0.001737 -0.009270
# 3 -0.010328 -0.000979 0.022591 0.000594 -0.020445 -0.001798
# 4 -0.001517 0.007387 0.000594 0.039635 -0.014098 -0.015965
# 5 0.009215 -0.001737 -0.020445 -0.014098 0.045951 0.007709
# 6 -0.005231 -0.009270 -0.001798 -0.015965 0.007709 0.046796
#
#
# Mechanical properties :
#
#
# Convention : Reuss Voigt Hill
#
# Bulk Modulus (GPa) = 40.76800 61.34125 51.05462
# Shear Modulus (GPa) = 23.27776 38.80732 31.04254
#
# Velocity S-wave (km/s) = 2.96264 3.82530 3.42127
# Velocity P-wave (km/s) = 5.20338 6.52994 5.90404
#
# Compressibility (1/GPa) = 0.02452904
#
# Stress axis : x y z
#
# Youngs Moduli (GPa) = 59.10923 101.26739 44.26520
#
# Poissons Ratio (x) = 0.11338 0.45719
# Poissons Ratio (y) = 0.06618 0.04335
# Poissons Ratio (z) = 0.61051 0.09917
#
# Static dielectric constant tensor:
#      x y z
#    x 4.836100 0.051760 0.576140 
#    y 0.051760 5.215200 -0.006630 
#    z 0.576140 -0.006630 5.022420 
# 
# 
# High freq. dielectric constant tensor:
#      x y z
#    x 2.062600 0.005660 0.020750 
#    y 0.005660 2.079290 -0.004360 
#    z 0.020750 -0.004360 2.069260 
# 
# From -- ./inp_files/388160.got.cif
#   From: 2010.06.25/outbox.cif.g09.slc.cpg/sg2_195_cif.got.tgz:388160.got - 2010.06.27 13:26:56.
