data_PCOD8017969
_publ_section_title
;
Structure prediction by ZEFSAII (Michael W. Deem and Ramdas Pophale) SiO2 
 PCOD8017969
Probable space group: P -1
;
_chemical_formula_sum "Si O2"
_cell_formula_units_Z 14
_cell_length_a 8.227498
_cell_length_b 11.975198
_cell_length_c 8.920164
_cell_angle_alpha 50.277991
_cell_angle_beta 73.596756
_cell_angle_gamma 83.075724
_cell_volume 646.329295
_symmetry_space_group_name_H-M "P -1"
_symmetry_group_IT_number 2
_symmetry_cell_setting 'triclinic'
loop_
_space_group_symop_operation_xyz
x,y,z
-x,-y,-z
loop_
_atom_site_type_symbol
_atom_site_label
_atom_site_fract_x
_atom_site_fract_y
_atom_site_fract_z
Si Si1 0.841245 0.381870 0.620641
Si Si2 0.546246 0.464694 0.815358
Si Si3 0.696504 0.689885 0.791581
Si Si4 0.583325 0.922282 0.407525
Si Si5 0.980867 0.156995 0.296211
Si Si6 0.304507 0.707363 0.576733
Si Si7 0.892485 0.101924 0.038484
O O1 0.659216 0.439115 0.662406
O O2 0.818864 0.328852 0.500815
O O3 0.000000 0.500000 0.500000
O O4 0.876733 0.249400 0.829107
O O5 0.676163 0.532603 0.850664
O O6 0.394541 0.566168 0.728139
O O7 0.454399 0.314838 0.038581
O O8 0.691133 0.805761 0.560991
O O9 0.874188 0.719913 0.801114
O O10 0.449546 0.839859 0.397218
O O11 0.500000 0.000000 0.500000
O O12 0.704771 0.028975 0.183826
O O13 0.806194 0.226670 0.319715
O O14 0.995802 0.136230 0.133492
O O15 0.000000 0.000000 0.500000
O O16 0.000000 0.000000 0.000000
#
# Coordination Sequence:
#
# PCOD8017969 Si02
#       7
#     2   2   2   2   2   2   2
#     4  12  28  46  67 101 147 180 226 290 347 409
#     4  10  24  43  68 100 136 179 229 281 347 405
#     4  10  22  39  70  98 135 171 232 280 335 409
#     4  11  21  44  71  98 136 178 232 288 340 409
#     4  12  23  43  70 101 133 178 231 281 345 408
#     4  11  25  42  73  98 135 189 232 278 343 414
#     4  12  28  43  70 104 140 179 231 288 350 402
#
# _framework density 21.660782999999999
#
# number of rings (size 3 to 8) (size 9 to 14) (size 15 to 20)
#    0.000    0.857    2.857    3.000   10.000    2.286 
#    0.000    0.000    0.000    0.000    0.000    0.000 
#    0.000    0.000    0.000    0.000    0.000    0.000 
#
# Total GULP energy -173551.950821 kJ/mol
# GULP energy per Si atom -12396.567916 kJ/mol
# Density = 2.161148 g / cm^3
# Si number density = 21.660783 Si / 1000 Ang^3
#
#
#
# Elastic Constant Matrix: (Units=GPa)
#
#
# Indices 1 2 3 4 5 6 
#
# 1 122.4228 58.0680 52.2136 -6.7017 -2.0023 20.1522
# 2 58.0680 106.4035 50.6304 10.2811 1.6424 -1.5494
# 3 52.2136 50.6304 134.4962 -8.5099 -6.3185 2.8382
# 4 -6.7017 10.2811 -8.5099 40.3060 4.1017 -4.6877
# 5 -2.0023 1.6424 -6.3185 4.1017 42.4542 0.2859
# 6 20.1522 -1.5494 2.8382 -4.6877 0.2859 59.3233
#
#
#
# Elastic Compliance Matrix: (Units=1/GPa)
#
#
# Indices 1 2 3 4 5 6 
#
# 1 0.013043 -0.006300 -0.002416 0.002743 0.000263 -0.004264
# 2 -0.006300 0.015154 -0.003689 -0.005330 -0.000933 0.002296
# 3 -0.002416 -0.003689 0.009974 0.002568 0.001262 0.000444
# 4 0.002743 -0.005330 0.002568 0.027481 -0.001944 0.000987
# 5 0.000263 -0.000933 0.001262 -0.001944 0.023982 -0.000443
# 6 -0.004264 0.002296 0.000444 0.000987 -0.000443 0.018424
#
#
# Mechanical properties :
#
#
# Convention : Reuss Voigt Hill
#
# Bulk Modulus (GPa) = 74.83549 76.12737 75.48143
# Shear Modulus (GPa) = 36.41087 41.91073 39.16080
#
# Velocity S-wave (km/s) = 4.10440 4.40348 4.25657
# Velocity P-wave (km/s) = 7.55548 7.81510 7.68639
#
# Compressibility (1/GPa) = 0.01336264
#
# Stress axis : x y z
#
# Youngs Moduli (GPa) = 76.66681 65.98898 100.25912
#
# Poissons Ratio (x) = 0.41571 0.24226
# Poissons Ratio (y) = 0.48297 0.36981
# Poissons Ratio (z) = 0.18525 0.24340
#
# Static dielectric constant tensor:
#      x y z
#    x 3.932100 0.087180 0.065210 
#    y 0.087180 4.232330 0.811970 
#    z 0.065210 0.811970 4.355170 
# 
# 
# High freq. dielectric constant tensor:
#      x y z
#    x 1.856630 0.007490 -0.009350 
#    y 0.007490 1.857160 -0.005490 
#    z -0.009350 -0.005490 1.854740 
# 
# From -- ./inp_files/183975.got.cif
#   From: 2010.06.25/outbox.cif.g09.slc.cpg/sg2_92_cif.got.tgz:183975.got - 2010.06.27 13:26:56.
