data_PCOD8017258
_publ_section_title
;
Structure prediction by ZEFSAII (Michael W. Deem and Ramdas Pophale) SiO2 
 PCOD8017258
Probable space group: P -1
;
_chemical_formula_sum "Si O2"
_cell_formula_units_Z 16
_cell_length_a 13.917833
_cell_length_b 4.792578
_cell_length_c 11.774508
_cell_angle_alpha 102.341087
_cell_angle_beta 70.034186
_cell_angle_gamma 72.352153
_cell_volume 657.835709
_symmetry_space_group_name_H-M "P -1"
_symmetry_group_IT_number 2
_symmetry_cell_setting 'triclinic'
loop_
_space_group_symop_operation_xyz
x,y,z
-x,-y,-z
loop_
_atom_site_type_symbol
_atom_site_label
_atom_site_fract_x
_atom_site_fract_y
_atom_site_fract_z
Si Si1 0.996758 0.951721 0.863661
Si Si2 0.202609 0.498031 0.358735
Si Si3 0.148679 0.418330 0.127042
Si Si4 0.724683 0.867395 0.162767
Si Si5 0.349887 0.734555 0.473730
Si Si6 0.919489 0.816512 0.502591
Si Si7 0.400012 0.461924 0.676423
Si Si8 0.844646 0.701861 0.306852
O O1 0.894698 0.853627 0.867708
O O2 0.115400 0.678497 0.746441
O O3 0.962568 0.274020 0.836302
O O4 0.000000 0.000000 0.000000
O O5 0.217813 0.428131 0.212271
O O6 0.295741 0.590619 0.387158
O O7 0.195745 0.206321 0.404477
O O8 0.086405 0.833353 0.435515
O O9 0.241074 0.333246 0.982308
O O10 0.657156 0.752265 0.269451
O O11 0.836977 0.826074 0.189152
O O12 0.647165 0.226149 0.199518
O O13 0.368394 0.531075 0.563297
O O14 0.466956 0.717040 0.376434
O O15 0.273899 0.097934 0.564746
O O16 0.932843 0.772231 0.356796
O O17 0.000000 0.500000 0.500000
#
# Coordination Sequence:
#
# PCOD8017258 Si02
#       8
#     2   2   2   2   2   2   2   2
#     4  12  25  42  64  94 130 169 213 253 310 370
#     4  11  23  40  61  88 126 168 205 251 320 370
#     4  12  25  43  62  93 132 170 210 259 303 380
#     4  11  23  39  63  91 125 164 210 263 315 366
#     4   9  22  42  67  95 128 162 208 269 321 374
#     4  11  22  38  58  89 123 165 207 257 303 373
#     4  10  22  41  66  95 124 158 212 271 320 366
#     4  10  22  38  64  93 124 160 210 255 317 371
#
# _framework density 24.322181
#
# number of rings (size 3 to 8) (size 9 to 14) (size 15 to 20)
#    0.000    1.250    1.250    4.500    0.000   10.500 
#    0.000    1.250    0.000    0.000    0.000    0.000 
#    0.000    0.000    0.000    0.000    0.000    0.000 
#
# Total GULP energy -198211.606369 kJ/mol
# GULP energy per Si atom -12388.225398 kJ/mol
# Density = 2.426682 g / cm^3
# Si number density = 24.322181 Si / 1000 Ang^3
#
#
#
# Elastic Constant Matrix: (Units=GPa)
#
#
# Indices 1 2 3 4 5 6 
#
# 1 99.9325 29.1012 67.0496 1.6286 19.7197 -10.6659
# 2 29.1012 82.2275 25.3454 8.6345 4.1154 16.0076
# 3 67.0496 25.3454 147.2912 2.6938 34.6924 -4.4788
# 4 1.6286 8.6345 2.6938 42.4517 -0.4171 -3.9538
# 5 19.7197 4.1154 34.6924 -0.4171 39.6906 5.6370
# 6 -10.6659 16.0076 -4.4788 -3.9538 5.6370 36.6612
#
#
#
# Elastic Compliance Matrix: (Units=1/GPa)
#
#
# Indices 1 2 3 4 5 6 
#
# 1 0.017008 -0.005717 -0.005614 0.001529 -0.004005 0.007539
# 2 -0.005717 0.016841 -0.001411 -0.004030 0.003734 -0.010198
# 3 -0.005614 -0.001411 0.011323 -0.000151 -0.007170 0.001452
# 4 0.001529 -0.004030 -0.000151 0.024782 -0.000654 0.004959
# 5 -0.004005 0.003734 -0.007170 -0.000654 0.034339 -0.009022
# 6 0.007539 -0.010198 0.001452 0.004959 -0.009022 0.036022
#
#
# Mechanical properties :
#
#
# Convention : Reuss Voigt Hill
#
# Bulk Modulus (GPa) = 50.79160 63.60483 57.19822
# Shear Modulus (GPa) = 29.00830 37.62438 33.31634
#
# Velocity S-wave (km/s) = 3.45725 3.93735 3.70509
# Velocity P-wave (km/s) = 6.07165 6.84676 6.47082
#
# Compressibility (1/GPa) = 0.01968829
#
# Stress axis : x y z
#
# Youngs Moduli (GPa) = 58.79418 59.37806 88.31209
#
# Poissons Ratio (x) = 0.33946 0.49580
# Poissons Ratio (y) = 0.33612 0.12464
# Poissons Ratio (z) = 0.33008 0.08381
#
# Static dielectric constant tensor:
#      x y z
#    x 4.216470 -0.432230 0.341310 
#    y -0.432230 4.309010 0.352520 
#    z 0.341310 0.352520 4.321880 
# 
# 
# High freq. dielectric constant tensor:
#      x y z
#    x 1.964950 0.009990 0.011920 
#    y 0.009990 1.980160 0.003260 
#    z 0.011920 0.003260 1.963970 
# 
# From -- ./inp_files/76189.got.cif
#   From: 2010.06.25/outbox.cif.g09.slc.cpg/sg2_39_cif.got.tgz:76189.got - 2010.06.27 13:26:56.
