data_PCOD8017691
_publ_section_title
;
Structure prediction by ZEFSAII (Michael W. Deem and Ramdas Pophale) SiO2 
 PCOD8017691
Probable space group: P -1
;
_chemical_formula_sum "Si O2"
_cell_formula_units_Z 16
_cell_length_a 6.727334
_cell_length_b 11.656483
_cell_length_c 25.430752
_cell_angle_alpha 32.968445
_cell_angle_beta 129.804563
_cell_angle_gamma 134.345694
_cell_volume 768.629501
_symmetry_space_group_name_H-M "P -1"
_symmetry_group_IT_number 2
_symmetry_cell_setting 'triclinic'
loop_
_space_group_symop_operation_xyz
x,y,z
-x,-y,-z
loop_
_atom_site_type_symbol
_atom_site_label
_atom_site_fract_x
_atom_site_fract_y
_atom_site_fract_z
Si Si1 0.213651 0.451327 0.622732
Si Si2 0.913739 0.134762 0.387779
Si Si3 0.941593 0.577725 0.279655
Si Si4 0.563426 0.334853 0.873173
Si Si5 0.684589 0.989084 0.954603
Si Si6 0.057127 0.160540 0.284388
Si Si7 0.680723 0.181226 0.578296
Si Si8 0.531131 0.905510 0.228013
O O1 0.209505 0.537245 0.647924
O O2 0.404502 0.672269 0.536647
O O3 0.333565 0.255311 0.714853
O O4 0.889365 0.359912 0.585219
O O5 0.938501 0.380536 0.316261
O O6 0.081774 0.182769 0.343187
O O7 0.596100 0.980479 0.376660
O O8 0.000000 0.000000 0.500000
O O9 0.761415 0.714321 0.174287
O O10 0.258609 0.756714 0.273038
O O11 0.750587 0.604115 0.801545
O O12 0.697503 0.218683 0.898003
O O13 0.540510 0.226640 0.969099
O O14 0.559529 0.967553 0.883072
O O15 0.000000 0.000000 0.000000
O O16 0.746048 0.085996 0.235259
O O17 0.166874 0.964135 0.367160
#
# Coordination Sequence:
#
# PCOD8017691 Si02
#       8
#     2   2   2   2   2   2   2   2
#     4  10  22  39  64  91 129 168 220 252 318 373
#     4  12  25  37  62  95 133 172 217 257 310 370
#     4  12  22  38  66  92 124 169 211 261 312 375
#     4  11  24  41  67  96 123 161 213 264 317 383
#     4  11  23  44  70  96 122 160 214 266 325 381
#     4  11  25  43  62  95 134 168 211 258 319 375
#     4  10  22  41  60  92 130 173 207 267 306 376
#     4  11  23  42  67  93 128 170 208 264 320 379
#
# _framework density 20.816272000000001
#
# number of rings (size 3 to 8) (size 9 to 14) (size 15 to 20)
#    0.000    1.000    3.750    3.000    1.750    1.500 
#    0.000    5.625    0.000    0.000    0.000    0.000 
#    0.000    0.000    0.000    0.000    0.000    0.000 
#
# Total GULP energy -198392.216798 kJ/mol
# GULP energy per Si atom -12399.513550 kJ/mol
# Density = 2.076889 g / cm^3
# Si number density = 20.816272 Si / 1000 Ang^3
#
#
#
# Elastic Constant Matrix: (Units=GPa)
#
#
# Indices 1 2 3 4 5 6 
#
# 1 73.4303 19.2455 24.8090 0.0468 -5.6928 -0.3900
# 2 19.2455 69.1746 26.5476 -5.6983 -5.6517 9.9055
# 3 24.8090 26.5476 102.8596 8.0977 -8.4854 -6.6560
# 4 0.0468 -5.6983 8.0977 31.1759 2.2200 -1.5252
# 5 -5.6928 -5.6517 -8.4854 2.2200 39.0885 -1.9858
# 6 -0.3900 9.9055 -6.6560 -1.5252 -1.9858 39.6230
#
#
#
# Elastic Compliance Matrix: (Units=1/GPa)
#
#
# Indices 1 2 3 4 5 6 
#
# 1 0.015497 -0.003223 -0.002774 0.000049 0.001214 0.000555
# 2 -0.003223 0.018236 -0.004539 0.004216 0.000681 -0.005157
# 3 -0.002774 -0.004539 0.012242 -0.003994 0.001982 0.003109
# 4 0.000049 0.004216 -0.003994 0.034016 -0.002209 -0.000526
# 5 0.001214 0.000681 0.001982 -0.002209 0.026486 0.001417
# 6 0.000555 -0.005157 0.003109 -0.000526 0.001417 0.027106
#
#
# Mechanical properties :
#
#
# Convention : Reuss Voigt Hill
#
# Bulk Modulus (GPa) = 40.15490 42.96319 41.55904
# Shear Modulus (GPa) = 30.68337 33.63498 32.15918
#
# Velocity S-wave (km/s) = 3.84345 4.02407 3.93479
# Velocity P-wave (km/s) = 6.24725 6.50191 6.37585
#
# Compressibility (1/GPa) = 0.02490356
#
# Stress axis : x y z
#
# Youngs Moduli (GPa) = 64.52722 54.83615 81.68919
#
# Poissons Ratio (x) = 0.17676 0.22658
# Poissons Ratio (y) = 0.20800 0.37076
# Poissons Ratio (z) = 0.17897 0.24888
#
# Static dielectric constant tensor:
#      x y z
#    x 3.795490 0.124350 -0.016130 
#    y 0.124350 3.859060 0.136700 
#    z -0.016130 0.136700 3.905850 
# 
# 
# High freq. dielectric constant tensor:
#      x y z
#    x 1.824660 0.009970 -0.003460 
#    y 0.009970 1.808870 0.004610 
#    z -0.003460 0.004610 1.821840 
# 
# From -- ./inp_files/37550.got.cif
#   From: 2010.06.25/outbox.cif.g09.slc.cpg/sg2_19_cif.got.tgz:37550.got - 2010.06.27 13:26:56.
