data_PCOD8017849
_publ_section_title
;
Structure prediction by ZEFSAII (Michael W. Deem and Ramdas Pophale) SiO2 
 PCOD8017849
Probable space group: P -1
;
_chemical_formula_sum "Si O2"
_cell_formula_units_Z 16
_cell_length_a 11.628406
_cell_length_b 8.446667
_cell_length_c 15.685991
_cell_angle_alpha 106.160765
_cell_angle_beta 63.010375
_cell_angle_gamma 53.686861
_cell_volume 716.487830
_symmetry_space_group_name_H-M "P -1"
_symmetry_group_IT_number 2
_symmetry_cell_setting 'triclinic'
loop_
_space_group_symop_operation_xyz
x,y,z
-x,-y,-z
loop_
_atom_site_type_symbol
_atom_site_label
_atom_site_fract_x
_atom_site_fract_y
_atom_site_fract_z
Si Si1 0.777017 0.964518 0.288404
Si Si2 0.183557 0.245521 0.505939
Si Si3 0.401530 0.758476 0.958502
Si Si4 0.582603 0.666736 0.386817
Si Si5 0.976518 0.583765 0.790230
Si Si6 0.540159 0.359224 0.273548
Si Si7 0.068981 0.697151 0.526587
Si Si8 0.854421 0.165163 0.802486
O O1 0.946453 0.623743 0.191485
O O2 0.912210 0.983501 0.276103
O O3 0.537725 0.212937 0.462024
O O4 0.698099 0.061607 0.231066
O O5 0.984867 0.479707 0.681612
O O6 0.200049 0.387525 0.462201
O O7 0.119351 0.148995 0.460678
O O8 0.439780 0.949746 0.418879
O O9 0.377161 0.733532 0.865055
O O10 0.674287 0.473779 0.855234
O O11 0.267828 0.762362 0.058518
O O12 0.287107 0.063047 0.053415
O O13 0.848332 0.446263 0.276798
O O14 0.590581 0.483865 0.311930
O O15 0.260724 0.617869 0.412540
O O16 0.925087 0.929811 0.687983
#
# Coordination Sequence:
#
# PCOD8017849 Si02
#       8
#     2   2   2   2   2   2   2   2
#     4  11  24  41  71 100 129 174 228 274 325 389
#     4  10  22  39  67 101 128 176 214 283 326 382
#     4  11  27  44  66  96 139 180 214 269 337 399
#     4  11  22  40  71  98 135 168 225 277 329 383
#     4  11  23  44  65  97 140 176 215 267 344 394
#     4  12  25  41  69 106 127 174 223 279 324 386
#     4  11  22  42  70  96 134 165 234 273 320 386
#     4  11  24  47  68  94 135 179 225 265 329 399
#
# _framework density 22.331153
#
# number of rings (size 3 to 8) (size 9 to 14) (size 15 to 20)
#    0.000    1.000    2.500    4.875    3.500    4.000 
#    0.000    0.000    0.000    0.000    0.000    0.000 
#    0.000    0.000    0.000    0.000    0.000    0.000 
#
# Total GULP energy -198500.098088 kJ/mol
# GULP energy per Si atom -12406.256131 kJ/mol
# Density = 2.228033 g / cm^3
# Si number density = 22.331153 Si / 1000 Ang^3
#
#
#
# Elastic Constant Matrix: (Units=GPa)
#
#
# Indices 1 2 3 4 5 6 
#
# 1 89.5587 12.0966 38.2013 -16.8647 4.3320 -14.2307
# 2 12.0966 100.4600 48.6758 -13.3396 17.2361 -18.2746
# 3 38.2013 48.6758 79.2145 -2.4121 10.8646 -4.9300
# 4 -16.8647 -13.3396 -2.4121 35.3094 -1.5840 1.8146
# 5 4.3320 17.2361 10.8646 -1.5840 22.1177 0.7182
# 6 -14.2307 -18.2746 -4.9300 1.8146 0.7182 32.2769
#
#
#
# Elastic Compliance Matrix: (Units=1/GPa)
#
#
# Indices 1 2 3 4 5 6 
#
# 1 0.019283 0.007582 -0.012569 0.010545 -0.003092 0.010351
# 2 0.007582 0.021464 -0.014240 0.009597 -0.010952 0.013024
# 3 -0.012569 -0.014240 0.026576 -0.009097 0.000146 -0.009037
# 4 0.010545 0.009597 -0.009097 0.035893 -0.002724 0.006736
# 5 -0.003092 -0.010952 0.000146 -0.002724 0.054365 -0.008598
# 6 0.010351 0.013024 -0.009037 0.006736 -0.008598 0.041352
#
#
# Mechanical properties :
#
#
# Convention : Reuss Voigt Hill
#
# Bulk Modulus (GPa) = 34.64048 51.90897 43.27472
# Shear Modulus (GPa) = 20.24203 29.29143 24.76673
#
# Velocity S-wave (km/s) = 3.01399 3.62565 3.33388
# Velocity P-wave (km/s) = 5.25909 6.38926 5.85153
#
# Compressibility (1/GPa) = 0.02886796
#
# Stress axis : x y z
#
# Youngs Moduli (GPa) = 51.85925 46.59028 37.62776
#
# Poissons Ratio (x) = -0.35323 0.47293
# Poissons Ratio (y) = -0.39317 0.53583
# Poissons Ratio (z) = 0.65180 0.66346
#
# Static dielectric constant tensor:
#      x y z
#    x 3.980800 -0.111720 0.044040 
#    y -0.111720 4.347750 0.092360 
#    z 0.044040 0.092360 3.822320 
# 
# 
# High freq. dielectric constant tensor:
#      x y z
#    x 1.880930 -0.003840 0.002700 
#    y -0.003840 1.901950 0.005720 
#    z 0.002700 0.005720 1.856830 
# 
# From -- ./inp_files/209458.got.cif
#   From: 2010.06.25/outbox.cif.g09.slc.cpg/sg2_105_cif.got.tgz:209458.got - 2010.06.27 13:26:56.
