data_PCOD8017660
_publ_section_title
;
Structure prediction by ZEFSAII (Michael W. Deem and Ramdas Pophale) SiO2 
 PCOD8017660
Probable space group: P -1
;
_chemical_formula_sum "Si O2"
_cell_formula_units_Z 16
_cell_length_a 14.922329
_cell_length_b 14.813062
_cell_length_c 14.275494
_cell_angle_alpha 38.390437
_cell_angle_beta 27.690042
_cell_angle_gamma 29.210195
_cell_volume 714.764376
_symmetry_space_group_name_H-M "P -1"
_symmetry_group_IT_number 2
_symmetry_cell_setting 'triclinic'
loop_
_space_group_symop_operation_xyz
x,y,z
-x,-y,-z
loop_
_atom_site_type_symbol
_atom_site_label
_atom_site_fract_x
_atom_site_fract_y
_atom_site_fract_z
Si Si1 0.332394 0.649388 0.798640
Si Si2 0.372374 0.903982 0.300701
Si Si3 0.216944 0.266796 0.425416
Si Si4 0.264681 0.644969 0.656309
Si Si5 0.519104 0.127581 0.564594
Si Si6 0.024649 0.533882 0.212051
Si Si7 0.322393 0.502195 0.233721
Si Si8 0.830914 0.711497 0.903584
O O1 0.359420 0.574674 0.730449
O O2 0.276770 0.848495 0.677437
O O3 0.580801 0.508893 0.742669
O O4 0.112912 0.660148 0.039280
O O5 0.199789 0.843673 0.528971
O O6 0.490686 0.897204 0.295296
O O7 0.204672 0.113496 0.251016
O O8 0.587030 0.769712 0.135247
O O9 0.161723 0.372354 0.292894
O O10 0.327859 0.326501 0.349915
O O11 0.961979 0.314022 0.660551
O O12 0.424248 0.048106 0.397994
O O13 0.500000 0.500000 0.500000
O O14 0.046218 0.633942 0.844383
O O15 0.262115 0.322708 0.616346
O O16 0.084575 0.440894 0.129943
O O17 0.500000 0.500000 0.000000
#
# Coordination Sequence:
#
# PCOD8017660 Si02
#       8
#     2   2   2   2   2   2   2   2
#     4  11  24  42  67 101 135 176 226 279 339 404
#     4  10  22  39  63  96 136 181 231 273 329 397
#     4  11  25  46  73 100 132 180 224 285 346 409
#     4  11  23  38  61  97 135 179 222 273 335 397
#     4  11  24  44  67 103 138 177 231 280 338 404
#     4  12  23  43  71  98 140 182 223 281 342 397
#     4  11  24  48  74  99 135 177 226 285 352 407
#     4  11  22  40  64  97 137 184 227 274 328 402
#
# _framework density 22.385000000000002
#
# number of rings (size 3 to 8) (size 9 to 14) (size 15 to 20)
#    0.000    1.000    3.750    3.375    0.000    3.000 
#    0.000    2.500    0.000    0.000    0.000    0.000 
#    0.000    0.000    0.000    0.000    0.000    0.000 
#
# Total GULP energy -198311.544704 kJ/mol
# GULP energy per Si atom -12394.471544 kJ/mol
# Density = 2.233405 g / cm^3
# Si number density = 22.385000 Si / 1000 Ang^3
#
#
#
# Elastic Constant Matrix: (Units=GPa)
#
#
# Indices 1 2 3 4 5 6 
#
# 1 120.6369 27.1049 35.7450 0.9489 -15.7455 -1.2706
# 2 27.1049 100.0455 24.2010 7.9223 -2.2416 17.4957
# 3 35.7450 24.2010 125.2526 -2.1768 -5.2440 6.7420
# 4 0.9489 7.9223 -2.1768 20.2928 -0.0601 2.5577
# 5 -15.7455 -2.2416 -5.2440 -0.0601 30.8694 -4.2023
# 6 -1.2706 17.4957 6.7420 2.5577 -4.2023 28.6768
#
#
#
# Elastic Compliance Matrix: (Units=1/GPa)
#
#
# Indices 1 2 3 4 5 6 
#
# 1 0.010308 -0.002689 -0.002394 -0.000105 0.005121 0.003420
# 2 -0.002689 0.012640 -0.001419 -0.004035 -0.001708 -0.007388
# 3 -0.002394 -0.001419 0.009056 0.001830 0.000009 -0.001531
# 4 -0.000105 -0.004035 0.001830 0.051382 -0.000289 -0.002598
# 5 0.005121 -0.001708 0.000009 -0.000289 0.035773 0.006535
# 6 0.003420 -0.007388 -0.001531 -0.002598 0.006535 0.041080
#
#
# Mechanical properties :
#
#
# Convention : Reuss Voigt Hill
#
# Bulk Modulus (GPa) = 52.62769 57.78185 55.20477
# Shear Modulus (GPa) = 27.84348 33.22675 30.53512
#
# Velocity S-wave (km/s) = 3.53065 3.85688 3.69736
# Velocity P-wave (km/s) = 6.33892 6.76039 6.55304
#
# Compressibility (1/GPa) = 0.01900140
#
# Stress axis : x y z
#
# Youngs Moduli (GPa) = 97.01257 79.11166 110.42641
#
# Poissons Ratio (x) = 0.21270 0.26433
# Poissons Ratio (y) = 0.26083 0.15670
# Poissons Ratio (z) = 0.23222 0.11226
#
# Static dielectric constant tensor:
#      x y z
#    x 4.123390 0.141090 -0.115290 
#    y 0.141090 3.948040 -0.521190 
#    z -0.115290 -0.521190 4.699010 
# 
# 
# High freq. dielectric constant tensor:
#      x y z
#    x 1.895830 0.000020 0.005250 
#    y 0.000020 1.857510 -0.020880 
#    z 0.005250 -0.020880 1.897360 
# 
# From -- ./inp_files/533655.got.cif
#   From: 2010.06.25/outbox.cif.g09.slc.cpg/sg2_267_cif.got.tgz:533655.got - 2010.06.27 13:26:56.
