data_PCOD8017048
_publ_section_title
;
Structure prediction by ZEFSAII (Michael W. Deem and Ramdas Pophale) SiO2 
 PCOD8017048
Probable space group: P -1
;
_chemical_formula_sum "Si O2"
_cell_formula_units_Z 16
_cell_length_a 21.691237
_cell_length_b 11.994473
_cell_length_c 15.996418
_cell_angle_alpha 46.054675
_cell_angle_beta 152.234907
_cell_angle_gamma 153.333583
_cell_volume 771.295070
_symmetry_space_group_name_H-M "P -1"
_symmetry_group_IT_number 2
_symmetry_cell_setting 'triclinic'
loop_
_space_group_symop_operation_xyz
x,y,z
-x,-y,-z
loop_
_atom_site_type_symbol
_atom_site_label
_atom_site_fract_x
_atom_site_fract_y
_atom_site_fract_z
Si Si1 0.144865 0.239870 0.883189
Si Si2 0.141079 0.291754 0.657963
Si Si3 0.322213 0.624893 0.026470
Si Si4 0.508622 0.678650 0.770318
Si Si5 0.027121 0.192695 0.347823
Si Si6 0.979162 0.300190 0.057950
Si Si7 0.718055 0.609072 0.737677
Si Si8 0.195100 0.835810 0.767919
O O1 0.096204 0.229524 0.733812
O O2 0.161405 0.411647 0.866793
O O3 0.391348 0.385966 0.109874
O O4 0.939373 0.939860 0.835318
O O5 0.417895 0.566789 0.816109
O O6 0.031205 0.348408 0.467203
O O7 0.007022 0.026690 0.580234
O O8 0.343621 0.515496 0.180062
O O9 0.582367 0.911733 0.154863
O O10 0.196226 0.658169 0.891408
O O11 0.285080 0.500627 0.533870
O O12 0.723185 0.015568 0.853057
O O13 0.816161 0.069906 0.211439
O O14 0.995356 0.213553 0.204485
O O15 0.000000 0.500000 0.000000
O O16 0.206653 0.465847 0.189518
O O17 0.500000 0.500000 0.500000
#
# Coordination Sequence:
#
# PCOD8017048 Si02
#       8
#     2   2   2   2   2   2   2   2
#     4  11  22  38  65  92 124 166 218 265 308 391
#     4  11  20  39  65  99 126 159 220 267 327 379
#     4  11  23  40  61  90 132 169 212 259 323 387
#     4  10  22  37  66  98 124 166 209 273 330 374
#     4  11  21  41  69  95 128 164 218 275 317 388
#     4  11  25  44  65  97 132 171 219 272 324 385
#     4  11  24  44  62  90 126 178 218 259 318 389
#     4  10  23  39  62  93 130 167 203 270 327 379
#
# _framework density 20.744330999999999
#
# number of rings (size 3 to 8) (size 9 to 14) (size 15 to 20)
#    0.000    1.250    2.500    5.250    3.500    1.000 
#    4.500    0.000    0.000    0.000    0.000    0.000 
#    0.000    0.000    0.000    0.000    0.000    0.000 
#
# Total GULP energy -198324.179402 kJ/mol
# GULP energy per Si atom -12395.261213 kJ/mol
# Density = 2.069712 g / cm^3
# Si number density = 20.744331 Si / 1000 Ang^3
#
#
#
# Elastic Constant Matrix: (Units=GPa)
#
#
# Indices 1 2 3 4 5 6 
#
# 1 107.4767 28.5003 46.0820 -0.6517 -2.3864 -3.4069
# 2 28.5003 72.9349 42.3713 -0.7838 2.9809 0.6634
# 3 46.0820 42.3713 91.7660 -0.6798 13.5385 -4.1680
# 4 -0.6517 -0.7838 -0.6798 24.7291 1.7286 -1.8762
# 5 -2.3864 2.9809 13.5385 1.7286 28.3580 -1.5954
# 6 -3.4069 0.6634 -4.1680 -1.8762 -1.5954 33.1541
#
#
#
# Elastic Compliance Matrix: (Units=1/GPa)
#
#
# Indices 1 2 3 4 5 6 
#
# 1 0.012450 -0.001464 -0.006162 -0.000125 0.004192 0.000729
# 2 -0.001464 0.019119 -0.008425 0.000096 0.001799 -0.001500
# 3 -0.006162 -0.008425 0.019257 0.000834 -0.008788 0.001581
# 4 -0.000125 0.000096 0.000834 0.040827 -0.002780 0.002267
# 5 0.004192 0.001799 -0.008788 -0.002780 0.039851 0.001050
# 6 0.000729 -0.001500 0.001581 0.002267 0.001050 0.030645
#
#
# Mechanical properties :
#
#
# Convention : Reuss Voigt Hill
#
# Bulk Modulus (GPa) = 53.41403 56.23163 54.82283
# Shear Modulus (GPa) = 24.93849 27.59649 26.26749
#
# Velocity S-wave (km/s) = 3.47101 3.65130 3.56230
# Velocity P-wave (km/s) = 6.47059 6.70387 6.58826
#
# Compressibility (1/GPa) = 0.01872167
#
# Stress axis : x y z
#
# Youngs Moduli (GPa) = 80.31962 52.30431 51.93051
#
# Poissons Ratio (x) = 0.07660 0.32001
# Poissons Ratio (y) = 0.11763 0.43753
# Poissons Ratio (z) = 0.49495 0.44068
#
# Static dielectric constant tensor:
#      x y z
#    x 4.054580 0.031140 0.277000 
#    y 0.031140 3.786430 -0.058290 
#    z 0.277000 -0.058290 3.773060 
# 
# 
# High freq. dielectric constant tensor:
#      x y z
#    x 1.826160 0.008290 0.006670 
#    y 0.008290 1.804240 -0.002850 
#    z 0.006670 -0.002850 1.808790 
# 
# From -- ./inp_files/540965.got.cif
#   From: 2010.06.25/outbox.cif.g09.slc.cpg/sg2_271_cif.got.tgz:540965.got - 2010.06.27 13:26:56.
