data_PCOD8017986
_publ_section_title
;
Structure prediction by ZEFSAII (Michael W. Deem and Ramdas Pophale) SiO2 
 PCOD8017986
Probable space group: P -1
;
_chemical_formula_sum "Si O2"
_cell_formula_units_Z 12
_cell_length_a 11.300093
_cell_length_b 8.684274
_cell_length_c 9.145706
_cell_angle_alpha 68.576398
_cell_angle_beta 69.975044
_cell_angle_gamma 35.980098
_cell_volume 489.046065
_symmetry_space_group_name_H-M "P -1"
_symmetry_group_IT_number 2
_symmetry_cell_setting 'triclinic'
loop_
_space_group_symop_operation_xyz
x,y,z
-x,-y,-z
loop_
_atom_site_type_symbol
_atom_site_label
_atom_site_fract_x
_atom_site_fract_y
_atom_site_fract_z
Si Si1 0.992940 0.465865 0.346440
Si Si2 0.455835 0.136917 0.621686
Si Si3 0.144010 0.787551 0.882811
Si Si4 0.488023 0.404817 0.334231
Si Si5 0.697345 0.620120 0.835356
Si Si6 0.123951 0.997695 0.348176
O O1 0.777793 0.635602 0.316197
O O2 0.000000 0.500000 0.500000
O O3 0.070011 0.556223 0.208624
O O4 0.142731 0.157561 0.360567
O O5 0.512591 0.270864 0.519829
O O6 0.500000 0.000000 0.500000
O O7 0.567577 0.924467 0.780533
O O8 0.287623 0.781371 0.753756
O O9 0.306739 0.483992 0.979219
O O10 0.997178 0.858479 0.801917
O O11 0.000000 0.000000 0.000000
O O12 0.362821 0.431775 0.257422
O O13 0.352938 0.702445 0.326675
O O14 0.000000 0.000000 0.500000
#
# Coordination Sequence:
#
# PCOD8017986 Si02
#       6
#     2   2   2   2   2   2
#     4  12  24  46  75 108 149 194 247 306 369 438
#     4  10  22  39  75 108 140 190 247 295 364 438
#     4  12  29  47  77 109 156 197 243 310 374 439
#     4  11  24  47  78 112 145 195 255 299 369 444
#     4  11  25  43  75 106 144 199 236 303 373 437
#     4  12  27  47  76 114 146 194 255 306 367 442
#
# _framework density 24.537564
#
# number of rings (size 3 to 8) (size 9 to 14) (size 15 to 20)
#    0.000    0.667    6.667    0.500    7.000    2.667 
#    0.000    1.667    0.000    0.000    0.000    0.000 
#    0.000    0.000    0.000    0.000    0.000    0.000 
#
# Total GULP energy -148715.002719 kJ/mol
# GULP energy per Si atom -12392.916893 kJ/mol
# Density = 2.448172 g / cm^3
# Si number density = 24.537564 Si / 1000 Ang^3
#
#
#
# Elastic Constant Matrix: (Units=GPa)
#
#
# Indices 1 2 3 4 5 6 
#
# 1 102.2059 44.1583 39.0804 6.1223 -20.0699 6.1091
# 2 44.1583 155.1839 48.1952 -12.1613 2.3990 -3.0558
# 3 39.0804 48.1952 93.1909 -29.2523 2.5885 -4.1784
# 4 6.1223 -12.1613 -29.2523 54.8660 -6.8519 -1.5593
# 5 -20.0699 2.3990 2.5885 -6.8519 44.5295 12.3905
# 6 6.1091 -3.0558 -4.1784 -1.5593 12.3905 42.5102
#
#
#
# Elastic Compliance Matrix: (Units=1/GPa)
#
#
# Indices 1 2 3 4 5 6 
#
# 1 0.016442 -0.003008 -0.007629 -0.005638 0.008850 -0.006115
# 2 -0.003008 0.008244 -0.002730 0.000504 -0.001937 0.001340
# 3 -0.007629 -0.002730 0.018739 0.009852 -0.004057 0.004286
# 4 -0.005638 0.000504 0.009852 0.024277 -0.000172 0.002755
# 5 0.008850 -0.001937 -0.004057 -0.000172 0.029672 -0.010465
# 6 -0.006115 0.001340 0.004286 0.002755 -0.010465 0.028071
#
#
# Mechanical properties :
#
#
# Convention : Reuss Voigt Hill
#
# Bulk Modulus (GPa) = 59.91354 68.16095 64.03724
# Shear Modulus (GPa) = 31.69728 42.99093 37.34411
#
# Velocity S-wave (km/s) = 3.59804 4.19029 3.90541
# Velocity P-wave (km/s) = 6.45998 7.15890 6.81840
#
# Compressibility (1/GPa) = 0.01669072
#
# Stress axis : x y z
#
# Youngs Moduli (GPa) = 60.81907 121.30646 53.36432
#
# Poissons Ratio (x) = 0.36494 0.40711
# Poissons Ratio (y) = 0.18297 0.14567
# Poissons Ratio (z) = 0.46399 0.33113
#
# Static dielectric constant tensor:
#      x y z
#    x 5.034260 -0.501450 -0.356650 
#    y -0.501450 5.345570 -0.243210 
#    z -0.356650 -0.243210 4.584830 
# 
# 
# High freq. dielectric constant tensor:
#      x y z
#    x 1.990380 -0.005670 -0.008680 
#    y -0.005670 1.984350 -0.018210 
#    z -0.008680 -0.018210 1.958940 
# 
# From -- ./inp_files/237491.got.cif
#   From: 2010.06.25/outbox.cif.g09.slc.cpg/sg2_119_cif.got.tgz:237491.got - 2010.06.27 13:26:56.
