data_PCOD8017785
_publ_section_title
;
Structure prediction by ZEFSAII (Michael W. Deem and Ramdas Pophale) SiO2 
 PCOD8017785
Probable space group: P -1
;
_chemical_formula_sum "Si O2"
_cell_formula_units_Z 12
_cell_length_a 9.196078
_cell_length_b 5.337244
_cell_length_c 18.460077
_cell_angle_alpha 118.650609
_cell_angle_beta 134.713694
_cell_angle_gamma 82.613974
_cell_volume 532.427047
_symmetry_space_group_name_H-M "P -1"
_symmetry_group_IT_number 2
_symmetry_cell_setting 'triclinic'
loop_
_space_group_symop_operation_xyz
x,y,z
-x,-y,-z
loop_
_atom_site_type_symbol
_atom_site_label
_atom_site_fract_x
_atom_site_fract_y
_atom_site_fract_z
Si Si1 0.586175 0.971371 0.273769
Si Si2 0.094981 0.864888 0.080002
Si Si3 0.158515 0.912343 0.490205
Si Si4 0.977744 0.222704 0.356439
Si Si5 0.416458 0.554807 0.901246
Si Si6 0.159584 0.952270 0.868418
O O1 0.352264 0.983308 0.173880
O O2 0.629487 0.689792 0.211804
O O3 0.609321 0.964325 0.368661
O O4 0.786540 0.250217 0.347849
O O5 0.047117 0.016769 0.157837
O O6 0.000000 0.500000 0.000000
O O7 0.000000 0.000000 0.000000
O O8 0.101045 0.550730 0.410672
O O9 0.150514 0.085424 0.436097
O O10 0.000000 0.000000 0.500000
O O11 0.866719 0.990113 0.218938
O O12 0.191177 0.624938 0.839762
O O13 0.500000 0.500000 0.000000
O O14 0.624388 0.832718 0.985229
#
# Coordination Sequence:
#
# PCOD8017785 Si02
#       6
#     2   2   2   2   2   2
#     4  11  22  43  68  94 133 170 215 268 321 381
#     4  12  28  43  62  98 139 170 207 260 333 389
#     4  10  22  39  65  97 122 164 221 269 311 366
#     4  11  23  40  68  94 124 166 222 266 310 375
#     4  11  21  38  66  94 125 172 217 263 320 374
#     4  11  24  39  64  95 131 166 216 267 318 384
#
# _framework density 22.538298000000001
#
# number of rings (size 3 to 8) (size 9 to 14) (size 15 to 20)
#    0.000    1.000    3.333    5.000    2.333    4.000 
#    0.000    1.667    0.000    0.000    0.000    1.167 
#    0.000    0.000    0.000    0.000    0.000    0.000 
#
# Total GULP energy -148679.194059 kJ/mol
# GULP energy per Si atom -12389.932838 kJ/mol
# Density = 2.248700 g / cm^3
# Si number density = 22.538298 Si / 1000 Ang^3
#
#
#
# Elastic Constant Matrix: (Units=GPa)
#
#
# Indices 1 2 3 4 5 6 
#
# 1 103.7907 37.0350 23.0594 -12.6735 -0.6180 -18.3838
# 2 37.0350 153.4608 56.5705 -21.2711 -1.3245 -8.7044
# 3 23.0594 56.5705 118.9469 -22.0190 -5.3681 -5.7516
# 4 -12.6735 -21.2711 -22.0190 42.3669 -0.4500 -5.8762
# 5 -0.6180 -1.3245 -5.3681 -0.4500 31.6355 -4.3655
# 6 -18.3838 -8.7044 -5.7516 -5.8762 -4.3655 29.6860
#
#
#
# Elastic Compliance Matrix: (Units=1/GPa)
#
#
# Indices 1 2 3 4 5 6 
#
# 1 0.012221 -0.001849 -0.000382 0.003631 0.001232 0.007852
# 2 -0.001849 0.008526 -0.003233 0.002208 -0.000036 0.001160
# 3 -0.000382 -0.003233 0.011010 0.004298 0.002077 0.002105
# 4 0.003631 0.002208 0.004298 0.029440 0.002685 0.009951
# 5 0.001232 -0.000036 0.002077 0.002685 0.032924 0.006528
# 6 0.007852 0.001160 0.002105 0.009951 0.006528 0.042226
#
#
# Mechanical properties :
#
#
# Convention : Reuss Voigt Hill
#
# Bulk Modulus (GPa) = 48.01372 67.72536 57.86954
# Shear Modulus (GPa) = 32.42138 38.03992 35.23065
#
# Velocity S-wave (km/s) = 3.79687 4.11273 3.95795
# Velocity P-wave (km/s) = 6.36954 7.25720 6.82781
#
# Compressibility (1/GPa) = 0.02082738
#
# Stress axis : x y z
#
# Youngs Moduli (GPa) = 81.82707 117.28905 90.82478
#
# Poissons Ratio (x) = 0.21688 0.03473
# Poissons Ratio (y) = 0.15131 0.29367
# Poissons Ratio (z) = 0.03129 0.37923
#
# Static dielectric constant tensor:
#      x y z
#    x 3.858540 -0.090520 -0.191250 
#    y -0.090520 4.559380 0.386400 
#    z -0.191250 0.386400 7.318430 
# 
# 
# High freq. dielectric constant tensor:
#      x y z
#    x 1.838320 -0.008400 -0.017560 
#    y -0.008400 1.898220 -0.010110 
#    z -0.017560 -0.010110 1.909250 
# 
# From -- ./inp_files/59387.got.cif
#   From: 2010.06.25/outbox.cif.g09.slc.cpg/sg2_30_cif.got.tgz:59387.got - 2010.06.27 13:26:56.
