data_PCOD8017291
_publ_section_title
;
Structure prediction by ZEFSAII (Michael W. Deem and Ramdas Pophale) SiO2 
 PCOD8017291
Probable space group: P -1
;
_chemical_formula_sum "Si O2"
_cell_formula_units_Z 16
_cell_length_a 12.898811
_cell_length_b 6.697468
_cell_length_c 14.576883
_cell_angle_alpha 87.997700
_cell_angle_beta 60.458291
_cell_angle_gamma 50.054363
_cell_volume 761.378953
_symmetry_space_group_name_H-M "P -1"
_symmetry_group_IT_number 2
_symmetry_cell_setting 'triclinic'
loop_
_space_group_symop_operation_xyz
x,y,z
-x,-y,-z
loop_
_atom_site_type_symbol
_atom_site_label
_atom_site_fract_x
_atom_site_fract_y
_atom_site_fract_z
Si Si1 0.550694 0.860891 0.346717
Si Si2 0.024662 0.680513 0.532585
Si Si3 0.795530 0.270631 0.698390
Si Si4 0.769556 0.761316 0.400791
Si Si5 0.231431 0.708068 0.829742
Si Si6 0.860757 0.540103 0.005256
Si Si7 0.001801 0.182043 0.776160
Si Si8 0.571806 0.153788 0.188568
O O1 0.726118 0.717177 0.322648
O O2 0.596290 0.613566 0.270685
O O3 0.406256 0.963207 0.477601
O O4 0.493522 0.121282 0.307727
O O5 0.121629 0.689465 0.414415
O O6 0.138564 0.520059 0.576155
O O7 0.000000 0.500000 0.500000
O O8 0.845194 0.989860 0.643279
O O9 0.870821 0.220740 0.767572
O O10 0.590635 0.545517 0.793859
O O11 0.876940 0.834357 0.342823
O O12 0.138386 0.682693 0.946587
O O13 0.288538 0.850947 0.843071
O O14 0.108021 0.894512 0.793845
O O15 0.675640 0.872584 0.083583
O O16 0.904749 0.456144 0.880676
O O17 0.000000 0.500000 0.000000
#
# Coordination Sequence:
#
# PCOD8017291 Si02
#       8
#     2   2   2   2   2   2   2   2
#     4  10  22  38  65  97 133 164 221 276 324 378
#     4  11  23  42  63  89 138 181 211 256 325 391
#     4  11  26  40  65  98 133 175 219 260 325 399
#     4  11  21  40  63  97 131 172 214 274 325 381
#     4  11  23  42  70  92 126 171 219 272 325 389
#     4  11  24  45  73  95 127 169 222 279 326 378
#     4  12  23  42  68  99 128 176 222 265 326 390
#     4  11  23  43  65  97 130 173 215 269 329 383
#
# _framework density 21.014505
#
# number of rings (size 3 to 8) (size 9 to 14) (size 15 to 20)
#    0.000    1.000    5.000    1.875    1.750    1.000 
#    0.000    0.625    0.000    0.000    0.000    0.000 
#    0.000    0.000    0.000    0.000    0.000    0.000 
#
# Total GULP energy -198377.426693 kJ/mol
# GULP energy per Si atom -12398.589168 kJ/mol
# Density = 2.096668 g / cm^3
# Si number density = 21.014505 Si / 1000 Ang^3
#
#
#
# Elastic Constant Matrix: (Units=GPa)
#
#
# Indices 1 2 3 4 5 6 
#
# 1 90.5559 51.2564 36.2177 7.8986 11.2813 -6.9265
# 2 51.2564 119.1564 32.5242 13.2087 5.4379 -5.2576
# 3 36.2177 32.5242 84.7167 3.9217 -0.5478 5.6683
# 4 7.8986 13.2087 3.9217 32.8861 -0.4444 1.0220
# 5 11.2813 5.4379 -0.5478 -0.4444 23.7726 3.0913
# 6 -6.9265 -5.2576 5.6683 1.0220 3.0913 41.1279
#
#
#
# Elastic Compliance Matrix: (Units=1/GPa)
#
#
# Indices 1 2 3 4 5 6 
#
# 1 0.017805 -0.005376 -0.005773 -0.001651 -0.007870 0.003739
# 2 -0.005376 0.011695 -0.002112 -0.003190 -0.000361 0.000987
# 3 -0.005773 -0.002112 0.015328 0.000576 0.004064 -0.003675
# 4 -0.001651 -0.003190 0.000576 0.032103 0.002353 -0.001740
# 5 -0.007870 -0.000361 0.004064 0.002353 0.046736 -0.005503
# 6 0.003739 0.000987 -0.003675 -0.001740 -0.005503 0.026034
#
#
# Mechanical properties :
#
#
# Convention : Reuss Voigt Hill
#
# Bulk Modulus (GPa) = 54.62557 59.38060 57.00309
# Shear Modulus (GPa) = 27.42355 31.18604 29.30480
#
# Velocity S-wave (km/s) = 3.61637 3.85648 3.73836
# Velocity P-wave (km/s) = 6.59456 6.93889 6.76892
#
# Compressibility (1/GPa) = 0.01830644
#
# Stress axis : x y z
#
# Youngs Moduli (GPa) = 56.16351 85.50572 65.23870
#
# Poissons Ratio (x) = 0.45970 0.37660
# Poissons Ratio (y) = 0.30195 0.13780
# Poissons Ratio (z) = 0.32421 0.18061
#
# Static dielectric constant tensor:
#      x y z
#    x 3.681260 -0.100150 0.120750 
#    y -0.100150 3.721420 0.089730 
#    z 0.120750 0.089730 3.818540 
# 
# 
# High freq. dielectric constant tensor:
#      x y z
#    x 1.810650 0.002820 0.002540 
#    y 0.002820 1.834080 0.007700 
#    z 0.002540 0.007700 1.824860 
# 
# From -- ./inp_files/109736.got.cif
#   From: 2010.06.25/outbox.cif.g09.slc.cpg/sg2_55_cif.got.tgz:109736.got - 2010.06.27 13:26:56.
