data_PCOD8017434
_publ_section_title
;
Structure prediction by ZEFSAII (Michael W. Deem and Ramdas Pophale) SiO2 
 PCOD8017434
Probable space group: P -1
;
_chemical_formula_sum "Si O2"
_cell_formula_units_Z 16
_cell_length_a 13.939043
_cell_length_b 14.331064
_cell_length_c 9.217467
_cell_angle_alpha 122.053812
_cell_angle_beta 123.061574
_cell_angle_gamma 28.995138
_cell_volume 741.496435
_symmetry_space_group_name_H-M "P -1"
_symmetry_group_IT_number 2
_symmetry_cell_setting 'triclinic'
loop_
_space_group_symop_operation_xyz
x,y,z
-x,-y,-z
loop_
_atom_site_type_symbol
_atom_site_label
_atom_site_fract_x
_atom_site_fract_y
_atom_site_fract_z
Si Si1 0.885836 0.629521 0.154267
Si Si2 0.225447 0.647798 0.352127
Si Si3 0.828987 0.622675 0.579789
Si Si4 0.202226 0.111868 0.131236
Si Si5 0.584014 0.286945 0.522418
Si Si6 0.251018 0.495975 0.970676
Si Si7 0.764157 0.950835 0.220345
Si Si8 0.478019 0.757974 0.267653
O O1 0.759747 0.628143 0.117816
O O2 0.736972 0.848455 0.175832
O O3 0.061723 0.531126 0.327658
O O4 0.000000 0.500000 0.000000
O O5 0.359873 0.510854 0.490142
O O6 0.246619 0.760500 0.427651
O O7 0.993845 0.804695 0.318552
O O8 0.319531 0.501632 0.177967
O O9 0.746572 0.802403 0.723968
O O10 0.635542 0.715038 0.436502
O O11 0.000000 0.500000 0.500000
O O12 0.962336 0.285383 0.074842
O O13 0.290545 0.969943 0.217228
O O14 0.291642 0.003899 0.959300
O O15 0.607139 0.254033 0.687588
O O16 0.615210 0.147420 0.347961
O O17 0.410940 0.397899 0.896324
#
# Coordination Sequence:
#
# PCOD8017434 Si02
#       8
#     2   2   2   2   2   2   2   2
#     4  11  19  38  67  94 116 167 211 240 312 378
#     4  10  22  47  66  86 126 161 213 268 300 355
#     4  11  21  38  60  88 128 170 195 246 319 364
#     4  10  22  39  59  88 125 165 202 248 310 371
#     4  11  26  39  65  98 116 165 217 254 311 363
#     4  10  22  42  64  87 128 169 198 254 315 363
#     4  11  22  42  67  90 127 162 211 258 305 367
#     4  12  24  38  59  93 129 159 204 256 307 372
#
# _framework density 21.577985999999999
#
# number of rings (size 3 to 8) (size 9 to 14) (size 15 to 20)
#    0.000    1.250    6.250    2.250    1.750    2.500 
#    0.000    4.375    0.000    0.000    0.000    0.000 
#    0.000    0.000    0.000    0.000    0.000    0.000 
#
# Total GULP energy -198421.184794 kJ/mol
# GULP energy per Si atom -12401.324050 kJ/mol
# Density = 2.152887 g / cm^3
# Si number density = 21.577986 Si / 1000 Ang^3
#
#
#
# Elastic Constant Matrix: (Units=GPa)
#
#
# Indices 1 2 3 4 5 6 
#
# 1 65.8295 39.2921 24.4995 -1.6119 -19.0219 19.8039
# 2 39.2921 71.2269 18.2185 -10.3849 -10.8030 24.3881
# 3 24.4995 18.2185 66.4525 -8.7078 -12.9929 15.9579
# 4 -1.6119 -10.3849 -8.7078 43.9380 1.4672 -6.9962
# 5 -19.0219 -10.8030 -12.9929 1.4672 36.6590 -4.4520
# 6 19.8039 24.3881 15.9579 -6.9962 -4.4520 33.4809
#
#
#
# Elastic Compliance Matrix: (Units=1/GPa)
#
#
# Indices 1 2 3 4 5 6 
#
# 1 0.027939 -0.011541 -0.004547 -0.003787 0.008962 -0.005551
# 2 -0.011541 0.024376 0.000565 0.003793 -0.000021 -0.010408
# 3 -0.004547 0.000565 0.019033 0.002701 0.003749 -0.005730
# 4 -0.003787 0.003793 0.002701 0.024588 -0.000478 0.003264
# 5 0.008962 -0.000021 0.003749 -0.000478 0.032931 -0.002793
# 6 -0.005551 -0.010408 -0.005730 0.003264 -0.002793 0.043775
#
#
# Mechanical properties :
#
#
# Convention : Reuss Voigt Hill
#
# Bulk Modulus (GPa) = 24.81440 40.83657 32.82548
# Shear Modulus (GPa) = 23.02855 30.91551 26.97203
#
# Velocity S-wave (km/s) = 3.27038 3.78925 3.53934
# Velocity P-wave (km/s) = 5.07793 6.17339 5.65226
#
# Compressibility (1/GPa) = 0.04029918
#
# Stress axis : x y z
#
# Youngs Moduli (GPa) = 35.79266 41.02463 52.54046
#
# Poissons Ratio (x) = 0.47348 0.23891
# Poissons Ratio (y) = 0.41310 -0.02967
# Poissons Ratio (z) = 0.16276 -0.02316
#
# Static dielectric constant tensor:
#      x y z
#    x 4.032270 0.198620 -0.115110 
#    y 0.198620 3.883180 -0.091730 
#    z -0.115110 -0.091730 4.106600 
# 
# 
# High freq. dielectric constant tensor:
#      x y z
#    x 1.826480 0.005050 -0.010010 
#    y 0.005050 1.846660 -0.009870 
#    z -0.010010 -0.009870 1.858720 
# 
# From -- ./inp_files/315772.got.cif
#   From: 2010.06.25/outbox.cif.g09.slc.cpg/sg2_158_cif.got.tgz:315772.got - 2010.06.27 13:26:56.
