data_PCOD8017778
_publ_section_title
;
Structure prediction by ZEFSAII (Michael W. Deem and Ramdas Pophale) SiO2 
 PCOD8017778
Probable space group: P -1
;
_chemical_formula_sum "Si O2"
_cell_formula_units_Z 12
_cell_length_a 15.569530
_cell_length_b 8.523548
_cell_length_c 15.725869
_cell_angle_alpha 131.881203
_cell_angle_beta 160.066880
_cell_angle_gamma 45.679025
_cell_volume 508.527768
_symmetry_space_group_name_H-M "P -1"
_symmetry_group_IT_number 2
_symmetry_cell_setting 'triclinic'
loop_
_space_group_symop_operation_xyz
x,y,z
-x,-y,-z
loop_
_atom_site_type_symbol
_atom_site_label
_atom_site_fract_x
_atom_site_fract_y
_atom_site_fract_z
Si Si1 0.618878 0.062259 0.820646
Si Si2 0.651557 0.077015 0.046855
Si Si3 0.210080 0.515370 0.632706
Si Si4 0.411129 0.226278 0.451141
Si Si5 0.188490 0.650286 0.018596
Si Si6 0.823148 0.760977 0.230714
O O1 0.365873 0.271071 0.663545
O O2 0.828506 0.139582 0.983735
O O3 0.554159 0.846964 0.642528
O O4 0.717291 0.988734 0.980529
O O5 0.631535 0.334892 0.120779
O O6 0.869289 0.918677 0.253970
O O7 0.364918 0.080288 0.817254
O O8 0.000000 0.500000 0.500000
O O9 0.095057 0.635940 0.481894
O O10 0.611930 0.360850 0.719344
O O11 0.500000 0.000000 0.500000
O O12 0.103703 0.348509 0.224199
O O13 0.307446 0.423485 0.995530
#
# Coordination Sequence:
#
# PCOD8017778 Si02
#       6
#     2   2   2   2   2   2
#     4  11  21  41  64  95 126 161 221 267 317 382
#     4  11  24  40  59  95 127 170 207 264 330 383
#     4  12  22  38  64  96 124 168 213 265 321 387
#     4  10  22  39  65  96 125 166 219 275 321 372
#     4  11  22  41  67  93 126 173 217 270 321 382
#     4  11  23  41  61  88 134 167 211 259 327 391
#
# _framework density 23.597531
#
# number of rings (size 3 to 8) (size 9 to 14) (size 15 to 20)
#    0.000    1.000    3.333    6.000    0.000    1.333 
#    0.000    1.667    0.000    0.000    0.000    1.167 
#    0.000    0.000    0.000    0.000    0.000    0.000 
#
# Total GULP energy -148693.419821 kJ/mol
# GULP energy per Si atom -12391.118318 kJ/mol
# Density = 2.354382 g / cm^3
# Si number density = 23.597531 Si / 1000 Ang^3
#
#
#
# Elastic Constant Matrix: (Units=GPa)
#
#
# Indices 1 2 3 4 5 6 
#
# 1 132.8530 24.9344 43.9430 -3.9649 -33.2018 -3.4235
# 2 24.9344 43.9582 10.0270 -2.4669 -7.6950 1.3546
# 3 43.9430 10.0270 100.5498 -0.9473 -4.2384 -11.5030
# 4 -3.9649 -2.4669 -0.9473 43.2761 -6.3662 -11.3951
# 5 -33.2018 -7.6950 -4.2384 -6.3662 29.0375 1.5516
# 6 -3.4235 1.3546 -11.5030 -11.3951 1.5516 40.2909
#
#
#
# Elastic Compliance Matrix: (Units=1/GPa)
#
#
# Indices 1 2 3 4 5 6 
#
# 1 0.013584 -0.003893 -0.004886 0.003097 0.014456 0.000210
# 2 -0.003893 0.025706 -0.000884 0.001142 0.002548 -0.001222
# 3 -0.004886 -0.000884 0.012372 0.000030 -0.004186 0.003317
# 4 0.003097 0.001142 0.000030 0.026791 0.009324 0.007451
# 5 0.014456 0.002548 -0.004186 0.009324 0.053046 0.000542
# 6 0.000210 -0.001222 0.003317 0.007451 0.000542 0.027912
#
#
# Mechanical properties :
#
#
# Convention : Reuss Voigt Hill
#
# Bulk Modulus (GPa) = 30.92426 48.35220 39.63823
# Shear Modulus (GPa) = 26.38289 35.75134 31.06711
#
# Velocity S-wave (km/s) = 3.34733 3.89658 3.63235
# Velocity P-wave (km/s) = 5.29838 6.38587 5.86737
#
# Compressibility (1/GPa) = 0.03233707
#
# Stress axis : x y z
#
# Youngs Moduli (GPa) = 73.61374 38.90068 80.82730
#
# Poissons Ratio (x) = 0.15144 0.39493
# Poissons Ratio (y) = 0.28658 0.07144
# Poissons Ratio (z) = 0.35968 0.03438
#
# Static dielectric constant tensor:
#      x y z
#    x 4.392540 -0.155310 -0.476350 
#    y -0.155310 4.235390 0.333160 
#    z -0.476350 0.333160 4.605520 
# 
# 
# High freq. dielectric constant tensor:
#      x y z
#    x 1.929580 -0.021490 -0.017940 
#    y -0.021490 1.919060 0.002990 
#    z -0.017940 0.002990 1.926770 
# 
# From -- ./inp_files/18482.got.cif
#   From: 2010.06.25/outbox.cif.g09.slc.cpg/sg2_10_cif.got.tgz:18482.got - 2010.06.27 13:26:56.
