data_PCOD8017898
_publ_section_title
;
Structure prediction by ZEFSAII (Michael W. Deem and Ramdas Pophale) SiO2 
 PCOD8017898
Probable space group: P -1
;
_chemical_formula_sum "Si O2"
_cell_formula_units_Z 14
_cell_length_a 9.467049
_cell_length_b 7.359165
_cell_length_c 10.206213
_cell_angle_alpha 85.900848
_cell_angle_beta 115.978124
_cell_angle_gamma 67.965306
_cell_volume 568.306098
_symmetry_space_group_name_H-M "P -1"
_symmetry_group_IT_number 2
_symmetry_cell_setting 'triclinic'
loop_
_space_group_symop_operation_xyz
x,y,z
-x,-y,-z
loop_
_atom_site_type_symbol
_atom_site_label
_atom_site_fract_x
_atom_site_fract_y
_atom_site_fract_z
Si Si1 0.166395 0.444829 0.886639
Si Si2 0.611369 0.611761 0.274554
Si Si3 0.502833 0.637619 0.612904
Si Si4 0.921490 0.112657 0.096562
Si Si5 0.178989 0.395631 0.395940
Si Si6 0.127907 0.009915 0.440248
Si Si7 0.631656 0.993043 0.945486
O O1 0.301921 0.438241 0.829957
O O2 0.999758 0.431116 0.750295
O O3 0.892241 0.346776 0.066532
O O4 0.251043 0.247772 0.030020
O O5 0.488539 0.494567 0.246000
O O6 0.758983 0.524928 0.454192
O O7 0.485058 0.858506 0.228272
O O8 0.500000 0.500000 0.500000
O O9 0.670798 0.680757 0.653712
O O10 0.328276 0.846899 0.546032
O O11 0.057332 0.984999 0.271631
O O12 0.740833 0.100871 0.048433
O O13 0.000000 0.000000 0.000000
O O14 0.127341 0.226253 0.436967
O O15 0.000000 0.000000 0.500000
O O16 0.500000 0.000000 0.000000
#
# Coordination Sequence:
#
# PCOD8017898 Si02
#       7
#     2   2   2   2   2   2   2
#     4  10  23  47  70 103 139 197 238 296 369 434
#     4  10  22  42  69 107 141 185 242 300 364 436
#     4  10  22  39  68 104 141 183 232 308 364 413
#     4  11  27  46  71 101 150 188 244 297 366 443
#     4  10  22  40  71 105 142 180 243 305 356 432
#     4  11  25  45  73 108 140 196 246 299 366 434
#     4  10  25  44  71 103 145 188 241 295 368 438
#
# _framework density 24.634611
#
# number of rings (size 3 to 8) (size 9 to 14) (size 15 to 20)
#    0.000    1.714    0.000    2.571   12.000    2.857 
#    2.571    0.000    0.000    0.000    0.000    0.000 
#    0.000    0.000    0.000    0.000    0.000    0.000 
#
# Total GULP energy -173490.691872 kJ/mol
# GULP energy per Si atom -12392.192277 kJ/mol
# Density = 2.457854 g / cm^3
# Si number density = 24.634611 Si / 1000 Ang^3
#
#
#
# Elastic Constant Matrix: (Units=GPa)
#
#
# Indices 1 2 3 4 5 6 
#
# 1 136.0980 18.8034 29.9933 -12.0584 0.0710 6.5576
# 2 18.8034 96.4697 36.3681 -11.9307 -0.1506 -6.4550
# 3 29.9933 36.3681 89.8192 -18.9134 -6.1254 -10.0406
# 4 -12.0584 -11.9307 -18.9134 38.3418 -9.3819 5.7062
# 5 0.0710 -0.1506 -6.1254 -9.3819 21.8682 0.1223
# 6 6.5576 -6.4550 -10.0406 5.7062 0.1223 40.4421
#
#
#
# Elastic Compliance Matrix: (Units=1/GPa)
#
#
# Indices 1 2 3 4 5 6 
#
# 1 0.008212 -0.000654 -0.002413 0.001512 -0.000046 -0.002248
# 2 -0.000654 0.012389 -0.004517 0.001130 -0.000697 0.000805
# 3 -0.002413 -0.004517 0.016104 0.007244 0.007581 0.002623
# 4 0.001512 0.001130 0.007244 0.035163 0.017136 -0.003280
# 5 -0.000046 -0.000697 0.007581 0.017136 0.055203 -0.000807
# 6 -0.002248 0.000805 0.002623 -0.003280 -0.000807 0.026336
#
#
# Mechanical properties :
#
#
# Convention : Reuss Voigt Hill
#
# Bulk Modulus (GPa) = 46.43628 54.74630 50.59129
# Shear Modulus (GPa) = 28.44846 35.94523 32.19685
#
# Velocity S-wave (km/s) = 3.40195 3.82401 3.61913
# Velocity P-wave (km/s) = 5.85849 6.46289 6.16810
#
# Compressibility (1/GPa) = 0.02153489
#
# Stress axis : x y z
#
# Youngs Moduli (GPa) = 121.76920 80.71624 62.09604
#
# Poissons Ratio (x) = 0.05282 0.14987
# Poissons Ratio (y) = 0.07968 0.28051
# Poissons Ratio (z) = 0.29389 0.36463
#
# Static dielectric constant tensor:
#      x y z
#    x 5.383700 0.107730 0.173610 
#    y 0.107730 4.507080 -0.797930 
#    z 0.173610 -0.797930 4.566570 
# 
# 
# High freq. dielectric constant tensor:
#      x y z
#    x 2.005250 0.011100 0.002050 
#    y 0.011100 1.966530 -0.026160 
#    z 0.002050 -0.026160 1.974600 
# 
# From -- ./inp_files/378045.got.cif
#   From: 2010.06.25/outbox.cif.g09.slc.cpg/sg2_190_cif.got.tgz:378045.got - 2010.06.27 13:26:56.
