data_PCOD8017095
_publ_section_title
;
Structure prediction by ZEFSAII (Michael W. Deem and Ramdas Pophale) SiO2 
 PCOD8017095
Probable space group: P -1
;
_chemical_formula_sum "Si O2"
_cell_formula_units_Z 16
_cell_length_a 23.149585
_cell_length_b 14.351598
_cell_length_c 14.182660
_cell_angle_alpha 20.008491
_cell_angle_beta 150.237258
_cell_angle_gamma 150.988580
_cell_volume 750.790173
_symmetry_space_group_name_H-M "P -1"
_symmetry_group_IT_number 2
_symmetry_cell_setting 'triclinic'
loop_
_space_group_symop_operation_xyz
x,y,z
-x,-y,-z
loop_
_atom_site_type_symbol
_atom_site_label
_atom_site_fract_x
_atom_site_fract_y
_atom_site_fract_z
Si Si1 0.641776 0.237610 0.146205
Si Si2 0.530004 0.404971 0.455332
Si Si3 0.369205 0.783838 0.053511
Si Si4 0.833304 0.127686 0.197468
Si Si5 0.778816 0.533401 0.596595
Si Si6 0.027108 0.928260 0.949621
Si Si7 0.885737 0.617487 0.210738
Si Si8 0.049132 0.386738 0.395690
O O1 0.753062 0.362983 0.258992
O O2 0.582554 0.899917 0.408554
O O3 0.528253 0.354725 0.881788
O O4 0.701507 0.327124 0.040117
O O5 0.604894 0.457919 0.612200
O O6 0.629335 0.429225 0.489732
O O7 0.293552 0.941524 0.857256
O O8 0.500000 0.000000 0.000000
O O9 0.946886 0.347281 0.207721
O O10 0.846506 0.822779 0.479406
O O11 0.825378 0.284376 0.939642
O O12 0.820907 0.584331 0.498493
O O13 0.073677 0.672383 0.222944
O O14 0.907434 0.793967 0.974954
O O15 0.127800 0.172381 0.924127
O O16 0.995717 0.093719 0.659659
O O17 0.000000 0.500000 0.500000
#
# Coordination Sequence:
#
# PCOD8017095 Si02
#       8
#     2   2   2   2   2   2   2   2
#     4  11  23  37  65  89 123 166 207 249 315 378
#     4  10  22  38  58  92 124 169 206 246 303 373
#     4   9  19  34  55  87 127 158 200 242 294 373
#     4  11  22  36  58  91 129 170 210 253 307 373
#     4  11  22  40  61  86 133 166 210 261 301 363
#     4  11  25  40  65  91 126 153 205 260 324 372
#     4  11  25  45  66  95 129 156 203 268 328 375
#     4  12  23  40  63  94 120 171 213 256 315 367
#
# _framework density 21.310880000000001
#
# number of rings (size 3 to 8) (size 9 to 14) (size 15 to 20)
#    0.000    1.250    1.250    5.625    3.500    5.000 
#    0.000    0.000    0.000    4.500    0.000    0.000 
#    0.000    0.000    0.000    0.000    0.000    0.000 
#
# Total GULP energy -198304.479585 kJ/mol
# GULP energy per Si atom -12394.029974 kJ/mol
# Density = 2.126238 g / cm^3
# Si number density = 21.310880 Si / 1000 Ang^3
#
#
#
# Elastic Constant Matrix: (Units=GPa)
#
#
# Indices 1 2 3 4 5 6 
#
# 1 105.1830 23.4451 21.9580 -3.5289 8.6059 -1.7693
# 2 23.4451 77.4443 -4.3404 -11.6734 6.3060 -12.3982
# 3 21.9580 -4.3404 66.2046 -11.1026 1.2218 0.3509
# 4 -3.5289 -11.6734 -11.1026 27.6496 -2.0650 3.2443
# 5 8.6059 6.3060 1.2218 -2.0650 27.3749 -7.3582
# 6 -1.7693 -12.3982 0.3509 3.2443 -7.3582 22.4306
#
#
#
# Elastic Compliance Matrix: (Units=1/GPa)
#
#
# Indices 1 2 3 4 5 6 
#
# 1 0.011484 -0.004090 -0.004343 -0.002003 -0.003173 -0.002038
# 2 -0.004090 0.016666 0.003589 0.007035 -0.000090 0.007786
# 3 -0.004343 0.003589 0.018154 0.008247 0.000433 0.000306
# 4 -0.002003 0.007035 0.008247 0.042539 0.001277 -0.002132
# 5 -0.003173 -0.000090 0.000433 0.001277 0.041119 0.012997
# 6 -0.002038 0.007786 0.000306 -0.002132 0.012997 0.053292
#
#
# Mechanical properties :
#
#
# Convention : Reuss Voigt Hill
#
# Bulk Modulus (GPa) = 27.31053 36.77305 32.04179
# Shear Modulus (GPa) = 24.37285 29.34229 26.85757
#
# Velocity S-wave (km/s) = 3.38550 3.71464 3.55389
# Velocity P-wave (km/s) = 5.30333 5.97420 5.64873
#
# Compressibility (1/GPa) = 0.03661592
#
# Stress axis : x y z
#
# Youngs Moduli (GPa) = 87.07979 60.00232 55.08413
#
# Poissons Ratio (x) = 0.24540 0.23926
# Poissons Ratio (y) = 0.35614 -0.19771
# Poissons Ratio (z) = 0.37823 -0.21537
#
# Static dielectric constant tensor:
#      x y z
#    x 4.285960 -0.109320 -0.092100 
#    y -0.109320 3.800810 -0.110490 
#    z -0.092100 -0.110490 3.822390 
# 
# 
# High freq. dielectric constant tensor:
#      x y z
#    x 1.833000 0.009210 -0.000600 
#    y 0.009210 1.817470 -0.018870 
#    z -0.000600 -0.018870 1.839090 
# 
# From -- ./inp_files/542984.got.cif
#   From: 2010.06.25/outbox.cif.g09.slc.cpg/sg2_272_cif.got.tgz:542984.got - 2010.06.27 13:26:56.
