data_PCOD8017062
_publ_section_title
;
Structure prediction by ZEFSAII (Michael W. Deem and Ramdas Pophale) SiO2 
 PCOD8017062
Probable space group: P -1
;
_chemical_formula_sum "Si O2"
_cell_formula_units_Z 14
_cell_length_a 15.125700
_cell_length_b 5.268414
_cell_length_c 17.281695
_cell_angle_alpha 59.325574
_cell_angle_beta 149.010248
_cell_angle_gamma 111.424606
_cell_volume 601.731988
_symmetry_space_group_name_H-M "P -1"
_symmetry_group_IT_number 2
_symmetry_cell_setting 'triclinic'
loop_
_space_group_symop_operation_xyz
x,y,z
-x,-y,-z
loop_
_atom_site_type_symbol
_atom_site_label
_atom_site_fract_x
_atom_site_fract_y
_atom_site_fract_z
Si Si1 0.292199 0.545540 0.829767
Si Si2 0.904249 0.563366 0.155445
Si Si3 0.239238 0.408900 0.119406
Si Si4 0.205405 0.105679 0.426477
Si Si5 0.350763 0.145769 0.806459
Si Si6 0.918021 0.896490 0.824969
Si Si7 0.609161 0.540480 0.365462
O O1 0.208241 0.370239 0.861710
O O2 0.238171 0.421699 0.725677
O O3 0.226794 0.902980 0.729557
O O4 0.500000 0.500000 0.000000
O O5 0.005705 0.219369 0.287556
O O6 0.771242 0.633064 0.973829
O O7 0.055632 0.766785 0.227848
O O8 0.185018 0.124119 0.168604
O O9 0.436260 0.433506 0.284155
O O10 0.109758 0.701255 0.005125
O O11 0.199822 0.213765 0.315099
O O12 0.330569 0.266375 0.549157
O O13 0.254269 0.745073 0.517943
O O14 0.433908 0.247982 0.774402
O O15 0.500000 0.000000 0.000000
#
# Coordination Sequence:
#
# PCOD8017062 Si02
#       7
#     2   2   2   2   2   2   2
#     4  10  22  37  68  99 126 168 224 277 338 391
#     4  11  23  45  73  96 148 178 228 284 349 398
#     4  10  24  40  74 106 133 181 237 287 332 404
#     4  11  26  46  68  99 146 188 220 274 354 413
#     4  10  22  40  64 100 130 163 226 283 332 390
#     4  10  23  46  68 105 139 184 227 281 349 408
#     4  12  25  46  71 102 140 179 233 283 337 409
#
# _framework density 23.266172999999998
#
# number of rings (size 3 to 8) (size 9 to 14) (size 15 to 20)
#    0.000    1.429    1.429    3.000   10.000    1.143 
#    0.000    4.286    0.000    0.000    0.000    0.000 
#    0.000    0.000    0.000    0.000    0.000    0.000 
#
# Total GULP energy -173480.302944 kJ/mol
# GULP energy per Si atom -12391.450210 kJ/mol
# Density = 2.321322 g / cm^3
# Si number density = 23.266173 Si / 1000 Ang^3
#
#
#
# Elastic Constant Matrix: (Units=GPa)
#
#
# Indices 1 2 3 4 5 6 
#
# 1 107.1088 39.6759 23.4929 3.3161 -6.5245 10.0070
# 2 39.6759 131.7663 17.3159 -1.5964 -6.5939 -16.0820
# 3 23.4929 17.3159 80.7902 1.3978 -10.1458 -1.1825
# 4 3.3161 -1.5964 1.3978 30.4105 -4.8334 -6.2587
# 5 -6.5245 -6.5939 -10.1458 -4.8334 10.8404 0.1536
# 6 10.0070 -16.0820 -1.1825 -6.2587 0.1536 49.6070
#
#
#
# Elastic Compliance Matrix: (Units=1/GPa)
#
#
# Indices 1 2 3 4 5 6 
#
# 1 0.011735 -0.003614 -0.002434 -0.001859 0.001812 -0.003837
# 2 -0.003614 0.009472 -0.000434 0.002419 0.004201 0.004082
# 3 -0.002434 -0.000434 0.014779 0.001795 0.012891 0.000889
# 4 -0.001859 0.002419 0.001795 0.037287 0.018575 0.005849
# 5 0.001812 0.004201 0.012891 0.018575 0.116194 0.003287
# 6 -0.003837 0.004082 0.000889 0.005849 0.003287 0.023005
#
#
# Mechanical properties :
#
#
# Convention : Reuss Voigt Hill
#
# Bulk Modulus (GPa) = 43.43525 53.40386 48.41956
# Shear Modulus (GPa) = 21.44905 34.11696 27.78301
#
# Velocity S-wave (km/s) = 3.03957 3.83348 3.45938
# Velocity P-wave (km/s) = 5.57028 6.52667 6.06735
#
# Compressibility (1/GPa) = 0.02302277
#
# Stress axis : x y z
#
# Youngs Moduli (GPa) = 85.21259 105.57364 67.66141
#
# Poissons Ratio (x) = 0.38153 0.16471
# Poissons Ratio (y) = 0.30795 0.02935
# Poissons Ratio (z) = 0.20744 0.04580
#
# Static dielectric constant tensor:
#      x y z
#    x 3.734610 0.382690 -0.391550 
#    y 0.382690 3.358190 0.190160 
#    z -0.391550 0.190160 3.943760 
# 
# 
# High freq. dielectric constant tensor:
#      x y z
#    x 1.921610 -0.016990 -0.015040 
#    y -0.016990 1.922170 -0.004570 
#    z -0.015040 -0.004570 1.902110 
# 
# From -- ./inp_files/91117.got.cif
#   From: 2010.06.25/outbox.cif.g09.slc.cpg/sg2_46_cif.got.tgz:91117.got - 2010.06.27 13:26:56.
