data_PCOD8017681
_publ_section_title
;
Structure prediction by ZEFSAII (Michael W. Deem and Ramdas Pophale) SiO2 
 PCOD8017681
Probable space group: P -1
;
_chemical_formula_sum "Si O2"
_cell_formula_units_Z 14
_cell_length_a 9.911064
_cell_length_b 9.343003
_cell_length_c 14.473422
_cell_angle_alpha 100.235312
_cell_angle_beta 107.457709
_cell_angle_gamma 136.798502
_cell_volume 695.547806
_symmetry_space_group_name_H-M "P -1"
_symmetry_group_IT_number 2
_symmetry_cell_setting 'triclinic'
loop_
_space_group_symop_operation_xyz
x,y,z
-x,-y,-z
loop_
_atom_site_type_symbol
_atom_site_label
_atom_site_fract_x
_atom_site_fract_y
_atom_site_fract_z
Si Si1 0.063393 0.779806 0.737048
Si Si2 0.391548 0.854455 0.136749
Si Si3 0.042126 0.756050 0.348952
Si Si4 0.050478 0.552394 0.863618
Si Si5 0.771554 0.316714 0.503212
Si Si6 0.471733 0.741142 0.710110
Si Si7 0.263088 0.228164 0.363366
O O1 0.098952 0.745284 0.842792
O O2 0.838056 0.498527 0.609997
O O3 0.969153 0.864225 0.722507
O O4 0.338084 0.992254 0.768276
O O5 0.203189 0.636750 0.151564
O O6 0.412039 0.049465 0.166201
O O7 0.289576 0.725144 0.999831
O O8 0.969965 0.604312 0.225201
O O9 0.265888 0.864946 0.466733
O O10 0.795666 0.551346 0.342310
O O11 0.133612 0.995659 0.374402
O O12 0.532085 0.163409 0.375286
O O13 0.000000 0.500000 0.500000
O O14 0.646731 0.756174 0.716435
O O15 0.500000 0.500000 0.500000
#
# Coordination Sequence:
#
# PCOD8017681 Si02
#       7
#     2   2   2   2   2   2   2
#     4  11  22  39  61  92 125 159 198 255 304 358
#     4  11  21  39  72  89 119 153 216 257 289 364
#     4  10  22  39  64  89 122 162 205 249 305 357
#     4  10  22  40  68  96 109 161 214 253 299 351
#     4   9  17  36  60  90 112 156 208 243 291 358
#     4  11  21  39  63  91 124 161 203 251 299 362
#     4  12  26  40  57  94 133 160 197 248 311 366
#
# _framework density 20.128018999999998
#
# number of rings (size 3 to 8) (size 9 to 14) (size 15 to 20)
#    0.000    1.429    7.143    0.429    0.000    3.429 
#    0.000    1.429    0.000    0.000    0.000    0.000 
#    0.000    0.000    0.000    0.000    0.000    0.000 
#
# Total GULP energy -173511.977283 kJ/mol
# GULP energy per Si atom -12393.712663 kJ/mol
# Density = 2.008221 g / cm^3
# Si number density = 20.128019 Si / 1000 Ang^3
#
#
#
# Elastic Constant Matrix: (Units=GPa)
#
#
# Indices 1 2 3 4 5 6 
#
# 1 135.3370 39.4506 32.8229 1.2523 0.5338 -9.7982
# 2 39.4506 107.1840 27.1006 -1.1621 0.7183 -16.8868
# 3 32.8229 27.1006 75.4789 1.4541 -5.0490 -3.3283
# 4 1.2523 -1.1621 1.4541 26.7778 3.1235 -0.8619
# 5 0.5338 0.7183 -5.0490 3.1235 22.6160 -0.5171
# 6 -9.7982 -16.8868 -3.3283 -0.8619 -0.5171 29.5082
#
#
#
# Elastic Compliance Matrix: (Units=1/GPa)
#
#
# Indices 1 2 3 4 5 6 
#
# 1 0.008893 -0.002304 -0.003030 -0.000222 -0.000753 0.001273
# 2 -0.002304 0.011878 -0.003102 0.001096 -0.001037 0.005697
# 3 -0.003030 -0.003102 0.015924 -0.001342 0.003889 -0.000956
# 4 -0.000222 0.001096 -0.001342 0.038170 -0.005568 0.001419
# 5 -0.000753 -0.001037 0.003889 -0.005568 0.045910 0.000237
# 6 0.001273 0.005697 -0.000956 0.001419 0.000237 0.037509
#
#
# Mechanical properties :
#
#
# Convention : Reuss Voigt Hill
#
# Bulk Modulus (GPa) = 50.44642 57.41647 53.93144
# Shear Modulus (GPa) = 27.50819 30.35546 28.93183
#
# Velocity S-wave (km/s) = 3.70085 3.88766 3.79541
# Velocity P-wave (km/s) = 6.58627 6.98137 6.78669
#
# Compressibility (1/GPa) = 0.01982301
#
# Stress axis : x y z
#
# Youngs Moduli (GPa) = 112.45417 84.18614 62.79831
#
# Poissons Ratio (x) = 0.19395 0.19027
# Poissons Ratio (y) = 0.25907 0.19482
# Poissons Ratio (z) = 0.34072 0.26118
#
# Static dielectric constant tensor:
#      x y z
#    x 3.973810 0.160840 0.219430 
#    y 0.160840 3.778100 -0.104700 
#    z 0.219430 -0.104700 3.956610 
# 
# 
# High freq. dielectric constant tensor:
#      x y z
#    x 1.777200 0.021820 -0.005350 
#    y 0.021820 1.791510 -0.004110 
#    z -0.005350 -0.004110 1.777790 
# 
# From -- ./inp_files/187206.got.cif
#   From: 2010.06.25/outbox.cif.g09.slc.cpg/sg2_94_cif.got.tgz:187206.got - 2010.06.27 13:26:56.
