data_PCOD8017234
_publ_section_title
;
Structure prediction by ZEFSAII (Michael W. Deem and Ramdas Pophale) SiO2 
 PCOD8017234
Probable space group: P -1
;
_chemical_formula_sum "Si O2"
_cell_formula_units_Z 12
_cell_length_a 9.416611
_cell_length_b 8.946370
_cell_length_c 14.104205
_cell_angle_alpha 145.948415
_cell_angle_beta 111.708818
_cell_angle_gamma 65.880478
_cell_volume 606.093490
_symmetry_space_group_name_H-M "P -1"
_symmetry_group_IT_number 2
_symmetry_cell_setting 'triclinic'
loop_
_space_group_symop_operation_xyz
x,y,z
-x,-y,-z
loop_
_atom_site_type_symbol
_atom_site_label
_atom_site_fract_x
_atom_site_fract_y
_atom_site_fract_z
Si Si1 0.630026 0.645627 0.572377
Si Si2 0.880715 0.331015 0.339400
Si Si3 0.962951 0.713260 0.018885
Si Si4 0.206148 0.519490 0.292412
Si Si5 0.128938 0.463470 0.760648
Si Si6 0.410339 0.975345 0.561604
O O1 0.500000 0.500000 0.500000
O O2 0.716979 0.447021 0.408517
O O3 0.737383 0.677776 0.706608
O O4 0.544249 0.929511 0.652315
O O5 0.860530 0.358174 0.236096
O O6 0.000000 0.500000 0.500000
O O7 0.939567 0.014953 0.214330
O O8 0.107414 0.661278 0.951818
O O9 0.000000 0.500000 0.000000
O O10 0.805026 0.669426 0.902021
O O11 0.318486 0.726078 0.404325
O O12 0.027199 0.672317 0.354144
O O13 0.286153 0.243754 0.696207
O O14 0.500000 0.000000 0.500000
#
# Coordination Sequence:
#
# PCOD8017234 Si02
#       6
#     2   2   2   2   2   2
#     4  10  22  38  63  93 129 167 205 259 320 383
#     4  12  22  40  70  94 121 170 220 261 313 382
#     4  10  25  39  66  94 127 164 222 267 314 360
#     4   9  22  41  61  91 128 170 210 257 316 375
#     4  10  22  39  64  92 129 162 218 264 311 374
#     4  11  21  37  66 100 127 166 213 258 318 380
#
# _framework density 19.798926000000002
#
# number of rings (size 3 to 8) (size 9 to 14) (size 15 to 20)
#    1.000    0.667    3.333    1.000    7.000    0.000 
#    0.000    3.333    3.667    3.000    0.000    0.000 
#    0.000    0.000    0.000    0.000    0.000    0.000 
#
# Total GULP energy -148657.096527 kJ/mol
# GULP energy per Si atom -12388.091377 kJ/mol
# Density = 1.975386 g / cm^3
# Si number density = 19.798926 Si / 1000 Ang^3
#
#
#
# Elastic Constant Matrix: (Units=GPa)
#
#
# Indices 1 2 3 4 5 6 
#
# 1 122.8136 45.4823 23.5973 5.6883 -17.7479 -1.3120
# 2 45.4823 172.7796 47.0370 0.9530 -11.8508 -6.4318
# 3 23.5973 47.0370 80.5785 8.0829 -2.1090 -9.2050
# 4 5.6883 0.9530 8.0829 34.6807 1.8055 -6.4815
# 5 -17.7479 -11.8508 -2.1090 1.8055 15.7924 4.7331
# 6 -1.3120 -6.4318 -9.2050 -6.4815 4.7331 40.2157
#
#
#
# Elastic Compliance Matrix: (Units=1/GPa)
#
#
# Indices 1 2 3 4 5 6 
#
# 1 0.010877 -0.001596 -0.001958 -0.002280 0.011651 -0.002087
# 2 -0.001596 0.007485 -0.003897 0.000798 0.003210 0.000004
# 3 -0.001958 -0.003897 0.015751 -0.002505 -0.003617 0.002940
# 4 -0.002280 0.000798 -0.002505 0.031165 -0.007475 0.005382
# 5 0.011651 0.003210 -0.003617 -0.007475 0.082445 -0.010842
# 6 -0.002087 0.000004 0.002940 0.005382 -0.010842 0.027615
#
#
# Mechanical properties :
#
#
# Convention : Reuss Voigt Hill
#
# Bulk Modulus (GPa) = 52.05822 67.60055 59.82939
# Shear Modulus (GPa) = 25.42657 35.47478 30.45067
#
# Velocity S-wave (km/s) = 3.58752 4.23750 3.92598
# Velocity P-wave (km/s) = 6.59628 7.62624 7.12988
#
# Compressibility (1/GPa) = 0.01920926
#
# Stress axis : x y z
#
# Youngs Moduli (GPa) = 91.93943 133.60399 63.48675
#
# Poissons Ratio (x) = 0.21324 0.12433
# Poissons Ratio (y) = 0.14674 0.24743
# Poissons Ratio (z) = 0.18005 0.52071
#
# Static dielectric constant tensor:
#      x y z
#    x 3.981370 -0.741420 0.224180 
#    y -0.741420 6.190880 -0.980160 
#    z 0.224180 -0.980160 3.446460 
# 
# 
# High freq. dielectric constant tensor:
#      x y z
#    x 1.780140 0.005770 -0.008880 
#    y 0.005770 1.794820 -0.006920 
#    z -0.008880 -0.006920 1.730050 
# 
# From -- ./inp_files/260513.got.cif
#   From: 2010.06.25/outbox.cif.g09.slc.cpg/sg2_131_cif.got.tgz:260513.got - 2010.06.27 13:26:56.
