data_PCOD8017348
_publ_section_title
;
Structure prediction by ZEFSAII (Michael W. Deem and Ramdas Pophale) SiO2 
 PCOD8017348
Probable space group: P -1
;
_chemical_formula_sum "Si O2"
_cell_formula_units_Z 12
_cell_length_a 16.567571
_cell_length_b 7.876691
_cell_length_c 5.611297
_cell_angle_alpha 124.782057
_cell_angle_beta 104.053670
_cell_angle_gamma 54.168155
_cell_volume 483.012808
_symmetry_space_group_name_H-M "P -1"
_symmetry_group_IT_number 2
_symmetry_cell_setting 'triclinic'
loop_
_space_group_symop_operation_xyz
x,y,z
-x,-y,-z
loop_
_atom_site_type_symbol
_atom_site_label
_atom_site_fract_x
_atom_site_fract_y
_atom_site_fract_z
Si Si1 0.214285 0.496747 0.242247
Si Si2 0.386029 0.193774 0.797497
Si Si3 0.278131 0.708550 0.836128
Si Si4 0.437387 0.789869 0.130250
Si Si5 0.092077 0.924784 0.170129
Si Si6 0.974208 0.430749 0.678131
O O1 0.248730 0.664456 0.520033
O O2 0.138702 0.652134 0.095404
O O3 0.146308 0.450894 0.331493
O O4 0.315011 0.243491 0.014159
O O5 0.335423 0.440112 0.793590
O O6 0.494197 0.141713 0.915923
O O7 0.401365 0.958319 0.478919
O O8 0.342307 0.830933 0.950048
O O9 0.178581 0.917130 0.072898
O O10 0.500000 0.500000 0.000000
O O11 0.047189 0.131059 0.509880
O O12 0.000000 0.000000 0.000000
O O13 0.000000 0.500000 0.500000
O O14 0.000000 0.500000 0.000000
#
# Coordination Sequence:
#
# PCOD8017348 Si02
#       6
#     2   2   2   2   2   2
#     4  11  24  43  67  98 136 189 237 292 358 425
#     4   9  21  42  66  98 137 177 229 294 351 434
#     4  10  22  38  67  98 137 180 230 289 357 418
#     4   9  19  42  69  96 134 180 227 290 361 429
#     4  11  23  45  67  93 140 192 237 292 354 427
#     4  12  28  43  67 103 143 189 243 300 358 423
#
# _framework density 24.844061
#
# number of rings (size 3 to 8) (size 9 to 14) (size 15 to 20)
#    0.000    1.667    1.667    1.500    7.000    0.667 
#    0.000    7.500    0.000    0.000    0.000    0.000 
#    0.000    0.000    0.000    0.000    0.000    0.000 
#
# Total GULP energy -148687.449337 kJ/mol
# GULP energy per Si atom -12390.620778 kJ/mol
# Density = 2.478752 g / cm^3
# Si number density = 24.844061 Si / 1000 Ang^3
#
#
#
# Elastic Constant Matrix: (Units=GPa)
#
#
# Indices 1 2 3 4 5 6 
#
# 1 216.6798 53.8782 107.9974 4.0034 -7.8712 -28.5849
# 2 53.8782 30.8581 22.0707 2.7958 -1.5854 -6.3007
# 3 107.9974 22.0707 197.3408 22.6609 -4.5459 -13.3970
# 4 4.0034 2.7958 22.6609 43.4571 -9.9479 -5.0585
# 5 -7.8712 -1.5854 -4.5459 -9.9479 57.1145 -0.3508
# 6 -28.5849 -6.3007 -13.3970 -5.0585 -0.3508 35.4849
#
#
#
# Elastic Compliance Matrix: (Units=1/GPa)
#
#
# Indices 1 2 3 4 5 6 
#
# 1 0.011534 -0.016078 -0.004501 0.003242 0.001382 0.005213
# 2 -0.016078 0.058520 0.002553 -0.004127 -0.001120 -0.002196
# 3 -0.004501 0.002553 0.007628 -0.003974 -0.000640 -0.000865
# 4 0.003242 -0.004127 -0.003974 0.026612 0.004677 0.004218
# 5 0.001382 -0.001120 -0.000640 0.004677 0.018441 0.001522
# 6 0.005213 -0.002196 -0.000865 0.004218 0.001522 0.032280
#
#
# Mechanical properties :
#
#
# Convention : Reuss Voigt Hill
#
# Bulk Modulus (GPa) = 24.02044 90.30790 57.16417
# Shear Modulus (GPa) = 24.39692 44.60679 34.50185
#
# Velocity S-wave (km/s) = 3.13709 4.24190 3.73062
# Velocity P-wave (km/s) = 4.77611 7.77306 6.45103
#
# Compressibility (1/GPa) = 0.04163120
#
# Stress axis : x y z
#
# Youngs Moduli (GPa) = 86.69919 17.08805 131.10022
#
# Poissons Ratio (x) = 0.27474 0.59003
# Poissons Ratio (y) = 1.39394 -0.33469
# Poissons Ratio (z) = 0.39020 -0.04362
#
# Static dielectric constant tensor:
#      x y z
#    x 5.324160 -0.428990 -0.134310 
#    y -0.428990 3.573160 -0.291890 
#    z -0.134310 -0.291890 4.134830 
# 
# 
# High freq. dielectric constant tensor:
#      x y z
#    x 2.007460 -0.022550 -0.006150 
#    y -0.022550 1.973700 0.017040 
#    z -0.006150 0.017040 1.994040 
# 
# From -- ./inp_files/45607.got.cif
#   From: 2010.06.25/outbox.cif.g09.slc.cpg/sg2_23_cif.got.tgz:45607.got - 2010.06.27 13:26:56.
