data_PCOD8017715
_publ_section_title
;
Structure prediction by ZEFSAII (Michael W. Deem and Ramdas Pophale) SiO2 
 PCOD8017715
Probable space group: P -1
;
_chemical_formula_sum "Si O2"
_cell_formula_units_Z 14
_cell_length_a 8.932809
_cell_length_b 10.941502
_cell_length_c 10.402730
_cell_angle_alpha 67.261697
_cell_angle_beta 133.596766
_cell_angle_gamma 121.178283
_cell_volume 629.266197
_symmetry_space_group_name_H-M "P -1"
_symmetry_group_IT_number 2
_symmetry_cell_setting 'triclinic'
loop_
_space_group_symop_operation_xyz
x,y,z
-x,-y,-z
loop_
_atom_site_type_symbol
_atom_site_label
_atom_site_fract_x
_atom_site_fract_y
_atom_site_fract_z
Si Si1 0.720081 0.788239 0.109182
Si Si2 0.845869 0.650443 0.995791
Si Si3 0.464444 0.088268 0.561723
Si Si4 0.624103 0.090545 0.159148
Si Si5 0.745063 0.392898 0.666518
Si Si6 0.989522 0.890436 0.778967
Si Si7 0.556833 0.563114 0.310624
O O1 0.799058 0.714973 0.072408
O O2 0.714539 0.702719 0.271441
O O3 0.892486 0.950089 0.161782
O O4 0.470521 0.783273 0.931991
O O5 0.999451 0.558151 0.153581
O O6 0.611220 0.550719 0.838687
O O7 0.984375 0.778876 0.931320
O O8 0.681842 0.232574 0.640423
O O9 0.258923 0.137277 0.399753
O O10 0.500000 0.000000 0.500000
O O11 0.429464 0.999450 0.706739
O O12 0.886312 0.144301 0.257808
O O13 0.500000 0.000000 0.000000
O O14 0.724267 0.498196 0.500966
O O15 0.581861 0.388859 0.687460
#
# Coordination Sequence:
#
# PCOD8017715 Si02
#       7
#     2   2   2   2   2   2   2
#     4  11  23  43  65 100 137 169 224 286 337 397
#     4  12  23  44  70  98 131 181 225 277 344 396
#     4  12  23  42  69 106 137 173 230 288 337 397
#     4  10  22  39  64  94 133 176 220 277 331 397
#     4  11  24  44  70  94 138 179 227 271 334 411
#     4  11  22  41  68  99 134 178 227 274 338 400
#     4  11  25  45  66  96 139 180 224 272 334 415
#
# _framework density 22.248135999999999
#
# number of rings (size 3 to 8) (size 9 to 14) (size 15 to 20)
#    0.000    0.857    1.429    7.714    0.000    0.571 
#    2.571    0.000    0.000    0.000    0.000    0.000 
#    0.000    0.000    0.000    0.000    0.000    0.000 
#
# Total GULP energy -173649.870305 kJ/mol
# GULP energy per Si atom -12403.562165 kJ/mol
# Density = 2.219750 g / cm^3
# Si number density = 22.248136 Si / 1000 Ang^3
#
#
#
# Elastic Constant Matrix: (Units=GPa)
#
#
# Indices 1 2 3 4 5 6 
#
# 1 88.9774 -0.9609 44.1165 -25.5058 7.0462 -10.6507
# 2 -0.9609 47.4471 24.5889 -17.0089 12.1683 -4.0026
# 3 44.1165 24.5889 133.4406 -32.0354 8.5192 -4.2186
# 4 -25.5058 -17.0089 -32.0354 41.7626 -3.4563 2.0174
# 5 7.0462 12.1683 8.5192 -3.4563 23.9235 6.5816
# 6 -10.6507 -4.0026 -4.2186 2.0174 6.5816 25.8637
#
#
#
# Elastic Compliance Matrix: (Units=1/GPa)
#
#
# Indices 1 2 3 4 5 6 
#
# 1 0.018692 0.010058 -0.004473 0.010730 -0.010316 0.010313
# 2 0.010058 0.035334 -0.004576 0.014677 -0.020762 0.013002
# 3 -0.004473 -0.004576 0.010607 0.003666 0.000755 -0.001298
# 4 0.010730 0.014677 0.003666 0.038305 -0.008150 0.006374
# 5 -0.010316 -0.020762 0.000755 -0.008150 0.059996 -0.021969
# 6 0.010313 0.013002 -0.001298 0.006374 -0.021969 0.049805
#
#
# Mechanical properties :
#
#
# Convention : Reuss Voigt Hill
#
# Bulk Modulus (GPa) = 15.00331 45.03934 30.02132
# Shear Modulus (GPa) = 21.46497 31.78468 26.62482
#
# Velocity S-wave (km/s) = 3.10949 3.78384 3.46312
# Velocity P-wave (km/s) = 4.43285 6.27519 5.43269
#
# Compressibility (1/GPa) = 0.06665197
#
# Stress axis : x y z
#
# Youngs Moduli (GPa) = 53.49849 28.30118 94.27864
#
# Poissons Ratio (x) = -0.28466 0.42168
# Poissons Ratio (y) = -0.53811 0.43144
# Poissons Ratio (z) = 0.23928 0.12951
#
# Static dielectric constant tensor:
#      x y z
#    x 4.354680 -0.050570 0.280160 
#    y -0.050570 3.963620 -0.149520 
#    z 0.280160 -0.149520 4.326840 
# 
# 
# High freq. dielectric constant tensor:
#      x y z
#    x 1.886940 -0.007090 0.001610 
#    y -0.007090 1.871190 -0.013260 
#    z 0.001610 -0.013260 1.889340 
# 
# From -- ./inp_files/157394.got.cif
#   From: 2010.06.25/outbox.cif.g09.slc.cpg/sg2_79_cif.got.tgz:157394.got - 2010.06.27 13:26:56.
