data_PCOD8017318
_publ_section_title
;
Structure prediction by ZEFSAII (Michael W. Deem and Ramdas Pophale) SiO2 
 PCOD8017318
Probable space group: P -1
;
_chemical_formula_sum "Si O2"
_cell_formula_units_Z 14
_cell_length_a 12.115474
_cell_length_b 12.493337
_cell_length_c 10.072851
_cell_angle_alpha 134.409511
_cell_angle_beta 134.318432
_cell_angle_gamma 75.678650
_cell_volume 686.739658
_symmetry_space_group_name_H-M "P -1"
_symmetry_group_IT_number 2
_symmetry_cell_setting 'triclinic'
loop_
_space_group_symop_operation_xyz
x,y,z
-x,-y,-z
loop_
_atom_site_type_symbol
_atom_site_label
_atom_site_fract_x
_atom_site_fract_y
_atom_site_fract_z
Si Si1 0.528655 0.643313 0.753296
Si Si2 0.932232 0.837095 0.649879
Si Si3 0.136919 0.006498 0.725573
Si Si4 0.376421 0.471863 0.995771
Si Si5 0.660716 0.175103 0.326275
Si Si6 0.765004 0.041386 0.806795
Si Si7 0.604577 0.183930 0.592648
O O1 0.500000 0.500000 0.500000
O O2 0.357637 0.674335 0.636117
O O3 0.689891 0.815125 0.984768
O O4 0.557256 0.596995 0.884950
O O5 0.821783 0.663193 0.326217
O O6 0.797363 0.886104 0.652036
O O7 0.054542 0.990263 0.787327
O O8 0.063861 0.819572 0.850531
O O9 0.168547 0.842156 0.585678
O O10 0.000000 0.000000 0.500000
O O11 0.500000 0.500000 0.000000
O O12 0.375458 0.644053 0.179772
O O13 0.665025 0.212392 0.517685
O O14 0.500000 0.000000 0.000000
O O15 0.595423 0.965149 0.693730
O O16 0.734008 0.132054 0.733314
#
# Coordination Sequence:
#
# PCOD8017318 Si02
#       7
#     2   2   2   2   2   2   2
#     4  11  23  42  66  95 131 176 217 270 321 386
#     4  11  23  43  63  96 128 173 212 270 333 383
#     4  11  22  40  66  93 129 169 217 265 321 387
#     4  12  25  41  66  96 134 169 216 274 332 388
#     4  10  22  38  66  94 126 172 222 259 317 392
#     4  10  23  39  68  92 130 169 216 268 322 394
#     4  11  22  42  65  98 127 170 223 265 321 397
#
# _framework density 20.386182000000002
#
# number of rings (size 3 to 8) (size 9 to 14) (size 15 to 20)
#    0.000    1.143    4.286    2.571    2.000    1.714 
#    0.000    4.286    0.000    0.000    0.000    0.000 
#    0.000    0.000    0.000    0.000    0.000    0.000 
#
# Total GULP energy -173603.225722 kJ/mol
# GULP energy per Si atom -12400.230409 kJ/mol
# Density = 2.033978 g / cm^3
# Si number density = 20.386182 Si / 1000 Ang^3
#
#
#
# Elastic Constant Matrix: (Units=GPa)
#
#
# Indices 1 2 3 4 5 6 
#
# 1 75.0750 19.2259 33.2628 -9.9265 -0.4962 -4.3723
# 2 19.2259 98.7297 62.3162 -19.8590 11.2320 -22.2987
# 3 33.2628 62.3162 122.9289 -16.2544 -9.7579 -11.1193
# 4 -9.9265 -19.8590 -16.2544 38.3915 -3.9419 1.2475
# 5 -0.4962 11.2320 -9.7579 -3.9419 28.3821 -2.8544
# 6 -4.3723 -22.2987 -11.1193 1.2475 -2.8544 43.7891
#
#
#
# Elastic Compliance Matrix: (Units=1/GPa)
#
#
# Indices 1 2 3 4 5 6 
#
# 1 0.015356 0.000169 -0.003956 0.002285 -0.000791 0.000498
# 2 0.000169 0.019815 -0.009577 0.005015 -0.009741 0.006898
# 3 -0.003956 -0.009577 0.014846 0.001254 0.008903 -0.000957
# 4 0.002285 0.005015 0.001254 0.029981 0.002895 0.002435
# 5 -0.000791 -0.009741 0.008903 0.002895 0.042529 -0.000089
# 6 0.000498 0.006898 -0.000957 0.002435 -0.000089 0.026081
#
#
# Mechanical properties :
#
#
# Convention : Reuss Voigt Hill
#
# Bulk Modulus (GPa) = 42.93958 58.48259 50.71109
# Shear Modulus (GPa) = 27.30769 34.24113 30.77441
#
# Velocity S-wave (km/s) = 3.66392 4.10277 3.88954
# Velocity P-wave (km/s) = 6.24563 7.15495 6.71569
#
# Compressibility (1/GPa) = 0.02328853
#
# Stress axis : x y z
#
# Youngs Moduli (GPa) = 65.12313 50.46618 67.35812
#
# Poissons Ratio (x) = -0.00853 0.26649
# Poissons Ratio (y) = -0.01101 0.64508
# Poissons Ratio (z) = 0.25764 0.48331
#
# Static dielectric constant tensor:
#      x y z
#    x 4.022990 -0.390650 -0.071480 
#    y -0.390650 4.117060 -0.203810 
#    z -0.071480 -0.203810 3.823520 
# 
# 
# High freq. dielectric constant tensor:
#      x y z
#    x 1.798560 -0.009570 -0.009300 
#    y -0.009570 1.802510 -0.019670 
#    z -0.009300 -0.019670 1.800340 
# 
# From -- ./inp_files/168537.got.cif
#   From: 2010.06.25/outbox.cif.g09.slc.cpg/sg2_85_cif.got.tgz:168537.got - 2010.06.27 13:26:56.
