data_PCOD8017608
_publ_section_title
;
Structure prediction by ZEFSAII (Michael W. Deem and Ramdas Pophale) SiO2 
 PCOD8017608
Probable space group: P -1
;
_chemical_formula_sum "Si O2"
_cell_formula_units_Z 12
_cell_length_a 14.709226
_cell_length_b 10.179423
_cell_length_c 11.985298
_cell_angle_alpha 60.429224
_cell_angle_beta 31.071355
_cell_angle_gamma 42.220471
_cell_volume 568.776158
_symmetry_space_group_name_H-M "P -1"
_symmetry_group_IT_number 2
_symmetry_cell_setting 'triclinic'
loop_
_space_group_symop_operation_xyz
x,y,z
-x,-y,-z
loop_
_atom_site_type_symbol
_atom_site_label
_atom_site_fract_x
_atom_site_fract_y
_atom_site_fract_z
Si Si1 0.260275 0.654868 0.114468
Si Si2 0.207415 0.430368 0.080078
Si Si3 0.531501 0.169443 0.643237
Si Si4 0.154311 0.260283 0.396593
Si Si5 0.756755 0.786147 0.265451
Si Si6 0.000332 0.054813 0.102113
O O1 0.251710 0.544300 0.066911
O O2 0.041879 0.757742 0.391349
O O3 0.228790 0.839817 0.018975
O O4 0.500000 0.500000 0.000000
O O5 0.254995 0.244032 0.175352
O O6 0.922670 0.600635 0.262089
O O7 0.409796 0.318732 0.816885
O O8 0.317257 0.281908 0.727733
O O9 0.739134 0.162346 0.386430
O O10 0.630337 0.938291 0.664862
O O11 0.000000 0.500000 0.500000
O O12 0.500000 0.000000 0.500000
O O13 0.941223 0.803504 0.015461
O O14 0.000000 0.000000 0.000000
#
# Coordination Sequence:
#
# PCOD8017608 Si02
#       6
#     2   2   2   2   2   2
#     4  10  22  39  63  89 119 166 210 254 305 373
#     4  11  23  41  61  96 126 159 208 264 317 361
#     4  11  24  42  63  93 132 159 204 270 314 357
#     4   9  20  40  63  86 119 164 211 246 303 380
#     4  12  23  40  68  89 124 172 210 251 311 378
#     4  11  22  43  62  91 123 164 219 250 298 386
#
# _framework density 21.097930999999999
#
# number of rings (size 3 to 8) (size 9 to 14) (size 15 to 20)
#    0.000    1.333    3.333    3.000    7.000    0.667 
#    3.000    1.667    0.000    0.000    0.000    0.000 
#    0.000    0.000    0.000    0.000    0.000    0.000 
#
# Total GULP energy -148685.618010 kJ/mol
# GULP energy per Si atom -12390.468167 kJ/mol
# Density = 2.104991 g / cm^3
# Si number density = 21.097931 Si / 1000 Ang^3
#
#
#
# Elastic Constant Matrix: (Units=GPa)
#
#
# Indices 1 2 3 4 5 6 
#
# 1 99.8473 12.0921 45.3389 1.2338 -12.5527 -21.0826
# 2 12.0921 69.2824 18.6516 -8.0887 -12.8414 -20.3569
# 3 45.3389 18.6516 125.3961 -10.4195 10.8827 -7.1561
# 4 1.2338 -8.0887 -10.4195 38.3349 -4.5363 -4.0072
# 5 -12.5527 -12.8414 10.8827 -4.5363 37.9891 6.5789
# 6 -21.0826 -20.3569 -7.1561 -4.0072 6.5789 34.7735
#
#
#
# Elastic Compliance Matrix: (Units=1/GPa)
#
#
# Indices 1 2 3 4 5 6 
#
# 1 0.014798 0.002461 -0.005771 0.000028 0.005976 0.008098
# 2 0.002461 0.020431 -0.003425 0.005415 0.007270 0.011996
# 3 -0.005771 -0.003425 0.011087 0.001596 -0.005711 -0.001958
# 4 0.000028 0.005415 0.001596 0.028745 0.003756 0.006118
# 5 0.005976 0.007270 -0.005711 0.003756 0.032674 0.000954
# 6 0.008098 0.011996 -0.001958 0.006118 0.000954 0.040811
#
#
# Mechanical properties :
#
#
# Convention : Reuss Voigt Hill
#
# Bulk Modulus (GPa) = 30.44460 49.63236 40.03848
# Shear Modulus (GPa) = 28.90741 36.78239 32.84490
#
# Velocity S-wave (km/s) = 3.70557 4.17995 3.94989
# Velocity P-wave (km/s) = 5.72449 6.84630 6.31037
#
# Compressibility (1/GPa) = 0.03284655
#
# Stress axis : x y z
#
# Youngs Moduli (GPa) = 67.57467 48.94613 90.19364
#
# Poissons Ratio (x) = -0.12046 0.52049
# Poissons Ratio (y) = -0.16630 0.30892
# Poissons Ratio (z) = 0.38996 0.16764
#
# Static dielectric constant tensor:
#      x y z
#    x 3.148820 -0.396370 -0.509440 
#    y -0.396370 4.429710 -0.378110 
#    z -0.509440 -0.378110 3.941060 
# 
# 
# High freq. dielectric constant tensor:
#      x y z
#    x 1.807840 -0.027860 0.004350 
#    y -0.027860 1.835960 -0.007030 
#    z 0.004350 -0.007030 1.835730 
# 
# From -- ./inp_files/149852.got.cif
#   From: 2010.06.25/outbox.cif.g09.slc.cpg/sg2_75_cif.got.tgz:149852.got - 2010.06.27 13:26:56.
