data_PCOD8017213
_publ_section_title
;
Structure prediction by ZEFSAII (Michael W. Deem and Ramdas Pophale) SiO2 
 PCOD8017213
Probable space group: P -1
;
_chemical_formula_sum "Si O2"
_cell_formula_units_Z 16
_cell_length_a 7.589110
_cell_length_b 11.284649
_cell_length_c 12.267263
_cell_angle_alpha 56.429895
_cell_angle_beta 85.326814
_cell_angle_gamma 62.704223
_cell_volume 756.574065
_symmetry_space_group_name_H-M "P -1"
_symmetry_group_IT_number 2
_symmetry_cell_setting 'triclinic'
loop_
_space_group_symop_operation_xyz
x,y,z
-x,-y,-z
loop_
_atom_site_type_symbol
_atom_site_label
_atom_site_fract_x
_atom_site_fract_y
_atom_site_fract_z
Si Si1 0.152026 0.277117 0.214753
Si Si2 0.222394 0.669213 0.401908
Si Si3 0.964373 0.869715 0.505112
Si Si4 0.556941 0.976559 0.384247
Si Si5 0.377760 0.320929 0.605928
Si Si6 0.162403 0.814852 0.107441
Si Si7 0.997637 0.354112 0.955383
Si Si8 0.582064 0.808398 0.102360
O O1 0.069530 0.237798 0.348525
O O2 0.140546 0.450166 0.142913
O O3 0.385981 0.135862 0.248186
O O4 0.014807 0.288648 0.111745
O O5 0.202975 0.503566 0.484740
O O6 0.445859 0.641514 0.388735
O O7 0.101882 0.776463 0.248681
O O8 0.154725 0.754427 0.479621
O O9 0.780784 0.957076 0.381162
O O10 0.000000 0.000000 0.500000
O O11 0.566578 0.810489 0.425937
O O12 0.500000 0.000000 0.500000
O O13 0.324272 0.251387 0.751091
O O14 0.394500 0.777191 0.103138
O O15 0.129514 0.707771 0.074208
O O16 0.000000 0.000000 0.000000
O O17 0.229307 0.292893 0.936455
O O18 0.500000 0.000000 0.000000
#
# Coordination Sequence:
#
# PCOD8017213 Si02
#       8
#     2   2   2   2   2   2   2   2
#     4  10  24  46  63  94 128 177 224 264 333 391
#     4  10  23  40  65  98 131 162 219 279 328 389
#     4  11  24  41  66  95 131 173 216 269 330 401
#     4  10  22  38  63  86 126 170 213 258 324 394
#     4  10  22  41  64  96 129 167 215 278 330 387
#     4  11  25  40  68 101 131 173 220 276 337 397
#     4  11  24  45  69  90 138 175 220 282 320 396
#     4  11  22  41  67  98 131 174 220 270 337 397
#
# _framework density 21.147963000000001
#
# number of rings (size 3 to 8) (size 9 to 14) (size 15 to 20)
#    0.000    1.500    1.250    3.000    8.750    1.500 
#    4.500    1.250    0.000    0.000    0.000    0.000 
#    0.000    0.000    0.000    0.000    0.000    0.000 
#
# Total GULP energy -198312.192605 kJ/mol
# GULP energy per Si atom -12394.512038 kJ/mol
# Density = 2.109983 g / cm^3
# Si number density = 21.147963 Si / 1000 Ang^3
#
#
#
# Elastic Constant Matrix: (Units=GPa)
#
#
# Indices 1 2 3 4 5 6 
#
# 1 86.0719 28.3740 29.4782 -5.0903 1.1795 18.4109
# 2 28.3740 149.3722 58.6795 -15.1889 4.2162 23.8344
# 3 29.4782 58.6795 150.8308 -12.7042 6.1664 14.0658
# 4 -5.0903 -15.1889 -12.7042 39.6547 -2.8492 1.2306
# 5 1.1795 4.2162 6.1664 -2.8492 19.2642 7.4089
# 6 18.4109 23.8344 14.0658 1.2306 7.4089 39.5786
#
#
#
# Elastic Compliance Matrix: (Units=1/GPa)
#
#
# Indices 1 2 3 4 5 6 
#
# 1 0.013798 -0.000959 -0.001790 0.001171 0.002292 -0.005671
# 2 -0.000959 0.008835 -0.002680 0.002602 0.000978 -0.004186
# 3 -0.001790 -0.002680 0.008216 0.001262 -0.001670 -0.000200
# 4 0.001171 0.002602 0.001262 0.027234 0.004626 -0.004273
# 5 0.002292 0.000978 -0.001670 0.004626 0.057368 -0.011944
# 6 -0.005671 -0.004186 -0.000200 -0.004273 -0.011944 0.032864
#
#
# Mechanical properties :
#
#
# Convention : Reuss Voigt Hill
#
# Bulk Modulus (GPa) = 50.02291 68.81537 59.41914
# Shear Modulus (GPa) = 30.15034 37.68238 33.91636
#
# Velocity S-wave (km/s) = 3.77992 4.22577 4.00905
# Velocity P-wave (km/s) = 6.53877 7.51133 7.04186
#
# Compressibility (1/GPa) = 0.01999084
#
# Stress axis : x y z
#
# Youngs Moduli (GPa) = 72.47409 113.19189 121.71904
#
# Poissons Ratio (x) = 0.10851 0.21787
# Poissons Ratio (y) = 0.06947 0.32622
# Poissons Ratio (z) = 0.12973 0.30337
#
# Static dielectric constant tensor:
#      x y z
#    x 2.954810 0.210810 0.040420 
#    y 0.210810 4.362490 -0.458830 
#    z 0.040420 -0.458830 4.532000 
# 
# 
# High freq. dielectric constant tensor:
#      x y z
#    x 1.821060 0.003590 0.009490 
#    y 0.003590 1.837850 -0.001870 
#    z 0.009490 -0.001870 1.843350 
# 
# From -- ./inp_files/389056.got.cif
#   From: 2010.06.25/outbox.cif.g09.slc.cpg/sg2_195_cif.got.tgz:389056.got - 2010.06.27 13:26:56.
