data_PCOD8017146
_publ_section_title
;
Structure prediction by ZEFSAII (Michael W. Deem and Ramdas Pophale) SiO2 
 PCOD8017146
Probable space group: P -1
;
_chemical_formula_sum "Si O2"
_cell_formula_units_Z 14
_cell_length_a 9.116201
_cell_length_b 9.509544
_cell_length_c 12.224743
_cell_angle_alpha 120.252633
_cell_angle_beta 99.179331
_cell_angle_gamma 45.495256
_cell_volume 619.801987
_symmetry_space_group_name_H-M "P -1"
_symmetry_group_IT_number 2
_symmetry_cell_setting 'triclinic'
loop_
_space_group_symop_operation_xyz
x,y,z
-x,-y,-z
loop_
_atom_site_type_symbol
_atom_site_label
_atom_site_fract_x
_atom_site_fract_y
_atom_site_fract_z
Si Si1 0.057304 0.517222 0.630900
Si Si2 0.764682 0.152475 0.442363
Si Si3 0.519599 0.669672 0.312778
Si Si4 0.891096 0.345858 0.642277
Si Si5 0.626162 0.040051 0.807983
Si Si6 0.252014 0.835134 0.942951
Si Si7 0.447505 0.842595 0.779129
O O1 0.296132 0.395801 0.617425
O O2 0.000000 0.500000 0.500000
O O3 0.053799 0.363698 0.648181
O O4 0.877503 0.791560 0.750336
O O5 0.674275 0.205888 0.576897
O O6 0.837239 0.284618 0.499898
O O7 0.597121 0.238596 0.362439
O O8 0.980796 0.870368 0.341357
O O9 0.440592 0.852643 0.279195
O O10 0.617487 0.428839 0.178831
O O11 0.669976 0.597669 0.762722
O O12 0.470036 0.013739 0.814871
O O13 0.613472 0.201716 0.952523
O O14 0.262897 0.961194 0.895224
O O15 0.000000 0.000000 0.000000
#
# Coordination Sequence:
#
# PCOD8017146 Si02
#       7
#     2   2   2   2   2   2   2
#     4  11  23  39  66  99 136 172 216 274 337 392
#     4  11  23  40  69 104 130 172 218 278 341 391
#     4  12  24  44  70 100 139 172 225 277 332 395
#     4  10  22  38  61 100 133 165 214 267 336 397
#     4  11  25  45  67  97 136 181 223 271 330 401
#     4  12  26  47  69  96 133 185 228 272 328 396
#     4  11  24  45  70  95 137 173 221 277 337 391
#
# _framework density 22.587861
#
# number of rings (size 3 to 8) (size 9 to 14) (size 15 to 20)
#    0.000    0.857    2.857    4.714    2.000    4.000 
#    2.571    0.714    0.000    0.000    0.000    0.000 
#    0.000    0.000    0.000    0.000    0.000    0.000 
#
# Total GULP energy -173531.850972 kJ/mol
# GULP energy per Si atom -12395.132212 kJ/mol
# Density = 2.253645 g / cm^3
# Si number density = 22.587861 Si / 1000 Ang^3
#
#
#
# Elastic Constant Matrix: (Units=GPa)
#
#
# Indices 1 2 3 4 5 6 
#
# 1 67.8390 18.0892 18.1400 10.1187 -3.2654 -8.8406
# 2 18.0892 88.2485 15.5516 1.6805 -6.2040 0.1114
# 3 18.1400 15.5516 84.5293 -5.3429 2.5771 -3.2977
# 4 10.1187 1.6805 -5.3429 26.2645 3.8149 4.0672
# 5 -3.2654 -6.2040 2.5771 3.8149 41.7739 -5.7014
# 6 -8.8406 0.1114 -3.2977 4.0672 -5.7014 27.2018
#
#
#
# Elastic Compliance Matrix: (Units=1/GPa)
#
#
# Indices 1 2 3 4 5 6 
#
# 1 0.019209 -0.002823 -0.004010 -0.009741 0.003300 0.007917
# 2 -0.002823 0.012338 -0.001756 -0.000169 0.001624 -0.000815
# 3 -0.004010 -0.001756 0.013344 0.004778 -0.001943 -0.000800
# 4 -0.009741 -0.000169 0.004778 0.045454 -0.006705 -0.010787
# 5 0.003300 0.001624 -0.001943 -0.006705 0.026168 0.007317
# 6 0.007917 -0.000815 -0.000800 -0.010787 0.007317 0.042388
#
#
# Mechanical properties :
#
#
# Convention : Reuss Voigt Hill
#
# Bulk Modulus (GPa) = 36.08538 38.24203 37.16370
# Shear Modulus (GPa) = 26.98046 31.63709 29.30878
#
# Velocity S-wave (km/s) = 3.45986 3.74655 3.60605
# Velocity P-wave (km/s) = 5.65429 5.97349 5.81608
#
# Compressibility (1/GPa) = 0.02771206
#
# Stress axis : x y z
#
# Youngs Moduli (GPa) = 52.05778 81.04875 74.94023
#
# Poissons Ratio (x) = 0.22883 0.30054
# Poissons Ratio (y) = 0.14698 0.13160
# Poissons Ratio (z) = 0.20877 0.14233
#
# Static dielectric constant tensor:
#      x y z
#    x 4.324320 -0.091230 -0.184030 
#    y -0.091230 3.869450 0.174510 
#    z -0.184030 0.174510 4.281770 
# 
# 
# High freq. dielectric constant tensor:
#      x y z
#    x 1.913120 0.000820 0.013380 
#    y 0.000820 1.887460 0.011010 
#    z 0.013380 0.011010 1.877130 
# 
# From -- ./inp_files/186238.got.cif
#   From: 2010.06.25/outbox.cif.g09.slc.cpg/sg2_94_cif.got.tgz:186238.got - 2010.06.27 13:26:56.
