data_PCOD8017606
_publ_section_title
;
Structure prediction by ZEFSAII (Michael W. Deem and Ramdas Pophale) SiO2 
 PCOD8017606
Probable space group: P -1
;
_chemical_formula_sum "Si O2"
_cell_formula_units_Z 14
_cell_length_a 9.197720
_cell_length_b 11.251946
_cell_length_c 9.003965
_cell_angle_alpha 52.118721
_cell_angle_beta 55.651017
_cell_angle_gamma 75.314690
_cell_volume 601.022237
_symmetry_space_group_name_H-M "P -1"
_symmetry_group_IT_number 2
_symmetry_cell_setting 'triclinic'
loop_
_space_group_symop_operation_xyz
x,y,z
-x,-y,-z
loop_
_atom_site_type_symbol
_atom_site_label
_atom_site_fract_x
_atom_site_fract_y
_atom_site_fract_z
Si Si1 0.459680 0.060550 0.665919
Si Si2 0.005130 0.936250 0.380012
Si Si3 0.777734 0.135821 0.224525
Si Si4 0.662917 0.210382 0.679707
Si Si5 0.516932 0.400398 0.874614
Si Si6 0.200982 0.576737 0.834820
Si Si7 0.325316 0.288337 0.346862
O O1 0.645306 0.033823 0.498558
O O2 0.496161 0.099431 0.787905
O O3 0.393564 0.204266 0.513297
O O4 0.308096 0.912033 0.850997
O O5 0.869429 0.781902 0.543896
O O6 0.197969 0.895554 0.260266
O O7 0.965422 0.072763 0.187795
O O8 0.000000 0.000000 0.500000
O O9 0.789405 0.314264 0.108927
O O10 0.595963 0.304901 0.777036
O O11 0.753865 0.323500 0.414058
O O12 0.338399 0.458473 0.869553
O O13 0.668289 0.536874 0.735617
O O14 0.462145 0.288066 0.130394
O O15 0.000000 0.500000 0.000000
#
# Coordination Sequence:
#
# PCOD8017606 Si02
#       7
#     2   2   2   2   2   2   2
#     4   9  17  35  64  87 110 156 206 241 286 357
#     4  11  20  37  64  88 119 157 209 241 295 359
#     4   9  18  34  62  86 112 154 207 234 294 358
#     4  11  22  38  64  93 119 156 204 255 288 348
#     4  11  23  39  61  90 126 157 200 246 306 355
#     4  11  21  36  63  92 116 156 200 247 293 363
#     4  10  22  39  63  86 119 166 198 241 306 363
#
# _framework density 23.293648000000001
#
# number of rings (size 3 to 8) (size 9 to 14) (size 15 to 20)
#    0.000    1.714    5.714    1.286    0.000    0.571 
#    0.000    0.714    0.000    1.714    0.000    0.000 
#    0.000    0.000    0.000    0.000    0.000    0.000 
#
# Total GULP energy -173545.476501 kJ/mol
# GULP energy per Si atom -12396.105464 kJ/mol
# Density = 2.324063 g / cm^3
# Si number density = 23.293648 Si / 1000 Ang^3
#
#
#
# Elastic Constant Matrix: (Units=GPa)
#
#
# Indices 1 2 3 4 5 6 
#
# 1 162.9219 90.6798 26.1712 7.2973 -13.0370 9.7548
# 2 90.6798 169.7825 36.1278 25.8148 -15.5006 11.9744
# 3 26.1712 36.1278 21.7880 11.2533 -5.3301 10.6638
# 4 7.2973 25.8148 11.2533 20.1282 4.3489 2.5308
# 5 -13.0370 -15.5006 -5.3301 4.3489 20.2434 -7.3083
# 6 9.7548 11.9744 10.6638 2.5308 -7.3083 52.9917
#
#
#
# Elastic Compliance Matrix: (Units=1/GPa)
#
#
# Indices 1 2 3 4 5 6 
#
# 1 0.009552 -0.004584 -0.007826 0.006900 -0.000750 0.000419
# 2 -0.004584 0.012334 -0.007753 -0.011562 0.007363 0.001184
# 3 -0.007826 -0.007753 0.105494 -0.049582 0.022937 -0.012505
# 4 0.006900 -0.011562 -0.049582 0.097751 -0.037953 0.001418
# 5 -0.000750 0.007363 0.022937 -0.037953 0.070704 0.005422
# 6 0.000419 0.001184 -0.012505 0.001418 0.005422 0.021723
#
#
# Mechanical properties :
#
#
# Convention : Reuss Voigt Hill
#
# Bulk Modulus (GPa) = 11.48702 73.38335 42.43518
# Shear Modulus (GPa) = 12.92318 32.10690 22.51504
#
# Velocity S-wave (km/s) = 2.35796 3.71665 3.11235
# Velocity P-wave (km/s) = 3.51503 7.07036 5.58325
#
# Compressibility (1/GPa) = 0.08705478
#
# Stress axis : x y z
#
# Youngs Moduli (GPa) = 104.68993 81.07391 9.47924
#
# Poissons Ratio (x) = 0.37161 0.07418
# Poissons Ratio (y) = 0.47985 0.07350
# Poissons Ratio (z) = 0.81929 0.62859
#
# Static dielectric constant tensor:
#      x y z
#    x 4.685820 0.285120 0.002780 
#    y 0.285120 4.379910 -0.244170 
#    z 0.002780 -0.244170 3.724800 
# 
# 
# High freq. dielectric constant tensor:
#      x y z
#    x 1.945090 0.011000 0.009190 
#    y 0.011000 1.933220 -0.019190 
#    z 0.009190 -0.019190 1.873330 
# 
# From -- ./inp_files/184837.got.cif
#   From: 2010.06.25/outbox.cif.g09.slc.cpg/sg2_93_cif.got.tgz:184837.got - 2010.06.27 13:26:56.
