data_PCOD8017379
_publ_section_title
;
Structure prediction by ZEFSAII (Michael W. Deem and Ramdas Pophale) SiO2 
 PCOD8017379
Probable space group: P -1
;
_chemical_formula_sum "Si O2"
_cell_formula_units_Z 16
_cell_length_a 17.133018
_cell_length_b 12.442082
_cell_length_c 14.337514
_cell_angle_alpha 125.756601
_cell_angle_beta 32.278211
_cell_angle_gamma 148.597705
_cell_volume 739.717504
_symmetry_space_group_name_H-M "P -1"
_symmetry_group_IT_number 2
_symmetry_cell_setting 'triclinic'
loop_
_space_group_symop_operation_xyz
x,y,z
-x,-y,-z
loop_
_atom_site_type_symbol
_atom_site_label
_atom_site_fract_x
_atom_site_fract_y
_atom_site_fract_z
Si Si1 0.574454 0.441435 0.184268
Si Si2 0.509163 0.089001 0.127024
Si Si3 0.063872 0.931264 0.047386
Si Si4 0.736751 0.650891 0.405689
Si Si5 0.044710 0.459102 0.841202
Si Si6 0.866228 0.256249 0.505990
Si Si7 0.404367 0.943223 0.669609
Si Si8 0.697917 0.614325 0.942888
O O1 0.577384 0.292308 0.139316
O O2 0.309097 0.304669 0.428561
O O3 0.824812 0.707371 0.108712
O O4 0.561666 0.443602 0.085261
O O5 0.248596 0.875874 0.344702
O O6 0.754605 0.195733 0.976465
O O7 0.500000 0.000000 0.000000
O O8 0.994419 0.883271 0.204138
O O9 0.164006 0.152689 0.034536
O O10 0.306680 0.015683 0.830959
O O11 0.500000 0.500000 0.500000
O O12 0.751739 0.507853 0.342297
O O13 0.167996 0.662452 0.754741
O O14 0.000000 0.500000 0.000000
O O15 0.628560 0.070952 0.579967
O O16 0.000000 0.500000 0.500000
O O17 0.085333 0.318589 0.284487
O O18 0.500000 0.000000 0.500000
O O19 0.500000 0.500000 0.000000
#
# Coordination Sequence:
#
# PCOD8017379 Si02
#       8
#     2   2   2   2   2   2   2   2
#     4  11  24  45  69 104 134 183 238 287 348 418
#     4  12  26  46  75 103 141 184 238 298 351 417
#     4  11  22  44  68 103 138 179 231 290 347 411
#     4  10  22  38  70 101 137 171 231 285 343 400
#     4  12  22  45  70 107 136 186 233 292 343 416
#     4  12  27  47  71 103 144 187 231 292 359 420
#     4  12  26  41  74 102 143 178 240 286 348 417
#     4  12  28  46  68  98 148 187 233 284 360 426
#
# _framework density 21.629878000000001
#
# number of rings (size 3 to 8) (size 9 to 14) (size 15 to 20)
#    0.000    0.500    3.750    4.125    7.000    2.000 
#    0.000    1.875    0.000    0.000    0.000    0.000 
#    0.000    0.000    0.000    0.000    0.000    0.000 
#
# Total GULP energy -198251.768360 kJ/mol
# GULP energy per Si atom -12390.735523 kJ/mol
# Density = 2.158065 g / cm^3
# Si number density = 21.629878 Si / 1000 Ang^3
#
#
#
# Elastic Constant Matrix: (Units=GPa)
#
#
# Indices 1 2 3 4 5 6 
#
# 1 111.7265 37.4477 75.1387 9.2820 16.7198 -1.7144
# 2 37.4477 108.0104 43.6593 7.6821 -5.9248 -16.9402
# 3 75.1387 43.6593 196.1829 24.1988 13.3817 -7.7710
# 4 9.2820 7.6821 24.1988 38.7461 -13.0772 -0.6290
# 5 16.7198 -5.9248 13.3817 -13.0772 49.7545 0.0736
# 6 -1.7144 -16.9402 -7.7710 -0.6290 0.0736 42.2851
#
#
#
# Elastic Compliance Matrix: (Units=1/GPa)
#
#
# Indices 1 2 3 4 5 6 
#
# 1 0.013542 -0.003453 -0.003999 -0.001535 -0.004287 -0.001585
# 2 -0.003453 0.011841 -0.001406 0.000463 0.003064 0.004347
# 3 -0.003999 -0.001406 0.007616 -0.004174 -0.001970 0.000615
# 4 -0.001535 0.000463 -0.004174 0.032109 0.010133 -0.000184
# 5 -0.004287 0.003064 -0.001970 0.010133 0.025096 0.000799
# 6 -0.001585 0.004347 0.000615 -0.000184 0.000799 0.025435
#
#
# Mechanical properties :
#
#
# Convention : Reuss Voigt Hill
#
# Bulk Modulus (GPa) = 65.44030 80.93459 73.18744
# Shear Modulus (GPa) = 36.11394 43.46875 39.79134
#
# Velocity S-wave (km/s) = 4.09055 4.48779 4.29376
# Velocity P-wave (km/s) = 7.25468 8.02202 7.64798
#
# Compressibility (1/GPa) = 0.01528110
#
# Stress axis : x y z
#
# Youngs Moduli (GPa) = 73.84313 84.45226 131.30865
#
# Poissons Ratio (x) = 0.29163 0.52514
# Poissons Ratio (y) = 0.25499 0.18468
# Poissons Ratio (z) = 0.29532 0.11878
#
# Static dielectric constant tensor:
#      x y z
#    x 3.944170 0.225240 0.124890 
#    y 0.225240 8.332320 -0.481350 
#    z 0.124890 -0.481350 4.533430 
# 
# 
# High freq. dielectric constant tensor:
#      x y z
#    x 1.851180 -0.010870 0.007190 
#    y -0.010870 1.849030 0.007460 
#    z 0.007190 0.007460 1.875490 
# 
# From -- ./inp_files/538462.got.cif
#   From: 2010.06.25/outbox.cif.g09.slc.cpg/sg2_270_cif.got.tgz:538462.got - 2010.06.27 13:26:56.
