data_PCOD8017542
_publ_section_title
;
Structure prediction by ZEFSAII (Michael W. Deem and Ramdas Pophale) SiO2 
 PCOD8017542
Probable space group: P -1
;
_chemical_formula_sum "Si O2"
_cell_formula_units_Z 16
_cell_length_a 8.645956
_cell_length_b 15.323654
_cell_length_c 22.298606
_cell_angle_alpha 18.406950
_cell_angle_beta 113.831880
_cell_angle_gamma 104.509630
_cell_volume 757.719520
_symmetry_space_group_name_H-M "P -1"
_symmetry_group_IT_number 2
_symmetry_cell_setting 'triclinic'
loop_
_space_group_symop_operation_xyz
x,y,z
-x,-y,-z
loop_
_atom_site_type_symbol
_atom_site_label
_atom_site_fract_x
_atom_site_fract_y
_atom_site_fract_z
Si Si1 0.931932 0.411276 0.987215
Si Si2 0.291023 0.841412 0.369012
Si Si3 0.795756 0.070078 0.942019
Si Si4 0.273678 0.964704 0.774278
Si Si5 0.334017 0.100761 0.088271
Si Si6 0.088961 0.470821 0.597929
Si Si7 0.661621 0.761257 0.508619
Si Si8 0.029548 0.301347 0.308604
O O1 0.754635 0.342493 0.019182
O O2 0.898005 0.678323 0.759911
O O3 0.082455 0.106309 0.176595
O O4 0.000000 0.500000 0.000000
O O5 0.275111 0.528612 0.585173
O O6 0.435315 0.905940 0.392990
O O7 0.346020 0.840336 0.307839
O O8 0.820948 0.873632 0.134952
O O9 0.701067 0.969378 0.939085
O O10 0.684516 0.436579 0.696359
O O11 0.000000 0.000000 0.000000
O O12 0.461537 0.902414 0.881835
O O13 0.310193 0.003518 0.685099
O O14 0.083999 0.283911 0.549357
O O15 0.166290 0.425444 0.874789
O O16 0.000000 0.500000 0.500000
O O17 0.792981 0.720136 0.611811
O O18 0.000000 0.000000 0.500000
#
# Coordination Sequence:
#
# PCOD8017542 Si02
#       8
#     2   2   2   2   2   2   2   2
#     4  10  22  42  65  85 118 160 199 250 304 355
#     4   9  23  40  60  89 123 156 201 244 293 362
#     4  12  22  37  62  89 125 161 199 244 290 360
#     4  10  22  39  62  87 119 159 199 244 294 359
#     4  10  22  41  62  91 119 160 204 240 298 355
#     4  11  23  37  57  85 124 161 196 240 294 347
#     4  11  23  40  62  91 121 159 201 246 299 350
#     4  11  23  41  64  88 120 154 201 257 299 351
#
# _framework density 21.115995000000002
#
# number of rings (size 3 to 8) (size 9 to 14) (size 15 to 20)
#    0.000    1.500    2.500    1.500    5.250    4.500 
#    0.000    5.000    0.000    0.000    0.000    0.000 
#    0.000    0.000    0.000    0.000    0.000    0.000 
#
# Total GULP energy -198262.668914 kJ/mol
# GULP energy per Si atom -12391.416807 kJ/mol
# Density = 2.106793 g / cm^3
# Si number density = 21.115995 Si / 1000 Ang^3
#
#
#
# Elastic Constant Matrix: (Units=GPa)
#
#
# Indices 1 2 3 4 5 6 
#
# 1 136.4079 47.7085 44.5861 13.8164 -29.8461 34.8101
# 2 47.7085 123.6322 38.3715 23.9322 -19.2096 17.5142
# 3 44.5861 38.3715 96.5323 15.8563 -33.5950 13.7296
# 4 13.8164 23.9322 15.8563 33.9693 6.0919 0.4483
# 5 -29.8461 -19.2096 -33.5950 6.0919 40.5847 2.5997
# 6 34.8101 17.5142 13.7296 0.4483 2.5997 32.0427
#
#
#
# Elastic Compliance Matrix: (Units=1/GPa)
#
#
# Indices 1 2 3 4 5 6 
#
# 1 0.016701 0.000731 0.003538 -0.012037 0.018735 -0.021410
# 2 0.000731 0.012299 0.001128 -0.011080 0.009508 -0.008617
# 3 0.003538 0.001128 0.021820 -0.016642 0.024694 -0.015580
# 4 -0.012037 -0.011080 -0.016642 0.056375 -0.038164 0.028571
# 5 0.018735 0.009508 0.024694 -0.038164 0.071740 -0.041417
# 6 -0.021410 -0.008617 -0.015580 0.028571 -0.041417 0.068814
#
#
# Mechanical properties :
#
#
# Convention : Reuss Voigt Hill
#
# Bulk Modulus (GPa) = 16.23006 68.65606 42.44306
# Shear Modulus (GPa) = 19.41798 36.37977 27.89887
#
# Velocity S-wave (km/s) = 3.03576 4.15523 3.63880
# Velocity P-wave (km/s) = 4.47109 7.45692 6.14802
#
# Compressibility (1/GPa) = 0.06161405
#
# Stress axis : x y z
#
# Youngs Moduli (GPa) = 59.87711 81.30667 45.82925
#
# Poissons Ratio (x) = -0.05946 -0.16214
# Poissons Ratio (y) = -0.04379 -0.05169
# Poissons Ratio (z) = -0.21184 -0.09170
#
# Static dielectric constant tensor:
#      x y z
#    x 4.430960 0.116140 -0.161110 
#    y 0.116140 3.622440 0.072880 
#    z -0.161110 0.072880 3.824040 
# 
# 
# High freq. dielectric constant tensor:
#      x y z
#    x 1.847280 0.015330 -0.008670 
#    y 0.015330 1.817350 0.011040 
#    z -0.008670 0.011040 1.826500 
# 
# From -- ./inp_files/177375.got.cif
#   From: 2010.06.25/outbox.cif.g09.slc.cpg/sg2_89_cif.got.tgz:177375.got - 2010.06.27 13:26:56.
