data_PCOD8017900
_publ_section_title
;
Structure prediction by ZEFSAII (Michael W. Deem and Ramdas Pophale) SiO2 
 PCOD8017900
Probable space group: P -1
;
_chemical_formula_sum "Si O2"
_cell_formula_units_Z 16
_cell_length_a 14.876818
_cell_length_b 23.647270
_cell_length_c 8.506925
_cell_angle_alpha 53.709453
_cell_angle_beta 126.703545
_cell_angle_gamma 161.260792
_cell_volume 766.919630
_symmetry_space_group_name_H-M "P -1"
_symmetry_group_IT_number 2
_symmetry_cell_setting 'triclinic'
loop_
_space_group_symop_operation_xyz
x,y,z
-x,-y,-z
loop_
_atom_site_type_symbol
_atom_site_label
_atom_site_fract_x
_atom_site_fract_y
_atom_site_fract_z
Si Si1 0.381129 0.554065 0.943045
Si Si2 0.558766 0.523190 0.341994
Si Si3 0.990877 0.874650 0.680725
Si Si4 0.583615 0.995304 0.955825
Si Si5 0.170723 0.537613 0.322240
Si Si6 0.009108 0.594262 0.989101
Si Si7 0.011356 0.310413 0.669343
Si Si8 0.703111 0.831391 0.611255
O O1 0.244270 0.438722 0.838599
O O2 0.549946 0.721748 0.794300
O O3 0.137699 0.433564 0.008336
O O4 0.582385 0.612009 0.136186
O O5 0.500000 0.500000 0.500000
O O6 0.857474 0.656448 0.397648
O O7 0.302543 0.328627 0.335231
O O8 0.931642 0.901282 0.703371
O O9 0.143091 0.004272 0.481540
O O10 0.195740 0.933825 0.864888
O O11 0.314221 0.800572 0.923959
O O12 0.715397 0.111031 0.752527
O O13 0.500000 0.000000 0.000000
O O14 0.046527 0.543769 0.209103
O O15 0.963986 0.363900 0.480268
O O16 0.484457 0.710814 0.434861
O O17 0.180499 0.527085 0.163527
#
# Coordination Sequence:
#
# PCOD8017900 Si02
#       8
#     2   2   2   2   2   2   2   2
#     4  11  21  38  62  92 119 162 211 246 300 371
#     4  12  23  40  65  92 127 160 201 256 318 362
#     4  11  21  40  63  91 120 157 210 250 306 360
#     4  12  23  38  61  94 126 160 205 252 302 366
#     4  10  22  41  61  89 123 165 202 250 313 357
#     4  11  23  40  62  91 126 166 200 255 307 369
#     4  11  22  39  64  91 121 165 207 253 299 369
#     4  10  22  39  68  87 114 164 208 262 290 364
#
# _framework density 20.862680999999998
#
# number of rings (size 3 to 8) (size 9 to 14) (size 15 to 20)
#    0.000    1.000    6.250    1.875    0.000    3.500 
#    0.000    3.125    0.000    0.000    0.000    0.000 
#    0.000    0.000    0.000    0.000    0.000    0.000 
#
# Total GULP energy -198378.628356 kJ/mol
# GULP energy per Si atom -12398.664272 kJ/mol
# Density = 2.081520 g / cm^3
# Si number density = 20.862681 Si / 1000 Ang^3
#
#
#
# Elastic Constant Matrix: (Units=GPa)
#
#
# Indices 1 2 3 4 5 6 
#
# 1 81.0866 22.3952 20.6516 -5.8816 6.5304 7.6577
# 2 22.3952 91.6110 41.3052 -33.2985 7.9137 12.4796
# 3 20.6516 41.3052 110.1148 -27.9193 16.0815 0.1930
# 4 -5.8816 -33.2985 -27.9193 42.0162 0.5983 -2.9138
# 5 6.5304 7.9137 16.0815 0.5983 35.8538 -2.7390
# 6 7.6577 12.4796 0.1930 -2.9138 -2.7390 21.0924
#
#
#
# Elastic Compliance Matrix: (Units=1/GPa)
#
#
# Indices 1 2 3 4 5 6 
#
# 1 0.013856 -0.002421 -0.001843 -0.001458 -0.001442 -0.003970
# 2 -0.002421 0.018696 -0.003069 0.011864 -0.003189 -0.008930
# 3 -0.001843 -0.003069 0.012783 0.006050 -0.004622 0.002604
# 4 -0.001458 0.011864 0.006050 0.036950 -0.005851 -0.002201
# 5 -0.001442 -0.003189 -0.004622 -0.005851 0.031466 0.005730
# 6 -0.003970 -0.008930 0.002604 -0.002201 0.005730 0.054551
#
#
# Mechanical properties :
#
#
# Convention : Reuss Voigt Hill
#
# Bulk Modulus (GPa) = 32.60723 50.16849 41.38786
# Shear Modulus (GPa) = 25.88121 33.02318 29.45219
#
# Velocity S-wave (km/s) = 3.52597 3.98286 3.76136
# Velocity P-wave (km/s) = 5.67802 6.72682 6.22455
#
# Compressibility (1/GPa) = 0.03066805
#
# Stress axis : x y z
#
# Youngs Moduli (GPa) = 72.17246 53.48787 78.22993
#
# Poissons Ratio (x) = 0.12950 0.14415
# Poissons Ratio (y) = 0.17474 0.24012
# Poissons Ratio (z) = 0.13299 0.16417
#
# Static dielectric constant tensor:
#      x y z
#    x 4.377070 -0.401980 0.023370 
#    y -0.401980 4.205060 -0.260520 
#    z 0.023370 -0.260520 4.092750 
# 
# 
# High freq. dielectric constant tensor:
#      x y z
#    x 1.806240 0.006880 0.019740 
#    y 0.006880 1.808360 -0.022320 
#    z 0.019740 -0.022320 1.827940 
# 
# From -- ./inp_files/320056.got.cif
#   From: 2010.06.25/outbox.cif.g09.slc.cpg/sg2_161_cif.got.tgz:320056.got - 2010.06.27 13:26:56.
