data_PCOD8017895
_publ_section_title
;
Structure prediction by ZEFSAII (Michael W. Deem and Ramdas Pophale) SiO2 
 PCOD8017895
Probable space group: P -1
;
_chemical_formula_sum "Si O2"
_cell_formula_units_Z 16
_cell_length_a 16.010757
_cell_length_b 17.996446
_cell_length_c 11.528817
_cell_angle_alpha 141.281049
_cell_angle_beta 36.354124
_cell_angle_gamma 157.107677
_cell_volume 755.356528
_symmetry_space_group_name_H-M "P -1"
_symmetry_group_IT_number 2
_symmetry_cell_setting 'triclinic'
loop_
_space_group_symop_operation_xyz
x,y,z
-x,-y,-z
loop_
_atom_site_type_symbol
_atom_site_label
_atom_site_fract_x
_atom_site_fract_y
_atom_site_fract_z
Si Si1 0.160164 0.930251 0.468995
Si Si2 0.118603 0.703317 0.404776
Si Si3 0.934910 0.334401 0.934375
Si Si4 0.804840 0.589733 0.054790
Si Si5 0.338697 0.740873 0.662090
Si Si6 0.537834 0.820724 0.047255
Si Si7 0.197353 0.801588 0.699236
Si Si8 0.032040 0.976260 0.306281
O O1 0.417874 0.156255 0.453427
O O2 0.121397 0.841223 0.527518
O O3 0.123427 0.806358 0.262286
O O4 0.987965 0.925872 0.639645
O O5 0.312232 0.750507 0.181398
O O6 0.159422 0.722833 0.519943
O O7 0.864019 0.489515 0.399336
O O8 0.141382 0.426322 0.897136
O O9 0.716342 0.205113 0.105697
O O10 0.000000 0.500000 0.000000
O O11 0.549805 0.367906 0.041402
O O12 0.827664 0.747123 0.225124
O O13 0.961696 0.641216 0.839660
O O14 0.371158 0.834207 0.618157
O O15 0.686592 0.989921 0.184663
O O16 0.717865 0.920092 0.860311
O O17 0.000000 0.000000 0.500000
#
# Coordination Sequence:
#
# PCOD8017895 Si02
#       8
#     2   2   2   2   2   2   2   2
#     4  12  25  40  63  95 134 169 213 264 323 377
#     4  12  23  41  68 104 125 159 221 272 327 374
#     4  11  20  39  61  95 130 159 207 273 321 369
#     4  10  22  42  64  93 127 171 218 255 319 383
#     4  11  23  37  65  98 131 160 210 270 325 378
#     4  11  22  41  69  94 126 169 216 265 320 376
#     4  10  22  39  68 100 127 163 209 275 327 381
#     4  11  26  45  62  90 134 182 217 251 313 395
#
# _framework density 21.182051000000001
#
# number of rings (size 3 to 8) (size 9 to 14) (size 15 to 20)
#    0.000    1.000    6.250    1.125    0.000    3.500 
#    0.000    2.500    0.000    4.500    0.000    0.000 
#    0.000    0.000    0.000    0.000    0.000    0.000 
#
# Total GULP energy -198269.663425 kJ/mol
# GULP energy per Si atom -12391.853964 kJ/mol
# Density = 2.113384 g / cm^3
# Si number density = 21.182051 Si / 1000 Ang^3
#
#
#
# Elastic Constant Matrix: (Units=GPa)
#
#
# Indices 1 2 3 4 5 6 
#
# 1 104.1251 21.9355 39.9251 -3.5556 -3.2760 -15.8932
# 2 21.9355 141.9910 37.8426 12.1346 -8.6961 -4.2912
# 3 39.9251 37.8426 77.3490 1.2156 -2.4369 -0.5962
# 4 -3.5556 12.1346 1.2156 25.8188 -6.9320 -4.6260
# 5 -3.2760 -8.6961 -2.4369 -6.9320 29.6151 5.5606
# 6 -15.8932 -4.2912 -0.5962 -4.6260 5.5606 26.7057
#
#
#
# Elastic Compliance Matrix: (Units=1/GPa)
#
#
# Indices 1 2 3 4 5 6 
#
# 1 0.013803 -0.000351 -0.006944 0.003987 0.000160 0.008661
# 2 -0.000351 0.008516 -0.003888 -0.003486 0.001288 0.000201
# 3 -0.006944 -0.003888 0.018401 -0.000731 0.000284 -0.004532
# 4 0.003987 -0.003486 -0.000731 0.044585 0.008332 0.007785
# 5 0.000160 0.001288 0.000284 0.008332 0.037264 -0.006008
# 6 0.008661 0.000201 -0.004532 0.007785 -0.006008 0.045130
#
#
# Mechanical properties :
#
#
# Convention : Reuss Voigt Hill
#
# Bulk Modulus (GPa) = 54.48609 58.09682 56.29146
# Shear Modulus (GPa) = 25.48629 31.34540 28.41585
#
# Velocity S-wave (km/s) = 3.47248 3.85100 3.66663
# Velocity P-wave (km/s) = 6.46963 6.87463 6.67520
#
# Compressibility (1/GPa) = 0.01835331
#
# Stress axis : x y z
#
# Youngs Moduli (GPa) = 72.44541 117.42476 54.34607
#
# Poissons Ratio (x) = 0.04121 0.37738
# Poissons Ratio (y) = 0.02543 0.21132
# Poissons Ratio (z) = 0.50307 0.45659
#
# Static dielectric constant tensor:
#      x y z
#    x 3.793340 -0.146830 0.002220 
#    y -0.146830 4.097410 0.130960 
#    z 0.002220 0.130960 3.776680 
# 
# 
# High freq. dielectric constant tensor:
#      x y z
#    x 1.801210 -0.014230 0.009180 
#    y -0.014230 1.849340 0.015450 
#    z 0.009180 0.015450 1.817040 
# 
# From -- ./inp_files/466996.got.cif
#   From: 2010.06.25/outbox.cif.g09.slc.cpg/sg2_234_cif.got.tgz:466996.got - 2010.06.27 13:26:56.
