data_PCOD8017203
_publ_section_title
;
Structure prediction by ZEFSAII (Michael W. Deem and Ramdas Pophale) SiO2 
 PCOD8017203
Probable space group: P -1
;
_chemical_formula_sum "Si O2"
_cell_formula_units_Z 16
_cell_length_a 15.282706
_cell_length_b 14.509117
_cell_length_c 15.277940
_cell_angle_alpha 46.467905
_cell_angle_beta 30.628882
_cell_angle_gamma 28.366881
_cell_volume 786.607226
_symmetry_space_group_name_H-M "P -1"
_symmetry_group_IT_number 2
_symmetry_cell_setting 'triclinic'
loop_
_space_group_symop_operation_xyz
x,y,z
-x,-y,-z
loop_
_atom_site_type_symbol
_atom_site_label
_atom_site_fract_x
_atom_site_fract_y
_atom_site_fract_z
Si Si1 0.991342 0.846100 0.850544
Si Si2 0.989204 0.548384 0.076208
Si Si3 0.495857 0.913765 0.641910
Si Si4 0.966401 0.129483 0.014107
Si Si5 0.555041 0.235777 0.508048
Si Si6 0.547151 0.875386 0.962178
Si Si7 0.596645 0.612690 0.649006
Si Si8 0.811742 0.834150 0.586712
O O1 0.949840 0.956318 0.901681
O O2 0.287304 0.719718 0.637595
O O3 0.982708 0.704588 0.983074
O O4 0.748206 0.012225 0.882742
O O5 0.256494 0.350954 0.028224
O O6 0.723348 0.627727 0.289050
O O7 0.000000 0.500000 0.000000
O O8 0.600966 0.711842 0.659187
O O9 0.677057 0.844983 0.612930
O O10 0.500000 0.000000 0.500000
O O11 0.177930 0.114637 0.811809
O O12 0.644537 0.352347 0.146374
O O13 0.000000 0.000000 0.000000
O O14 0.479400 0.264438 0.452732
O O15 0.777890 0.003712 0.496429
O O16 0.678338 0.867808 0.770334
O O17 0.500000 0.000000 0.000000
O O18 0.869726 0.378518 0.551697
#
# Coordination Sequence:
#
# PCOD8017203 Si02
#       8
#     2   2   2   2   2   2   2   2
#     4  11  24  43  70 100 134 179 226 275 345 398
#     4  12  24  46  71  96 135 177 228 287 344 400
#     4  11  20  37  66  94 128 181 222 272 341 398
#     4   9  20  39  63  91 136 171 215 273 324 398
#     4  11  23  42  67  97 134 177 218 279 338 401
#     4  12  24  45  71  99 134 177 226 285 338 400
#     4  10  22  38  62  94 132 177 222 274 334 397
#     4  12  22  41  66  96 138 172 231 277 330 410
#
# _framework density 20.340520999999999
#
# number of rings (size 3 to 8) (size 9 to 14) (size 15 to 20)
#    0.000    1.000    6.250    0.375    0.000    2.500 
#    0.000    1.875    0.000    0.000    0.000    0.000 
#    0.000    0.000    0.000    0.000    0.000    0.000 
#
# Total GULP energy -198212.227398 kJ/mol
# GULP energy per Si atom -12388.264212 kJ/mol
# Density = 2.029423 g / cm^3
# Si number density = 20.340521 Si / 1000 Ang^3
#
#
#
# Elastic Constant Matrix: (Units=GPa)
#
#
# Indices 1 2 3 4 5 6 
#
# 1 133.1529 34.3246 48.7778 9.7979 1.3787 -17.0506
# 2 34.3246 103.8968 40.0578 11.2094 -4.0625 -22.1210
# 3 48.7778 40.0578 150.9830 14.5389 -11.0615 -13.1491
# 4 9.7979 11.2094 14.5389 29.5901 -3.4394 1.4683
# 5 1.3787 -4.0625 -11.0615 -3.4394 35.1726 3.5816
# 6 -17.0506 -22.1210 -13.1491 1.4683 3.5816 27.7411
#
#
#
# Elastic Compliance Matrix: (Units=1/GPa)
#
#
# Indices 1 2 3 4 5 6 
#
# 1 0.009338 -0.001207 -0.002295 -0.001919 -0.001825 0.004026
# 2 -0.001207 0.013132 -0.001934 -0.004118 -0.000371 0.009079
# 3 -0.002295 -0.001934 0.008341 -0.002396 0.002169 0.000848
# 4 -0.001919 -0.004118 -0.002396 0.037960 0.003377 -0.008044
# 5 -0.001825 -0.000371 0.002169 0.003377 0.029924 -0.004432
# 6 0.004026 0.009079 0.000848 -0.008044 -0.004432 0.047162
#
#
# Mechanical properties :
#
#
# Convention : Reuss Voigt Hill
#
# Bulk Modulus (GPa) = 50.15273 70.48365 60.31819
# Shear Modulus (GPa) = 30.60456 36.15892 33.38174
#
# Velocity S-wave (km/s) = 3.88314 4.22083 4.05550
# Velocity P-wave (km/s) = 6.69441 7.64728 7.18665
#
# Compressibility (1/GPa) = 0.01993910
#
# Stress axis : x y z
#
# Youngs Moduli (GPa) = 107.09360 76.14790 119.88697
#
# Poissons Ratio (x) = 0.09193 0.27510
# Poissons Ratio (y) = 0.12929 0.23187
# Poissons Ratio (z) = 0.24574 0.14728
#
# Static dielectric constant tensor:
#      x y z
#    x 3.959600 -0.190540 -0.181930 
#    y -0.190540 3.472340 0.069000 
#    z -0.181930 0.069000 4.369960 
# 
# 
# High freq. dielectric constant tensor:
#      x y z
#    x 1.809870 -0.009070 0.001830 
#    y -0.009070 1.767430 0.011320 
#    z 0.001830 0.011320 1.817300 
# 
# From -- ./inp_files/217635.got.cif
#   From: 2010.06.25/outbox.cif.g09.slc.cpg/sg2_109_cif.got.tgz:217635.got - 2010.06.27 13:26:56.
