data_PCOD8017884
_publ_section_title
;
Structure prediction by ZEFSAII (Michael W. Deem and Ramdas Pophale) SiO2 
 PCOD8017884
Probable space group: P -1
;
_chemical_formula_sum "Si O2"
_cell_formula_units_Z 14
_cell_length_a 5.058101
_cell_length_b 14.378688
_cell_length_c 7.812950
_cell_angle_alpha 95.276650
_cell_angle_beta 105.593801
_cell_angle_gamma 74.584311
_cell_volume 527.491905
_symmetry_space_group_name_H-M "P -1"
_symmetry_group_IT_number 2
_symmetry_cell_setting 'triclinic'
loop_
_space_group_symop_operation_xyz
x,y,z
-x,-y,-z
loop_
_atom_site_type_symbol
_atom_site_label
_atom_site_fract_x
_atom_site_fract_y
_atom_site_fract_z
Si Si1 0.730838 0.362650 0.432621
Si Si2 0.428584 0.136424 0.856085
Si Si3 0.879840 0.506126 0.696152
Si Si4 0.775751 0.247749 0.763201
Si Si5 0.812528 0.168888 0.240048
Si Si6 0.225563 0.582202 0.996611
Si Si7 0.542236 0.943880 0.673491
O O1 0.950360 0.431406 0.529997
O O2 0.444220 0.437273 0.341545
O O3 0.682365 0.314970 0.595792
O O4 0.824985 0.278749 0.295866
O O5 0.566977 0.176456 0.722609
O O6 0.098543 0.187428 0.810714
O O7 0.465281 0.022173 0.825937
O O8 0.594881 0.160509 0.052342
O O9 0.068377 0.583359 0.780024
O O10 0.948570 0.439806 0.870367
O O11 0.721125 0.313145 0.939303
O O12 0.680308 0.123876 0.371696
O O13 0.133930 0.113442 0.247477
O O14 0.500000 0.500000 0.000000
O O15 0.500000 0.000000 0.500000
#
# Coordination Sequence:
#
# PCOD8017884 Si02
#       7
#     2   2   2   2   2   2   2
#     4  10  22  43  65  98 134 180 225 277 341 392
#     4  12  25  46  70  99 135 177 228 274 338 402
#     4   9  21  43  63  92 138 175 226 278 332 402
#     4  11  25  42  69  99 135 179 223 278 331 403
#     4  12  25  43  71 101 134 177 225 277 332 408
#     4  10  22  39  67  96 132 179 226 275 337 393
#     4  12  25  46  71 100 137 173 220 282 343 396
#
# _framework density 26.540690000000001
#
# number of rings (size 3 to 8) (size 9 to 14) (size 15 to 20)
#    0.000    1.143    0.000    5.571    8.000    0.000 
#    5.143    2.143    0.000    0.000    0.000    0.000 
#    0.000    0.000    0.000    0.000    0.000    0.000 
#
# Total GULP energy -173544.716719 kJ/mol
# GULP energy per Si atom -12396.051194 kJ/mol
# Density = 2.648028 g / cm^3
# Si number density = 26.540690 Si / 1000 Ang^3
#
#
#
# Elastic Constant Matrix: (Units=GPa)
#
#
# Indices 1 2 3 4 5 6 
#
# 1 110.2797 50.1799 -23.0849 19.5465 13.3881 -9.2064
# 2 50.1799 127.2108 24.2156 37.2413 4.6663 -2.5533
# 3 -23.0849 24.2156 111.2604 23.8668 4.6290 -7.3184
# 4 19.5465 37.2413 23.8668 44.4118 2.6198 0.5590
# 5 13.3881 4.6663 4.6290 2.6198 25.5816 1.2353
# 6 -9.2064 -2.5533 -7.3184 0.5590 1.2353 51.2739
#
#
#
# Elastic Compliance Matrix: (Units=1/GPa)
#
#
# Indices 1 2 3 4 5 6 
#
# 1 0.014632 -0.005103 0.005719 -0.004839 -0.007431 0.003421
# 2 -0.005103 0.012258 -0.002364 -0.006850 0.001593 -0.000607
# 3 0.005719 -0.002364 0.012574 -0.007078 -0.004251 0.002883
# 4 -0.004839 -0.006850 -0.007078 0.034127 0.001695 -0.002633
# 5 -0.007431 0.001593 -0.004251 0.001695 0.043426 -0.002927
# 6 0.003421 -0.000607 0.002883 -0.002633 -0.002927 0.020598
#
#
# Mechanical properties :
#
#
# Convention : Reuss Voigt Hill
#
# Bulk Modulus (GPa) = 27.80114 50.15246 38.97680
# Shear Modulus (GPa) = 32.65846 44.08281 38.37064
#
# Velocity S-wave (km/s) = 3.51166 4.07990 3.80640
# Velocity P-wave (km/s) = 5.19038 6.41339 5.83402
#
# Compressibility (1/GPa) = 0.03596975
#
# Stress axis : x y z
#
# Youngs Moduli (GPa) = 68.34197 81.57763 79.53094
#
# Poissons Ratio (x) = 0.41625 -0.45483
# Poissons Ratio (y) = 0.34872 0.18798
# Poissons Ratio (z) = -0.39084 0.19281
#
# Static dielectric constant tensor:
#      x y z
#    x 4.473500 0.600580 -0.113230 
#    y 0.600580 5.398940 0.241890 
#    z -0.113230 0.241890 5.745520 
# 
# 
# High freq. dielectric constant tensor:
#      x y z
#    x 2.064150 0.028400 -0.004440 
#    y 0.028400 2.082570 0.001540 
#    z -0.004440 0.001540 2.101760 
# 
# From -- ./inp_files/135772.got.cif
#   From: 2010.06.25/outbox.cif.g09.slc.cpg/sg2_68_cif.got.tgz:135772.got - 2010.06.27 13:26:56.
