data_PCOD8017106
_publ_section_title
;
Structure prediction by ZEFSAII (Michael W. Deem and Ramdas Pophale) SiO2 
 PCOD8017106
Probable space group: P -1
;
_chemical_formula_sum "Si O2"
_cell_formula_units_Z 14
_cell_length_a 7.898413
_cell_length_b 20.356144
_cell_length_c 17.902309
_cell_angle_alpha 158.550219
_cell_angle_beta 56.506332
_cell_angle_gamma 132.570845
_cell_volume 742.106424
_symmetry_space_group_name_H-M "P -1"
_symmetry_group_IT_number 2
_symmetry_cell_setting 'triclinic'
loop_
_space_group_symop_operation_xyz
x,y,z
-x,-y,-z
loop_
_atom_site_type_symbol
_atom_site_label
_atom_site_fract_x
_atom_site_fract_y
_atom_site_fract_z
Si Si1 0.200171 0.994725 0.033919
Si Si2 0.452901 0.769983 0.675554
Si Si3 0.240109 0.616997 0.914207
Si Si4 0.879754 0.143545 0.530308
Si Si5 0.724869 0.975136 0.683149
Si Si6 0.594307 0.080466 0.680887
Si Si7 0.318896 0.309787 0.208791
O O1 0.271684 0.830540 0.816107
O O2 0.911947 0.861464 0.964343
O O3 0.293883 0.091438 0.195544
O O4 0.321145 0.196872 0.164153
O O5 0.508887 0.824211 0.631965
O O6 0.318916 0.517829 0.452538
O O7 0.446084 0.612944 0.814917
O O8 0.006866 0.384426 0.727049
O O9 0.327594 0.696305 0.061946
O O10 0.175858 0.777149 0.059611
O O11 0.776056 0.118303 0.611110
O O12 0.059563 0.062106 0.402072
O O13 0.672346 0.012477 0.382155
O O14 0.609773 0.926334 0.575732
#
# Coordination Sequence:
#
# PCOD8017106 Si02
#       7
#     2   2   2   2   2   2   2
#     4  10  23  38  60  84 117 152 200 244 285 361
#     4  11  21  40  57  86 118 155 193 244 300 342
#     4  10  22  38  59  91 120 154 200 244 293 358
#     4  11  20  44  63  82 127 159 191 253 299 338
#     4  10  22  39  60  91 123 149 204 244 288 362
#     4   9  23  40  61  93 116 157 206 237 295 366
#     4  11  21  39  60  85 117 156 194 243 298 343
#
# _framework density 18.865220000000001
#
# number of rings (size 3 to 8) (size 9 to 14) (size 15 to 20)
#    0.857    0.857    2.857    1.714    2.000    0.000 
#    5.143    1.429    0.000    0.000    0.000    0.000 
#    0.000    0.000    0.000    0.000    0.000    0.000 
#
# Total GULP energy -173561.523167 kJ/mol
# GULP energy per Si atom -12397.251655 kJ/mol
# Density = 1.882228 g / cm^3
# Si number density = 18.865220 Si / 1000 Ang^3
#
#
#
# Elastic Constant Matrix: (Units=GPa)
#
#
# Indices 1 2 3 4 5 6 
#
# 1 62.6135 -16.5144 11.6202 -16.3212 7.4147 -4.6736
# 2 -16.5144-1157.2436 36.4518 -678.3759 693.9832 25.2491
# 3 11.6202 36.4518 81.0261 18.7160 -29.9734 -2.4008
# 4 -16.3212 -678.3759 18.7160 -358.1790 379.9065 19.4443
# 5 7.4147 693.9832 -29.9734 379.9065 -356.8072 -14.6749
# 6 -4.6736 25.2491 -2.4008 19.4443 -14.6749 15.7040
#
#
#
# Elastic Compliance Matrix: (Units=1/GPa)
#
#
# Indices 1 2 3 4 5 6 
#
# 1 0.017039 -0.001127 -0.001897 0.003704 0.002103 0.003971
# 2 -0.001127 0.009260 0.000660 -0.012489 0.004449 0.004498
# 3 -0.001897 0.000660 0.012776 0.002442 0.002774 -0.000103
# 4 0.003704 -0.012489 0.002442 0.040154 0.018771 -0.010621
# 5 0.002103 0.004449 0.002774 0.018771 0.025861 -0.005179
# 6 0.003971 0.004498 -0.000103 -0.010621 -0.005179 0.065922
#
#
# Mechanical properties :
#
#
# Convention : Reuss Voigt Hill
#
# Bulk Modulus (GPa) = 29.11462 -105.60990 -38.24764
# Shear Modulus (GPa) = 26.71113 -209.53389 -91.41138
#
# Velocity S-wave (km/s) = 3.76692 -10.55036 -6.96851
# Velocity P-wave (km/s) = 5.86396 14.30091 9.22307
#
# Compressibility (1/GPa) = 0.03434701
#
# Stress axis : x y z
#
# Youngs Moduli (GPa) = 58.68964 107.99453 78.27065
#
# Poissons Ratio (x) = 0.12167 0.14847
# Poissons Ratio (y) = 0.06612 -0.05163
# Poissons Ratio (z) = 0.11132 -0.07123
#
# Static dielectric constant tensor:
#      x y z
#    x 3.449180 -0.093830 -0.057790 
#    y -0.093830 3.379100 -0.030070 
#    z -0.057790 -0.030070 3.434730 
# 
# 
# High freq. dielectric constant tensor:
#      x y z
#    x 1.730590 -0.002570 -0.007370 
#    y -0.002570 1.739040 -0.002890 
#    z -0.007370 -0.002890 1.732990 
# 
# From -- ./inp_files/554453.got.cif
#   From: 2010.06.25/outbox.cif.g09.slc.cpg/sg2_278_cif.got.tgz:554453.got - 2010.06.27 13:26:56.
