data_PCOD8017134
_publ_section_title
;
Structure prediction by ZEFSAII (Michael W. Deem and Ramdas Pophale) SiO2 
 PCOD8017134
Probable space group: P -1
;
_chemical_formula_sum "Si O2"
_cell_formula_units_Z 14
_cell_length_a 6.593218
_cell_length_b 11.676628
_cell_length_c 10.928188
_cell_angle_alpha 64.669651
_cell_angle_beta 68.061066
_cell_angle_gamma 65.935080
_cell_volume 673.820947
_symmetry_space_group_name_H-M "P -1"
_symmetry_group_IT_number 2
_symmetry_cell_setting 'triclinic'
loop_
_space_group_symop_operation_xyz
x,y,z
-x,-y,-z
loop_
_atom_site_type_symbol
_atom_site_label
_atom_site_fract_x
_atom_site_fract_y
_atom_site_fract_z
Si Si1 0.503419 0.429004 0.693822
Si Si2 0.108519 0.563673 0.554648
Si Si3 0.241355 0.041809 0.187092
Si Si4 0.595579 0.178484 0.946759
Si Si5 0.615293 0.690335 0.634769
Si Si6 0.527527 0.932799 0.393279
Si Si7 0.249249 0.869422 0.813087
O O1 0.258161 0.459071 0.667137
O O2 0.713178 0.367372 0.579130
O O3 0.504357 0.325840 0.847167
O O4 0.535308 0.561734 0.685652
O O5 0.000000 0.500000 0.500000
O O6 0.884043 0.660461 0.627383
O O7 0.273479 0.921828 0.140122
O O8 0.302968 0.982091 0.336259
O O9 0.977901 0.129700 0.208694
O O10 0.382876 0.139243 0.068955
O O11 0.766727 0.177121 0.022182
O O12 0.585775 0.775516 0.475452
O O13 0.467948 0.770284 0.742676
O O14 0.500000 0.000000 0.500000
O O15 0.725991 0.980230 0.258881
#
# Coordination Sequence:
#
# PCOD8017134 Si02
#       7
#     2   2   2   2   2   2   2
#     4  10  22  38  61  89 118 158 196 244 303 348
#     4   9  21  38  57  89 120 153 194 243 295 358
#     4  10  22  39  62  86 120 160 203 247 291 353
#     4  10  23  40  59  89 118 156 210 242 291 356
#     4  10  22  38  60  91 122 151 198 245 304 355
#     4   9  21  37  58  90 122 152 196 242 297 356
#     4  10  22  41  61  87 121 161 198 245 300 352
#
# _framework density 20.777031999999998
#
# number of rings (size 3 to 8) (size 9 to 14) (size 15 to 20)
#    0.000    2.286    0.000    0.429    8.000    8.571 
#    0.000    1.429    0.000    0.000    0.000    0.000 
#    0.000    0.000    0.000    0.000    0.000    0.000 
#
# Total GULP energy -173497.296202 kJ/mol
# GULP energy per Si atom -12392.664014 kJ/mol
# Density = 2.072974 g / cm^3
# Si number density = 20.777032 Si / 1000 Ang^3
#
#
#
# Elastic Constant Matrix: (Units=GPa)
#
#
# Indices 1 2 3 4 5 6 
#
# 1 163.3466 42.2377 56.7352 3.5392 19.7416 -29.2775
# 2 42.2377 85.3581 50.3781 -8.9791 1.0128 -8.5984
# 3 56.7352 50.3781 115.6605 -18.5594 30.7254 -13.8155
# 4 3.5392 -8.9791 -18.5594 44.1454 -4.6542 -1.0839
# 5 19.7416 1.0128 30.7254 -4.6542 36.3080 2.4943
# 6 -29.2775 -8.5984 -13.8155 -1.0839 2.4943 30.3962
#
#
#
# Elastic Compliance Matrix: (Units=1/GPa)
#
#
# Indices 1 2 3 4 5 6 
#
# 1 0.009486 -0.003252 -0.001419 -0.002321 -0.004705 0.007876
# 2 -0.003252 0.018367 -0.008998 0.001117 0.009201 -0.002741
# 3 -0.001419 -0.008998 0.018569 0.004707 -0.014493 0.005886
# 4 -0.002321 0.001117 0.004707 0.025112 0.000392 0.001083
# 5 -0.004705 0.009201 -0.014493 0.000392 0.042985 -0.012030
# 6 0.007876 -0.002741 0.005886 0.001083 -0.012030 0.043410
#
#
# Mechanical properties :
#
#
# Convention : Reuss Voigt Hill
#
# Bulk Modulus (GPa) = 52.39334 73.67414 63.03374
# Shear Modulus (GPa) = 26.09225 36.50419 31.29822
#
# Velocity S-wave (km/s) = 3.54760 4.19615 3.88543
# Velocity P-wave (km/s) = 6.48478 7.68201 7.10864
#
# Compressibility (1/GPa) = 0.01908640
#
# Stress axis : x y z
#
# Youngs Moduli (GPa) = 105.41826 54.44576 53.85220
#
# Poissons Ratio (x) = 0.17704 0.07640
# Poissons Ratio (y) = 0.34279 0.48454
# Poissons Ratio (z) = 0.14955 0.48988
#
# Static dielectric constant tensor:
#      x y z
#    x 4.033380 -0.229980 0.081800 
#    y -0.229980 3.822820 -0.134710 
#    z 0.081800 -0.134710 3.937350 
# 
# 
# High freq. dielectric constant tensor:
#      x y z
#    x 1.823610 -0.001330 0.008130 
#    y -0.001330 1.794430 -0.003600 
#    z 0.008130 -0.003600 1.810750 
# 
# From -- ./inp_files/65875.got.cif
#   From: 2010.06.25/outbox.cif.g09.slc.cpg/sg2_33_cif.got.tgz:65875.got - 2010.06.27 13:26:56.
