data_PCOD8017888
_publ_section_title
;
Structure prediction by ZEFSAII (Michael W. Deem and Ramdas Pophale) SiO2 
 PCOD8017888
Probable space group: P -1
;
_chemical_formula_sum "Si O2"
_cell_formula_units_Z 16
_cell_length_a 13.794685
_cell_length_b 8.791048
_cell_length_c 14.634781
_cell_angle_alpha 125.838949
_cell_angle_beta 40.839516
_cell_angle_gamma 141.684777
_cell_volume 719.407303
_symmetry_space_group_name_H-M "P -1"
_symmetry_group_IT_number 2
_symmetry_cell_setting 'triclinic'
loop_
_space_group_symop_operation_xyz
x,y,z
-x,-y,-z
loop_
_atom_site_type_symbol
_atom_site_label
_atom_site_fract_x
_atom_site_fract_y
_atom_site_fract_z
Si Si1 0.100957 0.051989 0.830399
Si Si2 0.587368 0.293358 0.904241
Si Si3 0.076017 0.049801 0.564818
Si Si4 0.103462 0.390847 0.052497
Si Si5 0.230672 0.232592 0.167403
Si Si6 0.187080 0.556476 0.702287
Si Si7 0.600284 0.985971 0.647202
Si Si8 0.710438 0.146996 0.438223
O O1 0.238245 0.034857 0.663370
O O2 0.056842 0.883537 0.889153
O O3 0.903532 0.942958 0.881619
O O4 0.201508 0.335357 0.885318
O O5 0.741352 0.405278 0.915060
O O6 0.654620 0.486694 0.843829
O O7 0.561684 0.071717 0.796637
O O8 0.385712 0.192985 0.058773
O O9 0.135106 0.297790 0.651139
O O10 0.267016 0.079279 0.441473
O O11 0.000000 0.000000 0.500000
O O12 0.896284 0.824517 0.673018
O O13 0.978489 0.465113 0.129910
O O14 0.396722 0.753702 0.667343
O O15 0.161034 0.614784 0.635669
O O16 0.713882 0.200664 0.562847
O O17 0.500000 0.000000 0.500000
#
# Coordination Sequence:
#
# PCOD8017888 Si02
#       8
#     2   2   2   2   2   2   2   2
#     4   9  16  35  60  89 125 158 213 262 315 366
#     4  10  22  39  67  98 127 165 222 271 320 367
#     4  12  26  43  63  93 141 175 208 262 330 395
#     4   9  18  35  62  92 125 162 208 271 315 375
#     4  10  22  41  63  95 129 171 216 265 321 382
#     4  10  22  41  62  96 128 169 215 262 327 386
#     4  11  22  42  68  94 128 170 220 267 315 389
#     4   9  19  34  63  95 120 160 216 267 306 369
#
# _framework density 22.24053
#
# number of rings (size 3 to 8) (size 9 to 14) (size 15 to 20)
#    0.000    2.000    1.250    1.875    1.750    6.500 
#    2.250    5.000    0.000    0.000    0.000    0.000 
#    0.000    0.000    0.000    0.000    0.000    0.000 
#
# Total GULP energy -198266.261787 kJ/mol
# GULP energy per Si atom -12391.641362 kJ/mol
# Density = 2.218991 g / cm^3
# Si number density = 22.240530 Si / 1000 Ang^3
#
#
#
# Elastic Constant Matrix: (Units=GPa)
#
#
# Indices 1 2 3 4 5 6 
#
# 1 107.8412 22.1894 42.0200 2.2118 -27.4015 21.1164
# 2 22.1894 53.1361 23.5968 6.8550 -10.2189 13.7125
# 3 42.0200 23.5968 105.4662 7.5496 -28.7964 20.8734
# 4 2.2118 6.8550 7.5496 30.9355 2.6997 0.5961
# 5 -27.4015 -10.2189 -28.7964 2.6997 47.3683 -2.6743
# 6 21.1164 13.7125 20.8734 0.5961 -2.6743 24.9907
#
#
#
# Elastic Compliance Matrix: (Units=1/GPa)
#
#
# Indices 1 2 3 4 5 6 
#
# 1 0.013417 -0.001442 -0.001661 -0.000594 0.005994 -0.008503
# 2 -0.001442 0.023973 -0.001587 -0.004895 0.003078 -0.010164
# 3 -0.001661 -0.001587 0.014494 -0.003522 0.007202 -0.008977
# 4 -0.000594 -0.004895 -0.003522 0.034679 -0.005249 0.004740
# 5 0.005994 0.003078 0.007202 -0.005249 0.029384 -0.009500
# 6 -0.008503 -0.010164 -0.008977 0.004740 -0.009500 0.059145
#
#
# Mechanical properties :
#
#
# Convention : Reuss Voigt Hill
#
# Bulk Modulus (GPa) = 23.52666 49.11733 36.32199
# Shear Modulus (GPa) = 25.17142 32.56806 28.86974
#
# Velocity S-wave (km/s) = 3.36785 3.83084 3.60678
# Velocity P-wave (km/s) = 5.07193 6.45753 5.80621
#
# Compressibility (1/GPa) = 0.04250497
#
# Stress axis : x y z
#
# Youngs Moduli (GPa) = 74.53236 41.71403 68.99556
#
# Poissons Ratio (x) = 0.06013 0.11460
# Poissons Ratio (y) = 0.10744 0.10948
# Poissons Ratio (z) = 0.12380 0.06619
#
# Static dielectric constant tensor:
#      x y z
#    x 4.095020 -0.144300 -0.063600 
#    y -0.144300 3.822720 -0.079820 
#    z -0.063600 -0.079820 4.463160 
# 
# 
# High freq. dielectric constant tensor:
#      x y z
#    x 1.880120 0.008620 -0.014420 
#    y 0.008620 1.838150 0.001790 
#    z -0.014420 0.001790 1.890710 
# 
# From -- ./inp_files/530224.got.cif
#   From: 2010.06.25/outbox.cif.g09.slc.cpg/sg2_266_cif.got.tgz:530224.got - 2010.06.27 13:26:56.
