data_PCOD8017275
_publ_section_title
;
Structure prediction by ZEFSAII (Michael W. Deem and Ramdas Pophale) SiO2 
 PCOD8017275
Probable space group: P -1
;
_chemical_formula_sum "Si O2"
_cell_formula_units_Z 12
_cell_length_a 4.969309
_cell_length_b 28.329445
_cell_length_c 9.538154
_cell_angle_alpha 26.964212
_cell_angle_beta 78.874174
_cell_angle_gamma 75.750782
_cell_volume 589.053944
_symmetry_space_group_name_H-M "P -1"
_symmetry_group_IT_number 2
_symmetry_cell_setting 'triclinic'
loop_
_space_group_symop_operation_xyz
x,y,z
-x,-y,-z
loop_
_atom_site_type_symbol
_atom_site_label
_atom_site_fract_x
_atom_site_fract_y
_atom_site_fract_z
Si Si1 0.277411 0.632559 0.299998
Si Si2 0.215215 0.409532 0.847635
Si Si3 0.625128 0.381500 0.345598
Si Si4 0.548225 0.876365 0.342706
Si Si5 0.971916 0.226294 0.261817
Si Si6 0.759943 0.700986 0.592919
O O1 0.111366 0.535554 0.534159
O O2 0.563853 0.619468 0.221172
O O3 0.347752 0.634586 0.449399
O O4 0.086723 0.743481 0.976865
O O5 0.355702 0.370566 0.085908
O O6 0.963142 0.342296 0.029333
O O7 0.415977 0.305244 0.514164
O O8 0.921023 0.345727 0.340635
O O9 0.500000 0.500000 0.000000
O O10 0.255501 0.836339 0.485885
O O11 0.719958 0.821390 0.336588
O O12 0.726704 0.844486 0.551627
O O13 0.500000 0.000000 0.000000
#
# Coordination Sequence:
#
# PCOD8017275 Si02
#       6
#     2   2   2   2   2   2
#     4  11  23  38  62  95 137 180 206 257 314 394
#     4  10  22  38  65  92 134 172 224 250 311 383
#     4  12  26  40  60  95 143 179 206 245 326 394
#     4  11  24  44  73  96 120 162 228 292 326 359
#     4  11  21  40  63  99 123 159 219 273 318 376
#     4  11  23  43  63  93 131 169 221 266 310 390
#
# _framework density 20.371649000000001
#
# number of rings (size 3 to 8) (size 9 to 14) (size 15 to 20)
#    0.000    1.000    5.000    3.500    2.333    0.000 
#    0.000    0.000    0.000    6.000    0.000    0.000 
#    0.000    0.000    0.000    0.000    0.000    0.000 
#
# Total GULP energy -148711.734407 kJ/mol
# GULP energy per Si atom -12392.644534 kJ/mol
# Density = 2.032528 g / cm^3
# Si number density = 20.371649 Si / 1000 Ang^3
#
#
#
# Elastic Constant Matrix: (Units=GPa)
#
#
# Indices 1 2 3 4 5 6 
#
# 1 124.1094 42.5583 57.2963 -10.7598 1.7418 9.7349
# 2 42.5583 94.9719 61.8254 -6.2931 12.3097 1.3034
# 3 57.2963 61.8254 140.3533 -21.7370 13.0161 14.8377
# 4 -10.7598 -6.2931 -21.7370 28.8844 5.3014 6.8416
# 5 1.7418 12.3097 13.0161 5.3014 39.9469 3.8209
# 6 9.7349 1.3034 14.8377 6.8416 3.8209 26.7783
#
#
#
# Elastic Compliance Matrix: (Units=1/GPa)
#
#
# Indices 1 2 3 4 5 6 
#
# 1 0.010671 -0.003187 -0.002463 0.001897 0.001358 -0.003038
# 2 -0.003187 0.016433 -0.006795 -0.003494 -0.002765 0.005411
# 3 -0.002463 -0.006795 0.014004 0.010781 -0.002944 -0.008868
# 4 0.001897 -0.003494 0.010781 0.048216 -0.007217 -0.017783
# 5 0.001358 -0.002765 -0.002944 -0.007217 0.027825 -0.000854
# 6 -0.003038 0.005411 -0.008868 -0.017783 -0.000854 0.047763
#
#
# Mechanical properties :
#
#
# Convention : Reuss Voigt Hill
#
# Bulk Modulus (GPa) = 61.65864 75.86607 68.76235
# Shear Modulus (GPa) = 25.61357 32.30555 28.95956
#
# Velocity S-wave (km/s) = 3.54971 3.98654 3.77445
# Velocity P-wave (km/s) = 6.86536 7.64931 7.26791
#
# Compressibility (1/GPa) = 0.01621833
#
# Stress axis : x y z
#
# Youngs Moduli (GPa) = 93.71024 60.85200 71.40897
#
# Poissons Ratio (x) = 0.19393 0.17591
# Poissons Ratio (y) = 0.29864 0.48520
# Poissons Ratio (z) = 0.23085 0.41347
#
# Static dielectric constant tensor:
#      x y z
#    x 3.895900 0.214180 0.122050 
#    y 0.214180 3.745850 0.198980 
#    z 0.122050 0.198980 3.895940 
# 
# 
# High freq. dielectric constant tensor:
#      x y z
#    x 1.817750 0.016290 0.006110 
#    y 0.016290 1.765920 0.014470 
#    z 0.006110 0.014470 1.784110 
# 
# From -- ./inp_files/142801.got.cif
#   From: 2010.06.25/outbox.cif.g09.slc.cpg/sg2_72_cif.got.tgz:142801.got - 2010.06.27 13:26:56.
