data_PCOD8017955
_publ_section_title
;
Structure prediction by ZEFSAII (Michael W. Deem and Ramdas Pophale) SiO2 
 PCOD8017955
Probable space group: P -1
;
_chemical_formula_sum "Si O2"
_cell_formula_units_Z 12
_cell_length_a 5.162674
_cell_length_b 9.590059
_cell_length_c 15.990957
_cell_angle_alpha 123.894941
_cell_angle_beta 73.068694
_cell_angle_gamma 75.848790
_cell_volume 539.883816
_symmetry_space_group_name_H-M "P -1"
_symmetry_group_IT_number 2
_symmetry_cell_setting 'triclinic'
loop_
_space_group_symop_operation_xyz
x,y,z
-x,-y,-z
loop_
_atom_site_type_symbol
_atom_site_label
_atom_site_fract_x
_atom_site_fract_y
_atom_site_fract_z
Si Si1 0.853048 0.256178 0.312201
Si Si2 0.305337 0.274792 0.766271
Si Si3 0.850018 0.617615 0.361102
Si Si4 0.332793 0.170170 0.382202
Si Si5 0.758384 0.050850 0.964987
Si Si6 0.639619 0.499952 0.850750
O O1 0.520941 0.274330 0.369338
O O2 0.772619 0.452006 0.337437
O O3 0.030930 0.239170 0.375826
O O4 0.064589 0.068473 0.173290
O O5 0.461725 0.380566 0.834037
O O6 0.376751 0.260187 0.654636
O O7 0.439163 0.062136 0.721462
O O8 0.926213 0.404037 0.859066
O O9 0.214530 0.515354 0.261269
O O10 0.793567 0.764629 0.490516
O O11 0.500000 0.000000 0.000000
O O12 0.600023 0.276170 0.029879
O O13 0.000000 0.000000 0.000000
#
# Coordination Sequence:
#
# PCOD8017955 Si02
#       6
#     2   2   2   2   2   2
#     4  12  26  41  65 100 132 163 212 274 330 364
#     4  10  23  42  66  94 130 173 222 246 317 392
#     4  10  24  41  71  90 132 170 224 253 314 388
#     4  12  26  42  62 100 137 169 201 270 334 376
#     4  12  22  43  69  94 127 166 221 265 313 383
#     4  10  22  39  70  93 117 168 232 257 298 368
#
# _framework density 22.227008000000001
#
# number of rings (size 3 to 8) (size 9 to 14) (size 15 to 20)
#    1.000    0.000    1.667    5.500    4.667    0.667 
#    0.000    5.000    0.000    0.000    0.000    0.000 
#    0.000    0.000    0.000    0.000    0.000    0.000 
#
# Total GULP energy -148821.386792 kJ/mol
# GULP energy per Si atom -12401.782233 kJ/mol
# Density = 2.217642 g / cm^3
# Si number density = 22.227008 Si / 1000 Ang^3
#
#
#
# Elastic Constant Matrix: (Units=GPa)
#
#
# Indices 1 2 3 4 5 6 
#
# 1 101.6134 34.8829 15.9276 12.5004 13.7423 24.0869
# 2 34.8829 72.5521 -26.4241 12.1379 4.7410 2.0815
# 3 15.9276 -26.4241 55.9956 6.4666 -5.0118 9.2114
# 4 12.5004 12.1379 6.4666 30.6866 -4.2005 4.1238
# 5 13.7423 4.7410 -5.0118 -4.2005 16.7700 10.6411
# 6 24.0869 2.0815 9.2114 4.1238 10.6411 24.4702
#
#
#
# Elastic Compliance Matrix: (Units=1/GPa)
#
#
# Indices 1 2 3 4 5 6 
#
# 1 0.019268 -0.011931 -0.010236 -0.000953 -0.009488 -0.009811
# 2 -0.011931 0.026980 0.016853 -0.009505 0.002512 0.003614
# 3 -0.010236 0.016853 0.032904 -0.005286 0.019257 -0.011228
# 4 -0.000953 -0.009505 -0.005286 0.042247 0.020187 -0.012162
# 5 -0.009488 0.002512 0.019257 0.020187 0.108380 -0.048655
# 6 -0.009811 0.003614 -0.011228 -0.012162 -0.048655 0.077650
#
#
# Mechanical properties :
#
#
# Convention : Reuss Voigt Hill
#
# Bulk Modulus (GPa) = 14.59327 30.99267 22.79297
# Shear Modulus (GPa) = 14.66719 28.10368 21.38544
#
# Velocity S-wave (km/s) = 2.57160 3.55969 3.10520
# Velocity P-wave (km/s) = 3.92394 5.55600 4.80970
#
# Compressibility (1/GPa) = 0.06852476
#
# Stress axis : x y z
#
# Youngs Moduli (GPa) = 51.90084 37.06448 30.39141
#
# Poissons Ratio (x) = 0.44221 0.31108
# Poissons Ratio (y) = 0.61922 -0.51220
# Poissons Ratio (z) = 0.53125 -0.62466
#
# Static dielectric constant tensor:
#      x y z
#    x 3.976540 0.038860 0.075100 
#    y 0.038860 3.915310 0.160150 
#    z 0.075100 0.160150 3.896650 
# 
# 
# High freq. dielectric constant tensor:
#      x y z
#    x 1.882060 0.004520 0.002810 
#    y 0.004520 1.879390 0.009580 
#    z 0.002810 0.009580 1.872070 
# 
# From -- ./inp_files/59761.got.cif
#   From: 2010.06.25/outbox.cif.g09.slc.cpg/sg2_30_cif.got.tgz:59761.got - 2010.06.27 13:26:56.
