data_PCOD8017824
_publ_section_title
;
Structure prediction by ZEFSAII (Michael W. Deem and Ramdas Pophale) SiO2 
 PCOD8017824
Probable space group: P -1
;
_chemical_formula_sum "Si O2"
_cell_formula_units_Z 16
_cell_length_a 18.685863
_cell_length_b 6.228986
_cell_length_c 8.527723
_cell_angle_alpha 57.484489
_cell_angle_beta 116.473041
_cell_angle_gamma 126.664826
_cell_volume 659.854628
_symmetry_space_group_name_H-M "P -1"
_symmetry_group_IT_number 2
_symmetry_cell_setting 'triclinic'
loop_
_space_group_symop_operation_xyz
x,y,z
-x,-y,-z
loop_
_atom_site_type_symbol
_atom_site_label
_atom_site_fract_x
_atom_site_fract_y
_atom_site_fract_z
Si Si1 0.860234 0.192719 0.580872
Si Si2 0.434728 0.257015 0.409770
Si Si3 0.421794 0.676101 0.710416
Si Si4 0.314119 0.316567 0.026670
Si Si5 0.974283 0.885068 0.848705
Si Si6 0.153917 0.286316 0.739710
Si Si7 0.744531 0.689962 0.483794
Si Si8 0.182732 0.693853 0.164527
O O1 0.889836 0.499060 0.406255
O O2 0.849940 0.209854 0.748970
O O3 0.926147 0.056949 0.653379
O O4 0.764079 0.968604 0.497290
O O5 0.500000 0.500000 0.500000
O O6 0.478732 0.237836 0.292170
O O7 0.351307 0.309820 0.242229
O O8 0.401421 0.949627 0.584437
O O9 0.359147 0.439101 0.615951
O O10 0.400133 0.524880 0.919801
O O11 0.250961 0.988125 0.023450
O O12 0.235959 0.419941 0.898955
O O13 0.909265 0.538805 0.921306
O O14 0.070576 0.971529 0.824443
O O15 0.000000 0.000000 0.000000
O O16 0.191876 0.241725 0.631736
O O17 0.753735 0.450488 0.688581
#
# Coordination Sequence:
#
# PCOD8017824 Si02
#       8
#     2   2   2   2   2   2   2   2
#     4  10  22  39  66  93 132 179 228 280 336 390
#     4  11  25  45  72 101 136 173 217 282 338 405
#     4  10  23  44  68 101 134 171 222 270 342 407
#     4  11  23  44  70  98 140 177 222 275 342 399
#     4  11  24  41  60  95 134 182 233 276 336 384
#     4  10  23  40  62  96 131 178 230 278 330 400
#     4   9  20  40  66  94 128 176 221 276 339 393
#     4  10  22  41  65  93 136 176 222 282 326 395
#
# _framework density 24.247764
#
# number of rings (size 3 to 8) (size 9 to 14) (size 15 to 20)
#    0.000    1.750    1.250    1.500    1.750   10.000 
#    0.000    7.500    0.000    0.000    0.000    0.000 
#    0.000    0.000    0.000    0.000    0.000    0.000 
#
# Total GULP energy -198211.450815 kJ/mol
# GULP energy per Si atom -12388.215676 kJ/mol
# Density = 2.419257 g / cm^3
# Si number density = 24.247764 Si / 1000 Ang^3
#
#
#
# Elastic Constant Matrix: (Units=GPa)
#
#
# Indices 1 2 3 4 5 6 
#
# 1 59.1970 15.7881 18.6481 -10.9744 -0.4094 7.9909
# 2 15.7881 149.4224 52.3243 7.2371 -8.8213 8.6772
# 3 18.6481 52.3243 111.6152 -12.7327 5.5921 16.8313
# 4 -10.9744 7.2371 -12.7327 44.1822 15.1948 -1.7090
# 5 -0.4094 -8.8213 5.5921 15.1948 23.8043 -3.5865
# 6 7.9909 8.6772 16.8313 -1.7090 -3.5865 22.8903
#
#
#
# Elastic Compliance Matrix: (Units=1/GPa)
#
#
# Indices 1 2 3 4 5 6 
#
# 1 0.019675 -0.002359 -0.000134 0.007035 -0.005941 -0.006281
# 2 -0.002359 0.009799 -0.005893 -0.007217 0.009953 0.002463
# 3 -0.000134 -0.005893 0.015011 0.009425 -0.013255 -0.010130
# 4 0.007035 -0.007217 0.009425 0.038479 -0.030622 -0.008575
# 5 -0.005941 0.009953 -0.013255 -0.030622 0.070795 0.016854
# 6 -0.006281 0.002463 -0.010130 -0.008575 0.016854 0.054395
#
#
# Mechanical properties :
#
#
# Convention : Reuss Voigt Hill
#
# Bulk Modulus (GPa) = 36.08275 54.86175 45.47225
# Shear Modulus (GPa) = 21.35249 33.74029 27.54639
#
# Velocity S-wave (km/s) = 2.97070 3.73430 3.37417
# Velocity P-wave (km/s) = 5.16526 6.42401 5.82872
#
# Compressibility (1/GPa) = 0.02771408
#
# Stress axis : x y z
#
# Youngs Moduli (GPa) = 50.82570 102.04654 66.61659
#
# Poissons Ratio (x) = 0.24069 0.00893
# Poissons Ratio (y) = 0.11988 0.39258
# Poissons Ratio (z) = 0.00681 0.60138
#
# Static dielectric constant tensor:
#      x y z
#    x 4.684210 0.438080 0.240990 
#    y 0.438080 4.484400 -0.175960 
#    z 0.240990 -0.175960 4.664470 
# 
# 
# High freq. dielectric constant tensor:
#      x y z
#    x 1.952220 0.019100 0.014550 
#    y 0.019100 1.958580 -0.011010 
#    z 0.014550 -0.011010 1.968040 
# 
# From -- ./inp_files/340158.got.cif
#   From: 2010.06.25/outbox.cif.g09.slc.cpg/sg2_171_cif.got.tgz:340158.got - 2010.06.27 13:26:56.
