data_PCOD8017912
_publ_section_title
;
Structure prediction by ZEFSAII (Michael W. Deem and Ramdas Pophale) SiO2 
 PCOD8017912
Probable space group: P -1
;
_chemical_formula_sum "Si O2"
_cell_formula_units_Z 12
_cell_length_a 5.027268
_cell_length_b 11.531548
_cell_length_c 12.534786
_cell_angle_alpha 126.390596
_cell_angle_beta 107.010998
_cell_angle_gamma 59.657666
_cell_volume 504.808681
_symmetry_space_group_name_H-M "P -1"
_symmetry_group_IT_number 2
_symmetry_cell_setting 'triclinic'
loop_
_space_group_symop_operation_xyz
x,y,z
-x,-y,-z
loop_
_atom_site_type_symbol
_atom_site_label
_atom_site_fract_x
_atom_site_fract_y
_atom_site_fract_z
Si Si1 0.639379 0.797076 0.241452
Si Si2 0.477011 0.068221 0.209273
Si Si3 0.696545 0.317700 0.697664
Si Si4 0.360042 0.392785 0.478185
Si Si5 0.939588 0.840606 0.982273
Si Si6 0.647311 0.647269 0.952604
O O1 0.388327 0.784363 0.282160
O O2 0.938667 0.778453 0.334852
O O3 0.478846 0.969617 0.261344
O O4 0.767511 0.649986 0.089353
O O5 0.446042 0.240491 0.330907
O O6 0.191108 0.088533 0.110624
O O7 0.794708 0.973573 0.130162
O O8 0.499782 0.335496 0.579398
O O9 0.621864 0.489025 0.831333
O O10 0.500000 0.500000 0.500000
O O11 0.000000 0.500000 0.500000
O O12 0.852312 0.692689 0.917808
O O13 0.301484 0.788566 0.992415
#
# Coordination Sequence:
#
# PCOD8017912 Si02
#       6
#     2   2   2   2   2   2
#     4  11  24  39  63  94 130 170 201 255 312 370
#     4  10  24  43  64  95 129 162 214 255 312 374
#     4  12  24  41  64  95 130 166 207 251 313 377
#     4  12  27  46  69  92 122 165 211 264 314 369
#     4  10  22  39  68  94 123 167 208 266 306 351
#     4  11  21  40  65  95 128 163 213 257 306 362
#
# _framework density 23.771383
#
# number of rings (size 3 to 8) (size 9 to 14) (size 15 to 20)
#    0.000    1.000    0.000    7.000    0.000   12.667 
#    0.000    0.000    0.000    0.000    0.000    0.000 
#    0.000    0.000    0.000    0.000    0.000    0.000 
#
# Total GULP energy -148856.365749 kJ/mol
# GULP energy per Si atom -12404.697146 kJ/mol
# Density = 2.371728 g / cm^3
# Si number density = 23.771383 Si / 1000 Ang^3
#
#
#
# Elastic Constant Matrix: (Units=GPa)
#
#
# Indices 1 2 3 4 5 6 
#
# 1 84.1993 19.8325 11.2854 0.5311 0.9614 3.0917
# 2 19.8325 98.0471 50.3352 -5.6248 3.7919 17.5696
# 3 11.2854 50.3352 101.8533 5.1900 14.4505 6.5134
# 4 0.5311 -5.6248 5.1900 46.9542 1.0215 10.9685
# 5 0.9614 3.7919 14.4505 1.0215 22.4561 -13.0244
# 6 3.0917 17.5696 6.5134 10.9685 -13.0244 45.2626
#
#
#
# Elastic Compliance Matrix: (Units=1/GPa)
#
#
# Indices 1 2 3 4 5 6 
#
# 1 0.012485 -0.002548 -0.000151 -0.000515 0.000216 0.000345
# 2 -0.002548 0.015841 -0.007054 0.004289 -0.002042 -0.006587
# 3 -0.000151 -0.007054 0.014816 -0.001920 -0.009149 -0.001551
# 4 -0.000515 0.004289 -0.001920 0.024225 -0.005712 -0.008868
# 5 0.000216 -0.002042 -0.009149 -0.005712 0.063655 0.021796
# 6 0.000345 -0.006587 -0.001551 -0.008868 0.021796 0.033270
#
#
# Mechanical properties :
#
#
# Convention : Reuss Voigt Hill
#
# Bulk Modulus (GPa) = 42.30626 49.66735 45.98680
# Shear Modulus (GPa) = 26.08558 36.44435 31.26496
#
# Velocity S-wave (km/s) = 3.31622 3.91975 3.63055
# Velocity P-wave (km/s) = 5.70078 6.43623 6.07964
#
# Compressibility (1/GPa) = 0.02363716
#
# Stress axis : x y z
#
# Youngs Moduli (GPa) = 80.09610 63.12614 67.49575
#
# Poissons Ratio (x) = 0.16083 0.01018
# Poissons Ratio (y) = 0.20406 0.47611
# Poissons Ratio (z) = 0.01208 0.44529
#
# Static dielectric constant tensor:
#      x y z
#    x 4.254590 -0.061540 0.118090 
#    y -0.061540 4.517790 -0.271260 
#    z 0.118090 -0.271260 4.460330 
# 
# 
# High freq. dielectric constant tensor:
#      x y z
#    x 1.953980 0.002040 0.012940 
#    y 0.002040 1.962800 -0.010300 
#    z 0.012940 -0.010300 1.927790 
# 
# From -- ./inp_files/363469.got.cif
#   From: 2010.06.25/outbox.cif.g09.slc.cpg/sg2_182_cif.got.tgz:363469.got - 2010.06.27 13:26:56.
