data_PCOD8017297
_publ_section_title
;
Structure prediction by ZEFSAII (Michael W. Deem and Ramdas Pophale) SiO2 
 PCOD8017297
Probable space group: P -1
;
_chemical_formula_sum "Si O2"
_cell_formula_units_Z 16
_cell_length_a 9.358660
_cell_length_b 11.707139
_cell_length_c 9.641501
_cell_angle_alpha 96.238878
_cell_angle_beta 44.271651
_cell_angle_gamma 90.078104
_cell_volume 728.569359
_symmetry_space_group_name_H-M "P -1"
_symmetry_group_IT_number 2
_symmetry_cell_setting 'triclinic'
loop_
_space_group_symop_operation_xyz
x,y,z
-x,-y,-z
loop_
_atom_site_type_symbol
_atom_site_label
_atom_site_fract_x
_atom_site_fract_y
_atom_site_fract_z
Si Si1 0.789261 0.450328 0.091397
Si Si2 0.092227 0.092468 0.544495
Si Si3 0.193286 0.988809 0.763875
Si Si4 0.579539 0.357222 0.691114
Si Si5 0.590360 0.871401 0.888349
Si Si6 0.821255 0.268147 0.262352
Si Si7 0.279207 0.176543 0.915205
Si Si8 0.253962 0.702890 0.149846
O O1 0.591615 0.544261 0.230208
O O2 0.714994 0.354492 0.233350
O O3 0.827648 0.388463 0.909653
O O4 0.000000 0.500000 0.000000
O O5 0.297730 0.130615 0.337541
O O6 0.937727 0.207366 0.666685
O O7 0.137252 0.041339 0.659056
O O8 0.000000 0.000000 0.500000
O O9 0.278235 0.853520 0.679970
O O10 0.341726 0.065679 0.755546
O O11 0.000000 0.000000 0.000000
O O12 0.774424 0.334470 0.449179
O O13 0.474646 0.240704 0.758602
O O14 0.668119 0.378177 0.784599
O O15 0.744747 0.847577 0.907823
O O16 0.429488 0.776606 0.977085
O O17 0.500000 0.000000 0.000000
O O18 0.060587 0.249840 0.045954
#
# Coordination Sequence:
#
# PCOD8017297 Si02
#       8
#     2   2   2   2   2   2   2   2
#     4  12  26  49  70  92 134 180 234 292 332 383
#     4  12  22  41  69 103 144 180 216 270 349 415
#     4  10  22  38  65  99 138 176 215 268 340 408
#     4  11  24  45  70  96 129 177 228 277 337 399
#     4  11  24  39  66 101 144 178 217 270 335 418
#     4  11  23  42  68  93 133 176 222 280 336 399
#     4  10  22  42  63  99 140 171 216 277 338 402
#     4  11  25  45  70  99 137 179 227 279 340 404
#
# _framework density 21.960846
#
# number of rings (size 3 to 8) (size 9 to 14) (size 15 to 20)
#    0.000    1.000    2.500    5.250    3.500    1.500 
#    2.250    0.625    0.000    0.000    0.000    0.000 
#    0.000    0.000    0.000    0.000    0.000    0.000 
#
# Total GULP energy -198284.889419 kJ/mol
# GULP energy per Si atom -12392.805589 kJ/mol
# Density = 2.191086 g / cm^3
# Si number density = 21.960846 Si / 1000 Ang^3
#
#
#
# Elastic Constant Matrix: (Units=GPa)
#
#
# Indices 1 2 3 4 5 6 
#
# 1 119.2923 67.2480 51.1248 0.0097 25.9287 0.7082
# 2 67.2480 88.3084 32.8279 10.6974 17.1791 -21.3664
# 3 51.1248 32.8279 119.7226 0.3525 17.2603 -6.4672
# 4 0.0097 10.6974 0.3525 33.8346 -2.9852 12.7054
# 5 25.9287 17.1791 17.2603 -2.9852 34.3520 2.5945
# 6 0.7082 -21.3664 -6.4672 12.7054 2.5945 41.7937
#
#
#
# Elastic Compliance Matrix: (Units=1/GPa)
#
#
# Indices 1 2 3 4 5 6 
#
# 1 0.021722 -0.019149 -0.004451 0.011157 -0.002550 -0.014080
# 2 -0.019149 0.036060 0.000900 -0.021881 -0.007900 0.026041
# 3 -0.004451 0.000900 0.010565 -0.001712 -0.002764 0.002862
# 4 0.011157 -0.021881 -0.001712 0.047321 0.009504 -0.026616
# 5 -0.002550 -0.007900 -0.002764 0.009504 0.037930 -0.009667
# 6 -0.014080 0.026041 0.002862 -0.026616 -0.009667 0.046613
#
#
# Mechanical properties :
#
#
# Convention : Reuss Voigt Hill
#
# Bulk Modulus (GPa) = 43.58132 69.96941 56.77537
# Shear Modulus (GPa) = 19.74253 33.73757 26.74005
#
# Velocity S-wave (km/s) = 3.00156 3.92377 3.49323
# Velocity P-wave (km/s) = 5.64806 7.24280 6.49456
#
# Compressibility (1/GPa) = 0.02294561
#
# Stress axis : x y z
#
# Youngs Moduli (GPa) = 46.03621 27.73176 94.65455
#
# Poissons Ratio (x) = 0.53104 0.42131
# Poissons Ratio (y) = 0.88155 -0.08515
# Poissons Ratio (z) = 0.20491 -0.02495
#
# Static dielectric constant tensor:
#      x y z
#    x 3.188570 -0.770640 -0.327780 
#    y -0.770640 3.679050 -0.486340 
#    z -0.327780 -0.486340 3.686190 
# 
# 
# High freq. dielectric constant tensor:
#      x y z
#    x 1.865040 -0.010640 0.011920 
#    y -0.010640 1.869760 0.000120 
#    z 0.011920 0.000120 1.870920 
# 
# From -- ./inp_files/188153.got.cif
#   From: 2010.06.25/outbox.cif.g09.slc.cpg/sg2_95_cif.got.tgz:188153.got - 2010.06.27 13:26:56.
