data_PCOD8017225
_publ_section_title
;
Structure prediction by ZEFSAII (Michael W. Deem and Ramdas Pophale) SiO2 
 PCOD8017225
Probable space group: P -1
;
_chemical_formula_sum "Si O2"
_cell_formula_units_Z 12
_cell_length_a 8.362092
_cell_length_b 11.738591
_cell_length_c 10.695004
_cell_angle_alpha 62.426800
_cell_angle_beta 117.118129
_cell_angle_gamma 68.255213
_cell_volume 559.834591
_symmetry_space_group_name_H-M "P -1"
_symmetry_group_IT_number 2
_symmetry_cell_setting 'triclinic'
loop_
_space_group_symop_operation_xyz
x,y,z
-x,-y,-z
loop_
_atom_site_type_symbol
_atom_site_label
_atom_site_fract_x
_atom_site_fract_y
_atom_site_fract_z
Si Si1 0.392658 0.290928 0.349789
Si Si2 0.292727 0.987857 0.178566
Si Si3 0.654332 0.505696 0.150541
Si Si4 0.164063 0.329589 0.997965
Si Si5 0.925447 0.129428 0.523079
Si Si6 0.240137 0.852781 0.991963
O O1 0.279150 0.260238 0.215016
O O2 0.635296 0.248511 0.410737
O O3 0.478629 0.157503 0.564464
O O4 0.155857 0.510854 0.195891
O O5 0.281455 0.144908 0.060739
O O6 0.007262 0.100710 0.075015
O O7 0.360670 0.873246 0.136541
O O8 0.909749 0.287809 0.397599
O O9 0.500000 0.500000 0.000000
O O10 0.750491 0.584841 0.081143
O O11 0.467237 0.637103 0.134551
O O12 0.000000 0.000000 0.500000
O O13 0.149728 0.995921 0.775882
#
# Coordination Sequence:
#
# PCOD8017225 Si02
#       6
#     2   2   2   2   2   2
#     4  10  22  38  63  92 123 161 201 257 300 362
#     4  10  23  42  63  91 125 163 204 248 310 363
#     4  12  23  40  63  91 123 159 207 255 306 360
#     4  11  23  38  63  94 125 159 201 259 306 360
#     4  11  21  39  66  90 120 163 208 252 301 359
#     4  10  23  42  65  89 123 165 206 251 299 372
#
# _framework density 21.434904
#
# number of rings (size 3 to 8) (size 9 to 14) (size 15 to 20)
#    0.000    1.333    3.333    1.500    2.333    4.667 
#    0.000    6.667    0.000    0.000    0.000    0.000 
#    0.000    0.000    0.000    0.000    0.000    0.000 
#
# Total GULP energy -148826.064177 kJ/mol
# GULP energy per Si atom -12402.172015 kJ/mol
# Density = 2.138612 g / cm^3
# Si number density = 21.434904 Si / 1000 Ang^3
#
#
#
# Elastic Constant Matrix: (Units=GPa)
#
#
# Indices 1 2 3 4 5 6 
#
# 1 72.7958 50.7835 43.1595 -0.0643 -17.6032 5.2726
# 2 50.7835 159.6775 64.6673 -20.4397 -17.2313 -4.3064
# 3 43.1595 64.6673 121.6468 -13.9078 -21.2129 6.0843
# 4 -0.0643 -20.4397 -13.9078 26.5919 2.5259 -4.5360
# 5 -17.6032 -17.2313 -21.2129 2.5259 36.4938 -8.9385
# 6 5.2726 -4.3064 6.0843 -4.5360 -8.9385 34.5954
#
#
#
# Elastic Compliance Matrix: (Units=1/GPa)
#
#
# Indices 1 2 3 4 5 6 
#
# 1 0.021772 -0.005567 -0.004617 -0.007612 0.005005 -0.002904
# 2 -0.005567 0.010222 -0.002668 0.006994 0.001030 0.003773
# 3 -0.004617 -0.002668 0.012331 0.004002 0.003301 -0.000420
# 4 -0.007612 0.006994 0.004002 0.046287 0.000603 0.007551
# 5 0.005005 0.001030 0.003301 0.000603 0.034057 0.007663
# 6 -0.002904 0.003773 -0.000420 0.007551 0.007663 0.032862
#
#
# Mechanical properties :
#
#
# Convention : Reuss Voigt Hill
#
# Bulk Modulus (GPa) = 53.70558 74.59342 64.14950
# Shear Modulus (GPa) = 26.39314 32.57020 29.48167
#
# Velocity S-wave (km/s) = 3.51282 3.90230 3.71267
# Velocity P-wave (km/s) = 6.44692 7.42829 6.95493
#
# Compressibility (1/GPa) = 0.01862004
#
# Stress axis : x y z
#
# Youngs Moduli (GPa) = 45.93005 97.82849 81.09362
#
# Poissons Ratio (x) = 0.54461 0.37445
# Poissons Ratio (y) = 0.25569 0.21638
# Poissons Ratio (z) = 0.21208 0.26104
#
# Static dielectric constant tensor:
#      x y z
#    x 3.811250 -0.130000 -0.161400 
#    y -0.130000 3.868000 -0.152220 
#    z -0.161400 -0.152220 4.247290 
# 
# 
# High freq. dielectric constant tensor:
#      x y z
#    x 1.833570 -0.007830 -0.006330 
#    y -0.007830 1.836070 -0.013470 
#    z -0.006330 -0.013470 1.850790 
# 
# From -- ./inp_files/93091.got.cif
#   From: 2010.06.25/outbox.cif.g09.slc.cpg/sg2_47_cif.got.tgz:93091.got - 2010.06.27 13:26:56.
