data_PCOD8017810
_publ_section_title
;
Structure prediction by ZEFSAII (Michael W. Deem and Ramdas Pophale) SiO2 
 PCOD8017810
Probable space group: P -1
;
_chemical_formula_sum "Si O2"
_cell_formula_units_Z 16
_cell_length_a 17.052853
_cell_length_b 5.407868
_cell_length_c 14.475601
_cell_angle_alpha 65.588865
_cell_angle_beta 140.538669
_cell_angle_gamma 128.033076
_cell_volume 663.056991
_symmetry_space_group_name_H-M "P -1"
_symmetry_group_IT_number 2
_symmetry_cell_setting 'triclinic'
loop_
_space_group_symop_operation_xyz
x,y,z
-x,-y,-z
loop_
_atom_site_type_symbol
_atom_site_label
_atom_site_fract_x
_atom_site_fract_y
_atom_site_fract_z
Si Si1 0.836363 0.363030 0.900954
Si Si2 0.874206 0.511600 0.119327
Si Si3 0.208373 0.308535 0.692043
Si Si4 0.332997 0.843490 0.865613
Si Si5 0.861457 0.859157 0.721536
Si Si6 0.455545 0.117282 0.349926
Si Si7 0.060149 0.246384 0.386180
Si Si8 0.428733 0.259424 0.556708
O O1 0.793732 0.606034 0.781968
O O2 0.716966 0.026101 0.799087
O O3 0.821976 0.330521 0.002944
O O4 0.000000 0.500000 0.000000
O O5 0.736237 0.408809 0.073738
O O6 0.978297 0.438257 0.285539
O O7 0.975916 0.886555 0.137634
O O8 0.291985 0.652383 0.761847
O O9 0.184941 0.378680 0.555129
O O10 0.291357 0.113989 0.794974
O O11 0.057567 0.118182 0.640158
O O12 0.500000 0.000000 0.000000
O O13 0.870725 0.703423 0.659247
O O14 0.744314 0.965543 0.582008
O O15 0.532352 0.500349 0.357274
O O16 0.500000 0.000000 0.500000
O O17 0.509353 0.976448 0.337732
O O18 0.500000 0.500000 0.500000
#
# Coordination Sequence:
#
# PCOD8017810 Si02
#       8
#     2   2   2   2   2   2   2   2
#     4  12  25  42  69 102 143 200 235 288 354 420
#     4  11  26  42  68 102 144 180 242 292 350 429
#     4  10  23  45  75 103 133 176 229 297 358 422
#     4  11  24  49  74 103 143 183 228 298 363 428
#     4  12  23  42  68  98 143 187 236 289 348 417
#     4  10  22  44  63  89 129 182 239 284 332 399
#     4  10  23  42  70 102 133 173 232 294 354 411
#     4  10  22  39  66  87 128 183 225 286 333 395
#
# _framework density 24.130656999999999
#
# number of rings (size 3 to 8) (size 9 to 14) (size 15 to 20)
#    0.000    1.250    5.000    0.750    7.000    2.500 
#    4.500    0.000    0.000    0.000    0.000    0.000 
#    0.000    0.000    0.000    0.000    0.000    0.000 
#
# Total GULP energy -198285.592381 kJ/mol
# GULP energy per Si atom -12392.849524 kJ/mol
# Density = 2.407573 g / cm^3
# Si number density = 24.130657 Si / 1000 Ang^3
#
#
#
# Elastic Constant Matrix: (Units=GPa)
#
#
# Indices 1 2 3 4 5 6 
#
# 1 93.6993 32.4480 53.4544 11.4921 10.5019 -15.0648
# 2 32.4480 61.5596 26.8056 15.8842 -7.1695 -18.4669
# 3 53.4544 26.8056 146.6256 31.1706 1.3147 3.4790
# 4 11.4921 15.8842 31.1706 41.5617 4.0610 -2.3468
# 5 10.5019 -7.1695 1.3147 4.0610 42.2898 3.2096
# 6 -15.0648 -18.4669 3.4790 -2.3468 3.2096 43.5357
#
#
#
# Elastic Compliance Matrix: (Units=1/GPa)
#
#
# Indices 1 2 3 4 5 6 
#
# 1 0.017247 -0.006800 -0.005710 0.002917 -0.005852 0.004128
# 2 -0.006800 0.024989 -0.000778 -0.007259 0.006080 0.007470
# 3 -0.005710 -0.000778 0.010465 -0.006357 0.001846 -0.003621
# 4 0.002917 -0.007259 -0.006357 0.031292 -0.004799 0.000479
# 5 -0.005852 0.006080 0.001846 -0.004799 0.026672 -0.001819
# 6 0.004128 0.007470 -0.003621 0.000479 -0.001819 0.028016
#
#
# Mechanical properties :
#
#
# Convention : Reuss Voigt Hill
#
# Bulk Modulus (GPa) = 38.27814 58.58895 48.43354
# Shear Modulus (GPa) = 28.74151 38.08920 33.41535
#
# Velocity S-wave (km/s) = 3.45494 3.97729 3.72528
# Velocity P-wave (km/s) = 5.64029 6.73976 6.21439
#
# Compressibility (1/GPa) = 0.02612457
#
# Stress axis : x y z
#
# Youngs Moduli (GPa) = 57.98243 40.01703 95.55875
#
# Poissons Ratio (x) = 0.27212 0.54564
# Poissons Ratio (y) = 0.39429 0.07434
# Poissons Ratio (z) = 0.33108 0.03113
#
# Static dielectric constant tensor:
#      x y z
#    x 4.241780 0.308690 0.209890 
#    y 0.308690 3.963820 0.017510 
#    z 0.209890 0.017510 4.435840 
# 
# 
# High freq. dielectric constant tensor:
#      x y z
#    x 1.952960 -0.006100 0.008360 
#    y -0.006100 1.942210 0.017900 
#    z 0.008360 0.017900 1.959770 
# 
# From -- ./inp_files/441638.got.cif
#   From: 2010.06.25/outbox.cif.g09.slc.cpg/sg2_221_cif.got.tgz:441638.got - 2010.06.27 13:26:56.
