data_PCOD8017983
_publ_section_title
;
Structure prediction by ZEFSAII (Michael W. Deem and Ramdas Pophale) SiO2 
 PCOD8017983
Probable space group: P -1
;
_chemical_formula_sum "Si O2"
_cell_formula_units_Z 16
_cell_length_a 14.971961
_cell_length_b 9.385648
_cell_length_c 8.022213
_cell_angle_alpha 83.411106
_cell_angle_beta 104.929820
_cell_angle_gamma 43.966837
_cell_volume 676.258758
_symmetry_space_group_name_H-M "P -1"
_symmetry_group_IT_number 2
_symmetry_cell_setting 'triclinic'
loop_
_space_group_symop_operation_xyz
x,y,z
-x,-y,-z
loop_
_atom_site_type_symbol
_atom_site_label
_atom_site_fract_x
_atom_site_fract_y
_atom_site_fract_z
Si Si1 0.527994 0.587486 0.363619
Si Si2 0.953833 0.860138 0.316804
Si Si3 0.006100 0.899839 0.849669
Si Si4 0.717854 0.973325 0.022336
Si Si5 0.714733 0.615341 0.406072
Si Si6 0.729978 0.626376 0.020491
Si Si7 0.754648 0.104741 0.491268
Si Si8 0.579847 0.074574 0.294053
O O1 0.500000 0.500000 0.500000
O O2 0.377270 0.808345 0.170719
O O3 0.606924 0.638601 0.451771
O O4 0.657832 0.356863 0.342817
O O5 0.119622 0.605366 0.426644
O O6 0.945807 0.042477 0.274881
O O7 0.880718 0.904824 0.449810
O O8 0.872565 0.871155 0.128422
O O9 0.123428 0.628040 0.945055
O O10 0.842479 0.034471 0.713922
O O11 0.000000 0.000000 0.000000
O O12 0.632774 0.070330 0.142552
O O13 0.745836 0.779743 0.990165
O O14 0.695257 0.626876 0.195050
O O15 0.664212 0.829637 0.416763
O O16 0.596096 0.734513 0.824609
O O17 0.633945 0.121946 0.456281
#
# Coordination Sequence:
#
# PCOD8017983 Si02
#       8
#     2   2   2   2   2   2   2   2
#     4  12  25  42  66  95 147 183 228 282 336 417
#     4  11  24  41  73 102 138 182 230 287 338 416
#     4  12  27  43  64  99 143 186 229 279 347 408
#     4  10  23  40  68 109 133 176 231 283 349 400
#     4  11  20  44  71 104 138 177 231 284 348 401
#     4  11  21  43  72 100 143 175 228 291 339 414
#     4  11  25  43  67 103 134 185 231 283 344 405
#     4  10  22  39  73 106 134 173 232 293 339 404
#
# _framework density 23.659582
#
# number of rings (size 3 to 8) (size 9 to 14) (size 15 to 20)
#    0.000    1.000    5.000    1.875    5.250    2.500 
#    0.000    2.500    0.000    0.000    0.000    0.000 
#    0.000    0.000    0.000    0.000    0.000    0.000 
#
# Total GULP energy -198333.864334 kJ/mol
# GULP energy per Si atom -12395.866521 kJ/mol
# Density = 2.360573 g / cm^3
# Si number density = 23.659582 Si / 1000 Ang^3
#
#
#
# Elastic Constant Matrix: (Units=GPa)
#
#
# Indices 1 2 3 4 5 6 
#
# 1 108.0165 23.4740 71.9683 -6.3536 23.4382 15.3647
# 2 23.4740 97.8913 61.9194 -18.3914 11.6924 19.3862
# 3 71.9683 61.9194 149.7950 -22.5128 38.3213 12.6294
# 4 -6.3536 -18.3914 -22.5128 39.6225 7.2994 10.3092
# 5 23.4382 11.6924 38.3213 7.2994 53.6149 -2.3003
# 6 15.3647 19.3862 12.6294 10.3092 -2.3003 32.6799
#
#
#
# Elastic Compliance Matrix: (Units=1/GPa)
#
#
# Indices 1 2 3 4 5 6 
#
# 1 0.014809 0.002782 -0.006550 0.002329 -0.003017 -0.007028
# 2 0.002782 0.017639 -0.005290 0.009581 -0.003143 -0.012971
# 3 -0.006550 -0.005290 0.015444 0.007468 -0.008153 -0.002680
# 4 0.002329 0.009581 0.007468 0.043511 -0.015420 -0.024476
# 5 -0.003017 -0.003143 -0.008153 -0.015420 0.029155 0.013350
# 6 -0.007028 -0.012971 -0.002680 -0.024476 0.013350 0.051296
#
#
# Mechanical properties :
#
#
# Convention : Reuss Voigt Hill
#
# Bulk Modulus (GPa) = 33.58607 74.49180 54.03894
# Shear Modulus (GPa) = 25.01298 38.40619 31.70959
#
# Velocity S-wave (km/s) = 3.25499 4.03337 3.66490
# Velocity P-wave (km/s) = 5.32475 7.29684 6.38737
#
# Compressibility (1/GPa) = 0.02977425
#
# Stress axis : x y z
#
# Youngs Moduli (GPa) = 67.52609 56.69344 64.75076
#
# Poissons Ratio (x) = -0.15772 0.42415
# Poissons Ratio (y) = -0.18786 0.34255
# Poissons Ratio (z) = 0.44233 0.29992
#
# Static dielectric constant tensor:
#      x y z
#    x 4.608720 0.271970 0.312780 
#    y 0.271970 4.394040 -0.115640 
#    z 0.312780 -0.115640 4.369930 
# 
# 
# High freq. dielectric constant tensor:
#      x y z
#    x 1.949320 0.011010 0.019520 
#    y 0.011010 1.941580 -0.015630 
#    z 0.019520 -0.015630 1.931210 
# 
# From -- ./inp_files/206406.got.cif
#   From: 2010.06.25/outbox.cif.g09.slc.cpg/sg2_104_cif.got.tgz:206406.got - 2010.06.27 13:26:56.
