data_PCOD8017063
_publ_section_title
;
Structure prediction by ZEFSAII (Michael W. Deem and Ramdas Pophale) SiO2 
 PCOD8017063
Probable space group: P -1
;
_chemical_formula_sum "Si O2"
_cell_formula_units_Z 14
_cell_length_a 12.939386
_cell_length_b 12.828327
_cell_length_c 8.845244
_cell_angle_alpha 60.130366
_cell_angle_beta 135.374610
_cell_angle_gamma 142.623166
_cell_volume 618.202822
_symmetry_space_group_name_H-M "P -1"
_symmetry_group_IT_number 2
_symmetry_cell_setting 'triclinic'
loop_
_space_group_symop_operation_xyz
x,y,z
-x,-y,-z
loop_
_atom_site_type_symbol
_atom_site_label
_atom_site_fract_x
_atom_site_fract_y
_atom_site_fract_z
Si Si1 0.352325 0.569088 0.702548
Si Si2 0.300871 0.607930 0.163148
Si Si3 0.478284 0.085960 0.291251
Si Si4 0.333574 0.991169 0.652469
Si Si5 0.024615 0.653365 0.728986
Si Si6 0.920301 0.086678 0.854162
Si Si7 0.362502 0.452468 0.102642
O O1 0.372253 0.722626 0.625813
O O2 0.503682 0.593658 0.714763
O O3 0.105176 0.407270 0.519223
O O4 0.436744 0.567145 0.949227
O O5 0.493104 0.802727 0.287466
O O6 0.409901 0.564503 0.214881
O O7 0.150332 0.454300 0.241814
O O8 0.155772 0.606312 0.905957
O O9 0.500000 0.000000 0.500000
O O10 0.547661 0.066387 0.219703
O O11 0.235797 0.990011 0.108412
O O12 0.186268 0.865093 0.735973
O O13 0.188897 0.949239 0.393411
O O14 0.111962 0.288342 0.942984
O O15 0.000000 0.000000 0.000000
#
# Coordination Sequence:
#
# PCOD8017063 Si02
#       7
#     2   2   2   2   2   2   2
#     4  11  23  45  70 101 134 180 234 284 336 414
#     4  11  27  44  67 103 144 179 226 287 350 406
#     4  10  22  37  68  99 133 170 228 280 337 392
#     4  11  24  46  69 101 143 181 228 285 344 414
#     4  11  24  44  70  98 140 186 229 277 350 408
#     4  11  22  43  70 103 136 181 232 284 342 410
#     4  11  25  44  70 103 138 177 229 287 344 406
#
# _framework density 22.646291000000002
#
# number of rings (size 3 to 8) (size 9 to 14) (size 15 to 20)
#    0.000    1.143    2.857    3.000    8.000    1.714 
#    0.000    0.714    0.000    0.000    0.000    0.000 
#    0.000    0.000    0.000    0.000    0.000    0.000 
#
# Total GULP energy -173441.125091 kJ/mol
# GULP energy per Si atom -12388.651792 kJ/mol
# Density = 2.259475 g / cm^3
# Si number density = 22.646291 Si / 1000 Ang^3
#
#
#
# Elastic Constant Matrix: (Units=GPa)
#
#
# Indices 1 2 3 4 5 6 
#
# 1 127.5154 81.7062 29.9099 1.0201 4.3026 -16.9175
# 2 81.7062 147.4936 34.5230 6.3398 -1.8038 3.8908
# 3 29.9099 34.5230 73.8643 5.3064 8.2558 -1.5781
# 4 1.0201 6.3398 5.3064 36.7715 5.5360 -2.4147
# 5 4.3026 -1.8038 8.2558 5.5360 26.1851 -3.2246
# 6 -16.9175 3.8908 -1.5781 -2.4147 -3.2246 45.1169
#
#
#
# Elastic Compliance Matrix: (Units=1/GPa)
#
#
# Indices 1 2 3 4 5 6 
#
# 1 0.013924 -0.007518 -0.001924 0.001849 -0.001880 0.005767
# 2 -0.007518 0.011811 -0.002728 -0.002121 0.002884 -0.003840
# 3 -0.001924 -0.002728 0.016200 -0.001115 -0.004783 -0.000321
# 4 0.001849 -0.002121 -0.001115 0.028690 -0.005924 0.001949
# 5 -0.001880 0.002884 -0.004783 -0.005924 0.041647 0.001539
# 6 0.005767 -0.003840 -0.000321 0.001949 0.001539 0.024861
#
#
# Mechanical properties :
#
#
# Convention : Reuss Voigt Hill
#
# Bulk Modulus (GPa) = 56.83309 71.23906 64.03607
# Shear Modulus (GPa) = 29.87938 35.13032 32.50485
#
# Velocity S-wave (km/s) = 3.63629 3.94288 3.79268
# Velocity P-wave (km/s) = 6.54069 7.22869 6.89328
#
# Compressibility (1/GPa) = 0.01759538
#
# Stress axis : x y z
#
# Youngs Moduli (GPa) = 71.81675 84.66812 61.72669
#
# Poissons Ratio (x) = 0.63652 0.11878
# Poissons Ratio (y) = 0.53990 0.16840
# Poissons Ratio (z) = 0.13819 0.23098
#
# Static dielectric constant tensor:
#      x y z
#    x 2.768600 0.424620 -0.301380 
#    y 0.424620 4.098370 -0.029630 
#    z -0.301380 -0.029630 3.869000 
# 
# 
# High freq. dielectric constant tensor:
#      x y z
#    x 1.884490 0.011600 0.013900 
#    y 0.011600 1.906290 -0.005720 
#    z 0.013900 -0.005720 1.890290 
# 
# From -- ./inp_files/158435.got.cif
#   From: 2010.06.25/outbox.cif.g09.slc.cpg/sg2_80_cif.got.tgz:158435.got - 2010.06.27 13:26:56.
