data_PCOD8017987
_publ_section_title
;
Structure prediction by ZEFSAII (Michael W. Deem and Ramdas Pophale) SiO2 
 PCOD8017987
Probable space group: P -1
;
_chemical_formula_sum "Si O2"
_cell_formula_units_Z 14
_cell_length_a 5.360972
_cell_length_b 15.292493
_cell_length_c 7.415217
_cell_angle_alpha 63.342416
_cell_angle_beta 93.356100
_cell_angle_gamma 93.815918
_cell_volume 541.814484
_symmetry_space_group_name_H-M "P -1"
_symmetry_group_IT_number 2
_symmetry_cell_setting 'triclinic'
loop_
_space_group_symop_operation_xyz
x,y,z
-x,-y,-z
loop_
_atom_site_type_symbol
_atom_site_label
_atom_site_fract_x
_atom_site_fract_y
_atom_site_fract_z
Si Si1 0.991595 0.223030 0.688257
Si Si2 0.432608 0.475492 0.815273
Si Si3 0.684975 0.950985 0.191162
Si Si4 0.399754 0.831276 0.568253
Si Si5 0.243485 0.300193 0.146671
Si Si6 0.928141 0.580344 0.658722
Si Si7 0.129707 0.852061 0.890277
O O1 0.211332 0.147389 0.799393
O O2 0.091460 0.335271 0.572347
O O3 0.857490 0.193998 0.522231
O O4 0.808829 0.208088 0.867987
O O5 0.681460 0.507709 0.681090
O O6 0.185393 0.526953 0.686648
O O7 0.500000 0.500000 0.000000
O O8 0.369825 0.357861 0.927100
O O9 0.543191 0.923381 0.396581
O O10 0.906807 0.032978 0.170366
O O11 0.500000 0.000000 0.000000
O O12 0.559245 0.733075 0.662451
O O13 0.357872 0.851687 0.759488
O O14 0.065408 0.373443 0.180195
O O15 0.112603 0.199929 0.162313
#
# Coordination Sequence:
#
# PCOD8017987 Si02
#       7
#     2   2   2   2   2   2   2
#     4  12  26  48  73 104 149 193 249 303 375 446
#     4  10  22  39  75 109 146 193 250 300 378 447
#     4  12  27  48  73 103 147 197 245 305 377 447
#     4  12  25  47  73 103 151 188 249 301 379 433
#     4  11  24  43  72 111 143 190 248 307 364 450
#     4  11  22  44  74 107 147 200 242 308 375 446
#     4  12  28  44  73 108 145 190 251 308 368 442
#
# _framework density 25.839106999999998
#
# number of rings (size 3 to 8) (size 9 to 14) (size 15 to 20)
#    0.000    0.571    4.286    4.286    4.000    2.286 
#    0.000    1.429    0.000    0.000    0.000    0.000 
#    0.000    0.000    0.000    0.000    0.000    0.000 
#
# Total GULP energy -173539.782086 kJ/mol
# GULP energy per Si atom -12395.698720 kJ/mol
# Density = 2.578030 g / cm^3
# Si number density = 25.839107 Si / 1000 Ang^3
#
#
#
# Elastic Constant Matrix: (Units=GPa)
#
#
# Indices 1 2 3 4 5 6 
#
# 1 141.9040 42.9232 78.9576 -26.6921 -11.5768 18.9601
# 2 42.9232 57.1031 56.6365 -14.9506 -8.7209 8.9232
# 3 78.9576 56.6365 176.6246 -35.8286 -27.4957 3.9247
# 4 -26.6921 -14.9506 -35.8286 45.4396 0.2975 -13.9993
# 5 -11.5768 -8.7209 -27.4957 0.2975 65.6998 -12.8832
# 6 18.9601 8.9232 3.9247 -13.9993 -12.8832 29.7288
#
#
#
# Elastic Compliance Matrix: (Units=1/GPa)
#
#
# Indices 1 2 3 4 5 6 
#
# 1 0.010984 -0.003804 -0.003624 0.000623 -0.001189 -0.005606
# 2 -0.003804 0.028521 -0.007657 -0.000734 -0.001266 -0.006018
# 3 -0.003624 -0.007657 0.011789 0.007269 0.004935 0.008615
# 4 0.000623 -0.000734 0.007269 0.033113 0.006272 0.017174
# 5 -0.001189 -0.001266 0.004935 0.006272 0.019185 0.011754
# 6 -0.005606 -0.006018 0.008615 0.017174 0.011754 0.051063
#
#
# Mechanical properties :
#
#
# Convention : Reuss Voigt Hill
#
# Bulk Modulus (GPa) = 47.34304 81.40738 64.37521
# Shear Modulus (GPa) = 26.05984 41.31460 33.68722
#
# Velocity S-wave (km/s) = 3.17920 4.00298 3.61464
# Velocity P-wave (km/s) = 5.64256 7.27592 6.51067
#
# Compressibility (1/GPa) = 0.02112243
#
# Stress axis : x y z
#
# Youngs Moduli (GPa) = 91.04516 35.06181 84.82741
#
# Poissons Ratio (x) = 0.13336 0.30745
# Poissons Ratio (y) = 0.34630 0.64956
# Poissons Ratio (z) = 0.32999 0.26848
#
# Static dielectric constant tensor:
#      x y z
#    x 4.933250 0.424460 -0.702600 
#    y 0.424460 4.656670 -0.446000 
#    z -0.702600 -0.446000 5.104950 
# 
# 
# High freq. dielectric constant tensor:
#      x y z
#    x 2.030790 0.015710 -0.026010 
#    y 0.015710 2.013470 -0.016470 
#    z -0.026010 -0.016470 2.047620 
# 
# From -- ./inp_files/134852.got.cif
#   From: 2010.06.25/outbox.cif.g09.slc.cpg/sg2_68_cif.got.tgz:134852.got - 2010.06.27 13:26:56.
