data_PCOD8017398
_publ_section_title
;
Structure prediction by ZEFSAII (Michael W. Deem and Ramdas Pophale) SiO2 
 PCOD8017398
Probable space group: P -1
;
_chemical_formula_sum "Si O2"
_cell_formula_units_Z 16
_cell_length_a 9.918727
_cell_length_b 24.122758
_cell_length_c 5.116932
_cell_angle_alpha 86.902404
_cell_angle_beta 77.056888
_cell_angle_gamma 133.687322
_cell_volume 824.112680
_symmetry_space_group_name_H-M "P -1"
_symmetry_group_IT_number 2
_symmetry_cell_setting 'triclinic'
loop_
_space_group_symop_operation_xyz
x,y,z
-x,-y,-z
loop_
_atom_site_type_symbol
_atom_site_label
_atom_site_fract_x
_atom_site_fract_y
_atom_site_fract_z
Si Si1 0.276693 0.828568 0.380362
Si Si2 0.092808 0.967730 0.513821
Si Si3 0.767429 0.789606 0.862822
Si Si4 0.434490 0.657836 0.706215
Si Si5 0.893339 0.174598 0.036736
Si Si6 0.683842 0.001066 0.101104
Si Si7 0.411146 0.742728 0.336442
Si Si8 0.215891 0.585264 0.319480
O O1 0.164513 0.801285 0.709030
O O2 0.380299 0.798809 0.324683
O O3 0.446924 0.924498 0.249940
O O4 0.112900 0.790865 0.233566
O O5 0.202966 0.003828 0.734204
O O6 0.923097 0.871257 0.609200
O O7 0.250686 0.998630 0.214632
O O8 0.000000 0.000000 0.500000
O O9 0.653924 0.715309 0.726609
O O10 0.885388 0.786061 0.023598
O O11 0.615673 0.785324 0.086409
O O12 0.419534 0.720700 0.637053
O O13 0.382413 0.612901 0.460335
O O14 0.276490 0.585960 0.999838
O O15 0.729785 0.078422 0.117168
O O16 0.224589 0.655449 0.303720
O O17 0.000000 0.500000 0.500000
#
# Coordination Sequence:
#
# PCOD8017398 Si02
#       8
#     2   2   2   2   2   2   2   2
#     4  12  24  39  58  82 114 149 201 245 293 332
#     4  11  23  33  57  80 109 147 195 247 296 331
#     4  10  22  39  56  81 117 148 195 235 285 346
#     4   9  20  32  59  83 117 143 183 222 286 323
#     4  11  25  38  58  79 112 160 198 241 287 339
#     4  11  23  39  53  76 110 155 201 244 289 337
#     4   9  23  35  62  86 117 147 184 239 290 328
#     4   9  18  34  57  91 121 142 177 225 284 342
#
# _framework density 19.414821
#
# number of rings (size 3 to 8) (size 9 to 14) (size 15 to 20)
#    0.750    1.000    0.000    4.500   10.500    0.000 
#    0.000    0.000    0.000    0.000    0.000   12.250 
#    0.000    0.000    0.000    0.000    0.000    0.000 
#
# Total GULP energy -198214.574548 kJ/mol
# GULP energy per Si atom -12388.410909 kJ/mol
# Density = 1.937063 g / cm^3
# Si number density = 19.414821 Si / 1000 Ang^3
#
#
#
# Elastic Constant Matrix: (Units=GPa)
#
#
# Indices 1 2 3 4 5 6 
#
# 1 87.7430 18.6003 15.1242 9.1778 5.4979 6.2295
# 2 18.6003 60.9943 14.9177 2.9476 3.4135 17.5342
# 3 15.1242 14.9177 93.1883 13.2629 12.0532 5.1967
# 4 9.1778 2.9476 13.2629 23.7201 0.3660 -3.1567
# 5 5.4979 3.4135 12.0532 0.3660 25.1652 11.3138
# 6 6.2295 17.5342 5.1967 -3.1567 11.3138 21.9157
#
#
#
# Elastic Compliance Matrix: (Units=1/GPa)
#
#
# Indices 1 2 3 4 5 6 
#
# 1 0.012798 -0.003261 -0.000705 -0.004206 -0.001687 -0.000596
# 2 -0.003261 0.024381 -0.002783 -0.003437 0.009203 -0.023165
# 3 -0.000705 -0.002783 0.012906 -0.006269 -0.006340 0.001736
# 4 -0.004206 -0.003437 -0.006269 0.049610 -0.002589 0.013914
# 5 -0.001687 0.009203 -0.006340 -0.002589 0.057973 -0.035682
# 6 -0.000596 -0.023165 0.001736 0.013914 -0.035682 0.084346
#
#
# Mechanical properties :
#
#
# Convention : Reuss Voigt Hill
#
# Bulk Modulus (GPa) = 27.33270 37.68999 32.51134
# Shear Modulus (GPa) = 18.67713 27.04576 22.86145
#
# Velocity S-wave (km/s) = 3.10498 3.73640 3.43523
# Velocity P-wave (km/s) = 5.19263 6.17004 5.70232
#
# Compressibility (1/GPa) = 0.03658622
#
# Stress axis : x y z
#
# Youngs Moduli (GPa) = 78.13913 41.01625 77.48186
#
# Poissons Ratio (x) = 0.13376 0.05463
# Poissons Ratio (y) = 0.25482 0.21563
# Poissons Ratio (z) = 0.05509 0.11415
#
# Static dielectric constant tensor:
#      x y z
#    x 3.305840 0.283170 0.248960 
#    y 0.283170 3.249230 0.030950 
#    z 0.248960 0.030950 3.685700 
# 
# 
# High freq. dielectric constant tensor:
#      x y z
#    x 1.727800 0.025420 0.011720 
#    y 0.025420 1.731760 0.014370 
#    z 0.011720 0.014370 1.775590 
# 
# From -- ./inp_files/55942.got.cif
#   From: 2010.06.25/outbox.cif.g09.slc.cpg/sg2_28_cif.got.tgz:55942.got - 2010.06.27 13:26:56.
