data_PCOD8017284
_publ_section_title
;
Structure prediction by ZEFSAII (Michael W. Deem and Ramdas Pophale) SiO2 
 PCOD8017284
Probable space group: P -1
;
_chemical_formula_sum "Si O2"
_cell_formula_units_Z 16
_cell_length_a 14.924587
_cell_length_b 8.827520
_cell_length_c 10.185935
_cell_angle_alpha 43.308482
_cell_angle_beta 61.011354
_cell_angle_gamma 67.491797
_cell_volume 804.149551
_symmetry_space_group_name_H-M "P -1"
_symmetry_group_IT_number 2
_symmetry_cell_setting 'triclinic'
loop_
_space_group_symop_operation_xyz
x,y,z
-x,-y,-z
loop_
_atom_site_type_symbol
_atom_site_label
_atom_site_fract_x
_atom_site_fract_y
_atom_site_fract_z
Si Si1 0.147510 0.754175 0.723282
Si Si2 0.646649 0.071115 0.940798
Si Si3 0.806335 0.354122 0.756963
Si Si4 0.513506 0.696695 0.266522
Si Si5 0.039775 0.771740 0.056408
Si Si6 0.815007 0.775081 0.614344
Si Si7 0.049458 0.668675 0.572289
Si Si8 0.717980 0.659668 0.021080
O O1 0.091814 0.763147 0.617233
O O2 0.218196 0.967760 0.550244
O O3 0.061335 0.776717 0.883046
O O4 0.216319 0.529090 0.828604
O O5 0.699911 0.229871 0.906074
O O6 0.595537 0.233375 0.763989
O O7 0.734082 0.901704 0.921962
O O8 0.559415 0.917775 0.163142
O O9 0.856057 0.298915 0.897311
O O10 0.791000 0.623255 0.599707
O O11 0.877118 0.271729 0.637504
O O12 0.500000 0.500000 0.500000
O O13 0.596662 0.612403 0.149872
O O14 0.953360 0.596780 0.251886
O O15 0.000000 0.000000 0.000000
O O16 0.750155 0.669138 0.842388
O O17 0.936008 0.773762 0.562195
#
# Coordination Sequence:
#
# PCOD8017284 Si02
#       8
#     2   2   2   2   2   2   2   2
#     4  12  23  38  63  91 123 172 224 258 298 365
#     4   9  22  40  66  92 123 156 210 260 317 383
#     4  11  22  41  61  92 132 173 207 254 323 368
#     4   9  21  42  68  96 119 154 209 264 327 376
#     4  11  23  38  57  88 138 173 213 258 305 364
#     4  11  23  41  58  90 138 168 207 263 314 362
#     4  11  23  38  61  88 131 174 224 252 301 363
#     4  10  22  38  65  95 121 156 211 265 312 369
#
# _framework density 19.896798
#
# number of rings (size 3 to 8) (size 9 to 14) (size 15 to 20)
#    0.750    0.750    2.500    4.500    5.250    0.000 
#    2.250    0.625    0.000    1.500    0.000    0.000 
#    0.000    0.000    0.000    0.000    0.000    0.000 
#
# Total GULP energy -198270.964681 kJ/mol
# GULP energy per Si atom -12391.935293 kJ/mol
# Density = 1.985151 g / cm^3
# Si number density = 19.896798 Si / 1000 Ang^3
#
#
#
# Elastic Constant Matrix: (Units=GPa)
#
#
# Indices 1 2 3 4 5 6 
#
# 1 74.4204 44.5150 30.2484 -5.5613 -9.7348 13.5680
# 2 44.5150 103.8420 25.4894 -17.0686 3.9167 6.1031
# 3 30.2484 25.4894 103.6179 -9.7324 -4.0988 5.1864
# 4 -5.5613 -17.0686 -9.7324 40.0421 1.9217 0.9971
# 5 -9.7348 3.9167 -4.0988 1.9217 21.7041 -2.7939
# 6 13.5680 6.1031 5.1864 0.9971 -2.7939 30.0108
#
#
#
# Elastic Compliance Matrix: (Units=1/GPa)
#
#
# Indices 1 2 3 4 5 6 
#
# 1 0.023013 -0.009245 -0.003876 -0.002024 0.010562 -0.006804
# 2 -0.009245 0.014899 -0.000790 0.005219 -0.007392 0.000425
# 3 -0.003876 -0.000790 0.011164 0.001823 0.000345 -0.000045
# 4 -0.002024 0.005219 0.001823 0.027605 -0.004177 -0.001767
# 5 0.010562 -0.007392 0.000345 -0.004177 0.052802 0.001723
# 6 -0.006804 0.000425 -0.000045 -0.001767 0.001723 0.036538
#
#
# Mechanical properties :
#
#
# Convention : Reuss Voigt Hill
#
# Bulk Modulus (GPa) = 47.04805 53.59843 50.32324
# Shear Modulus (GPa) = 24.88472 30.45990 27.67231
#
# Velocity S-wave (km/s) = 3.54035 3.91691 3.73338
# Velocity P-wave (km/s) = 6.35684 6.88861 6.62806
#
# Compressibility (1/GPa) = 0.02125487
#
# Stress axis : x y z
#
# Youngs Moduli (GPa) = 43.45319 67.11969 89.57697
#
# Poissons Ratio (x) = 0.62053 0.34716
# Poissons Ratio (y) = 0.40173 0.07073
# Poissons Ratio (z) = 0.16841 0.05300
#
# Static dielectric constant tensor:
#      x y z
#    x 3.387340 -0.031780 -0.039340 
#    y -0.031780 4.003150 -0.322350 
#    z -0.039340 -0.322350 3.684900 
# 
# 
# High freq. dielectric constant tensor:
#      x y z
#    x 1.745500 0.000460 -0.006780 
#    y 0.000460 1.784010 -0.018430 
#    z -0.006780 -0.018430 1.777490 
# 
# From -- ./inp_files/297348.got.cif
#   From: 2010.06.25/outbox.cif.g09.slc.cpg/sg2_149_cif.got.tgz:297348.got - 2010.06.27 13:26:56.
