data_PCOD8017392
_publ_section_title
;
Structure prediction by ZEFSAII (Michael W. Deem and Ramdas Pophale) SiO2 
 PCOD8017392
Probable space group: P -1
;
_chemical_formula_sum "Si O2"
_cell_formula_units_Z 12
_cell_length_a 14.390114
_cell_length_b 8.902907
_cell_length_c 10.803540
_cell_angle_alpha 58.083043
_cell_angle_beta 148.937611
_cell_angle_gamma 109.994173
_cell_volume 586.403522
_symmetry_space_group_name_H-M "P -1"
_symmetry_group_IT_number 2
_symmetry_cell_setting 'triclinic'
loop_
_space_group_symop_operation_xyz
x,y,z
-x,-y,-z
loop_
_atom_site_type_symbol
_atom_site_label
_atom_site_fract_x
_atom_site_fract_y
_atom_site_fract_z
Si Si1 0.004906 0.910738 0.182012
Si Si2 0.618505 0.376460 0.289685
Si Si3 0.371050 0.187737 0.228200
Si Si4 0.996854 0.864233 0.670525
Si Si5 0.204386 0.476586 0.105887
Si Si6 0.791616 0.578205 0.592069
O O1 0.183292 0.742975 0.478543
O O2 0.006405 0.050443 0.234041
O O3 0.825875 0.833683 0.034367
O O4 0.000000 0.000000 0.000000
O O5 0.489087 0.243541 0.230286
O O6 0.647062 0.512024 0.370977
O O7 0.500000 0.500000 0.000000
O O8 0.500000 0.000000 0.500000
O O9 0.345220 0.344029 0.234008
O O10 0.814307 0.780621 0.490681
O O11 0.180627 0.691383 0.949621
O O12 0.000000 0.000000 0.500000
O O13 0.998146 0.435842 0.883236
O O14 0.289179 0.426430 0.360482
#
# Coordination Sequence:
#
# PCOD8017392 Si02
#       6
#     2   2   2   2   2   2
#     4  12  23  48  72  98 146 178 237 295 332 426
#     4  12  28  43  69 104 142 185 226 289 358 409
#     4  12  26  41  73 105 128 184 241 276 351 418
#     4  10  22  38  73 100 129 189 222 287 362 389
#     4   9  20  42  69  95 135 179 230 283 347 408
#     4   9  20  44  67  92 138 185 223 277 357 405
#
# _framework density 20.463723999999999
#
# number of rings (size 3 to 8) (size 9 to 14) (size 15 to 20)
#    1.000    0.333    3.333    2.000    4.667    1.333 
#    0.000    0.833    0.000    0.000    0.000    0.000 
#    0.000    0.000    0.000    0.000    0.000    0.000 
#
# Total GULP energy -148695.015452 kJ/mol
# GULP energy per Si atom -12391.251288 kJ/mol
# Density = 2.041715 g / cm^3
# Si number density = 20.463724 Si / 1000 Ang^3
#
#
#
# Elastic Constant Matrix: (Units=GPa)
#
#
# Indices 1 2 3 4 5 6 
#
# 1 75.3425 52.9731 53.3415 -11.4401 -6.9840 3.1623
# 2 52.9731 137.7537 63.8533 -5.1591 -4.8231 8.4304
# 3 53.3415 63.8533 137.4399 -10.5159 -2.9383 2.1169
# 4 -11.4401 -5.1591 -10.5159 46.0045 3.6150 1.0868
# 5 -6.9840 -4.8231 -2.9383 3.6150 41.4269 -5.3039
# 6 3.1623 8.4304 2.1169 1.0868 -5.3039 45.7885
#
#
#
# Elastic Compliance Matrix: (Units=1/GPa)
#
#
# Indices 1 2 3 4 5 6 
#
# 1 0.021910 -0.005629 -0.005581 0.003358 0.002346 -0.000027
# 2 -0.005629 0.010818 -0.002881 -0.000810 -0.000009 -0.001452
# 3 -0.005581 -0.002881 0.010825 0.000798 -0.000535 0.000334
# 4 0.003358 -0.000810 0.000798 0.022807 -0.001570 -0.000843
# 5 0.002346 -0.000009 -0.000535 -0.001570 0.024990 0.002796
# 6 -0.000027 -0.001452 0.000334 -0.000843 0.002796 0.022437
#
#
# Mechanical properties :
#
#
# Convention : Reuss Voigt Hill
#
# Bulk Modulus (GPa) = 65.05810 76.76356 70.91083
# Shear Modulus (GPa) = 33.99238 38.66851 36.33044
#
# Velocity S-wave (km/s) = 4.08009 4.35168 4.21807
# Velocity P-wave (km/s) = 7.35235 7.92736 7.64526
#
# Compressibility (1/GPa) = 0.01537088
#
# Stress axis : x y z
#
# Youngs Moduli (GPa) = 45.64097 92.44237 92.38131
#
# Poissons Ratio (x) = 0.52037 0.51556
# Poissons Ratio (y) = 0.25692 0.26614
# Poissons Ratio (z) = 0.25471 0.26631
#
# Static dielectric constant tensor:
#      x y z
#    x 3.596780 -0.095770 0.005690 
#    y -0.095770 3.873740 0.021310 
#    z 0.005690 0.021310 3.523580 
# 
# 
# High freq. dielectric constant tensor:
#      x y z
#    x 1.797050 -0.002840 0.000020 
#    y -0.002840 1.812980 -0.001900 
#    z 0.000020 -0.001900 1.785190 
# 
# From -- ./inp_files/446856.got.cif
#   From: 2010.06.25/outbox.cif.g09.slc.cpg/sg2_224_cif.got.tgz:446856.got - 2010.06.27 13:26:56.
