data_PCOD8017147
_publ_section_title
;
Structure prediction by ZEFSAII (Michael W. Deem and Ramdas Pophale) SiO2 
 PCOD8017147
Probable space group: P -1
;
_chemical_formula_sum "Si O2"
_cell_formula_units_Z 12
_cell_length_a 5.255236
_cell_length_b 13.729749
_cell_length_c 21.377068
_cell_angle_alpha 24.683038
_cell_angle_beta 53.229710
_cell_angle_gamma 51.971336
_cell_volume 503.819511
_symmetry_space_group_name_H-M "P -1"
_symmetry_group_IT_number 2
_symmetry_cell_setting 'triclinic'
loop_
_space_group_symop_operation_xyz
x,y,z
-x,-y,-z
loop_
_atom_site_type_symbol
_atom_site_label
_atom_site_fract_x
_atom_site_fract_y
_atom_site_fract_z
Si Si1 0.230349 0.058932 0.677819
Si Si2 0.228141 0.256043 0.283326
Si Si3 0.871421 0.926725 0.471247
Si Si4 0.809622 0.196333 0.047702
Si Si5 0.608961 0.426936 0.457209
Si Si6 0.412372 0.941261 0.169857
O O1 0.980206 0.256229 0.500890
O O2 0.354351 0.301249 0.531879
O O3 0.395889 0.920762 0.670036
O O4 0.364681 0.875858 0.822312
O O5 0.016602 0.239592 0.386084
O O6 0.260231 0.520735 0.110873
O O7 0.045727 0.151976 0.313942
O O8 0.500000 0.000000 0.500000
O O9 0.663342 0.095783 0.066668
O O10 0.199255 0.079842 0.062844
O O11 0.500000 0.500000 0.500000
O O12 0.607233 0.676822 0.275244
O O13 0.837557 0.099075 0.713406
#
# Coordination Sequence:
#
# PCOD8017147 Si02
#       6
#     2   2   2   2   2   2
#     4   9  21  35  66  93 127 168 216 264 320 366
#     4  10  22  43  58  93 130 167 216 265 323 384
#     4  10  25  41  66  91 124 174 213 267 325 378
#     4  10  22  38  64  98 131 167 215 266 322 382
#     4  11  20  42  65  95 130 165 222 265 313 386
#     4  10  22  38  61 103 124 171 214 260 327 372
#
# _framework density 23.818054
#
# number of rings (size 3 to 8) (size 9 to 14) (size 15 to 20)
#    1.000    1.000    1.667    1.000    4.667    0.667 
#    9.000    1.667    0.000    0.000    0.000    0.000 
#    0.000    0.000    0.000    0.000    0.000    0.000 
#
# Total GULP energy -148660.737121 kJ/mol
# GULP energy per Si atom -12388.394760 kJ/mol
# Density = 2.376384 g / cm^3
# Si number density = 23.818054 Si / 1000 Ang^3
#
#
#
# Elastic Constant Matrix: (Units=GPa)
#
#
# Indices 1 2 3 4 5 6 
#
# 1 122.1512 46.4973 39.7899 -32.7292 -18.6611 -15.3427
# 2 46.4973 110.0995 47.3518 -34.6955 -4.4323 -6.9790
# 3 39.7899 47.3518 139.6123 -53.6840 -22.1719 -2.8237
# 4 -32.7292 -34.6955 -53.6840 44.2741 1.9201 6.1228
# 5 -18.6611 -4.4323 -22.1719 1.9201 32.2397 -12.5759
# 6 -15.3427 -6.9790 -2.8237 6.1228 -12.5759 39.9007
#
#
#
# Elastic Compliance Matrix: (Units=1/GPa)
#
#
# Indices 1 2 3 4 5 6 
#
# 1 0.013692 -0.003026 0.002866 0.009733 0.011680 0.007126
# 2 -0.003026 0.012841 -0.001252 0.006429 -0.001399 -0.000433
# 3 0.002866 -0.001252 0.016774 0.020497 0.012978 0.003015
# 4 0.009733 0.006429 0.020497 0.058444 0.018356 0.003135
# 5 0.011680 -0.001399 0.012978 0.018356 0.052829 0.018999
# 6 0.007126 -0.000433 0.003015 0.003135 0.018999 0.033447
#
#
# Mechanical properties :
#
#
# Convention : Reuss Voigt Hill
#
# Bulk Modulus (GPa) = 24.70126 71.01568 47.85847
# Shear Modulus (GPa) = 24.46836 39.16450 31.81643
#
# Velocity S-wave (km/s) = 3.20863 4.05942 3.65884
# Velocity P-wave (km/s) = 4.91126 7.20087 6.16332
#
# Compressibility (1/GPa) = 0.04048376
#
# Stress axis : x y z
#
# Youngs Moduli (GPa) = 73.03323 77.87502 59.61626
#
# Poissons Ratio (x) = 0.23564 -0.17084
# Poissons Ratio (y) = 0.22099 0.07462
# Poissons Ratio (z) = -0.20929 0.09748
#
# Static dielectric constant tensor:
#      x y z
#    x 5.119500 2.447570 1.254200 
#    y 2.447570 16.945940 3.535900 
#    z 1.254200 3.535900 5.542630 
# 
# 
# High freq. dielectric constant tensor:
#      x y z
#    x 1.951580 -0.002130 0.011270 
#    y -0.002130 1.937710 -0.008920 
#    z 0.011270 -0.008920 1.941980 
# 
# From -- ./inp_files/62507.got.cif
#   From: 2010.06.25/outbox.cif.g09.slc.cpg/sg2_32_cif.got.tgz:62507.got - 2010.06.27 13:26:56.
