data_PCOD8017567
_publ_section_title
;
Structure prediction by ZEFSAII (Michael W. Deem and Ramdas Pophale) SiO2 
 PCOD8017567
Probable space group: P -1
;
_chemical_formula_sum "Si O2"
_cell_formula_units_Z 10
_cell_length_a 9.218898
_cell_length_b 13.186926
_cell_length_c 6.073692
_cell_angle_alpha 68.017609
_cell_angle_beta 45.923252
_cell_angle_gamma 60.042562
_cell_volume 459.151384
_symmetry_space_group_name_H-M "P -1"
_symmetry_group_IT_number 2
_symmetry_cell_setting 'triclinic'
loop_
_space_group_symop_operation_xyz
x,y,z
-x,-y,-z
loop_
_atom_site_type_symbol
_atom_site_label
_atom_site_fract_x
_atom_site_fract_y
_atom_site_fract_z
Si Si1 0.129617 0.645168 0.245219
Si Si2 0.392629 0.734478 0.212192
Si Si3 0.920789 0.148020 0.168948
Si Si4 0.666987 0.052793 0.184916
Si Si5 0.161113 0.439984 0.075289
O O1 0.328816 0.653504 0.169532
O O2 0.219567 0.536292 0.073456
O O3 0.943486 0.631867 0.604207
O O4 0.020771 0.763342 0.125527
O O5 0.192307 0.785473 0.546917
O O6 0.442777 0.838915 0.951355
O O7 0.609904 0.653379 0.176304
O O8 0.762975 0.093267 0.263830
O O9 0.146337 0.045211 0.072380
O O10 0.500000 0.000000 0.500000
O O11 0.000000 0.500000 0.000000
#
# Coordination Sequence:
#
# PCOD8017567 Si02
#       5
#     2   2   2   2   2
#     4  10  23  41  61  88 125 159 201 249 300 359
#     4  11  23  40  64  90 122 162 202 249 302 357
#     4  10  22  39  62  92 120 155 202 249 301 360
#     4  10  22  40  62  89 123 157 197 250 304 359
#     4  11  24  40  62  91 123 162 205 248 298 357
#
# _framework density 21.779311
#
# number of rings (size 3 to 8) (size 9 to 14) (size 15 to 20)
#    0.000    1.600    0.000    3.600    0.000   13.600 
#    0.000    0.000    0.000    0.000    0.000    0.000 
#    0.000    0.000    0.000    0.000    0.000    0.000 
#
# Total GULP energy -124024.956433 kJ/mol
# GULP energy per Si atom -12402.495643 kJ/mol
# Density = 2.172974 g / cm^3
# Si number density = 21.779311 Si / 1000 Ang^3
#
#
#
# Elastic Constant Matrix: (Units=GPa)
#
#
# Indices 1 2 3 4 5 6 
#
# 1 100.2297 80.8608 58.8275 -1.1253 1.6876 -16.8368
# 2 80.8608 140.9162 68.8181 -1.2007 -13.1659 -4.8379
# 3 58.8275 68.8181 100.9468 3.5378 0.1874 12.5393
# 4 -1.1253 -1.2007 3.5378 43.5460 3.4111 -13.2046
# 5 1.6876 -13.1659 0.1874 3.4111 27.1594 0.5213
# 6 -16.8368 -4.8379 12.5393 -13.2046 0.5213 33.4885
#
#
#
# Elastic Compliance Matrix: (Units=1/GPa)
#
#
# Indices 1 2 3 4 5 6 
#
# 1 0.031082 -0.011101 -0.013703 0.009258 -0.008821 0.022942
# 2 -0.011101 0.016382 -0.004441 -0.000767 0.008797 -0.001991
# 3 -0.013703 -0.004441 0.023658 -0.008366 -0.000036 -0.019688
# 4 0.009258 -0.000767 -0.008366 0.030224 -0.005063 0.019673
# 5 -0.008821 0.008797 -0.000036 -0.005063 0.042380 -0.005807
# 6 0.022942 -0.001991 -0.019688 0.019673 -0.005807 0.056327
#
#
# Mechanical properties :
#
#
# Convention : Reuss Voigt Hill
#
# Bulk Modulus (GPa) = 79.16577 84.34504 81.75540
# Shear Modulus (GPa) = 19.02910 29.74451 24.38681
#
# Velocity S-wave (km/s) = 2.95909 3.69958 3.34986
# Velocity P-wave (km/s) = 6.93563 7.55383 7.25132
#
# Compressibility (1/GPa) = 0.01263172
#
# Stress axis : x y z
#
# Youngs Moduli (GPa) = 32.17278 61.04133 42.26829
#
# Poissons Ratio (x) = 0.67763 0.57922
# Poissons Ratio (y) = 0.35715 0.18772
# Poissons Ratio (z) = 0.44087 0.27109
#
# Static dielectric constant tensor:
#      x y z
#    x 3.831330 0.119640 0.048410 
#    y 0.119640 4.239690 -0.139240 
#    z 0.048410 -0.139240 3.749270 
# 
# 
# High freq. dielectric constant tensor:
#      x y z
#    x 1.845680 0.004240 -0.003580 
#    y 0.004240 1.877140 -0.009970 
#    z -0.003580 -0.009970 1.855180 
# 
# From -- ./inp_files/1457.got.cif
#   From: 2010.06.25/outbox.cif.g09.slc.cpg/sg2_1_cif.got.tgz:1457.got - 2010.06.27 13:26:56.
