data_PCOD8017136
_publ_section_title
;
Structure prediction by ZEFSAII (Michael W. Deem and Ramdas Pophale) SiO2 
 PCOD8017136
Probable space group: P -1
;
_chemical_formula_sum "Si O2"
_cell_formula_units_Z 14
_cell_length_a 19.816428
_cell_length_b 7.796850
_cell_length_c 10.041802
_cell_angle_alpha 77.518466
_cell_angle_beta 49.272200
_cell_angle_gamma 117.305197
_cell_volume 672.308867
_symmetry_space_group_name_H-M "P -1"
_symmetry_group_IT_number 2
_symmetry_cell_setting 'triclinic'
loop_
_space_group_symop_operation_xyz
x,y,z
-x,-y,-z
loop_
_atom_site_type_symbol
_atom_site_label
_atom_site_fract_x
_atom_site_fract_y
_atom_site_fract_z
Si Si1 0.795831 0.541270 0.617916
Si Si2 0.209641 0.869227 0.376767
Si Si3 0.136202 0.115829 0.064401
Si Si4 0.927305 0.284266 0.955342
Si Si5 0.663389 0.983815 0.536238
Si Si6 0.328903 0.408151 0.013424
Si Si7 0.189239 0.449204 0.694114
O O1 0.765968 0.281771 0.701808
O O2 0.688430 0.474180 0.868461
O O3 0.765572 0.568413 0.502620
O O4 0.968071 0.862978 0.385865
O O5 0.321434 0.069944 0.325744
O O6 0.245935 0.089439 0.197116
O O7 0.033716 0.605150 0.697437
O O8 0.260364 0.372479 0.969932
O O9 0.150070 0.250163 0.890289
O O10 0.162005 0.957175 0.008431
O O11 0.808892 0.168301 0.230374
O O12 0.042629 0.335793 0.872031
O O13 0.668215 0.203572 0.501034
O O14 0.509208 0.667837 0.720512
#
# Coordination Sequence:
#
# PCOD8017136 Si02
#       7
#     2   2   2   2   2   2   2
#     4   9  21  40  62  88 114 160 206 243 288 348
#     4   9  21  40  62  88 114 160 206 243 288 348
#     4  10  22  38  60  93 115 159 200 241 302 349
#     4   9  19  39  65  85 113 155 211 244 280 351
#     4  10  22  38  60  93 115 159 200 241 302 349
#     4  12  24  38  60  92 132 150 188 250 312 356
#     4   9  19  39  65  85 113 155 211 244 280 351
#
# _framework density 20.823761000000001
#
# number of rings (size 3 to 8) (size 9 to 14) (size 15 to 20)
#    0.000    2.857    0.000    4.286    6.000    5.714 
#    5.143    0.000    0.000    0.000    0.000    0.000 
#    0.000    0.000    0.000    0.000    0.000    0.000 
#
# Total GULP energy -173483.154707 kJ/mol
# GULP energy per Si atom -12391.653908 kJ/mol
# Density = 2.077637 g / cm^3
# Si number density = 20.823761 Si / 1000 Ang^3
#
#
#
# Elastic Constant Matrix: (Units=GPa)
#
#
# Indices 1 2 3 4 5 6 
#
# 1 37.0991 34.2779 31.0241 -6.0261 -1.0738 4.1291
# 2 34.2779 103.0526 50.3216 -4.9968 0.5566 9.5590
# 3 31.0241 50.3216 62.7625 -10.2907 7.3715 4.9556
# 4 -6.0261 -4.9968 -10.2907 25.3984 0.1649 -4.6431
# 5 -1.0738 0.5566 7.3715 0.1649 11.2867 -8.8171
# 6 4.1291 9.5590 4.9556 -4.6431 -8.8171 26.6218
#
#
#
# Elastic Compliance Matrix: (Units=1/GPa)
#
#
# Indices 1 2 3 4 5 6 
#
# 1 0.054481 -0.006636 -0.025193 0.002799 0.028638 0.008595
# 2 -0.006636 0.017698 -0.011812 -0.003310 0.004540 -0.002201
# 3 -0.025193 -0.011812 0.044947 0.007907 -0.040981 -0.012412
# 4 0.002799 -0.003310 0.007907 0.043859 0.000054 0.006950
# 5 0.028638 0.004540 -0.040981 0.000054 0.160654 0.054774
# 6 0.008595 -0.002201 -0.012412 0.006950 0.054774 0.058684
#
#
# Mechanical properties :
#
#
# Convention : Reuss Voigt Hill
#
# Bulk Modulus (GPa) = 33.50840 48.24015 40.87427
# Shear Modulus (GPa) = 10.47007 18.48076 14.47541
#
# Velocity S-wave (km/s) = 2.24474 2.98230 2.63941
# Velocity P-wave (km/s) = 4.77963 5.92242 5.38144
#
# Compressibility (1/GPa) = 0.02984327
#
# Stress axis : x y z
#
# Youngs Moduli (GPa) = 18.35508 56.50364 22.24863
#
# Poissons Ratio (x) = 0.37495 0.56052
# Poissons Ratio (y) = 0.12180 0.26280
# Poissons Ratio (z) = 0.46243 0.66741
#
# Static dielectric constant tensor:
#      x y z
#    x 3.461430 -0.055260 0.086980 
#    y -0.055260 4.031700 -0.092700 
#    z 0.086980 -0.092700 3.658100 
# 
# 
# High freq. dielectric constant tensor:
#      x y z
#    x 1.776480 0.002090 0.010170 
#    y 0.002090 1.829400 -0.007410 
#    z 0.010170 -0.007410 1.805810 
# 
# From -- ./inp_files/343538.got.cif
#   From: 2010.06.25/outbox.cif.g09.slc.cpg/sg2_172_cif.got.tgz:343538.got - 2010.06.27 13:26:56.
