data_PCOD8017935
_publ_section_title
;
Structure prediction by ZEFSAII (Michael W. Deem and Ramdas Pophale) SiO2 
 PCOD8017935
Probable space group: P -1
;
_chemical_formula_sum "Si O2"
_cell_formula_units_Z 16
_cell_length_a 12.568605
_cell_length_b 7.232367
_cell_length_c 24.504498
_cell_angle_alpha 45.084256
_cell_angle_beta 155.677923
_cell_angle_gamma 121.940763
_cell_volume 597.647497
_symmetry_space_group_name_H-M "P -1"
_symmetry_group_IT_number 2
_symmetry_cell_setting 'triclinic'
loop_
_space_group_symop_operation_xyz
x,y,z
-x,-y,-z
loop_
_atom_site_type_symbol
_atom_site_label
_atom_site_fract_x
_atom_site_fract_y
_atom_site_fract_z
Si Si1 0.676376 0.511037 0.258589
Si Si2 0.880290 0.264877 0.003570
Si Si3 0.816842 0.093549 0.509763
Si Si4 0.689640 0.047532 0.865581
Si Si5 0.456285 0.795415 0.352334
Si Si6 0.712860 0.038461 0.133946
Si Si7 0.400073 0.665928 0.853353
Si Si8 0.325079 0.809781 0.459298
O O1 0.330979 0.634186 0.065180
O O2 0.815113 0.286512 0.417716
O O3 0.769192 0.364077 0.273705
O O4 0.772953 0.772325 0.259256
O O5 0.648377 0.281125 0.844816
O O6 0.000000 0.500000 0.000000
O O7 0.133339 0.955798 0.189118
O O8 0.679826 0.279581 0.460761
O O9 0.651220 0.891352 0.461707
O O10 0.140010 0.890229 0.720242
O O11 0.495730 0.135998 0.702746
O O12 0.638163 0.786522 0.924255
O O13 0.000000 0.000000 0.000000
O O14 0.539043 0.457020 0.462700
O O15 0.553125 0.355673 0.019117
O O16 0.008226 0.999438 0.251820
O O17 0.500000 0.000000 0.000000
O O18 0.500000 0.000000 0.500000
#
# Coordination Sequence:
#
# PCOD8017935 Si02
#       8
#     2   2   2   2   2   2   2   2
#     4  11  22  45  74 115 150 198 255 328 378 471
#     4  11  22  40  70 111 148 198 255 316 388 454
#     4  12  26  47  81 114 153 198 266 322 394 459
#     4  10  22  39  69 108 151 196 254 316 375 451
#     4  11  24  46  74 110 153 199 257 317 392 453
#     4  10  26  48  74 105 157 207 254 305 400 462
#     4  11  24  45  75 110 155 205 254 314 386 472
#     4  12  31  51  77 113 159 206 265 327 394 476
#
# _framework density 26.771635
#
# number of rings (size 3 to 8) (size 9 to 14) (size 15 to 20)
#    0.000    1.000    2.500    3.375    7.000    4.500 
#    0.000    0.000    0.000    0.000    0.000    0.000 
#    0.000    0.000    0.000    0.000    0.000    0.000 
#
# Total GULP energy -198295.710734 kJ/mol
# GULP energy per Si atom -12393.481921 kJ/mol
# Density = 2.671070 g / cm^3
# Si number density = 26.771635 Si / 1000 Ang^3
#
#
#
# Elastic Constant Matrix: (Units=GPa)
#
#
# Indices 1 2 3 4 5 6 
#
# 1 33.9804 10.9874 10.9852 -3.5942 19.4914 -8.3749
# 2 10.9874 137.6085 36.6267 3.2254 7.4269 -1.6707
# 3 10.9852 36.6267 141.1065 -6.1425 15.0459 3.1171
# 4 -3.5942 3.2254 -6.1425 48.7298 -3.4291 4.6425
# 5 19.4914 7.4269 15.0459 -3.4291 50.5896 1.5973
# 6 -8.3749 -1.6707 3.1171 4.6425 1.5973 53.1955
#
#
#
# Elastic Compliance Matrix: (Units=1/GPa)
#
#
# Indices 1 2 3 4 5 6 
#
# 1 0.041067 -0.002105 -0.001112 0.001302 -0.015309 0.006811
# 2 -0.002105 0.007973 -0.001965 -0.000930 0.000158 0.000111
# 3 -0.001112 -0.001965 0.007908 0.001007 -0.001543 -0.000742
# 4 0.001302 -0.000930 0.001007 0.021029 0.000816 -0.001743
# 5 -0.015309 0.000158 -0.001543 0.000816 0.026257 -0.003174
# 6 0.006811 0.000111 -0.000742 -0.001743 -0.003174 0.020165
#
#
# Mechanical properties :
#
#
# Convention : Reuss Voigt Hill
#
# Bulk Modulus (GPa) = 21.46685 47.76601 34.61643
# Shear Modulus (GPa) = 33.26878 47.44271 40.35575
#
# Velocity S-wave (km/s) = 3.52900 4.21423 3.88675
# Velocity P-wave (km/s) = 4.96398 6.44674 5.75332
#
# Compressibility (1/GPa) = 0.04658345
#
# Stress axis : x y z
#
# Youngs Moduli (GPa) = 24.35069 125.42708 126.44821
#
# Poissons Ratio (x) = 0.26397 0.14063
# Poissons Ratio (y) = 0.05125 0.24853
# Poissons Ratio (z) = 0.02708 0.24652
#
# Static dielectric constant tensor:
#      x y z
#    x 4.883870 -0.243920 -0.547600 
#    y -0.243920 5.314800 0.151270 
#    z -0.547600 0.151270 4.362220 
# 
# 
# High freq. dielectric constant tensor:
#      x y z
#    x 2.086120 -0.024410 -0.001430 
#    y -0.024410 2.095750 0.010060 
#    z -0.001430 0.010060 2.076830 
# 
# From -- ./inp_files/623404.got.cif
#   From: 2010.06.25/outbox.cif.g09.slc.cpg/sg2_312_cif.got.tgz:623404.got - 2010.06.27 13:26:56.
