data_PCOD8017661
_publ_section_title
;
Structure prediction by ZEFSAII (Michael W. Deem and Ramdas Pophale) SiO2 
 PCOD8017661
Probable space group: P -1
;
_chemical_formula_sum "Si O2"
_cell_formula_units_Z 14
_cell_length_a 16.124337
_cell_length_b 14.999036
_cell_length_c 9.427409
_cell_angle_alpha 69.910662
_cell_angle_beta 128.528134
_cell_angle_gamma 153.296687
_cell_volume 637.682907
_symmetry_space_group_name_H-M "P -1"
_symmetry_group_IT_number 2
_symmetry_cell_setting 'triclinic'
loop_
_space_group_symop_operation_xyz
x,y,z
-x,-y,-z
loop_
_atom_site_type_symbol
_atom_site_label
_atom_site_fract_x
_atom_site_fract_y
_atom_site_fract_z
Si Si1 0.922502 0.368970 0.360541
Si Si2 0.368446 0.814563 0.131556
Si Si3 0.288361 0.208344 0.337494
Si Si4 0.719110 0.578235 0.838824
Si Si5 0.246866 0.351992 0.859854
Si Si6 0.979602 0.644755 0.913796
Si Si7 0.251263 0.485656 0.534392
O O1 0.000000 0.500000 0.500000
O O2 0.213764 0.561235 0.516383
O O3 0.699847 0.103176 0.316072
O O4 0.783915 0.312208 0.114897
O O5 0.294550 0.651733 0.211007
O O6 0.253407 0.805702 0.113661
O O7 0.459211 0.335175 0.595335
O O8 0.212058 0.254670 0.205058
O O9 0.445483 0.293146 0.321587
O O10 0.000558 0.917656 0.202751
O O11 0.974901 0.718227 0.995675
O O12 0.652446 0.503820 0.974255
O O13 0.148598 0.332568 0.633680
O O14 0.500000 0.500000 0.000000
O O15 0.964385 0.696909 0.727090
#
# Coordination Sequence:
#
# PCOD8017661 Si02
#       7
#     2   2   2   2   2   2   2
#     4  10  22  39  63  97 124 157 216 256 307 379
#     4   9  20  42  64  88 129 166 199 266 312 360
#     4  10  23  46  62  89 133 163 211 265 307 374
#     4  10  22  41  66  93 122 172 212 251 316 380
#     4  12  25  42  64  95 129 167 209 262 314 367
#     4   9  20  42  66  90 127 169 209 251 319 373
#     4  10  23  41  63  96 127 166 206 259 318 360
#
# _framework density 21.954483
#
# number of rings (size 3 to 8) (size 9 to 14) (size 15 to 20)
#    0.000    2.000    1.429    0.429    6.000    1.714 
#    0.000    6.429    0.000    0.000    0.000    0.000 
#    0.000    0.000    0.000    0.000    0.000    0.000 
#
# Total GULP energy -173474.900300 kJ/mol
# GULP energy per Si atom -12391.064307 kJ/mol
# Density = 2.190451 g / cm^3
# Si number density = 21.954483 Si / 1000 Ang^3
#
#
#
# Elastic Constant Matrix: (Units=GPa)
#
#
# Indices 1 2 3 4 5 6 
#
# 1 208.0293 43.7676 53.3601 -3.0415 -4.8016 20.4172
# 2 43.7676 72.7595 35.2610 -0.6263 0.2874 12.2585
# 3 53.3601 35.2610 68.5647 -7.5417 -7.7643 0.7122
# 4 -3.0415 -0.6263 -7.5417 31.1679 3.2627 2.6444
# 5 -4.8016 0.2874 -7.7643 3.2627 33.9262 -6.0280
# 6 20.4172 12.2585 0.7122 2.6444 -6.0280 26.9536
#
#
#
# Elastic Compliance Matrix: (Units=1/GPa)
#
#
# Indices 1 2 3 4 5 6 
#
# 1 0.006666 -0.000881 -0.004799 -0.000023 -0.000988 -0.004740
# 2 -0.000881 0.021033 -0.010630 -0.000977 -0.004328 -0.009489
# 3 -0.004799 -0.010630 0.024838 0.003920 0.006288 0.008835
# 4 -0.000023 -0.000977 0.003920 0.033628 -0.002972 -0.003606
# 5 -0.000988 -0.004328 0.006288 -0.002972 0.032910 0.010202
# 6 -0.004740 -0.009489 0.008835 -0.003606 0.010202 0.047409
#
#
# Mechanical properties :
#
#
# Convention : Reuss Voigt Hill
#
# Bulk Modulus (GPa) = 50.21206 68.23676 59.22441
# Shear Modulus (GPa) = 24.30213 32.87384 28.58798
#
# Velocity S-wave (km/s) = 3.33067 3.87378 3.61244
# Velocity P-wave (km/s) = 6.14099 7.15239 6.66590
#
# Compressibility (1/GPa) = 0.01991553
#
# Stress axis : x y z
#
# Youngs Moduli (GPa) = 150.02450 47.54438 40.26113
#
# Poissons Ratio (x) = 0.04191 0.19322
# Poissons Ratio (y) = 0.13224 0.42796
# Poissons Ratio (z) = 0.72001 0.50538
#
# Static dielectric constant tensor:
#      x y z
#    x 4.303810 0.271010 0.007770 
#    y 0.271010 4.020660 -0.492190 
#    z 0.007770 -0.492190 4.084940 
# 
# 
# High freq. dielectric constant tensor:
#      x y z
#    x 1.885330 0.016170 0.008930 
#    y 0.016170 1.842910 -0.026550 
#    z 0.008930 -0.026550 1.850590 
# 
# From -- ./inp_files/313204.got.cif
#   From: 2010.06.25/outbox.cif.g09.slc.cpg/sg2_157_cif.got.tgz:313204.got - 2010.06.27 13:26:56.
