data_PCOD8017561
_publ_section_title
;
Structure prediction by ZEFSAII (Michael W. Deem and Ramdas Pophale) SiO2 
 PCOD8017561
Probable space group: P -1
;
_chemical_formula_sum "Si O2"
_cell_formula_units_Z 16
_cell_length_a 12.133990
_cell_length_b 17.389283
_cell_length_c 12.074615
_cell_angle_alpha 62.868269
_cell_angle_beta 143.729849
_cell_angle_gamma 143.613880
_cell_volume 746.758978
_symmetry_space_group_name_H-M "P -1"
_symmetry_group_IT_number 2
_symmetry_cell_setting 'triclinic'
loop_
_space_group_symop_operation_xyz
x,y,z
-x,-y,-z
loop_
_atom_site_type_symbol
_atom_site_label
_atom_site_fract_x
_atom_site_fract_y
_atom_site_fract_z
Si Si1 0.742184 0.117901 0.953802
Si Si2 0.495891 0.350278 0.909870
Si Si3 0.068032 0.790402 0.710823
Si Si4 0.770991 0.311283 0.776389
Si Si5 0.322502 0.667509 0.706123
Si Si6 0.157107 0.392974 0.545831
Si Si7 0.628447 0.738039 0.696081
Si Si8 0.714291 0.821353 0.356680
O O1 0.759318 0.202469 0.823440
O O2 0.374021 0.936992 0.783204
O O3 0.828150 0.195157 0.091412
O O4 0.988662 0.134925 0.107946
O O5 0.269255 0.348988 0.727783
O O6 0.329528 0.211307 0.789579
O O7 0.528574 0.330894 0.073936
O O8 0.855731 0.510646 0.045992
O O9 0.896984 0.644340 0.604950
O O10 0.804729 0.766288 0.524490
O O11 0.534063 0.262375 0.525303
O O12 0.634008 0.281296 0.806871
O O13 0.609301 0.782213 0.768884
O O14 0.000000 0.500000 0.500000
O O15 0.195099 0.711659 0.616763
O O16 0.439962 0.574312 0.663112
O O17 0.000000 0.000000 0.500000
#
# Coordination Sequence:
#
# PCOD8017561 Si02
#       8
#     2   2   2   2   2   2   2   2
#     4  11  23  39  63  90 126 167 202 258 316 366
#     4  11  23  38  66  96 122 167 209 256 317 360
#     4  10  23  41  60  90 128 165 205 252 316 377
#     4  12  22  38  61  98 124 161 203 260 312 371
#     4  10  22  41  64  91 126 166 210 259 304 368
#     4  10  22  39  62  91 122 159 208 258 304 371
#     4  11  23  41  62  93 125 160 210 259 309 364
#     4  11  23  40  62  94 133 164 203 254 314 384
#
# _framework density 21.425923999999998
#
# number of rings (size 3 to 8) (size 9 to 14) (size 15 to 20)
#    0.000    1.250    6.250    0.375    1.750    4.500 
#    0.000    0.625    0.000    2.250    0.000    0.000 
#    0.000    0.000    0.000    0.000    0.000    0.000 
#
# Total GULP energy -198376.941190 kJ/mol
# GULP energy per Si atom -12398.558824 kJ/mol
# Density = 2.137716 g / cm^3
# Si number density = 21.425924 Si / 1000 Ang^3
#
#
#
# Elastic Constant Matrix: (Units=GPa)
#
#
# Indices 1 2 3 4 5 6 
#
# 1 101.2898 28.2111 33.4190 -18.0350 14.2041 1.0599
# 2 28.2111 48.1436 27.4252 -15.4100 2.5124 -2.1865
# 3 33.4190 27.4252 95.8901 -29.8517 6.7882 0.6326
# 4 -18.0350 -15.4100 -29.8517 33.8750 5.1085 5.6840
# 5 14.2041 2.5124 6.7882 5.1085 42.1136 -3.0112
# 6 1.0599 -2.1865 0.6326 5.6840 -3.0112 23.7411
#
#
#
# Elastic Compliance Matrix: (Units=1/GPa)
#
#
# Indices 1 2 3 4 5 6 
#
# 1 0.013343 -0.005477 -0.001277 0.004668 -0.004733 -0.002784
# 2 -0.005477 0.028425 -0.004456 0.005771 0.000286 0.001636
# 3 -0.001277 -0.004456 0.016573 0.013234 -0.003899 -0.004458
# 4 0.004668 0.005771 0.013234 0.050227 -0.011107 -0.013463
# 5 -0.004733 0.000286 -0.003899 -0.011107 0.027767 0.006523
# 6 -0.002784 0.001636 -0.004458 -0.013463 0.006523 0.046565
#
#
# Mechanical properties :
#
#
# Convention : Reuss Voigt Hill
#
# Bulk Modulus (GPa) = 27.83754 47.04823 37.44288
# Shear Modulus (GPa) = 23.01024 30.36381 26.68703
#
# Velocity S-wave (km/s) = 3.28066 3.76859 3.53306
# Velocity P-wave (km/s) = 5.23173 6.39864 5.84438
#
# Compressibility (1/GPa) = 0.03592272
#
# Stress axis : x y z
#
# Youngs Moduli (GPa) = 74.94303 35.18030 60.33756
#
# Poissons Ratio (x) = 0.19267 0.07708
# Poissons Ratio (y) = 0.41043 0.26884
# Poissons Ratio (z) = 0.09574 0.15675
#
# Static dielectric constant tensor:
#      x y z
#    x 4.554040 -0.035550 0.216160 
#    y -0.035550 3.639760 -0.107650 
#    z 0.216160 -0.107650 3.985070 
# 
# 
# High freq. dielectric constant tensor:
#      x y z
#    x 1.847430 -0.007080 0.015340 
#    y -0.007080 1.816000 -0.013220 
#    z 0.015340 -0.013220 1.848680 
# 
# From -- ./inp_files/436727.got.cif
#   From: 2010.06.25/outbox.cif.g09.slc.cpg/sg2_219_cif.got.tgz:436727.got - 2010.06.27 13:26:56.
