data_PCOD8017685
_publ_section_title
;
Structure prediction by ZEFSAII (Michael W. Deem and Ramdas Pophale) SiO2 
 PCOD8017685
Probable space group: P -1
;
_chemical_formula_sum "Si O2"
_cell_formula_units_Z 12
_cell_length_a 7.325285
_cell_length_b 15.816367
_cell_length_c 4.587970
_cell_angle_alpha 62.743759
_cell_angle_beta 87.850995
_cell_angle_gamma 59.264072
_cell_volume 392.493082
_symmetry_space_group_name_H-M "P -1"
_symmetry_group_IT_number 2
_symmetry_cell_setting 'triclinic'
loop_
_space_group_symop_operation_xyz
x,y,z
-x,-y,-z
loop_
_atom_site_type_symbol
_atom_site_label
_atom_site_fract_x
_atom_site_fract_y
_atom_site_fract_z
Si Si1 0.168084 0.102510 0.554203
Si Si2 0.093621 0.708102 0.324617
Si Si3 0.682386 0.233579 0.366594
Si Si4 0.901840 0.428121 0.957937
Si Si5 0.337202 0.378309 0.755772
Si Si6 0.489465 0.139802 0.166949
O O1 0.308958 0.113049 0.281471
O O2 0.134325 0.178676 0.723330
O O3 0.929494 0.149231 0.350029
O O4 0.301232 0.967481 0.844021
O O5 0.290550 0.728951 0.363856
O O6 0.069322 0.684260 0.027180
O O7 0.141042 0.592846 0.673007
O O8 0.567803 0.163799 0.439056
O O9 0.541725 0.351100 0.993612
O O10 0.697913 0.541711 0.641219
O O11 0.121813 0.429639 0.905500
O O12 0.385240 0.258603 0.801196
#
# Coordination Sequence:
#
# PCOD8017685 Si02
#       6
#     2   2   2   2   2   2
#     4   9  17  34  65  88 129 158 209 263 309 374
#     4  10  22  39  64  90 128 164 207 261 311 368
#     4   8  18  36  59  96 118 168 206 260 307 376
#     4  11  22  42  61  93 130 165 211 252 316 374
#     4   9  20  35  62  89 129 163 210 257 307 376
#     4   9  16  35  62  93 123 164 209 254 321 364
#
# _framework density 30.573785000000001
#
# number of rings (size 3 to 8) (size 9 to 14) (size 15 to 20)
#    2.000    0.667    1.667    0.500    0.000    4.000 
#    0.000    4.167    0.000    2.000    0.000    0.000 
#    0.000    0.000    0.000    0.000    0.000    0.000 
#
# Total GULP energy -148658.801302 kJ/mol
# GULP energy per Si atom -12388.233442 kJ/mol
# Density = 3.050420 g / cm^3
# Si number density = 30.573785 Si / 1000 Ang^3
#
#
#
# Elastic Constant Matrix: (Units=GPa)
#
#
# Indices 1 2 3 4 5 6 
#
# 1 73.0210 2.5241 8.5193 4.9542 20.3350 -10.9055
# 2 2.5241 63.4150 28.4955 -15.1633 2.2899 -5.7107
# 3 8.5193 28.4955 76.2301 -8.9966 4.7206 -19.0903
# 4 4.9542 -15.1633 -8.9966 65.8575 2.3442 11.9707
# 5 20.3350 2.2899 4.7206 2.3442 34.7580 -16.5678
# 6 -10.9055 -5.7107 -19.0903 11.9707 -16.5678 40.9045
#
#
#
# Elastic Compliance Matrix: (Units=1/GPa)
#
#
# Indices 1 2 3 4 5 6 
#
# 1 0.016561 0.000028 -0.001327 -0.001164 -0.009243 0.000397
# 2 0.000028 0.019965 -0.007537 0.004119 -0.001865 -0.002684
# 3 -0.001327 -0.007537 0.017901 -0.000810 0.002877 0.008351
# 4 -0.001164 0.004119 -0.000810 0.017487 -0.003908 -0.006814
# 5 -0.009243 -0.001865 0.002877 -0.003908 0.042209 0.016858
# 6 0.000397 -0.002684 0.008351 -0.006814 0.016858 0.036898
#
#
# Mechanical properties :
#
#
# Convention : Reuss Voigt Hill
#
# Bulk Modulus (GPa) = 27.20602 32.41599 29.81100
# Shear Modulus (GPa) = 27.63281 39.84582 33.73931
#
# Velocity S-wave (km/s) = 3.00960 3.61400 3.32556
# Velocity P-wave (km/s) = 4.58200 5.29530 4.95151
#
# Compressibility (1/GPa) = 0.03675657
#
# Stress axis : x y z
#
# Youngs Moduli (GPa) = 60.38411 50.08685 55.86171
#
# Poissons Ratio (x) = -0.00142 0.07413
# Poissons Ratio (y) = -0.00171 0.42102
# Poissons Ratio (z) = 0.08013 0.37749
#
# Static dielectric constant tensor:
#      x y z
#    x 5.565860 -0.061370 0.319510 
#    y -0.061370 5.896960 -0.493590 
#    z 0.319510 -0.493590 5.161000 
# 
# 
# High freq. dielectric constant tensor:
#      x y z
#    x 2.254930 0.000670 0.015790 
#    y 0.000670 2.271210 -0.013160 
#    z 0.015790 -0.013160 2.238080 
# 
# From -- ./inp_files/43748.got.cif
#   From: 2010.06.25/outbox.cif.g09.slc.cpg/sg2_22_cif.got.tgz:43748.got - 2010.06.27 13:26:56.
