data_PCOD8017572
_publ_section_title
;
Structure prediction by ZEFSAII (Michael W. Deem and Ramdas Pophale) SiO2 
 PCOD8017572
Probable space group: P -1
;
_chemical_formula_sum "Si O2"
_cell_formula_units_Z 16
_cell_length_a 17.713823
_cell_length_b 5.683328
_cell_length_c 11.205361
_cell_angle_alpha 60.632446
_cell_angle_beta 57.714806
_cell_angle_gamma 92.096633
_cell_volume 759.840205
_symmetry_space_group_name_H-M "P -1"
_symmetry_group_IT_number 2
_symmetry_cell_setting 'triclinic'
loop_
_space_group_symop_operation_xyz
x,y,z
-x,-y,-z
loop_
_atom_site_type_symbol
_atom_site_label
_atom_site_fract_x
_atom_site_fract_y
_atom_site_fract_z
Si Si1 0.272626 0.764408 0.969251
Si Si2 0.518285 0.415854 0.875825
Si Si3 0.884796 0.554871 0.987789
Si Si4 0.206768 0.575222 0.548331
Si Si5 0.272383 0.347595 0.759194
Si Si6 0.895256 0.110121 0.271222
Si Si7 0.331360 0.822359 0.166009
Si Si8 0.439373 0.723921 0.698093
O O1 0.177172 0.489130 0.071744
O O2 0.265401 0.778857 0.114237
O O3 0.377239 0.763167 0.851280
O O4 0.266170 0.022269 0.828535
O O5 0.626919 0.425607 0.783320
O O6 0.520477 0.635138 0.712967
O O7 0.500000 0.500000 0.000000
O O8 0.427368 0.116400 0.994740
O O9 0.992278 0.797037 0.810530
O O10 0.831634 0.682766 0.095260
O O11 0.888630 0.254886 0.113414
O O12 0.286839 0.531088 0.578595
O O13 0.149673 0.746382 0.623620
O O14 0.262765 0.808812 0.339150
O O15 0.146772 0.247598 0.621251
O O16 0.364241 0.489707 0.732334
O O17 0.500000 0.000000 0.500000
#
# Coordination Sequence:
#
# PCOD8017572 Si02
#       8
#     2   2   2   2   2   2   2   2
#     4  11  21  42  60  93 123 175 211 259 334 384
#     4  11  24  43  60  88 126 175 219 253 332 391
#     4   9  21  38  68  92 129 167 209 273 322 397
#     4  11  25  41  67  99 130 171 215 277 324 384
#     4  10  22  39  62  92 130 164 219 263 330 377
#     4  10  22  41  67 102 128 166 220 268 336 383
#     4  11  26  41  64  87 129 179 214 267 320 403
#     4  11  25  38  64  96 127 165 218 284 318 383
#
# _framework density 21.057057
#
# number of rings (size 3 to 8) (size 9 to 14) (size 15 to 20)
#    0.000    1.500    3.750    0.000    7.000    2.000 
#    0.000    1.250    0.000    0.000    0.000    0.000 
#    0.000    0.000    0.000    0.000    0.000    0.000 
#
# Total GULP energy -198220.579822 kJ/mol
# GULP energy per Si atom -12388.786239 kJ/mol
# Density = 2.100913 g / cm^3
# Si number density = 21.057057 Si / 1000 Ang^3
#
#
#
# Elastic Constant Matrix: (Units=GPa)
#
#
# Indices 1 2 3 4 5 6 
#
# 1 105.4115 16.5432 33.5541 9.3480 6.7005 8.2810
# 2 16.5432 77.8075 6.6634 4.3235 -0.6759 9.0921
# 3 33.5541 6.6634 65.2084 5.5899 12.4413 13.2350
# 4 9.3480 4.3235 5.5899 22.6689 0.9712 12.8522
# 5 6.7005 -0.6759 12.4413 0.9712 31.9205 4.6902
# 6 8.2810 9.0921 13.2350 12.8522 4.6902 22.3291
#
#
#
# Elastic Compliance Matrix: (Units=1/GPa)
#
#
# Indices 1 2 3 4 5 6 
#
# 1 0.011947 -0.002093 -0.006002 -0.004559 -0.000471 0.002702
# 2 -0.002093 0.013927 0.000556 0.001692 0.001421 -0.006497
# 3 -0.006002 0.000556 0.021483 0.004067 -0.005473 -0.011925
# 4 -0.004559 0.001692 0.004067 0.067875 0.003395 -0.041189
# 5 -0.000471 0.001421 -0.005473 0.003395 0.034419 -0.006343
# 6 0.002702 -0.006497 -0.011925 -0.041189 -0.006343 0.078536
#
#
# Mechanical properties :
#
#
# Convention : Reuss Voigt Hill
#
# Bulk Modulus (GPa) = 30.97767 40.21653 35.59710
# Shear Modulus (GPa) = 19.68322 28.16150 23.92236
#
# Velocity S-wave (km/s) = 3.06070 3.66100 3.37423
# Velocity P-wave (km/s) = 5.21859 6.08366 5.66765
#
# Compressibility (1/GPa) = 0.03228132
#
# Stress axis : x y z
#
# Youngs Moduli (GPa) = 83.69974 71.80277 46.54883
#
# Poissons Ratio (x) = 0.15026 0.27936
# Poissons Ratio (y) = 0.17516 -0.02589
# Poissons Ratio (z) = 0.50233 -0.03994
#
# Static dielectric constant tensor:
#      x y z
#    x 3.955210 -0.116490 0.049080 
#    y -0.116490 3.841490 0.099560 
#    z 0.049080 0.099560 3.560820 
# 
# 
# High freq. dielectric constant tensor:
#      x y z
#    x 1.836740 0.005370 0.000710 
#    y 0.005370 1.827930 0.004110 
#    z 0.000710 0.004110 1.803780 
# 
# From -- ./inp_files/37309.got.cif
#   From: 2010.06.25/outbox.cif.g09.slc.cpg/sg2_19_cif.got.tgz:37309.got - 2010.06.27 13:26:56.
