data_PCOD8017521
_publ_section_title
;
Structure prediction by ZEFSAII (Michael W. Deem and Ramdas Pophale) SiO2 
 PCOD8017521
Probable space group: P -1
;
_chemical_formula_sum "Si O2"
_cell_formula_units_Z 16
_cell_length_a 6.690898
_cell_length_b 19.697896
_cell_length_c 17.286454
_cell_angle_alpha 159.950780
_cell_angle_beta 106.680338
_cell_angle_gamma 75.695875
_cell_volume 746.426882
_symmetry_space_group_name_H-M "P -1"
_symmetry_group_IT_number 2
_symmetry_cell_setting 'triclinic'
loop_
_space_group_symop_operation_xyz
x,y,z
-x,-y,-z
loop_
_atom_site_type_symbol
_atom_site_label
_atom_site_fract_x
_atom_site_fract_y
_atom_site_fract_z
Si Si1 0.222158 0.412287 0.023882
Si Si2 0.129450 0.313907 0.081974
Si Si3 0.645210 0.923930 0.027840
Si Si4 0.559950 0.935033 0.353685
Si Si5 0.167440 0.069607 0.387677
Si Si6 0.007188 0.275519 0.445840
Si Si7 0.775591 0.890741 0.844292
Si Si8 0.072956 0.782863 0.340243
O O1 0.430219 0.304403 0.905418
O O2 0.015487 0.316796 0.854954
O O3 0.210110 0.394539 0.095390
O O4 0.238842 0.642785 0.248851
O O5 0.051415 0.498184 0.318259
O O6 0.313272 0.218210 0.047906
O O7 0.948890 0.142803 0.868086
O O8 0.798004 0.126545 0.258410
O O9 0.402410 0.970209 0.058441
O O10 0.686505 0.804307 0.824114
O O11 0.500000 0.000000 0.500000
O O12 0.409305 0.022304 0.367093
O O13 0.798881 0.011754 0.445267
O O14 0.133493 0.225626 0.483591
O O15 0.107698 0.169332 0.568734
O O16 0.173399 0.268592 0.386055
O O17 0.000000 0.000000 0.000000
#
# Coordination Sequence:
#
# PCOD8017521 Si02
#       8
#     2   2   2   2   2   2   2   2
#     4  11  23  40  62  87 120 167 206 257 309 355
#     4  11  22  40  62  90 126 160 205 250 303 363
#     4   9  21  41  66  90 122 162 195 244 303 361
#     4  12  24  39  63  88 115 164 216 256 304 362
#     4  11  23  40  60  89 122 163 205 256 307 353
#     4  10  22  39  61  92 124 158 199 248 300 363
#     4   9  19  42  67  90 124 158 195 244 302 359
#     4  11  23  43  61  81 127 164 208 261 305 354
#
# _framework density 21.435452999999999
#
# number of rings (size 3 to 8) (size 9 to 14) (size 15 to 20)
#    0.000    1.500    3.750    1.125    1.750    2.000 
#    2.250    5.625    0.000    0.000    0.000    0.000 
#    0.000    0.000    0.000    0.000    0.000    0.000 
#
# Total GULP energy -198311.529970 kJ/mol
# GULP energy per Si atom -12394.470623 kJ/mol
# Density = 2.138667 g / cm^3
# Si number density = 21.435453 Si / 1000 Ang^3
#
#
#
# Elastic Constant Matrix: (Units=GPa)
#
#
# Indices 1 2 3 4 5 6 
#
# 1 91.8817 31.7367 26.6726 -5.9857 -28.9540 -16.6722
# 2 31.7367 120.8723 34.7746 -8.1200 -14.3173 -11.8552
# 3 26.6726 34.7746 90.5664 4.7861 -36.4159 5.8745
# 4 -5.9857 -8.1200 4.7861 34.2187 2.7099 -10.8334
# 5 -28.9540 -14.3173 -36.4159 2.7099 33.8705 -2.3892
# 6 -16.6722 -11.8552 5.8745 -10.8334 -2.3892 36.2425
#
#
#
# Elastic Compliance Matrix: (Units=1/GPa)
#
#
# Indices 1 2 3 4 5 6 
#
# 1 0.018623 -0.001899 0.000981 0.004607 0.016527 0.010253
# 2 -0.001899 0.010715 -0.005199 0.004635 -0.002725 0.004680
# 3 0.000981 -0.005199 0.023068 -0.008006 0.023673 -0.005821
# 4 0.004607 0.004635 -0.008006 0.037642 -0.004602 0.015881
# 5 0.016527 -0.002725 0.023673 -0.004602 0.068747 0.006031
# 6 0.010253 0.004680 -0.005821 0.015881 0.006031 0.039928
#
#
# Mechanical properties :
#
#
# Convention : Reuss Voigt Hill
#
# Bulk Modulus (GPa) = 24.89236 54.40980 39.65108
# Shear Modulus (GPa) = 22.28681 34.87544 28.58113
#
# Velocity S-wave (km/s) = 3.22796 4.03798 3.65548
# Velocity P-wave (km/s) = 5.05281 6.86867 6.02949
#
# Compressibility (1/GPa) = 0.04017297
#
# Stress axis : x y z
#
# Youngs Moduli (GPa) = 53.69575 93.32461 43.34958
#
# Poissons Ratio (x) = 0.17726 -0.04254
# Poissons Ratio (y) = 0.10199 0.22538
# Poissons Ratio (z) = -0.05270 0.48520
#
# Static dielectric constant tensor:
#      x y z
#    x 4.218110 0.235920 -0.385110 
#    y 0.235920 4.792780 -0.205960 
#    z -0.385110 -0.205960 3.946350 
# 
# 
# High freq. dielectric constant tensor:
#      x y z
#    x 1.827640 -0.015640 -0.025640 
#    y -0.015640 1.858590 -0.007940 
#    z -0.025640 -0.007940 1.833870 
# 
# From -- ./inp_files/53008.got.cif
#   From: 2010.06.25/outbox.cif.g09.slc.cpg/sg2_27_cif.got.tgz:53008.got - 2010.06.27 13:26:56.
