data_PCOD8017624
_publ_section_title
;
Structure prediction by ZEFSAII (Michael W. Deem and Ramdas Pophale) SiO2 
 PCOD8017624
Probable space group: P -1
;
_chemical_formula_sum "Si O2"
_cell_formula_units_Z 16
_cell_length_a 10.724575
_cell_length_b 17.640478
_cell_length_c 6.391006
_cell_angle_alpha 47.831602
_cell_angle_beta 118.136702
_cell_angle_gamma 125.925589
_cell_volume 719.577486
_symmetry_space_group_name_H-M "P -1"
_symmetry_group_IT_number 2
_symmetry_cell_setting 'triclinic'
loop_
_space_group_symop_operation_xyz
x,y,z
-x,-y,-z
loop_
_atom_site_type_symbol
_atom_site_label
_atom_site_fract_x
_atom_site_fract_y
_atom_site_fract_z
Si Si1 0.883712 0.025487 0.635774
Si Si2 0.204366 0.871810 0.995341
Si Si3 0.352363 0.579689 0.084163
Si Si4 0.318073 0.395918 0.739148
Si Si5 0.349629 0.738596 0.126733
Si Si6 0.600389 0.969309 0.807774
Si Si7 0.178561 0.522239 0.650632
Si Si8 0.054931 0.174822 0.833912
O O1 0.750027 0.973399 0.800312
O O2 0.831066 0.039262 0.337331
O O3 0.955667 0.934858 0.844564
O O4 0.006379 0.144275 0.609366
O O5 0.226869 0.790434 0.989528
O O6 0.068022 0.794133 0.187948
O O7 0.354459 0.941797 0.128685
O O8 0.336597 0.487999 0.411792
O O9 0.518646 0.606365 0.053880
O O10 0.339149 0.687934 0.979474
O O11 0.205702 0.532354 0.901218
O O12 0.220784 0.418885 0.807344
O O13 0.222840 0.275269 0.784663
O O14 0.516338 0.844687 0.073597
O O15 0.311762 0.637059 0.448983
O O16 0.500000 0.000000 0.500000
O O17 0.000000 0.500000 0.500000
#
# Coordination Sequence:
#
# PCOD8017624 Si02
#       8
#     2   2   2   2   2   2   2   2
#     4  10  22  40  61  91 129 167 209 256 311 383
#     4  11  23  39  61  93 131 166 210 254 317 381
#     4  10  24  44  67  92 128 165 218 268 317 381
#     4  10  22  44  67  93 124 170 215 266 320 375
#     4  11  24  38  64  94 124 171 207 259 319 373
#     4  11  23  39  60  91 126 166 207 256 308 374
#     4  11  25  43  65  99 128 164 216 266 326 381
#     4  10  22  39  63  92 125 166 213 258 316 376
#
# _framework density 22.235268999999999
#
# number of rings (size 3 to 8) (size 9 to 14) (size 15 to 20)
#    0.000    1.500    1.250    2.625    1.750    6.000 
#    0.000    0.000    0.000    0.000    0.000    0.000 
#    0.000    0.000    0.000    0.000    0.000    0.000 
#
# Total GULP energy -198248.930214 kJ/mol
# GULP energy per Si atom -12390.558138 kJ/mol
# Density = 2.218466 g / cm^3
# Si number density = 22.235269 Si / 1000 Ang^3
#
#
#
# Elastic Constant Matrix: (Units=GPa)
#
#
# Indices 1 2 3 4 5 6 
#
# 1 101.0310 51.9104 8.7602 16.3930 8.7970 -14.9135
# 2 51.9104 132.1723 38.0983 13.1451 11.7533 -3.4531
# 3 8.7602 38.0983 66.0831 22.8672 14.7937 0.7833
# 4 16.3930 13.1451 22.8672 36.6362 13.0515 -4.3733
# 5 8.7970 11.7533 14.7937 13.0515 20.4927 0.6195
# 6 -14.9135 -3.4531 0.7833 -4.3733 0.6195 37.0244
#
#
#
# Elastic Compliance Matrix: (Units=1/GPa)
#
#
# Indices 1 2 3 4 5 6 
#
# 1 0.014311 -0.005859 0.003769 -0.005305 -0.002263 0.004550
# 2 -0.005859 0.011573 -0.006640 0.002942 -0.001179 -0.000773
# 3 0.003769 -0.006640 0.024302 -0.011793 -0.007816 -0.000877
# 4 -0.005305 0.002942 -0.011793 0.042972 -0.018379 0.003770
# 5 -0.002263 -0.001179 -0.007816 -0.018379 0.067919 -0.004163
# 6 0.004550 -0.000773 -0.000877 0.003770 -0.004163 0.029303
#
#
# Mechanical properties :
#
#
# Convention : Reuss Voigt Hill
#
# Bulk Modulus (GPa) = 30.55752 55.20270 42.88011
# Shear Modulus (GPa) = 22.85717 32.19849 27.52783
#
# Velocity S-wave (km/s) = 3.20967 3.80950 3.52238
# Velocity P-wave (km/s) = 5.24487 6.65058 5.98911
#
# Compressibility (1/GPa) = 0.03272517
#
# Stress axis : x y z
#
# Youngs Moduli (GPa) = 69.87584 86.40561 41.14880
#
# Poissons Ratio (x) = 0.50629 -0.15510
# Poissons Ratio (y) = 0.40944 0.27324
# Poissons Ratio (z) = -0.26338 0.57377
#
# Static dielectric constant tensor:
#      x y z
#    x 4.332640 -0.121850 -0.003780 
#    y -0.121850 4.191360 -0.040080 
#    z -0.003780 -0.040080 3.703240 
# 
# 
# High freq. dielectric constant tensor:
#      x y z
#    x 1.889910 -0.009020 -0.002850 
#    y -0.009020 1.879910 0.000360 
#    z -0.002850 0.000360 1.853930 
# 
# From -- ./inp_files/78672.got.cif
#   From: 2010.06.25/outbox.cif.g09.slc.cpg/sg2_40_cif.got.tgz:78672.got - 2010.06.27 13:26:56.
