data_PCOD8017494
_publ_section_title
;
Structure prediction by ZEFSAII (Michael W. Deem and Ramdas Pophale) SiO2 
 PCOD8017494
Probable space group: P -1
;
_chemical_formula_sum "Si O2"
_cell_formula_units_Z 16
_cell_length_a 11.924285
_cell_length_b 13.355465
_cell_length_c 14.216261
_cell_angle_alpha 45.456951
_cell_angle_beta 150.581605
_cell_angle_gamma 124.415687
_cell_volume 785.763622
_symmetry_space_group_name_H-M "P -1"
_symmetry_group_IT_number 2
_symmetry_cell_setting 'triclinic'
loop_
_space_group_symop_operation_xyz
x,y,z
-x,-y,-z
loop_
_atom_site_type_symbol
_atom_site_label
_atom_site_fract_x
_atom_site_fract_y
_atom_site_fract_z
Si Si1 0.633560 0.305519 0.652165
Si Si2 0.456007 0.414836 0.117050
Si Si3 0.759858 0.444085 0.833674
Si Si4 0.583453 0.037308 0.689123
Si Si5 0.974731 0.419740 0.700084
Si Si6 0.194393 0.204656 0.860894
Si Si7 0.419859 0.378817 0.778194
Si Si8 0.738733 0.116048 0.550160
O O1 0.777361 0.330615 0.835486
O O2 0.403708 0.415704 0.408775
O O3 0.559031 0.149369 0.684202
O O4 0.800296 0.317835 0.678443
O O5 0.558017 0.482996 0.235840
O O6 0.570285 0.253611 0.303283
O O7 0.500000 0.500000 0.000000
O O8 0.180441 0.426100 0.920420
O O9 0.641869 0.358774 0.885695
O O10 0.000000 0.500000 0.000000
O O11 0.725474 0.083926 0.672937
O O12 0.332765 0.012818 0.480564
O O13 0.706242 0.890657 0.917273
O O14 0.076758 0.355362 0.718013
O O15 0.829796 0.577699 0.482873
O O16 0.398930 0.237769 0.917359
O O17 0.003832 0.132140 0.711509
#
# Coordination Sequence:
#
# PCOD8017494 Si02
#       8
#     2   2   2   2   2   2   2   2
#     4  10  22  39  61  85 112 149 200 244 290 339
#     4  12  20  32  54  85 121 155 186 234 290 349
#     4  10  22  43  65  85 107 147 202 254 292 337
#     4  11  23  37  55  86 124 160 195 232 286 357
#     4  11  20  34  58  87 120 153 186 239 292 347
#     4  12  21  36  56  87 128 159 185 233 297 356
#     4  11  22  37  59  88 119 153 198 240 295 349
#     4  11  22  34  53  84 124 161 197 224 281 357
#
# _framework density 20.362355999999998
#
# number of rings (size 3 to 8) (size 9 to 14) (size 15 to 20)
#    0.000    1.000    5.000    3.000    0.000    1.000 
#    0.000    0.625    0.000    1.500    0.000    0.000 
#    0.000    0.000    0.000    0.000    0.000    0.000 
#
# Total GULP energy -198284.918349 kJ/mol
# GULP energy per Si atom -12392.807397 kJ/mol
# Density = 2.031601 g / cm^3
# Si number density = 20.362356 Si / 1000 Ang^3
#
#
#
# Elastic Constant Matrix: (Units=GPa)
#
#
# Indices 1 2 3 4 5 6 
#
# 1 91.7512 48.1847 30.2058 4.0552 -10.8525 9.3461
# 2 48.1847 123.5242 35.3761 23.5503 -7.9372 -4.7518
# 3 30.2058 35.3761 86.9703 12.7900 -10.4202 12.7684
# 4 4.0552 23.5503 12.7900 39.3134 8.0651 -7.7869
# 5 -10.8525 -7.9372 -10.4202 8.0651 22.9181 1.8233
# 6 9.3461 -4.7518 12.7684 -7.7869 1.8233 37.1041
#
#
#
# Elastic Compliance Matrix: (Units=1/GPa)
#
#
# Indices 1 2 3 4 5 6 
#
# 1 0.015308 -0.005339 -0.002116 0.000603 0.004536 -0.003908
# 2 -0.005339 0.012253 -0.002231 -0.006169 0.002693 0.002255
# 3 -0.002116 -0.002231 0.016256 -0.006936 0.008632 -0.007226
# 4 0.000603 -0.006169 -0.006936 0.037225 -0.018915 0.010186
# 5 0.004536 0.002693 0.008632 -0.018915 0.058138 -0.010595
# 6 -0.003908 0.002255 -0.007226 0.010186 -0.010595 0.033369
#
#
# Mechanical properties :
#
#
# Convention : Reuss Voigt Hill
#
# Bulk Modulus (GPa) = 40.90979 58.86431 49.88705
# Shear Modulus (GPa) = 24.99135 32.43238 28.71186
#
# Velocity S-wave (km/s) = 3.50713 3.99527 3.75913
# Velocity P-wave (km/s) = 6.04437 7.08901 6.58743
#
# Compressibility (1/GPa) = 0.02444403
#
# Stress axis : x y z
#
# Youngs Moduli (GPa) = 65.32738 81.61179 61.51622
#
# Poissons Ratio (x) = 0.43572 0.13019
# Poissons Ratio (y) = 0.34878 0.13724
# Poissons Ratio (z) = 0.13826 0.18207
#
# Static dielectric constant tensor:
#      x y z
#    x 3.637450 0.070980 -0.195620 
#    y 0.070980 3.990860 0.405330 
#    z -0.195620 0.405330 3.831910 
# 
# 
# High freq. dielectric constant tensor:
#      x y z
#    x 1.765240 0.012980 -0.018330 
#    y 0.012980 1.803160 0.024260 
#    z -0.018330 0.024260 1.791590 
# 
# From -- ./inp_files/522314.got.cif
#   From: 2010.06.25/outbox.cif.g09.slc.cpg/sg2_262_cif.got.tgz:522314.got - 2010.06.27 13:26:56.
