data_PCOD8017155
_publ_section_title
;
Structure prediction by ZEFSAII (Michael W. Deem and Ramdas Pophale) SiO2 
 PCOD8017155
Probable space group: P -1
;
_chemical_formula_sum "Si O2"
_cell_formula_units_Z 14
_cell_length_a 12.366603
_cell_length_b 5.029704
_cell_length_c 11.868321
_cell_angle_alpha 68.085718
_cell_angle_beta 109.020229
_cell_angle_gamma 117.080492
_cell_volume 598.816068
_symmetry_space_group_name_H-M "P -1"
_symmetry_group_IT_number 2
_symmetry_cell_setting 'triclinic'
loop_
_space_group_symop_operation_xyz
x,y,z
-x,-y,-z
loop_
_atom_site_type_symbol
_atom_site_label
_atom_site_fract_x
_atom_site_fract_y
_atom_site_fract_z
Si Si1 0.161663 0.934782 0.998874
Si Si2 0.724111 0.831407 0.224111
Si Si3 0.498876 0.609211 0.661665
Si Si4 0.146429 0.635316 0.646430
Si Si5 0.129946 0.759894 0.370052
Si Si6 0.885142 0.726966 0.864957
Si Si7 0.364957 0.686606 0.385137
O O1 0.177648 0.644450 0.113623
O O2 0.171178 0.193870 0.052425
O O3 0.031984 0.826215 0.906854
O O4 0.267940 0.076831 0.919165
O O5 0.580836 0.620726 0.232061
O O6 0.812204 0.650208 0.312205
O O7 0.767454 0.137276 0.267455
O O8 0.406861 0.576002 0.531981
O O9 0.613624 0.516405 0.677647
O O10 0.552434 0.956359 0.671197
O O11 0.159966 0.812522 0.504406
O O12 0.004407 0.501397 0.659974
O O13 0.222287 0.635225 0.356237
O O14 0.143764 0.096876 0.277712
#
# Coordination Sequence:
#
# PCOD8017155 Si02
#       7
#     2   2   2   2   2   2   2
#     4  10  22  39  60  87 118 164 209 244 295 356
#     4  12  22  43  62  91 128 159 203 258 298 370
#     4  10  22  39  60  87 118 164 209 244 295 356
#     4  11  26  36  62  98 128 162 183 251 333 379
#     4  11  24  42  60  95 134 158 198 249 320 374
#     4  10  22  38  61  86 122 161 205 246 295 369
#     4  10  22  38  61  86 122 161 205 246 295 369
#
# _framework density 23.379467000000002
#
# number of rings (size 3 to 8) (size 9 to 14) (size 15 to 20)
#    0.000    1.429    2.857    1.714    8.000    5.714 
#    0.000    0.000    0.000    5.143    0.000    0.000 
#    0.000    0.000    0.000    0.000    0.000    0.000 
#
# Total GULP energy -173687.301876 kJ/mol
# GULP energy per Si atom -12406.235848 kJ/mol
# Density = 2.332625 g / cm^3
# Si number density = 23.379467 Si / 1000 Ang^3
#
#
#
# Elastic Constant Matrix: (Units=GPa)
#
#
# Indices 1 2 3 4 5 6 
#
# 1 132.5016 20.7447 35.4172 -25.9457 -8.8742 1.5566
# 2 20.7447 59.5586 13.6121 -14.0029 -9.9061 -11.6185
# 3 35.4172 13.6121 94.2854 -36.2246 -13.3210 3.8764
# 4 -25.9457 -14.0029 -36.2246 31.5702 -0.4133 -0.4001
# 5 -8.8742 -9.9061 -13.3210 -0.4133 36.4656 -13.6930
# 6 1.5566 -11.6185 3.8764 -0.4001 -13.6930 34.6396
#
#
#
# Elastic Compliance Matrix: (Units=1/GPa)
#
#
# Indices 1 2 3 4 5 6 
#
# 1 0.009279 -0.001309 -0.000596 0.006384 0.001748 -0.000025
# 2 -0.001309 0.024444 0.003772 0.014427 0.012763 0.013047
# 3 -0.000596 0.003772 0.021698 0.026257 0.010324 0.003248
# 4 0.006384 0.014427 0.026257 0.073839 0.019761 0.010278
# 5 0.001748 0.012763 0.010324 0.019761 0.042910 0.020238
# 6 -0.000025 0.013047 0.003248 0.010278 0.020238 0.041001
#
#
# Mechanical properties :
#
#
# Convention : Reuss Voigt Hill
#
# Bulk Modulus (GPa) = 16.90419 47.32153 32.11286
# Shear Modulus (GPa) = 21.81936 34.97317 28.39627
#
# Velocity S-wave (km/s) = 3.05826 3.87187 3.48887
# Velocity P-wave (km/s) = 4.44035 6.34611 5.47676
#
# Compressibility (1/GPa) = 0.05915692
#
# Stress axis : x y z
#
# Youngs Moduli (GPa) = 107.77399 40.90998 46.08647
#
# Poissons Ratio (x) = 0.05354 0.02745
# Poissons Ratio (y) = 0.14105 -0.17386
# Poissons Ratio (z) = 0.06420 -0.15433
#
# Static dielectric constant tensor:
#      x y z
#    x 4.354780 -0.109500 -0.087730 
#    y -0.109500 3.973800 -0.337740 
#    z -0.087730 -0.337740 4.104180 
# 
# 
# High freq. dielectric constant tensor:
#      x y z
#    x 1.929530 -0.011970 -0.011370 
#    y -0.011970 1.920860 -0.019290 
#    z -0.011370 -0.019290 1.912180 
# 
# From -- ./inp_files/409917.got.cif
#   From: 2010.06.25/outbox.cif.g09.slc.cpg/sg2_205_cif.got.tgz:409917.got - 2010.06.27 13:26:56.
