data_PCOD8017828
_publ_section_title
;
Structure prediction by ZEFSAII (Michael W. Deem and Ramdas Pophale) SiO2 
 PCOD8017828
Probable space group: P -1
;
_chemical_formula_sum "Si O2"
_cell_formula_units_Z 16
_cell_length_a 9.480057
_cell_length_b 13.910868
_cell_length_c 8.579363
_cell_angle_alpha 70.947852
_cell_angle_beta 110.963148
_cell_angle_gamma 62.577771
_cell_volume 755.402861
_symmetry_space_group_name_H-M "P -1"
_symmetry_group_IT_number 2
_symmetry_cell_setting 'triclinic'
loop_
_space_group_symop_operation_xyz
x,y,z
-x,-y,-z
loop_
_atom_site_type_symbol
_atom_site_label
_atom_site_fract_x
_atom_site_fract_y
_atom_site_fract_z
Si Si1 0.802305 0.387493 0.821723
Si Si2 0.193817 0.844140 0.135952
Si Si3 0.243657 0.900391 0.808050
Si Si4 0.423013 0.659509 0.604468
Si Si5 0.943472 0.185886 0.429077
Si Si6 0.905176 0.698111 0.751119
Si Si7 0.382402 0.262161 0.150187
Si Si8 0.994593 0.529169 0.302781
O O1 0.866427 0.244284 0.887241
O O2 0.561097 0.508405 0.670311
O O3 0.885805 0.418361 0.696713
O O4 0.895652 0.386436 0.020928
O O5 0.338063 0.775079 0.379010
O O6 0.316035 0.841315 0.042332
O O7 0.000000 0.000000 0.000000
O O8 0.148873 0.839305 0.733450
O O9 0.421545 0.867369 0.789878
O O10 0.072000 0.060657 0.663718
O O11 0.238372 0.687731 0.607696
O O12 0.559497 0.663401 0.772024
O O13 0.092188 0.205213 0.410014
O O14 0.713408 0.779590 0.748477
O O15 0.896993 0.602300 0.691668
O O16 0.231737 0.359924 0.902410
O O17 0.000000 0.500000 0.500000
#
# Coordination Sequence:
#
# PCOD8017828 Si02
#       8
#     2   2   2   2   2   2   2   2
#     4  11  23  43  65  99 132 177 223 267 334 394
#     4  12  25  42  66  96 140 176 219 280 329 385
#     4  10  22  41  61  96 130 177 224 266 324 396
#     4  11  22  41  67  98 134 169 219 279 325 392
#     4  10  22  39  66  94 130 173 223 264 330 392
#     4  11  21  43  68  93 134 175 214 276 331 394
#     4  10  22  41  67  93 132 173 221 266 333 397
#     4  11  24  40  67  96 135 170 216 277 335 393
#
# _framework density 21.180751000000001
#
# number of rings (size 3 to 8) (size 9 to 14) (size 15 to 20)
#    0.000    1.250    5.000    1.125    3.500    2.000 
#    0.000    1.250    0.000    4.500    0.000    0.000 
#    0.000    0.000    0.000    0.000    0.000    0.000 
#
# Total GULP energy -198360.377920 kJ/mol
# GULP energy per Si atom -12397.523620 kJ/mol
# Density = 2.113254 g / cm^3
# Si number density = 21.180751 Si / 1000 Ang^3
#
#
#
# Elastic Constant Matrix: (Units=GPa)
#
#
# Indices 1 2 3 4 5 6 
#
# 1 134.1721 56.1543 41.5025 -2.9620 -17.3586 -15.4925
# 2 56.1543 106.3754 49.0300 -13.8385 -2.5511 -10.0257
# 3 41.5025 49.0300 92.0459 8.3550 -13.7298 -6.6674
# 4 -2.9620 -13.8385 8.3550 32.8974 -6.3507 -0.3944
# 5 -17.3586 -2.5511 -13.7298 -6.3507 35.5692 -0.1242
# 6 -15.4925 -10.0257 -6.6674 -0.3944 -0.1242 20.5801
#
#
#
# Elastic Compliance Matrix: (Units=1/GPa)
#
#
# Indices 1 2 3 4 5 6 
#
# 1 0.011040 -0.004379 -0.001597 0.000508 0.004568 0.005697
# 2 -0.004379 0.016492 -0.007743 0.008056 -0.002496 0.002369
# 3 -0.001597 -0.007743 0.016961 -0.006936 0.003975 0.000412
# 4 0.000508 0.008056 -0.006936 0.036531 0.004680 0.002788
# 5 0.004568 -0.002496 0.003975 0.004680 0.032548 0.003796
# 6 0.005697 0.002369 0.000412 0.002788 0.003796 0.054243
#
#
# Mechanical properties :
#
#
# Convention : Reuss Voigt Hill
#
# Bulk Modulus (GPa) = 58.63219 69.55190 64.09204
# Shear Modulus (GPa) = 24.88335 30.20313 27.54324
#
# Velocity S-wave (km/s) = 3.43127 3.78030 3.61000
# Velocity P-wave (km/s) = 6.59091 7.20852 6.90662
#
# Compressibility (1/GPa) = 0.01705548
#
# Stress axis : x y z
#
# Youngs Moduli (GPa) = 90.58007 60.63383 58.95921
#
# Poissons Ratio (x) = 0.26552 0.09417
# Poissons Ratio (y) = 0.39666 0.45649
# Poissons Ratio (z) = 0.14468 0.46946
#
# Static dielectric constant tensor:
#      x y z
#    x 3.877660 -0.163370 -0.063180 
#    y -0.163370 3.751810 0.071630 
#    z -0.063180 0.071630 3.860360 
# 
# 
# High freq. dielectric constant tensor:
#      x y z
#    x 1.826520 -0.015830 -0.007350 
#    y -0.015830 1.822870 0.008180 
#    z -0.007350 0.008180 1.832660 
# 
# From -- ./inp_files/205985.got.cif
#   From: 2010.06.25/outbox.cif.g09.slc.cpg/sg2_103_cif.got.tgz:205985.got - 2010.06.27 13:26:56.
