data_PCOD8017346
_publ_section_title
;
Structure prediction by ZEFSAII (Michael W. Deem and Ramdas Pophale) SiO2 
 PCOD8017346
Probable space group: P -1
;
_chemical_formula_sum "Si O2"
_cell_formula_units_Z 14
_cell_length_a 11.603548
_cell_length_b 11.780557
_cell_length_c 5.173732
_cell_angle_alpha 77.979117
_cell_angle_beta 94.422365
_cell_angle_gamma 68.309152
_cell_volume 633.436667
_symmetry_space_group_name_H-M "P -1"
_symmetry_group_IT_number 2
_symmetry_cell_setting 'triclinic'
loop_
_space_group_symop_operation_xyz
x,y,z
-x,-y,-z
loop_
_atom_site_type_symbol
_atom_site_label
_atom_site_fract_x
_atom_site_fract_y
_atom_site_fract_z
Si Si1 0.361640 0.383485 0.679855
Si Si2 0.383396 0.949439 0.392922
Si Si3 0.898686 0.194692 0.016885
Si Si4 0.632877 0.878269 0.260250
Si Si5 0.521541 0.315426 0.247400
Si Si6 0.169264 0.026144 0.002948
Si Si7 0.776768 0.339416 0.411681
O O1 0.310293 0.272132 0.706901
O O2 0.427530 0.393757 0.418945
O O3 0.241395 0.514571 0.636813
O O4 0.462305 0.361592 0.936305
O O5 0.478457 0.932188 0.168129
O O6 0.449356 0.832805 0.653688
O O7 0.360970 0.084081 0.455840
O O8 0.246126 0.948587 0.302642
O O9 0.816941 0.274846 0.727800
O O10 0.045580 0.147411 0.993374
O O11 0.880981 0.272590 0.241565
O O12 0.865348 0.072277 0.128443
O O13 0.721844 0.932325 0.101389
O O14 0.647595 0.338649 0.284225
#
# Coordination Sequence:
#
# PCOD8017346 Si02
#       7
#     2   2   2   2   2   2   2
#     4  11  25  40  65  96 134 167 214 255 326 380
#     4  10  22  38  67  97 132 160 209 267 334 374
#     4  11  27  42  71  91 126 174 220 258 322 363
#     4  10  24  38  65  98 129 168 205 266 328 384
#     4  11  22  39  66  99 128 169 206 271 322 376
#     4  11  24  43  65  96 128 165 214 274 312 384
#     4  12  23  46  63  95 129 174 216 263 305 387
#
# _framework density 22.101659000000001
#
# number of rings (size 3 to 8) (size 9 to 14) (size 15 to 20)
#    0.000    1.143    1.429    3.857   14.000    1.143 
#    0.000    1.429    0.000    0.000    0.000    0.000 
#    0.000    0.000    0.000    0.000    0.000    0.000 
#
# Total GULP energy -173474.810340 kJ/mol
# GULP energy per Si atom -12391.057881 kJ/mol
# Density = 2.205135 g / cm^3
# Si number density = 22.101659 Si / 1000 Ang^3
#
#
#
# Elastic Constant Matrix: (Units=GPa)
#
#
# Indices 1 2 3 4 5 6 
#
# 1 100.9084 51.0615 6.1962 -7.8553 -9.7037 -1.7812
# 2 51.0615 162.1217 34.4819 14.1298 -7.4230 -7.1089
# 3 6.1962 34.4819 60.9569 8.6942 -15.6403 -1.4854
# 4 -7.8553 14.1298 8.6942 29.4484 -3.5475 1.4493
# 5 -9.7037 -7.4230 -15.6403 -3.5475 16.1794 1.4557
# 6 -1.7812 -7.1089 -1.4854 1.4493 1.4557 21.8572
#
#
#
# Elastic Compliance Matrix: (Units=1/GPa)
#
#
# Indices 1 2 3 4 5 6 
#
# 1 0.013864 -0.005221 0.003314 0.006588 0.010702 -0.001493
# 2 -0.005221 0.009262 -0.005293 -0.005065 -0.005372 0.002921
# 3 0.003314 -0.005293 0.025325 -0.001111 0.023909 -0.001249
# 4 0.006588 -0.005065 -0.001111 0.039861 0.009695 -0.004475
# 5 0.010702 -0.005372 0.023909 0.009695 0.091538 -0.005990
# 6 -0.001493 0.002921 -0.001249 -0.004475 -0.005990 0.047191
#
#
# Mechanical properties :
#
#
# Convention : Reuss Voigt Hill
#
# Bulk Modulus (GPa) = 29.36824 56.38513 42.87668
# Shear Modulus (GPa) = 19.77913 28.98015 24.37964
#
# Velocity S-wave (km/s) = 2.99476 3.62501 3.32485
# Velocity P-wave (km/s) = 5.02740 6.56414 5.84648
#
# Compressibility (1/GPa) = 0.03405039
#
# Stress axis : x y z
#
# Youngs Moduli (GPa) = 72.12906 107.96792 39.48648
#
# Poissons Ratio (x) = 0.56371 -0.13086
# Poissons Ratio (y) = 0.37659 0.20902
# Poissons Ratio (z) = -0.23904 0.57152
#
# Static dielectric constant tensor:
#      x y z
#    x 3.984490 0.038680 0.052860 
#    y 0.038680 4.261830 0.093280 
#    z 0.052860 0.093280 4.009130 
# 
# 
# High freq. dielectric constant tensor:
#      x y z
#    x 1.856150 0.002520 -0.002390 
#    y 0.002520 1.875890 0.007160 
#    z -0.002390 0.007160 1.870050 
# 
# From -- ./inp_files/66304.got.cif
#   From: 2010.06.25/outbox.cif.g09.slc.cpg/sg2_34_cif.got.tgz:66304.got - 2010.06.27 13:26:56.
