data_PCOD8017813
_publ_section_title
;
Structure prediction by ZEFSAII (Michael W. Deem and Ramdas Pophale) SiO2 
 PCOD8017813
Probable space group: P -1
;
_chemical_formula_sum "Si O2"
_cell_formula_units_Z 16
_cell_length_a 18.000895
_cell_length_b 23.665062
_cell_length_c 5.302807
_cell_angle_alpha 64.364052
_cell_angle_beta 114.971958
_cell_angle_gamma 159.270424
_cell_volume 719.776540
_symmetry_space_group_name_H-M "P -1"
_symmetry_group_IT_number 2
_symmetry_cell_setting 'triclinic'
loop_
_space_group_symop_operation_xyz
x,y,z
-x,-y,-z
loop_
_atom_site_type_symbol
_atom_site_label
_atom_site_fract_x
_atom_site_fract_y
_atom_site_fract_z
Si Si1 0.115953 0.559600 0.301367
Si Si2 0.417678 0.108666 0.623235
Si Si3 0.955422 0.005512 0.175967
Si Si4 0.772423 0.496043 0.572213
Si Si5 0.620943 0.489863 0.046819
Si Si6 0.441465 0.202775 0.965440
Si Si7 0.749544 0.691273 0.177183
Si Si8 0.025047 0.252519 0.337630
O O1 0.349752 0.755409 0.250830
O O2 0.122460 0.488042 0.455575
O O3 0.000000 0.500000 0.500000
O O4 0.000000 0.500000 0.000000
O O5 0.367282 0.121039 0.751506
O O6 0.228116 0.924658 0.719091
O O7 0.437177 0.151801 0.288871
O O8 0.099787 0.169311 0.079102
O O9 0.000000 0.000000 0.500000
O O10 0.711616 0.848186 0.102503
O O11 0.000000 0.000000 0.000000
O O12 0.594267 0.403122 0.313355
O O13 0.669344 0.395046 0.875600
O O14 0.934939 0.665748 0.551000
O O15 0.629976 0.547977 0.166904
O O16 0.416628 0.372832 0.824280
O O17 0.839076 0.635776 0.928755
O O18 0.904386 0.769305 0.455018
#
# Coordination Sequence:
#
# PCOD8017813 Si02
#       8
#     2   2   2   2   2   2   2   2
#     4  11  25  49  77 104 136 174 221 288 364 441
#     4  11  24  44  74 100 135 181 221 284 356 418
#     4  12  25  36  59  89 136 179 241 289 327 375
#     4  10  25  41  70 104 131 180 238 282 352 415
#     4  10  22  39  66  89 143 183 236 282 333 402
#     4  11  23  43  65  95 137 183 234 280 341 409
#     4  10  22  40  56  97 132 194 236 278 337 381
#     4  11  23  40  69  98 141 186 232 284 336 409
#
# _framework density 22.229120000000002
#
# number of rings (size 3 to 8) (size 9 to 14) (size 15 to 20)
#    0.000    1.250    1.250    4.125   10.500    0.000 
#    0.000    1.250    0.000    0.000    0.000    0.000 
#    0.000    0.000    0.000    0.000    0.000    0.000 
#
# Total GULP energy -198223.232553 kJ/mol
# GULP energy per Si atom -12388.952035 kJ/mol
# Density = 2.217853 g / cm^3
# Si number density = 22.229120 Si / 1000 Ang^3
#
#
#
# Elastic Constant Matrix: (Units=GPa)
#
#
# Indices 1 2 3 4 5 6 
#
# 1 137.7621 44.8969 42.9084 1.9847 -0.7836 17.1723
# 2 44.8969 122.1243 23.4057 3.1247 -1.7684 12.3985
# 3 42.9084 23.4057 114.4455 -1.6430 -9.9317 3.0791
# 4 1.9847 3.1247 -1.6430 34.7900 5.1511 4.2806
# 5 -0.7836 -1.7684 -9.9317 5.1511 35.8645 -7.1639
# 6 17.1723 12.3985 3.0791 4.2806 -7.1639 33.3387
#
#
#
# Elastic Compliance Matrix: (Units=1/GPa)
#
#
# Indices 1 2 3 4 5 6 
#
# 1 0.009540 -0.002533 -0.003086 0.000279 -0.001624 -0.004072
# 2 -0.002533 0.009531 -0.000967 -0.000463 -0.000214 -0.002137
# 3 -0.003086 -0.000967 0.010315 0.000096 0.003055 0.001641
# 4 0.000279 -0.000463 0.000096 0.030177 -0.005323 -0.004999
# 5 -0.001624 -0.000214 0.003055 -0.005323 0.031043 0.007988
# 6 -0.004072 -0.002137 0.001641 -0.004999 0.007988 0.035094
#
#
# Mechanical properties :
#
#
# Convention : Reuss Voigt Hill
#
# Bulk Modulus (GPa) = 61.67888 66.30598 63.99243
# Shear Modulus (GPa) = 34.65565 38.34005 36.49785
#
# Velocity S-wave (km/s) = 3.95273 4.15754 4.05642
# Velocity P-wave (km/s) = 6.97418 7.27599 7.12668
#
# Compressibility (1/GPa) = 0.01621301
#
# Stress axis : x y z
#
# Youngs Moduli (GPa) = 104.82280 104.92472 96.94599
#
# Poissons Ratio (x) = 0.26577 0.29919
# Poissons Ratio (y) = 0.26552 0.09376
# Poissons Ratio (z) = 0.32350 0.10148
#
# Static dielectric constant tensor:
#      x y z
#    x 4.214340 -0.097550 -0.041230 
#    y -0.097550 4.504070 0.125930 
#    z -0.041230 0.125930 4.201320 
# 
# 
# High freq. dielectric constant tensor:
#      x y z
#    x 1.865260 -0.000060 -0.010590 
#    y -0.000060 1.874330 -0.002200 
#    z -0.010590 -0.002200 1.876480 
# 
# From -- ./inp_files/112767.got.cif
#   From: 2010.06.25/outbox.cif.g09.slc.cpg/sg2_57_cif.got.tgz:112767.got - 2010.06.27 13:26:56.
