data_PCOD8017974
_publ_section_title
;
Structure prediction by ZEFSAII (Michael W. Deem and Ramdas Pophale) SiO2 
 PCOD8017974
Probable space group: P -1
;
_chemical_formula_sum "Si O2"
_cell_formula_units_Z 14
_cell_length_a 12.347213
_cell_length_b 8.135071
_cell_length_c 14.349371
_cell_angle_alpha 51.067605
_cell_angle_beta 148.528049
_cell_angle_gamma 119.297382
_cell_volume 581.483944
_symmetry_space_group_name_H-M "P -1"
_symmetry_group_IT_number 2
_symmetry_cell_setting 'triclinic'
loop_
_space_group_symop_operation_xyz
x,y,z
-x,-y,-z
loop_
_atom_site_type_symbol
_atom_site_label
_atom_site_fract_x
_atom_site_fract_y
_atom_site_fract_z
Si Si1 0.892582 0.730220 0.095338
Si Si2 0.050209 0.796350 0.987031
Si Si3 0.576959 0.159361 0.256225
Si Si4 0.505711 0.570854 0.360130
Si Si5 0.367864 0.124970 0.779963
Si Si6 0.037210 0.615652 0.580406
Si Si7 0.698895 0.769688 0.596777
O O1 0.001295 0.532960 0.306481
O O2 0.951913 0.702294 0.040785
O O3 0.647033 0.717231 0.931960
O O4 0.963491 0.948377 0.109144
O O5 0.922773 0.729434 0.826511
O O6 0.287758 0.699657 0.187513
O O7 0.728484 0.327501 0.274763
O O8 0.570792 0.995597 0.226361
O O9 0.649301 0.020821 0.450531
O O10 0.559598 0.639124 0.269702
O O11 0.689113 0.628242 0.545351
O O12 0.478653 0.318534 0.434409
O O13 0.121349 0.163896 0.608562
O O14 0.500000 0.000000 0.000000
O O15 0.000000 0.500000 0.500000
#
# Coordination Sequence:
#
# PCOD8017974 Si02
#       7
#     2   2   2   2   2   2   2
#     4  11  25  43  68 102 138 178 230 279 345 409
#     4  11  23  43  68 101 142 177 221 287 341 405
#     4  11  24  47  67  99 141 179 230 287 332 418
#     4  10  23  43  68 102 139 170 234 283 333 418
#     4  11  25  45  72  97 135 184 230 282 342 407
#     4  12  27  44  70 100 137 183 230 284 345 408
#     4  10  22  39  71  95 136 177 225 274 348 385
#
# _framework density 24.076329999999999
#
# number of rings (size 3 to 8) (size 9 to 14) (size 15 to 20)
#    0.000    1.143    2.857    3.000    8.000    2.857 
#    0.000    0.000    0.000    0.000    0.000    0.000 
#    0.000    0.000    0.000    0.000    0.000    0.000 
#
# Total GULP energy -173519.795107 kJ/mol
# GULP energy per Si atom -12394.271079 kJ/mol
# Density = 2.402153 g / cm^3
# Si number density = 24.076330 Si / 1000 Ang^3
#
#
#
# Elastic Constant Matrix: (Units=GPa)
#
#
# Indices 1 2 3 4 5 6 
#
# 1 115.2987 33.9058 65.5672 5.6876 -8.3305 20.8634
# 2 33.9058 72.1679 32.7924 3.8796 -21.7666 31.9184
# 3 65.5672 32.7924 153.5287 0.4530 -14.9671 1.0188
# 4 5.6876 3.8796 0.4530 35.2528 7.2791 -4.5241
# 5 -8.3305 -21.7666 -14.9671 7.2791 49.8378 -11.7869
# 6 20.8634 31.9184 1.0188 -4.5241 -11.7869 38.9625
#
#
#
# Elastic Compliance Matrix: (Units=1/GPa)
#
#
# Indices 1 2 3 4 5 6 
#
# 1 0.013428 -0.000857 -0.005602 -0.002674 -0.001072 -0.006976
# 2 -0.000857 0.028366 -0.004872 -0.007064 0.006746 -0.021430
# 3 -0.005602 -0.004872 0.010029 0.001968 0.001406 0.007382
# 4 -0.002674 -0.007064 0.001968 0.031852 -0.005410 0.009229
# 5 -0.001072 0.006746 0.001406 -0.005410 0.024467 0.001784
# 6 -0.006976 -0.021430 0.007382 0.009229 0.001784 0.048376
#
#
# Mechanical properties :
#
#
# Convention : Reuss Voigt Hill
#
# Bulk Modulus (GPa) = 34.29334 67.28068 50.78701
# Shear Modulus (GPa) = 26.46943 38.72595 32.59769
#
# Velocity S-wave (km/s) = 3.31931 4.01492 3.68357
# Velocity P-wave (km/s) = 5.38191 7.03549 6.26351
#
# Compressibility (1/GPa) = 0.02916018
#
# Stress axis : x y z
#
# Youngs Moduli (GPa) = 74.47396 35.25397 99.71481
#
# Poissons Ratio (x) = 0.03022 0.55857
# Poissons Ratio (y) = 0.06384 0.48580
# Poissons Ratio (z) = 0.41718 0.17175
#
# Static dielectric constant tensor:
#      x y z
#    x 4.948260 0.969900 -0.689760 
#    y 0.969900 4.909770 -0.706470 
#    z -0.689760 -0.706470 4.687480 
# 
# 
# High freq. dielectric constant tensor:
#      x y z
#    x 1.953560 0.028320 -0.009510 
#    y 0.028320 1.949400 -0.006070 
#    z -0.009510 -0.006070 1.966460 
# 
# From -- ./inp_files/515146.got.cif
#   From: 2010.06.25/outbox.cif.g09.slc.cpg/sg2_258_cif.got.tgz:515146.got - 2010.06.27 13:26:56.
