data_PCOD8017627
_publ_section_title
;
Structure prediction by ZEFSAII (Michael W. Deem and Ramdas Pophale) SiO2 
 PCOD8017627
Probable space group: P -1
;
_chemical_formula_sum "Si O2"
_cell_formula_units_Z 16
_cell_length_a 5.099232
_cell_length_b 12.343043
_cell_length_c 21.716762
_cell_angle_alpha 33.337090
_cell_angle_beta 94.775533
_cell_angle_gamma 80.959707
_cell_volume 681.431381
_symmetry_space_group_name_H-M "P -1"
_symmetry_group_IT_number 2
_symmetry_cell_setting 'triclinic'
loop_
_space_group_symop_operation_xyz
x,y,z
-x,-y,-z
loop_
_atom_site_type_symbol
_atom_site_label
_atom_site_fract_x
_atom_site_fract_y
_atom_site_fract_z
Si Si1 0.106905 0.040753 0.563441
Si Si2 0.630589 0.437894 0.223427
Si Si3 0.441912 0.271483 0.409608
Si Si4 0.373341 0.211977 0.858537
Si Si5 0.027905 0.010715 0.216983
Si Si6 0.512309 0.065969 0.264007
Si Si7 0.659767 0.458924 0.956911
Si Si8 0.817495 0.295716 0.743106
O O1 0.297559 0.096165 0.488147
O O2 0.773139 0.190515 0.477094
O O3 0.123764 0.799200 0.673712
O O4 0.257563 0.069517 0.615375
O O5 0.400740 0.390878 0.285469
O O6 0.760586 0.579151 0.197995
O O7 0.504737 0.565597 0.096359
O O8 0.274244 0.446609 0.376662
O O9 0.615020 0.225300 0.813727
O O10 0.140335 0.177972 0.828755
O O11 0.500000 0.000000 0.000000
O O12 0.713417 0.040693 0.220466
O O13 0.271666 0.972845 0.291865
O O14 0.960068 0.240917 0.070567
O O15 0.174061 0.794219 0.282557
O O16 0.312274 0.314985 0.161912
O O17 0.500000 0.500000 0.000000
#
# Coordination Sequence:
#
# PCOD8017627 Si02
#       8
#     2   2   2   2   2   2   2   2
#     4  11  23  42  65  92 126 163 211 268 313 359
#     4  10  22  39  66  96 125 166 209 250 317 381
#     4  11  23  42  62  91 127 166 210 267 310 357
#     4  11  23  41  61  93 129 165 207 257 307 373
#     4  11  21  41  63  89 125 167 202 253 313 372
#     4  10  22  39  63  93 122 160 211 256 308 373
#     4   9  20  39  63  94 127 160 200 253 311 376
#     4  11  24  41  62  90 126 167 212 258 308 371
#
# _framework density 23.479984999999999
#
# number of rings (size 3 to 8) (size 9 to 14) (size 15 to 20)
#    0.000    1.500    0.000    5.250    0.000    4.000 
#    0.000   17.500    0.000    0.000    0.000    0.000 
#    0.000    0.000    0.000    0.000    0.000    0.000 
#
# Total GULP energy -198231.867291 kJ/mol
# GULP energy per Si atom -12389.491706 kJ/mol
# Density = 2.342654 g / cm^3
# Si number density = 23.479985 Si / 1000 Ang^3
#
#
#
# Elastic Constant Matrix: (Units=GPa)
#
#
# Indices 1 2 3 4 5 6 
#
# 1 93.1775 -0.0387 15.8854 0.9384 13.8703 8.5261
# 2 -0.0387 98.2160 11.6051 13.2801 13.6286 3.0945
# 3 15.8854 11.6051 82.1395 11.8223 5.1243 -3.5342
# 4 0.9384 13.2801 11.8223 25.0027 -0.2975 7.3254
# 5 13.8703 13.6286 5.1243 -0.2975 35.0873 -2.1113
# 6 8.5261 3.0945 -3.5342 7.3254 -2.1113 33.0188
#
#
#
# Elastic Compliance Matrix: (Units=1/GPa)
#
#
# Indices 1 2 3 4 5 6 
#
# 1 0.012299 0.000957 -0.002579 0.001414 -0.005097 -0.004181
# 2 0.000957 0.011757 -0.000713 -0.005874 -0.004917 -0.000437
# 3 -0.002579 -0.000713 0.014022 -0.007278 -0.000584 0.003811
# 4 0.001414 -0.005874 -0.007278 0.049905 0.002516 -0.011504
# 5 -0.005097 -0.004917 -0.000584 0.002516 0.032727 0.003249
# 6 -0.004181 -0.000437 0.003811 -0.011504 0.003249 0.034574
#
#
# Mechanical properties :
#
#
# Convention : Reuss Voigt Hill
#
# Bulk Modulus (GPa) = 29.93258 36.49295 33.21277
# Shear Modulus (GPa) = 29.22446 35.02717 32.12582
#
# Velocity S-wave (km/s) = 3.53179 3.86656 3.70296
# Velocity P-wave (km/s) = 5.42284 5.95899 5.69723
#
# Compressibility (1/GPa) = 0.03340841
#
# Stress axis : x y z
#
# Youngs Moduli (GPa) = 81.30453 85.05920 71.31694
#
# Poissons Ratio (x) = -0.08144 0.18395
# Poissons Ratio (y) = -0.07784 0.05084
# Poissons Ratio (z) = 0.20971 0.06063
#
# Static dielectric constant tensor:
#      x y z
#    x 4.010190 0.097190 -0.096230 
#    y 0.097190 4.622800 -0.125960 
#    z -0.096230 -0.125960 4.476320 
# 
# 
# High freq. dielectric constant tensor:
#      x y z
#    x 1.917520 0.007700 0.004180 
#    y 0.007700 1.935350 -0.001250 
#    z 0.004180 -0.001250 1.928350 
# 
# From -- ./inp_files/583017.got.cif
#   From: 2010.06.25/outbox.cif.g09.slc.cpg/sg2_292_cif.got.tgz:583017.got - 2010.06.27 13:26:56.
