data_PCOD8017594
_publ_section_title
;
Structure prediction by ZEFSAII (Michael W. Deem and Ramdas Pophale) SiO2 
 PCOD8017594
Probable space group: P -1
;
_chemical_formula_sum "Si O2"
_cell_formula_units_Z 16
_cell_length_a 12.184153
_cell_length_b 6.446133
_cell_length_c 11.385166
_cell_angle_alpha 66.055904
_cell_angle_beta 108.618915
_cell_angle_gamma 94.482973
_cell_volume 773.107721
_symmetry_space_group_name_H-M "P -1"
_symmetry_group_IT_number 2
_symmetry_cell_setting 'triclinic'
loop_
_space_group_symop_operation_xyz
x,y,z
-x,-y,-z
loop_
_atom_site_type_symbol
_atom_site_label
_atom_site_fract_x
_atom_site_fract_y
_atom_site_fract_z
Si Si1 0.233852 0.228490 0.576282
Si Si2 0.999945 0.236512 0.093185
Si Si3 0.179572 0.059280 0.019284
Si Si4 0.551314 0.527540 0.385369
Si Si5 0.010422 0.223499 0.376376
Si Si6 0.618091 0.231729 0.279537
Si Si7 0.455536 0.979311 0.122051
Si Si8 0.808471 0.576626 0.244927
O O1 0.317008 0.432294 0.548250
O O2 0.135967 0.307760 0.431124
O O3 0.195097 0.229504 0.699620
O O4 0.291653 0.982122 0.620426
O O5 0.115996 0.100145 0.113647
O O6 0.998541 0.188816 0.241936
O O7 0.000000 0.500000 0.000000
O O8 0.882276 0.142548 0.021561
O O9 0.317267 0.003402 0.085677
O O10 0.159868 0.299567 0.891798
O O11 0.500000 0.500000 0.500000
O O12 0.549902 0.295525 0.362824
O O13 0.492863 0.735371 0.243967
O O14 0.911653 0.396474 0.353081
O O15 0.000000 0.000000 0.500000
O O16 0.687665 0.451974 0.215107
O O17 0.518933 0.178380 0.165014
O O18 0.500000 0.000000 0.000000
#
# Coordination Sequence:
#
# PCOD8017594 Si02
#       8
#     2   2   2   2   2   2   2   2
#     4  10  22  39  62  97 130 166 221 274 330 400
#     4  11  26  46  64  96 139 179 218 273 339 395
#     4  11  25  44  67  95 140 176 223 277 330 402
#     4  10  24  43  63  95 132 171 217 279 335 399
#     4  12  23  40  69  98 126 178 222 273 336 397
#     4  10  22  42  65  98 134 169 221 277 340 390
#     4  11  25  42  69 100 131 176 230 275 331 402
#     4  11  22  41  67  97 136 171 218 284 328 396
#
# _framework density 20.695691
#
# number of rings (size 3 to 8) (size 9 to 14) (size 15 to 20)
#    0.000    1.250    2.500    3.375    1.750    8.000 
#    0.000    0.000    0.000    0.000    0.000    0.000 
#    0.000    0.000    0.000    0.000    0.000    0.000 
#
# Total GULP energy -198342.270506 kJ/mol
# GULP energy per Si atom -12396.391907 kJ/mol
# Density = 2.064859 g / cm^3
# Si number density = 20.695691 Si / 1000 Ang^3
#
#
#
# Elastic Constant Matrix: (Units=GPa)
#
#
# Indices 1 2 3 4 5 6 
#
# 1 138.3209 59.6620 66.5444 14.1783 15.6935 -7.8062
# 2 59.6620 142.7884 67.3045 17.0753 0.3793 -7.6162
# 3 66.5444 67.3045 123.8704 9.6396 -5.7735 -5.7760
# 4 14.1783 17.0753 9.6396 33.9222 -1.2064 0.8360
# 5 15.6935 0.3793 -5.7735 -1.2064 47.5880 10.3198
# 6 -7.8062 -7.6162 -5.7760 0.8360 10.3198 37.7621
#
#
#
# Elastic Compliance Matrix: (Units=1/GPa)
#
#
# Indices 1 2 3 4 5 6 
#
# 1 0.011470 -0.001968 -0.004998 -0.002626 -0.005012 0.002637
# 2 -0.001968 0.010263 -0.004230 -0.003180 -0.000279 0.001162
# 3 -0.004998 -0.004230 0.013130 0.000632 0.003474 -0.000841
# 4 -0.002626 -0.003180 0.000632 0.032140 0.002310 -0.002430
# 5 -0.005012 -0.000279 0.003474 0.002310 0.024748 -0.007375
# 6 0.002637 0.001162 -0.000841 -0.002430 -0.007375 0.029202
#
#
# Mechanical properties :
#
#
# Convention : Reuss Voigt Hill
#
# Bulk Modulus (GPa) = 80.20049 88.00016 84.10032
# Shear Modulus (GPa) = 33.89765 37.95239 35.92502
#
# Velocity S-wave (km/s) = 4.05150 4.28697 4.17090
# Velocity P-wave (km/s) = 7.79247 8.19253 7.99500
#
# Compressibility (1/GPa) = 0.01246875
#
# Stress axis : x y z
#
# Youngs Moduli (GPa) = 87.18426 97.44009 76.16092
#
# Poissons Ratio (x) = 0.19181 0.38069
# Poissons Ratio (y) = 0.17162 0.32217
# Poissons Ratio (z) = 0.43579 0.41218
#
# Static dielectric constant tensor:
#      x y z
#    x 4.602770 0.217600 0.325360 
#    y 0.217600 3.981260 0.432610 
#    z 0.325360 0.432610 4.341500 
# 
# 
# High freq. dielectric constant tensor:
#      x y z
#    x 1.825780 -0.003000 0.001810 
#    y -0.003000 1.824020 0.008530 
#    z 0.001810 0.008530 1.800340 
# 
# From -- ./inp_files/410110.got.cif
#   From: 2010.06.25/outbox.cif.g09.slc.cpg/sg2_206_cif.got.tgz:410110.got - 2010.06.27 13:26:56.
