data_PCOD8017433
_publ_section_title
;
Structure prediction by ZEFSAII (Michael W. Deem and Ramdas Pophale) SiO2 
 PCOD8017433
Probable space group: P -1
;
_chemical_formula_sum "Si O2"
_cell_formula_units_Z 16
_cell_length_a 8.985238
_cell_length_b 7.997974
_cell_length_c 15.097433
_cell_angle_alpha 63.146472
_cell_angle_beta 64.355968
_cell_angle_gamma 48.105344
_cell_volume 706.335870
_symmetry_space_group_name_H-M "P -1"
_symmetry_group_IT_number 2
_symmetry_cell_setting 'triclinic'
loop_
_space_group_symop_operation_xyz
x,y,z
-x,-y,-z
loop_
_atom_site_type_symbol
_atom_site_label
_atom_site_fract_x
_atom_site_fract_y
_atom_site_fract_z
Si Si1 0.920469 0.636016 0.613943
Si Si2 0.289124 0.932427 0.092500
Si Si3 0.939219 0.647909 0.065604
Si Si4 0.291850 0.973065 0.282679
Si Si5 0.125885 0.991798 0.801509
Si Si6 0.032072 0.780183 0.383380
Si Si7 0.249132 0.315693 0.731626
Si Si8 0.350367 0.531201 0.956704
O O1 0.853327 0.473056 0.635125
O O2 0.916049 0.785214 0.499104
O O3 0.151955 0.466433 0.632014
O O4 0.786797 0.803110 0.689602
O O5 0.280277 0.039935 0.166022
O O6 0.522155 0.707144 0.075087
O O7 0.113833 0.888850 0.146384
O O8 0.243675 0.093539 0.981275
O O9 0.863470 0.544453 0.182109
O O10 0.000000 0.500000 0.000000
O O11 0.151614 0.606119 0.047055
O O12 0.183627 0.845286 0.356971
O O13 0.518079 0.785592 0.303899
O O14 0.279510 0.727431 0.854073
O O15 0.199174 0.127063 0.802121
O O16 0.142017 0.019650 0.684853
O O17 0.500000 0.500000 0.000000
#
# Coordination Sequence:
#
# PCOD8017433 Si02
#       8
#     2   2   2   2   2   2   2   2
#     4  10  22  44  66  90 124 162 202 255 314 362
#     4  10  22  39  59  88 123 165 212 251 305 372
#     4  11  23  38  55  83 124 162 202 255 305 358
#     4  11  23  39  63  93 123 161 205 253 308 368
#     4   9  21  40  59  87 123 157 200 257 308 362
#     4   9  21  44  68  89 124 163 202 253 309 374
#     4  11  23  37  59  92 122 157 208 253 302 370
#     4  11  22  37  62  88 117 165 210 253 306 358
#
# _framework density 22.652114999999998
#
# number of rings (size 3 to 8) (size 9 to 14) (size 15 to 20)
#    0.000    1.750    0.000    3.375    0.000   12.500 
#    0.000    9.375    0.000    0.000    0.000    0.000 
#    0.000    0.000    0.000    0.000    0.000    0.000 
#
# Total GULP energy -198236.069609 kJ/mol
# GULP energy per Si atom -12389.754351 kJ/mol
# Density = 2.260056 g / cm^3
# Si number density = 22.652115 Si / 1000 Ang^3
#
#
#
# Elastic Constant Matrix: (Units=GPa)
#
#
# Indices 1 2 3 4 5 6 
#
# 1 68.1245 22.9572 12.8285 -1.9989 10.6793 -0.9499
# 2 22.9572 107.8730 30.3931 5.3040 7.7471 -13.4560
# 3 12.8285 30.3931 106.6027 -9.6562 16.5038 -7.6823
# 4 -1.9989 5.3040 -9.6562 36.5330 5.6008 13.6784
# 5 10.6793 7.7471 16.5038 5.6008 26.3395 0.4145
# 6 -0.9499 -13.4560 -7.6823 13.6784 0.4145 35.6707
#
#
#
# Elastic Compliance Matrix: (Units=1/GPa)
#
#
# Indices 1 2 3 4 5 6 
#
# 1 0.016960 -0.003595 0.000150 0.003264 -0.006575 -0.002048
# 2 -0.003595 0.011786 -0.003116 -0.004956 0.000910 0.005569
# 3 0.000150 -0.003116 0.011843 0.004912 -0.007603 -0.000416
# 4 0.003264 -0.004956 0.004912 0.036671 -0.010511 -0.014665
# 5 -0.006575 0.000910 -0.007603 -0.010511 0.047331 0.002011
# 6 -0.002048 0.005569 -0.000416 -0.014665 0.002011 0.035591
#
#
# Mechanical properties :
#
#
# Convention : Reuss Voigt Hill
#
# Bulk Modulus (GPa) = 36.40774 46.10641 41.25707
# Shear Modulus (GPa) = 27.40307 34.13672 30.76989
#
# Velocity S-wave (km/s) = 3.48190 3.88622 3.68960
# Velocity P-wave (km/s) = 5.68087 6.36673 6.03355
#
# Compressibility (1/GPa) = 0.02746669
#
# Stress axis : x y z
#
# Youngs Moduli (GPa) = 58.96122 84.84375 84.43800
#
# Poissons Ratio (x) = 0.30505 -0.01268
# Poissons Ratio (y) = 0.21199 0.26312
# Poissons Ratio (z) = -0.00885 0.26439
#
# Static dielectric constant tensor:
#      x y z
#    x 4.147470 0.188790 0.296320 
#    y 0.188790 3.804390 0.185340 
#    z 0.296320 0.185340 3.687910 
# 
# 
# High freq. dielectric constant tensor:
#      x y z
#    x 1.902550 0.003510 0.021100 
#    y 0.003510 1.880630 -0.007360 
#    z 0.021100 -0.007360 1.895140 
# 
# From -- ./inp_files/107407.got.cif
#   From: 2010.06.25/outbox.cif.g09.slc.cpg/sg2_54_cif.got.tgz:107407.got - 2010.06.27 13:26:56.
