data_PCOD8017642
_publ_section_title
;
Structure prediction by ZEFSAII (Michael W. Deem and Ramdas Pophale) SiO2 
 PCOD8017642
Probable space group: P -1
;
_chemical_formula_sum "Si O2"
_cell_formula_units_Z 16
_cell_length_a 12.052063
_cell_length_b 9.765220
_cell_length_c 12.512122
_cell_angle_alpha 56.642602
_cell_angle_beta 86.748849
_cell_angle_gamma 128.330564
_cell_volume 766.741350
_symmetry_space_group_name_H-M "P -1"
_symmetry_group_IT_number 2
_symmetry_cell_setting 'triclinic'
loop_
_space_group_symop_operation_xyz
x,y,z
-x,-y,-z
loop_
_atom_site_type_symbol
_atom_site_label
_atom_site_fract_x
_atom_site_fract_y
_atom_site_fract_z
Si Si1 0.845855 0.234054 0.004614
Si Si2 0.838736 0.193757 0.779267
Si Si3 0.291676 0.287194 0.089911
Si Si4 0.206136 0.549957 0.929427
Si Si5 0.814796 0.438164 0.523290
Si Si6 0.525087 0.931253 0.420424
Si Si7 0.320721 0.187258 0.627398
Si Si8 0.021776 0.069150 0.591647
O O1 0.847075 0.422955 0.967480
O O2 0.723029 0.966997 0.195611
O O3 0.787404 0.183464 0.906869
O O4 0.046852 0.397489 0.920376
O O5 0.736347 0.194225 0.700655
O O6 0.044399 0.454941 0.621111
O O7 0.782470 0.940725 0.883173
O O8 0.500000 0.500000 0.000000
O O9 0.246129 0.405404 0.987658
O O10 0.183077 0.163418 0.259481
O O11 0.388886 0.840391 0.760866
O O12 0.658462 0.340121 0.506164
O O13 0.895077 0.656094 0.512378
O O14 0.642860 0.900845 0.433522
O O15 0.500000 0.000000 0.500000
O O16 0.500000 0.500000 0.500000
O O17 0.146020 0.086641 0.644675
O O18 0.000000 0.000000 0.500000
#
# Coordination Sequence:
#
# PCOD8017642 Si02
#       8
#     2   2   2   2   2   2   2   2
#     4  10  22  41  66  96 126 181 219 279 340 394
#     4  10  23  40  68  92 134 177 214 278 344 390
#     4  11  24  44  62  97 136 173 225 279 332 411
#     4  10  22  39  63  93 135 164 231 272 322 411
#     4  10  22  43  61 100 138 168 231 275 329 419
#     4  11  23  39  67  98 133 180 220 279 343 394
#     4  11  23  44  68  99 135 172 242 284 328 416
#     4  11  25  43  71  99 136 185 222 287 348 400
#
# _framework density 20.867533999999999
#
# number of rings (size 3 to 8) (size 9 to 14) (size 15 to 20)
#    0.000    1.500    2.500    1.500    1.750    6.500 
#    0.000    3.125    0.000    0.000    0.000    0.000 
#    0.000    0.000    0.000    0.000    0.000    0.000 
#
# Total GULP energy -198267.541119 kJ/mol
# GULP energy per Si atom -12391.721320 kJ/mol
# Density = 2.082004 g / cm^3
# Si number density = 20.867534 Si / 1000 Ang^3
#
#
#
# Elastic Constant Matrix: (Units=GPa)
#
#
# Indices 1 2 3 4 5 6 
#
# 1 127.7229 40.2465 39.5552 0.2174 -0.1996 -9.3797
# 2 40.2465 92.6230 44.2462 6.2099 -8.1078 -8.5425
# 3 39.5552 44.2462 81.6083 0.8026 -3.6332 -0.6850
# 4 0.2174 6.2099 0.8026 34.3694 -5.8564 -2.5810
# 5 -0.1996 -8.1078 -3.6332 -5.8564 36.8832 -9.6424
# 6 -9.3797 -8.5425 -0.6850 -2.5810 -9.6424 37.6084
#
#
#
# Elastic Compliance Matrix: (Units=1/GPa)
#
#
# Indices 1 2 3 4 5 6 
#
# 1 0.009806 -0.002548 -0.003375 0.000561 -0.000288 0.001770
# 2 -0.002548 0.016173 -0.007330 -0.001866 0.003483 0.003669
# 3 -0.003375 -0.007330 0.017823 0.000704 -0.000343 -0.002222
# 4 0.000561 -0.001866 0.000704 0.030565 0.005352 0.003199
# 5 -0.000288 0.003483 -0.000343 0.005352 0.031057 0.009043
# 6 0.001770 0.003669 -0.002222 0.003199 0.009043 0.030362
#
#
# Mechanical properties :
#
#
# Convention : Reuss Voigt Hill
#
# Bulk Modulus (GPa) = 57.81436 61.11666 59.46551
# Shear Modulus (GPa) = 29.75178 33.63261 31.69220
#
# Velocity S-wave (km/s) = 3.78000 4.01898 3.90132
# Velocity P-wave (km/s) = 6.84228 7.13356 6.98944
#
# Compressibility (1/GPa) = 0.01729674
#
# Stress axis : x y z
#
# Youngs Moduli (GPa) = 101.97604 61.82960 56.10884
#
# Poissons Ratio (x) = 0.15757 0.18936
# Poissons Ratio (y) = 0.25987 0.41125
# Poissons Ratio (z) = 0.34415 0.45318
#
# Static dielectric constant tensor:
#      x y z
#    x 3.936560 -0.275720 -0.186260 
#    y -0.275720 3.209380 -0.536440 
#    z -0.186260 -0.536440 3.713640 
# 
# 
# High freq. dielectric constant tensor:
#      x y z
#    x 1.831230 -0.015140 -0.007700 
#    y -0.015140 1.807390 -0.017220 
#    z -0.007700 -0.017220 1.817640 
# 
# From -- ./inp_files/278694.got.cif
#   From: 2010.06.25/outbox.cif.g09.slc.cpg/sg2_140_cif.got.tgz:278694.got - 2010.06.27 13:26:56.
