data_PCOD8017079
_publ_section_title
;
Structure prediction by ZEFSAII (Michael W. Deem and Ramdas Pophale) SiO2 
 PCOD8017079
Probable space group: P -1
;
_chemical_formula_sum "Si O2"
_cell_formula_units_Z 16
_cell_length_a 11.677859
_cell_length_b 9.292921
_cell_length_c 11.767389
_cell_angle_alpha 84.653409
_cell_angle_beta 91.467145
_cell_angle_gamma 141.607232
_cell_volume 787.311210
_symmetry_space_group_name_H-M "P -1"
_symmetry_group_IT_number 2
_symmetry_cell_setting 'triclinic'
loop_
_space_group_symop_operation_xyz
x,y,z
-x,-y,-z
loop_
_atom_site_type_symbol
_atom_site_label
_atom_site_fract_x
_atom_site_fract_y
_atom_site_fract_z
Si Si1 0.019969 0.150134 0.351302
Si Si2 0.404012 0.847570 0.851212
Si Si3 0.613574 0.455843 0.251085
Si Si4 0.805357 0.858403 0.050261
Si Si5 0.083709 0.751916 0.842633
Si Si6 0.288495 0.301224 0.181329
Si Si7 0.331428 0.667228 0.101250
Si Si8 0.292761 0.349232 0.527151
O O1 0.082600 0.110900 0.246672
O O2 0.204272 0.351393 0.419495
O O3 0.955217 0.237596 0.289441
O O4 0.846428 0.922123 0.435143
O O5 0.410393 0.736696 0.760255
O O6 0.208232 0.734255 0.847212
O O7 0.574026 0.128791 0.821356
O O8 0.428957 0.786956 0.974217
O O9 0.724451 0.653441 0.143373
O O10 0.413319 0.333162 0.268807
O O11 0.714189 0.559653 0.367408
O O12 0.811716 0.018942 0.100606
O O13 0.694450 0.761540 0.935495
O O14 0.000000 0.000000 0.000000
O O15 0.885854 0.516319 0.908740
O O16 0.371521 0.544960 0.153159
O O17 0.500000 0.500000 0.500000
#
# Coordination Sequence:
#
# PCOD8017079 Si02
#       8
#     2   2   2   2   2   2   2   2
#     4  10  22  40  65  95 117 156 208 256 313 358
#     4  11  24  38  54  88 134 168 201 237 305 377
#     4  12  23  39  61  93 123 164 202 261 308 360
#     4  12  20  35  61  96 122 156 208 254 306 365
#     4  11  22  40  61  87 128 169 197 249 308 369
#     4  11  21  38  62  94 124 157 208 255 302 367
#     4  10  22  38  57  87 127 172 202 237 299 376
#     4  11  22  41  66  95 118 151 208 270 312 348
#
# _framework density 20.322331999999999
#
# number of rings (size 3 to 8) (size 9 to 14) (size 15 to 20)
#    0.000    1.000    6.250    1.500    3.500    0.000 
#    2.250    0.625    0.000    5.250    0.000    0.000 
#    0.000    0.000    0.000    0.000    0.000    0.000 
#
# Total GULP energy -198341.720543 kJ/mol
# GULP energy per Si atom -12396.357534 kJ/mol
# Density = 2.027608 g / cm^3
# Si number density = 20.322332 Si / 1000 Ang^3
#
#
#
# Elastic Constant Matrix: (Units=GPa)
#
#
# Indices 1 2 3 4 5 6 
#
# 1 101.9899 33.6376 19.7812 11.8455 3.5786 -10.6229
# 2 33.6376 102.5231 24.0164 12.8578 -3.5734 1.0457
# 3 19.7812 24.0164 99.2824 15.1111 10.0214 -1.9111
# 4 11.8455 12.8578 15.1111 34.6509 5.3909 -5.2524
# 5 3.5786 -3.5734 10.0214 5.3909 21.5263 -0.3487
# 6 -10.6229 1.0457 -1.9111 -5.2524 -0.3487 27.1673
#
#
#
# Elastic Compliance Matrix: (Units=1/GPa)
#
#
# Indices 1 2 3 4 5 6 
#
# 1 0.011864 -0.003585 -0.001038 -0.001342 -0.001676 0.004423
# 2 -0.003585 0.012045 -0.002182 -0.003376 0.004414 -0.002615
# 3 -0.001038 -0.002182 0.011789 -0.003247 -0.004868 -0.000183
# 4 -0.001342 -0.003376 -0.003247 0.034002 -0.007246 0.005858
# 5 -0.001676 0.004414 -0.004868 -0.007246 0.051516 -0.001907
# 6 0.004423 -0.002615 -0.000183 0.005858 -0.001907 0.039734
#
#
# Mechanical properties :
#
#
# Convention : Reuss Voigt Hill
#
# Bulk Modulus (GPa) = 45.27120 50.96287 48.11703
# Shear Modulus (GPa) = 27.48442 31.75957 29.62200
#
# Velocity S-wave (km/s) = 3.68152 3.95750 3.82201
# Velocity P-wave (km/s) = 6.35582 6.78337 6.57307
#
# Compressibility (1/GPa) = 0.02208910
#
# Stress axis : x y z
#
# Youngs Moduli (GPa) = 84.28996 83.02261 84.82587
#
# Poissons Ratio (x) = 0.29760 0.08806
# Poissons Ratio (y) = 0.30215 0.18505
# Poissons Ratio (z) = 0.08750 0.18112
#
# Static dielectric constant tensor:
#      x y z
#    x 3.557680 0.295890 0.233050 
#    y 0.295890 4.944230 1.981640 
#    z 0.233050 1.981640 6.926250 
# 
# 
# High freq. dielectric constant tensor:
#      x y z
#    x 1.784650 0.023760 0.009600 
#    y 0.023760 1.792800 0.004790 
#    z 0.009600 0.004790 1.788230 
# 
# From -- ./inp_files/261046.got.cif
#   From: 2010.06.25/outbox.cif.g09.slc.cpg/sg2_131_cif.got.tgz:261046.got - 2010.06.27 13:26:56.
