data_PCOD8017080
_publ_section_title
;
Structure prediction by ZEFSAII (Michael W. Deem and Ramdas Pophale) SiO2 
 PCOD8017080
Probable space group: P -1
;
_chemical_formula_sum "Si O2"
_cell_formula_units_Z 16
_cell_length_a 13.369440
_cell_length_b 6.973251
_cell_length_c 9.628187
_cell_angle_alpha 74.789124
_cell_angle_beta 98.329556
_cell_angle_gamma 67.656674
_cell_volume 770.469201
_symmetry_space_group_name_H-M "P -1"
_symmetry_group_IT_number 2
_symmetry_cell_setting 'triclinic'
loop_
_space_group_symop_operation_xyz
x,y,z
-x,-y,-z
loop_
_atom_site_type_symbol
_atom_site_label
_atom_site_fract_x
_atom_site_fract_y
_atom_site_fract_z
Si Si1 0.413282 0.748605 0.812788
Si Si2 0.265619 0.128464 0.534311
Si Si3 0.160215 0.602055 0.335987
Si Si4 0.871933 0.576178 0.928441
Si Si5 0.267551 0.939801 0.280933
Si Si6 0.947661 0.910516 0.386980
Si Si7 0.393939 0.686165 0.117051
Si Si8 0.217030 0.696371 0.889589
O O1 0.364585 0.991957 0.689536
O O2 0.524261 0.574021 0.789481
O O3 0.316259 0.657461 0.804038
O O4 0.443543 0.766174 0.978754
O O5 0.305887 0.992756 0.425401
O O6 0.144840 0.150866 0.551763
O O7 0.252077 0.376835 0.469060
O O8 0.138201 0.547937 0.186862
O O9 0.208039 0.781113 0.320112
O O10 0.043656 0.692057 0.379784
O O11 0.816545 0.838054 0.854060
O O12 0.814184 0.508865 0.059466
O O13 0.000000 0.500000 0.000000
O O14 0.379955 0.822740 0.229812
O O15 0.894726 0.090274 0.219136
O O16 0.000000 0.000000 0.500000
O O17 0.266673 0.725931 0.043600
#
# Coordination Sequence:
#
# PCOD8017080 Si02
#       8
#     2   2   2   2   2   2   2   2
#     4   8  18  39  64  86 113 147 201 243 300 339
#     4  10  22  38  57  88 115 156 196 241 285 363
#     4  11  22  38  57  81 123 159 189 240 290 342
#     4  11  24  35  57  90 117 155 200 234 289 357
#     4  11  22  38  58  84 122 150 197 240 294 345
#     4  11  21  36  58  84 119 158 194 234 288 353
#     4   9  18  38  66  82 113 155 188 255 295 336
#     4   9  19  37  60  83 117 151 191 243 288 341
#
# _framework density 20.766566999999998
#
# number of rings (size 3 to 8) (size 9 to 14) (size 15 to 20)
#    0.750    1.250    2.500    1.125    3.500    1.500 
#    2.250    1.250    2.750    0.000    0.000    0.000 
#    0.000    0.000    0.000    0.000    0.000    0.000 
#
# Total GULP energy -198261.971240 kJ/mol
# GULP energy per Si atom -12391.373202 kJ/mol
# Density = 2.071930 g / cm^3
# Si number density = 20.766567 Si / 1000 Ang^3
#
#
#
# Elastic Constant Matrix: (Units=GPa)
#
#
# Indices 1 2 3 4 5 6 
#
# 1 32.4467 30.1622 26.3237 -3.6317 -1.8143 -8.7476
# 2 30.1622 123.6205 51.3968 -10.6756 -8.8226 -22.0723
# 3 26.3237 51.3968 95.5837 -26.4042 -1.1268 -11.4644
# 4 -3.6317 -10.6756 -26.4042 31.9306 -6.2519 -11.8791
# 5 -1.8143 -8.8226 -1.1268 -6.2519 28.7216 -5.0589
# 6 -8.7476 -22.0723 -11.4644 -11.8791 -5.0589 36.7273
#
#
#
# Elastic Compliance Matrix: (Units=1/GPa)
#
#
# Indices 1 2 3 4 5 6 
#
# 1 0.045264 -0.007082 -0.009682 -0.004554 -0.000338 0.001983
# 2 -0.007082 0.013295 -0.002506 0.005879 0.006277 0.008287
# 3 -0.009682 -0.002506 0.021614 0.021011 0.005897 0.010543
# 4 -0.004554 0.005879 0.021011 0.067255 0.022957 0.033922
# 5 -0.000338 0.006277 0.005897 0.022957 0.045335 0.019202
# 6 0.001983 0.008287 0.010543 0.033922 0.019202 0.049588
#
#
# Mechanical properties :
#
#
# Convention : Reuss Voigt Hill
#
# Bulk Modulus (GPa) = 24.01978 51.93517 37.97748
# Shear Modulus (GPa) = 16.96254 29.06044 23.01149
#
# Velocity S-wave (km/s) = 2.86111 3.74489 3.33243
# Velocity P-wave (km/s) = 4.74407 6.61531 5.75624
#
# Compressibility (1/GPa) = 0.04163235
#
# Stress axis : x y z
#
# Youngs Moduli (GPa) = 22.09269 75.21888 46.26580
#
# Poissons Ratio (x) = 0.53270 0.44793
# Poissons Ratio (y) = 0.15646 0.11596
# Poissons Ratio (z) = 0.21389 0.18853
#
# Static dielectric constant tensor:
#      x y z
#    x 3.375200 -0.214960 -0.271120 
#    y -0.214960 3.688620 -0.106280 
#    z -0.271120 -0.106280 3.827390 
# 
# 
# High freq. dielectric constant tensor:
#      x y z
#    x 1.791890 -0.020080 -0.006400 
#    y -0.020080 1.796740 -0.011450 
#    z -0.006400 -0.011450 1.823760 
# 
# From -- ./inp_files/441735.got.cif
#   From: 2010.06.25/outbox.cif.g09.slc.cpg/sg2_221_cif.got.tgz:441735.got - 2010.06.27 13:26:56.
