data_PCOD8017723
_publ_section_title
;
Structure prediction by ZEFSAII (Michael W. Deem and Ramdas Pophale) SiO2 
 PCOD8017723
Probable space group: P -1
;
_chemical_formula_sum "Si O2"
_cell_formula_units_Z 16
_cell_length_a 11.233995
_cell_length_b 9.070641
_cell_length_c 14.387452
_cell_angle_alpha 50.806886
_cell_angle_beta 53.283273
_cell_angle_gamma 42.466094
_cell_volume 742.441268
_symmetry_space_group_name_H-M "P -1"
_symmetry_group_IT_number 2
_symmetry_cell_setting 'triclinic'
loop_
_space_group_symop_operation_xyz
x,y,z
-x,-y,-z
loop_
_atom_site_type_symbol
_atom_site_label
_atom_site_fract_x
_atom_site_fract_y
_atom_site_fract_z
Si Si1 0.594018 0.376625 0.743498
Si Si2 0.155835 0.867777 0.612492
Si Si3 0.325392 0.262057 0.949015
Si Si4 0.005057 0.340424 0.942804
Si Si5 0.899851 0.722481 0.288055
Si Si6 0.072597 0.950997 0.181436
Si Si7 0.585152 0.126347 0.372919
Si Si8 0.850791 0.328976 0.486665
O O1 0.409138 0.391715 0.812062
O O2 0.714139 0.178512 0.844303
O O3 0.554428 0.617252 0.705645
O O4 0.701904 0.323153 0.617865
O O5 0.031555 0.879666 0.749176
O O6 0.051720 0.104231 0.505912
O O7 0.331709 0.833638 0.589788
O O8 0.201222 0.662866 0.601208
O O9 0.187908 0.416746 0.036986
O O10 0.189386 0.277149 0.930575
O O11 0.500000 0.000000 0.000000
O O12 0.002744 0.116490 0.057774
O O13 0.027711 0.351959 0.819237
O O14 0.859721 0.546101 0.420676
O O15 0.044280 0.743050 0.270600
O O16 0.717518 0.982567 0.282277
O O17 0.500000 0.000000 0.500000
#
# Coordination Sequence:
#
# PCOD8017723 Si02
#       8
#     2   2   2   2   2   2   2   2
#     4  11  23  41  66  96 133 171 225 273 336 394
#     4   9  22  38  62  89 129 165 219 264 341 388
#     4  11  24  44  70 100 131 177 223 276 331 391
#     4  11  25  44  70  95 135 176 226 272 331 392
#     4  11  24  41  66  95 131 173 226 265 335 399
#     4  10  22  43  67  91 134 182 213 275 335 391
#     4  11  23  40  62  93 136 175 210 271 339 396
#     4  10  22  39  64  96 124 167 219 281 324 402
#
# _framework density 21.550523999999999
#
# number of rings (size 3 to 8) (size 9 to 14) (size 15 to 20)
#    0.000    1.500    2.500    1.875    7.000    4.000 
#    2.250    1.250    0.000    0.000    0.000    0.000 
#    0.000    0.000    0.000    0.000    0.000    0.000 
#
# Total GULP energy -198231.557170 kJ/mol
# GULP energy per Si atom -12389.472323 kJ/mol
# Density = 2.150147 g / cm^3
# Si number density = 21.550524 Si / 1000 Ang^3
#
#
#
# Elastic Constant Matrix: (Units=GPa)
#
#
# Indices 1 2 3 4 5 6 
#
# 1 57.8377 34.5348 22.5246 12.0064 -20.3441 -4.3183
# 2 34.5348 110.4671 26.5565 7.8859 -1.9607 -5.4418
# 3 22.5246 26.5565 88.5889 6.5913 -12.1342 1.6774
# 4 12.0064 7.8859 6.5913 35.0136 6.8514 1.3167
# 5 -20.3441 -1.9607 -12.1342 6.8514 38.2576 -0.5866
# 6 -4.3183 -5.4418 1.6774 1.3167 -0.5866 35.9494
#
#
#
# Elastic Compliance Matrix: (Units=1/GPa)
#
#
# Indices 1 2 3 4 5 6 
#
# 1 0.032435 -0.008163 -0.002417 -0.012555 0.018366 0.003533
# 2 -0.008163 0.012011 -0.002288 0.001412 -0.004691 0.000816
# 3 -0.002417 -0.002288 0.013154 -0.001687 0.003054 -0.001139
# 4 -0.012555 0.001412 -0.001687 0.035622 -0.013561 -0.002742
# 5 0.018366 -0.004691 0.003054 -0.013561 0.039100 0.002488
# 6 0.003533 0.000816 -0.001139 -0.002742 0.002488 0.028559
#
#
# Mechanical properties :
#
#
# Convention : Reuss Voigt Hill
#
# Bulk Modulus (GPa) = 31.38341 47.12504 39.25423
# Shear Modulus (GPa) = 25.35014 33.39597 29.37305
#
# Velocity S-wave (km/s) = 3.43346 3.94084 3.69587
# Velocity P-wave (km/s) = 5.50568 6.52853 6.03880
#
# Compressibility (1/GPa) = 0.03186397
#
# Stress axis : x y z
#
# Youngs Moduli (GPa) = 30.83066 83.26034 76.02272
#
# Poissons Ratio (x) = 0.67963 0.18376
# Poissons Ratio (y) = 0.25166 0.17394
# Poissons Ratio (z) = 0.07452 0.19050
#
# Static dielectric constant tensor:
#      x y z
#    x 4.012400 -0.011280 -0.129100 
#    y -0.011280 4.206020 -0.012370 
#    z -0.129100 -0.012370 3.959780 
# 
# 
# High freq. dielectric constant tensor:
#      x y z
#    x 1.836690 -0.000920 -0.019180 
#    y -0.000920 1.857860 -0.005130 
#    z -0.019180 -0.005130 1.843690 
# 
# From -- ./inp_files/401842.got.cif
#   From: 2010.06.25/outbox.cif.g09.slc.cpg/sg2_201_cif.got.tgz:401842.got - 2010.06.27 13:26:56.
