data_PCOD8017545
_publ_section_title
;
Structure prediction by ZEFSAII (Michael W. Deem and Ramdas Pophale) SiO2 
 PCOD8017545
Probable space group: P -1
;
_chemical_formula_sum "Si O2"
_cell_formula_units_Z 14
_cell_length_a 15.675708
_cell_length_b 25.636941
_cell_length_c 15.213269
_cell_angle_alpha 17.793066
_cell_angle_beta 153.594586
_cell_angle_gamma 161.492846
_cell_volume 591.372891
_symmetry_space_group_name_H-M "P -1"
_symmetry_group_IT_number 2
_symmetry_cell_setting 'triclinic'
loop_
_space_group_symop_operation_xyz
x,y,z
-x,-y,-z
loop_
_atom_site_type_symbol
_atom_site_label
_atom_site_fract_x
_atom_site_fract_y
_atom_site_fract_z
Si Si1 0.822952 0.447507 0.052013
Si Si2 0.709261 0.600462 0.192588
Si Si3 0.752979 0.510894 0.702980
Si Si4 0.310763 0.801456 0.215823
Si Si5 0.688537 0.050751 0.832778
Si Si6 0.232582 0.543506 0.820944
Si Si7 0.709191 0.742915 0.146747
O O1 0.868948 0.608155 0.753625
O O2 0.494892 0.225237 0.107487
O O3 0.897944 0.571105 0.018489
O O4 0.989790 0.380222 0.295364
O O5 0.647150 0.374923 0.460648
O O6 0.670710 0.578939 0.297573
O O7 0.014151 0.849729 0.050936
O O8 0.495624 0.595558 0.959340
O O9 0.642805 0.614575 0.387279
O O10 0.533061 0.222529 0.963303
O O11 0.393623 0.930121 0.178726
O O12 0.996870 0.648092 0.153876
O O13 0.500000 0.000000 0.000000
O O14 0.691003 0.209040 0.512201
O O15 0.000000 0.000000 0.000000
#
# Coordination Sequence:
#
# PCOD8017545 Si02
#       7
#     2   2   2   2   2   2   2
#     4  10  23  38  61  89 120 159 198 246 299 355
#     4  10  22  39  62  88 120 161 197 250 305 346
#     4  11  23  40  61  90 125 159 199 248 302 353
#     4  11  23  41  62  88 121 159 204 250 298 355
#     4  11  23  39  64  89 119 161 202 247 298 359
#     4  10  22  40  60  90 122 156 207 246 296 361
#     4  11  23  40  61  88 123 160 202 246 298 363
#
# _framework density 23.673725000000001
#
# number of rings (size 3 to 8) (size 9 to 14) (size 15 to 20)
#    0.000    1.429    0.000    6.429    0.000    9.714 
#    0.000    0.000    0.000    0.000    0.000    0.000 
#    0.000    0.000    0.000    0.000    0.000    0.000 
#
# Total GULP energy -173537.624822 kJ/mol
# GULP energy per Si atom -12395.544630 kJ/mol
# Density = 2.361984 g / cm^3
# Si number density = 23.673725 Si / 1000 Ang^3
#
#
#
# Elastic Constant Matrix: (Units=GPa)
#
#
# Indices 1 2 3 4 5 6 
#
# 1 119.5429 11.3809 22.4820 1.3922 4.0023 -5.5497
# 2 11.3809 88.8671 53.4818 16.5332 12.4665 21.4715
# 3 22.4820 53.4818 87.8657 4.1686 -3.3337 1.7602
# 4 1.3922 16.5332 4.1686 38.6330 10.2538 -0.4500
# 5 4.0023 12.4665 -3.3337 10.2538 31.5546 4.3233
# 6 -5.5497 21.4715 1.7602 -0.4500 4.3233 49.5968
#
#
#
# Elastic Compliance Matrix: (Units=1/GPa)
#
#
# Indices 1 2 3 4 5 6 
#
# 1 0.008929 0.000357 -0.002606 0.000296 -0.001795 0.001096
# 2 0.000357 0.025077 -0.015124 -0.007125 -0.007912 -0.009655
# 3 -0.002606 -0.015124 0.021308 0.002442 0.007091 0.004904
# 4 0.000296 -0.007125 0.002442 0.030691 -0.007481 0.003962
# 5 -0.001795 -0.007912 0.007091 -0.007481 0.038284 -0.000432
# 6 0.001096 -0.009655 0.004904 0.003962 -0.000432 0.024365
#
#
# Mechanical properties :
#
#
# Convention : Reuss Voigt Hill
#
# Bulk Modulus (GPa) = 48.61886 52.32945 50.47416
# Shear Modulus (GPa) = 26.28031 37.88560 32.08295
#
# Velocity S-wave (km/s) = 3.33544 4.00474 3.68532
# Velocity P-wave (km/s) = 5.95106 6.59821 6.28298
#
# Compressibility (1/GPa) = 0.02056815
#
# Stress axis : x y z
#
# Youngs Moduli (GPa) = 111.99648 39.87684 46.93019
#
# Poissons Ratio (x) = -0.01422 0.12229
# Poissons Ratio (y) = -0.03993 0.70977
# Poissons Ratio (z) = 0.29183 0.60309
#
# Static dielectric constant tensor:
#      x y z
#    x 4.935860 0.082280 -0.066630 
#    y 0.082280 4.586120 0.318200 
#    z -0.066630 0.318200 3.910480 
# 
# 
# High freq. dielectric constant tensor:
#      x y z
#    x 1.971720 0.012390 -0.002850 
#    y 0.012390 1.949530 0.025530 
#    z -0.002850 0.025530 1.902100 
# 
# From -- ./inp_files/535389.got.cif
#   From: 2010.06.25/outbox.cif.g09.slc.cpg/sg2_268_cif.got.tgz:535389.got - 2010.06.27 13:26:56.
