data_PCOD8017167
_publ_section_title
;
Structure prediction by ZEFSAII (Michael W. Deem and Ramdas Pophale) SiO2 
 PCOD8017167
Probable space group: P -1
;
_chemical_formula_sum "Si O2"
_cell_formula_units_Z 14
_cell_length_a 7.834541
_cell_length_b 5.117834
_cell_length_c 18.682213
_cell_angle_alpha 91.821066
_cell_angle_beta 95.846556
_cell_angle_gamma 64.985510
_cell_volume 675.232722
_symmetry_space_group_name_H-M "P -1"
_symmetry_group_IT_number 2
_symmetry_cell_setting 'triclinic'
loop_
_space_group_symop_operation_xyz
x,y,z
-x,-y,-z
loop_
_atom_site_type_symbol
_atom_site_label
_atom_site_fract_x
_atom_site_fract_y
_atom_site_fract_z
Si Si1 0.143306 0.939528 0.069962
Si Si2 0.604571 0.590759 0.330484
Si Si3 0.636293 0.043693 0.238030
Si Si4 0.200089 0.804745 0.362652
Si Si5 0.684681 0.659386 0.877125
Si Si6 0.995767 0.568827 0.583005
Si Si7 0.952518 0.202103 0.791820
O O1 0.252815 0.140567 0.068912
O O2 0.300495 0.606215 0.073792
O O3 0.029190 0.005989 0.141263
O O4 0.000000 0.000000 0.000000
O O5 0.645377 0.299731 0.287105
O O6 0.428621 0.660874 0.377854
O O7 0.788794 0.554183 0.382300
O O8 0.546393 0.861882 0.276565
O O9 0.524390 0.163147 0.160610
O O10 0.845278 0.819872 0.223204
O O11 0.119277 0.576613 0.380462
O O12 0.147889 0.885816 0.278176
O O13 0.109890 0.087575 0.409834
O O14 0.823148 0.532654 0.812873
O O15 0.000000 0.500000 0.500000
#
# Coordination Sequence:
#
# PCOD8017167 Si02
#       7
#     2   2   2   2   2   2   2
#     4  10  22  41  63  89 134 170 204 259 327 380
#     4  12  24  40  67  96 130 168 216 269 326 377
#     4  12  22  38  64  99 124 162 221 273 312 373
#     4  12  24  43  69  94 129 171 220 269 321 377
#     4  10  22  38  61  91 125 160 218 254 323 368
#     4  12  27  45  65  97 135 171 214 266 327 394
#     4  10  23  36  68  91 123 165 219 260 317 367
#
# _framework density 20.733591000000001
#
# number of rings (size 3 to 8) (size 9 to 14) (size 15 to 20)
#    0.857    0.000    4.286    3.429    4.000    1.143 
#    0.000    1.429    0.000    0.000    0.000    0.000 
#    0.000    0.000    0.000    0.000    0.000    0.000 
#
# Total GULP energy -173591.732466 kJ/mol
# GULP energy per Si atom -12399.409462 kJ/mol
# Density = 2.068640 g / cm^3
# Si number density = 20.733591 Si / 1000 Ang^3
#
#
#
# Elastic Constant Matrix: (Units=GPa)
#
#
# Indices 1 2 3 4 5 6 
#
# 1 111.0647 26.7409 4.9706 -1.8276 11.4474 -5.7712
# 2 26.7409 82.3938 -3.1975 5.1941 6.4794 13.5227
# 3 4.9706 -3.1975 62.2619 1.1008 1.1886 7.5974
# 4 -1.8276 5.1941 1.1008 25.6857 3.6708 9.7008
# 5 11.4474 6.4794 1.1886 3.6708 21.5532 -3.0356
# 6 -5.7712 13.5227 7.5974 9.7008 -3.0356 35.6590
#
#
#
# Elastic Compliance Matrix: (Units=1/GPa)
#
#
# Indices 1 2 3 4 5 6 
#
# 1 0.010537 -0.003651 -0.001297 0.001131 -0.004240 0.002697
# 2 -0.003651 0.014819 0.001962 -0.000240 -0.003550 -0.006865
# 3 -0.001297 0.001962 0.016884 0.000892 -0.001679 -0.004937
# 4 0.001131 -0.000240 0.000892 0.045440 -0.010168 -0.013143
# 5 -0.004240 -0.003550 -0.001679 -0.010168 0.052705 0.008271
# 6 0.002697 -0.006865 -0.004937 -0.013143 0.008271 0.036415
#
#
# Mechanical properties :
#
#
# Convention : Reuss Voigt Hill
#
# Bulk Modulus (GPa) = 27.57149 34.74981 31.16065
# Shear Modulus (GPa) = 25.65950 31.72667 28.69309
#
# Velocity S-wave (km/s) = 3.52174 3.91603 3.72411
# Velocity P-wave (km/s) = 5.46477 6.10275 5.79255
#
# Compressibility (1/GPa) = 0.03626935
#
# Stress axis : x y z
#
# Youngs Moduli (GPa) = 94.90816 67.48154 59.22695
#
# Poissons Ratio (x) = 0.24634 0.07681
# Poissons Ratio (y) = 0.34646 -0.11622
# Poissons Ratio (z) = 0.12308 -0.13242
#
# Static dielectric constant tensor:
#      x y z
#    x 3.840760 -0.017390 0.105740 
#    y -0.017390 3.778360 -0.024790 
#    z 0.105740 -0.024790 3.579140 
# 
# 
# High freq. dielectric constant tensor:
#      x y z
#    x 1.811890 0.004380 0.015010 
#    y 0.004380 1.817950 -0.000830 
#    z 0.015010 -0.000830 1.800910 
# 
# From -- ./inp_files/552135.got.cif
#   From: 2010.06.25/outbox.cif.g09.slc.cpg/sg2_277_cif.got.tgz:552135.got - 2010.06.27 13:26:56.
