data_PCOD8017326
_publ_section_title
;
Structure prediction by ZEFSAII (Michael W. Deem and Ramdas Pophale) SiO2 
 PCOD8017326
Probable space group: P -1
;
_chemical_formula_sum "Si O2"
_cell_formula_units_Z 16
_cell_length_a 11.164702
_cell_length_b 19.996245
_cell_length_c 8.834312
_cell_angle_alpha 152.209502
_cell_angle_beta 123.992720
_cell_angle_gamma 53.388386
_cell_volume 735.506543
_symmetry_space_group_name_H-M "P -1"
_symmetry_group_IT_number 2
_symmetry_cell_setting 'triclinic'
loop_
_space_group_symop_operation_xyz
x,y,z
-x,-y,-z
loop_
_atom_site_type_symbol
_atom_site_label
_atom_site_fract_x
_atom_site_fract_y
_atom_site_fract_z
Si Si1 0.637491 0.371072 0.397921
Si Si2 0.968698 0.379429 0.127031
Si Si3 0.936167 0.460423 0.721089
Si Si4 0.362563 0.952503 0.742753
Si Si5 0.062624 0.182393 0.062252
Si Si6 0.261025 0.710752 0.363641
Si Si7 0.634876 0.053608 0.628356
Si Si8 0.038552 0.045398 0.282561
O O1 0.500000 0.500000 0.500000
O O2 0.782408 0.416770 0.535676
O O3 0.642873 0.355645 0.553999
O O4 0.628454 0.216591 0.012212
O O5 0.078993 0.388099 0.082170
O O6 0.011951 0.223045 0.934248
O O7 0.000000 0.500000 0.500000
O O8 0.790758 0.415094 0.023200
O O9 0.055696 0.324276 0.449429
O O10 0.000000 0.500000 0.000000
O O11 0.354134 0.796279 0.498110
O O12 0.376651 0.939613 0.547026
O O13 0.500000 0.000000 0.000000
O O14 0.228917 0.081443 0.971738
O O15 0.954904 0.087959 0.862217
O O16 0.089806 0.806830 0.473597
O O17 0.791594 0.937563 0.558209
O O18 0.500000 0.000000 0.500000
O O19 0.000000 0.000000 0.000000
#
# Coordination Sequence:
#
# PCOD8017326 Si02
#       8
#     2   2   2   2   2   2   2   2
#     4  12  27  47  67 105 150 188 235 301 362 430
#     4  10  22  38  66  98 135 177 234 286 339 416
#     4  11  22  43  72 101 137 187 244 282 348 434
#     4  11  26  44  70 102 144 181 231 300 364 426
#     4  10  22  43  69 102 141 175 242 291 354 412
#     4  11  22  44  72 102 136 185 237 286 363 417
#     4  12  26  47  73 109 144 188 241 297 368 425
#     4  11  21  40  77 101 135 179 237 303 342 421
#
# _framework density 21.753713000000001
#
# number of rings (size 3 to 8) (size 9 to 14) (size 15 to 20)
#    0.000    1.000    3.750    2.250    3.500    6.000 
#    0.000    0.625    0.000    0.000    0.000    0.000 
#    0.000    0.000    0.000    0.000    0.000    0.000 
#
# Total GULP energy -198264.729536 kJ/mol
# GULP energy per Si atom -12391.545596 kJ/mol
# Density = 2.170420 g / cm^3
# Si number density = 21.753713 Si / 1000 Ang^3
#
#
#
# Elastic Constant Matrix: (Units=GPa)
#
#
# Indices 1 2 3 4 5 6 
#
# 1 151.7310 69.2514 54.7561 -14.0616 29.8859 22.0745
# 2 69.2514 147.8072 52.3230 -21.9829 9.0282 20.7440
# 3 54.7561 52.3230 130.1711 -28.8279 19.3945 2.9311
# 4 -14.0616 -21.9829 -28.8279 40.1832 -1.0168 0.6747
# 5 29.8859 9.0282 19.3945 -1.0168 42.4692 -0.4244
# 6 22.0745 20.7440 2.9311 0.6747 -0.4244 45.1600
#
#
#
# Elastic Compliance Matrix: (Units=1/GPa)
#
#
# Indices 1 2 3 4 5 6 
#
# 1 0.010538 -0.003298 -0.002101 0.000289 -0.005783 -0.003558
# 2 -0.003298 0.009763 -0.002034 0.002805 0.001214 -0.002771
# 3 -0.002101 -0.002034 0.011150 0.006056 -0.003025 0.001119
# 4 0.000289 0.002805 0.006056 0.030833 -0.002850 -0.002310
# 5 -0.005783 0.001214 -0.003025 -0.002850 0.028699 0.002778
# 6 -0.003558 -0.002771 0.001119 -0.002310 0.002778 0.025144
#
#
# Mechanical properties :
#
#
# Convention : Reuss Voigt Hill
#
# Bulk Modulus (GPa) = 60.29779 86.93002 73.61391
# Shear Modulus (GPa) = 36.62448 42.45440 39.53944
#
# Velocity S-wave (km/s) = 4.10762 4.42248 4.26795
# Velocity P-wave (km/s) = 7.09050 8.13176 7.62892
#
# Compressibility (1/GPa) = 0.01658436
#
# Stress axis : x y z
#
# Youngs Moduli (GPa) = 94.89830 102.43169 89.68295
#
# Poissons Ratio (x) = 0.33778 0.18844
# Poissons Ratio (y) = 0.31294 0.18244
# Poissons Ratio (z) = 0.19940 0.20838
#
# Static dielectric constant tensor:
#      x y z
#    x 4.474610 0.620340 0.251170 
#    y 0.620340 4.638470 0.119200 
#    z 0.251170 0.119200 4.594780 
# 
# 
# High freq. dielectric constant tensor:
#      x y z
#    x 1.857660 0.027020 0.010910 
#    y 0.027020 1.856640 -0.015850 
#    z 0.010910 -0.015850 1.875390 
# 
# From -- ./inp_files/283532.got.cif
#   From: 2010.06.25/outbox.cif.g09.slc.cpg/sg2_142_cif.got.tgz:283532.got - 2010.06.27 13:26:56.
