data_PCOD8017053
_publ_section_title
;
Structure prediction by ZEFSAII (Michael W. Deem and Ramdas Pophale) SiO2 
 PCOD8017053
Probable space group: P -1
;
_chemical_formula_sum "Si O2"
_cell_formula_units_Z 16
_cell_length_a 11.304109
_cell_length_b 20.333902
_cell_length_c 9.214187
_cell_angle_alpha 104.186068
_cell_angle_beta 136.932476
_cell_angle_gamma 42.474276
_cell_volume 752.750843
_symmetry_space_group_name_H-M "P -1"
_symmetry_group_IT_number 2
_symmetry_cell_setting 'triclinic'
loop_
_space_group_symop_operation_xyz
x,y,z
-x,-y,-z
loop_
_atom_site_type_symbol
_atom_site_label
_atom_site_fract_x
_atom_site_fract_y
_atom_site_fract_z
Si Si1 0.649278 0.253557 0.417500
Si Si2 0.147508 0.002544 0.243957
Si Si3 0.355437 0.976547 0.911190
Si Si4 0.304715 0.622057 0.971746
Si Si5 0.352497 0.121451 0.584461
Si Si6 0.786909 0.222312 0.193210
Si Si7 0.587183 0.808446 0.782182
Si Si8 0.306532 0.622078 0.312133
O O1 0.649341 0.272276 0.257689
O O2 0.377402 0.285110 0.215506
O O3 0.584812 0.342086 0.501962
O O4 0.983434 0.110396 0.689369
O O5 0.352860 0.989248 0.323175
O O6 0.406081 0.879738 0.508688
O O7 0.821224 0.137006 0.106390
O O8 0.000000 0.000000 0.000000
O O9 0.373964 0.911896 0.773388
O O10 0.519436 0.890940 0.155275
O O11 0.500000 0.000000 0.000000
O O12 0.415421 0.658146 0.022364
O O13 0.921040 0.738900 0.658279
O O14 0.500000 0.500000 0.000000
O O15 0.392392 0.592886 0.203582
O O16 0.175269 0.110735 0.471014
O O17 0.929451 0.732952 0.054422
O O18 0.500000 0.500000 0.500000
#
# Coordination Sequence:
#
# PCOD8017053 Si02
#       8
#     2   2   2   2   2   2   2   2
#     4  12  25  42  69 101 136 174 223 273 334 400
#     4  12  24  39  62 102 141 170 210 268 339 400
#     4  12  20  38  67 102 137 176 216 264 339 401
#     4  10  23  43  68  92 124 169 227 276 325 388
#     4  10  22  37  67  91 131 169 218 265 336 387
#     4  10  22  40  62  96 133 171 214 269 326 395
#     4  12  25  43  68 102 139 175 221 276 328 403
#     4  12  27  47  73  94 129 179 231 278 332 392
#
# _framework density 21.255372000000001
#
# number of rings (size 3 to 8) (size 9 to 14) (size 15 to 20)
#    0.750    0.000    5.000    2.250    7.000    0.500 
#    0.000    0.000    0.000    2.250    0.000    0.000 
#    0.000    0.000    0.000    0.000    0.000    0.000 
#
# Total GULP energy -198261.675475 kJ/mol
# GULP energy per Si atom -12391.354717 kJ/mol
# Density = 2.120699 g / cm^3
# Si number density = 21.255372 Si / 1000 Ang^3
#
#
#
# Elastic Constant Matrix: (Units=GPa)
#
#
# Indices 1 2 3 4 5 6 
#
# 1 105.7900 33.1957 24.3248 21.1501 -27.0600 1.0522
# 2 33.1957 140.8738 33.8998 21.2686 -19.5854 1.0728
# 3 24.3248 33.8998 74.9428 13.0714 -39.2113 4.0846
# 4 21.1501 21.2686 13.0714 35.5058 0.4009 -4.3260
# 5 -27.0600 -19.5854 -39.2113 0.4009 45.0647 7.1030
# 6 1.0522 1.0728 4.0846 -4.3260 7.1030 36.1267
#
#
#
# Elastic Compliance Matrix: (Units=1/GPa)
#
#
# Indices 1 2 3 4 5 6 
#
# 1 0.014100 -0.001084 0.004705 -0.010197 0.012916 -0.004671
# 2 -0.001084 0.008647 -0.002094 -0.003869 0.001436 -0.000734
# 3 0.004705 -0.002094 0.033540 -0.015766 0.033174 -0.012277
# 4 -0.010197 -0.003869 -0.015766 0.044111 -0.023832 0.012162
# 5 0.012916 0.001436 0.033174 -0.023832 0.062697 -0.019350
# 6 -0.004671 -0.000734 -0.012277 0.012162 -0.019350 0.034487
#
#
# Mechanical properties :
#
#
# Convention : Reuss Voigt Hill
#
# Bulk Modulus (GPa) = 16.85180 56.04969 36.45074
# Shear Modulus (GPa) = 23.33094 38.68520 31.00807
#
# Velocity S-wave (km/s) = 3.31667 4.27080 3.82361
# Velocity P-wave (km/s) = 4.75527 7.12366 6.05636
#
# Compressibility (1/GPa) = 0.05934085
#
# Stress axis : x y z
#
# Youngs Moduli (GPa) = 70.92268 115.64584 29.81547
#
# Poissons Ratio (x) = 0.12535 -0.14027
# Poissons Ratio (y) = 0.07688 0.06242
# Poissons Ratio (z) = -0.33367 0.24213
#
# Static dielectric constant tensor:
#      x y z
#    x 4.146440 -0.001150 -0.139180 
#    y -0.001150 3.905010 0.300580 
#    z -0.139180 0.300580 4.323690 
# 
# 
# High freq. dielectric constant tensor:
#      x y z
#    x 1.841630 -0.002050 -0.017530 
#    y -0.002050 1.825500 0.019060 
#    z -0.017530 0.019060 1.823920 
# 
# From -- ./inp_files/283149.got.cif
#   From: 2010.06.25/outbox.cif.g09.slc.cpg/sg2_142_cif.got.tgz:283149.got - 2010.06.27 13:26:56.
