data_PCOD8017337
_publ_section_title
;
Structure prediction by ZEFSAII (Michael W. Deem and Ramdas Pophale) SiO2 
 PCOD8017337
Probable space group: P -1
;
_chemical_formula_sum "Si O2"
_cell_formula_units_Z 16
_cell_length_a 14.405288
_cell_length_b 12.145478
_cell_length_c 9.143220
_cell_angle_alpha 39.653841
_cell_angle_beta 112.333793
_cell_angle_gamma 129.347779
_cell_volume 770.237752
_symmetry_space_group_name_H-M "P -1"
_symmetry_group_IT_number 2
_symmetry_cell_setting 'triclinic'
loop_
_space_group_symop_operation_xyz
x,y,z
-x,-y,-z
loop_
_atom_site_type_symbol
_atom_site_label
_atom_site_fract_x
_atom_site_fract_y
_atom_site_fract_z
Si Si1 0.071205 0.170112 0.667092
Si Si2 0.440010 0.792949 0.981378
Si Si3 0.767431 0.878599 0.411958
Si Si4 0.511045 0.778394 0.354074
Si Si5 0.436876 0.397189 0.912653
Si Si6 0.776141 0.568945 0.917588
Si Si7 0.991128 0.293937 0.236374
Si Si8 0.178408 0.250267 0.947908
O O1 0.159601 0.126424 0.677319
O O2 0.040883 0.309975 0.413062
O O3 0.141658 0.302638 0.719317
O O4 0.940778 0.956743 0.843969
O O5 0.494452 0.040321 0.755103
O O6 0.432751 0.712643 0.224790
O O7 0.517665 0.740420 0.980615
O O8 0.301500 0.664348 0.961862
O O9 0.650628 0.871152 0.294635
O O10 0.716773 0.684626 0.694379
O O11 0.854213 0.090936 0.339639
O O12 0.455045 0.576953 0.630092
O O13 0.289731 0.225991 0.017122
O O14 0.500000 0.500000 0.000000
O O15 0.919330 0.716212 0.810841
O O16 0.770018 0.557084 0.102308
O O17 0.000000 0.500000 0.000000
#
# Coordination Sequence:
#
# PCOD8017337 Si02
#       8
#     2   2   2   2   2   2   2   2
#     4  10  22  38  67  88 121 162 207 257 309 374
#     4  11  24  43  64  96 125 165 217 264 315 371
#     4  11  19  40  65  90 121 159 213 259 312 368
#     4  11  25  41  66  97 125 163 215 268 314 372
#     4  12  24  41  66  91 132 173 209 252 319 380
#     4  11  20  40  64  88 122 163 210 254 313 372
#     4  11  22  37  61  93 122 158 208 262 314 363
#     4  11  21  40  62  91 122 164 210 248 309 379
#
# _framework density 20.772805999999999
#
# number of rings (size 3 to 8) (size 9 to 14) (size 15 to 20)
#    0.000    1.000    5.000    2.625    3.500    0.500 
#    0.000    0.625    0.000    0.000    0.000    0.000 
#    0.000    0.000    0.000    0.000    0.000    0.000 
#
# Total GULP energy -198356.170821 kJ/mol
# GULP energy per Si atom -12397.260676 kJ/mol
# Density = 2.072553 g / cm^3
# Si number density = 20.772806 Si / 1000 Ang^3
#
#
#
# Elastic Constant Matrix: (Units=GPa)
#
#
# Indices 1 2 3 4 5 6 
#
# 1 86.0624 47.0282 42.0629 7.1409 -4.2701 -1.6694
# 2 47.0282 150.5928 42.3516 20.1762 -1.2912 -6.8063
# 3 42.0629 42.3516 79.1957 19.2676 9.2190 -16.0028
# 4 7.1409 20.1762 19.2676 29.7644 -2.3962 0.5334
# 5 -4.2701 -1.2912 9.2190 -2.3962 29.0250 -2.4286
# 6 -1.6694 -6.8063 -16.0028 0.5334 -2.4286 32.6917
#
#
#
# Elastic Compliance Matrix: (Units=1/GPa)
#
#
# Indices 1 2 3 4 5 6 
#
# 1 0.018810 -0.003684 -0.011138 0.005782 0.006209 -0.004892
# 2 -0.003684 0.008829 -0.001593 -0.004079 0.000099 0.000944
# 3 -0.011138 -0.001593 0.026421 -0.014389 -0.010327 0.011501
# 4 0.005782 -0.004079 -0.014389 0.045097 0.008317 -0.007715
# 5 0.006209 0.000099 -0.010327 0.008317 0.039175 -0.001943
# 6 -0.004892 0.000944 0.011501 -0.007715 -0.001943 0.036147
#
#
# Mechanical properties :
#
#
# Convention : Reuss Voigt Hill
#
# Bulk Modulus (GPa) = 47.10540 64.30402 55.70471
# Shear Modulus (GPa) = 23.32234 30.59012 26.95623
#
# Velocity S-wave (km/s) = 3.35436 3.84162 3.60623
# Velocity P-wave (km/s) = 6.14231 7.12042 6.64938
#
# Compressibility (1/GPa) = 0.02122899
#
# Stress axis : x y z
#
# Youngs Moduli (GPa) = 53.16353 113.26359 37.84798
#
# Poissons Ratio (x) = 0.41729 0.42156
# Poissons Ratio (y) = 0.19587 0.06030
# Poissons Ratio (z) = 0.59215 0.18045
#
# Static dielectric constant tensor:
#      x y z
#    x 3.648690 0.085560 -0.151700 
#    y 0.085560 4.115520 0.124240 
#    z -0.151700 0.124240 3.619040 
# 
# 
# High freq. dielectric constant tensor:
#      x y z
#    x 1.817080 0.015050 -0.012120 
#    y 0.015050 1.830400 0.013130 
#    z -0.012120 0.013130 1.790450 
# 
# From -- ./inp_files/255827.got.cif
#   From: 2010.06.25/outbox.cif.g09.slc.cpg/sg2_128_cif.got.tgz:255827.got - 2010.06.27 13:26:56.
