data_PCOD8017224
_publ_section_title
;
Structure prediction by ZEFSAII (Michael W. Deem and Ramdas Pophale) SiO2 
 PCOD8017224
Probable space group: P -1
;
_chemical_formula_sum "Si O2"
_cell_formula_units_Z 16
_cell_length_a 11.969941
_cell_length_b 9.173804
_cell_length_c 10.601029
_cell_angle_alpha 106.041276
_cell_angle_beta 96.801794
_cell_angle_gamma 133.882229
_cell_volume 721.127707
_symmetry_space_group_name_H-M "P -1"
_symmetry_group_IT_number 2
_symmetry_cell_setting 'triclinic'
loop_
_space_group_symop_operation_xyz
x,y,z
-x,-y,-z
loop_
_atom_site_type_symbol
_atom_site_label
_atom_site_fract_x
_atom_site_fract_y
_atom_site_fract_z
Si Si1 0.031543 0.072709 0.822087
Si Si2 0.569158 0.603335 0.394959
Si Si3 0.825419 0.367944 0.813454
Si Si4 0.579714 0.247355 0.571301
Si Si5 0.946837 0.622373 0.279311
Si Si6 0.840057 0.661439 0.518509
Si Si7 0.793903 0.210157 0.021833
Si Si8 0.731195 0.818356 0.916366
O O1 0.083761 0.260495 0.780664
O O2 0.200304 0.207926 0.961776
O O3 0.975086 0.863798 0.687279
O O4 0.868373 0.955796 0.854615
O O5 0.500000 0.500000 0.500000
O O6 0.573940 0.791011 0.428550
O O7 0.758183 0.719571 0.441434
O O8 0.450628 0.424569 0.221040
O O9 0.718757 0.391468 0.737588
O O10 0.714554 0.192423 0.875767
O O11 0.869183 0.270914 0.701609
O O12 0.004719 0.629034 0.946329
O O13 0.684926 0.403271 0.497218
O O14 0.500000 0.000000 0.500000
O O15 0.941715 0.657660 0.434405
O O16 0.792998 0.341577 0.159528
O O17 0.698790 0.959227 0.991535
#
# Coordination Sequence:
#
# PCOD8017224 Si02
#       8
#     2   2   2   2   2   2   2   2
#     4  11  21  36  66  92 120 157 210 256 300 355
#     4  10  23  39  61  87 127 160 203 250 308 363
#     4   9  19  35  62  92 115 149 210 248 301 345
#     4  11  24  38  63  88 117 160 212 250 297 360
#     4  10  22  38  63  91 129 159 197 252 313 370
#     4  11  24  43  58  92 129 166 196 251 318 366
#     4   9  19  35  63  90 118 155 202 257 299 349
#     4  11  20  36  65  93 118 153 218 260 289 352
#
# _framework density 22.187472
#
# number of rings (size 3 to 8) (size 9 to 14) (size 15 to 20)
#    0.750    1.000    3.750    1.125    8.750    0.500 
#    0.000    1.250    0.000    0.000    0.000    0.000 
#    0.000    0.000    0.000    0.000    0.000    0.000 
#
# Total GULP energy -198254.861991 kJ/mol
# GULP energy per Si atom -12390.928874 kJ/mol
# Density = 2.213697 g / cm^3
# Si number density = 22.187472 Si / 1000 Ang^3
#
#
#
# Elastic Constant Matrix: (Units=GPa)
#
#
# Indices 1 2 3 4 5 6 
#
# 1 51.5157 5.2984 29.6462 -4.6434 -6.0209 -19.4641
# 2 5.2984 64.3616 19.2771 8.0889 -8.5482 -31.6205
# 3 29.6462 19.2771 117.3725 5.6180 -6.2830 -8.8223
# 4 -4.6434 8.0889 5.6180 32.8036 -12.2129 -2.7272
# 5 -6.0209 -8.5482 -6.2830 -12.2129 43.7834 1.1888
# 6 -19.4641 -31.6205 -8.8223 -2.7272 1.1888 26.3132
#
#
#
# Elastic Compliance Matrix: (Units=1/GPa)
#
#
# Indices 1 2 3 4 5 6 
#
# 1 0.073159 0.058863 -0.018886 0.016520 0.020211 0.119318
# 2 0.058863 0.088274 -0.017874 0.009587 0.021538 0.143647
# 3 -0.018886 -0.017874 0.013877 -0.004953 -0.004633 -0.031101
# 4 0.016520 0.009587 -0.004953 0.038436 0.013463 0.025455
# 5 0.020211 0.021538 -0.004633 0.013463 0.031849 0.039235
# 6 0.119318 0.143647 -0.031101 0.025455 0.039235 0.289322
#
#
# Mechanical properties :
#
#
# Convention : Reuss Voigt Hill
#
# Bulk Modulus (GPa) = 4.55552 37.96591 21.26072
# Shear Modulus (GPa) = 8.86706 32.51525 20.69115
#
# Velocity S-wave (km/s) = 2.00127 3.83231 3.05710
# Velocity P-wave (km/s) = 2.71989 6.06058 4.69726
#
# Compressibility (1/GPa) = 0.21951379
#
# Stress axis : x y z
#
# Youngs Moduli (GPa) = 13.66881 11.32841 72.06028
#
# Poissons Ratio (x) = -0.66682 1.36096
# Poissons Ratio (y) = -0.80458 1.28803
# Poissons Ratio (z) = 0.25816 0.20249
#
# Static dielectric constant tensor:
#      x y z
#    x 4.056570 -0.440060 0.164050 
#    y -0.440060 3.721530 -0.052980 
#    z 0.164050 -0.052980 4.213670 
# 
# 
# High freq. dielectric constant tensor:
#      x y z
#    x 1.847090 -0.039840 -0.001680 
#    y -0.039840 1.848660 0.000090 
#    z -0.001680 0.000090 1.881280 
# 
# From -- ./inp_files/444770.got.cif
#   From: 2010.06.25/outbox.cif.g09.slc.cpg/sg2_223_cif.got.tgz:444770.got - 2010.06.27 13:26:56.
