data_PCOD8017040
_publ_section_title
;
Structure prediction by ZEFSAII (Michael W. Deem and Ramdas Pophale) SiO2 
 PCOD8017040
Probable space group: P -1
;
_chemical_formula_sum "Si O2"
_cell_formula_units_Z 16
_cell_length_a 8.673392
_cell_length_b 11.477514
_cell_length_c 9.055423
_cell_angle_alpha 61.972373
_cell_angle_beta 88.795637
_cell_angle_gamma 82.884598
_cell_volume 788.895981
_symmetry_space_group_name_H-M "P -1"
_symmetry_group_IT_number 2
_symmetry_cell_setting 'triclinic'
loop_
_space_group_symop_operation_xyz
x,y,z
-x,-y,-z
loop_
_atom_site_type_symbol
_atom_site_label
_atom_site_fract_x
_atom_site_fract_y
_atom_site_fract_z
Si Si1 0.622679 0.026445 0.296282
Si Si2 0.622355 0.909143 0.954437
Si Si3 0.355566 0.436374 0.107476
Si Si4 0.785376 0.628901 0.147363
Si Si5 0.660363 0.424828 0.482047
Si Si6 0.830960 0.064371 0.996314
Si Si7 0.527709 0.209044 0.439096
Si Si8 0.852520 0.367564 0.796546
O O1 0.764751 0.016811 0.183169
O O2 0.648859 0.112419 0.391027
O O3 0.589748 0.877320 0.423294
O O4 0.462197 0.110534 0.186486
O O5 0.687962 0.769412 0.113777
O O6 0.755191 0.005211 0.887735
O O7 0.500000 0.000000 0.000000
O O8 0.417764 0.319879 0.286345
O O9 0.245532 0.547723 0.129742
O O10 0.500000 0.500000 0.000000
O O11 0.242772 0.383395 0.019409
O O12 0.716405 0.507825 0.296684
O O13 0.965304 0.626352 0.187530
O O14 0.500000 0.500000 0.500000
O O15 0.632700 0.279074 0.511355
O O16 0.796866 0.415367 0.606213
O O17 0.808515 0.221278 0.905949
O O18 0.000000 0.000000 0.000000
#
# Coordination Sequence:
#
# PCOD8017040 Si02
#       8
#     2   2   2   2   2   2   2   2
#     4  10  23  40  69  96 131 175 224 281 332 397
#     4  10  22  37  66  92 125 172 225 273 324 393
#     4  12  23  44  72  98 130 179 230 276 327 414
#     4  12  25  44  65  99 138 176 219 281 348 397
#     4  12  26  41  68  98 133 178 227 280 331 405
#     4  11  23  41  66  96 132 175 221 276 336 408
#     4  11  22  41  69 101 131 169 233 277 330 392
#     4  12  26  43  66  98 139 174 221 280 349 394
#
# _framework density 20.281509
#
# number of rings (size 3 to 8) (size 9 to 14) (size 15 to 20)
#    0.000    0.750    5.000    2.250    8.750    0.000 
#    2.250    0.000    0.000    3.000    0.000    0.000 
#    0.000    0.000    0.000    0.000    0.000    0.000 
#
# Total GULP energy -198287.767824 kJ/mol
# GULP energy per Si atom -12392.985489 kJ/mol
# Density = 2.023535 g / cm^3
# Si number density = 20.281509 Si / 1000 Ang^3
#
#
#
# Elastic Constant Matrix: (Units=GPa)
#
#
# Indices 1 2 3 4 5 6 
#
# 1 123.1660 46.5902 43.6687 0.5577 9.6893 -0.9143
# 2 46.5902 126.8015 22.9515 -4.5976 1.0432 -1.4169
# 3 43.6687 22.9515 90.3071 -11.1018 0.0244 -8.2650
# 4 0.5577 -4.5976 -11.1018 40.0230 6.9754 3.1346
# 5 9.6893 1.0432 0.0244 6.9754 39.9521 3.2278
# 6 -0.9143 -1.4169 -8.2650 3.1346 3.2278 38.5921
#
#
#
# Elastic Compliance Matrix: (Units=1/GPa)
#
#
# Indices 1 2 3 4 5 6 
#
# 1 0.011271 -0.003304 -0.004838 -0.001424 -0.002349 -0.000578
# 2 -0.003304 0.009245 -0.000645 0.000856 0.000409 0.000019
# 3 -0.004838 -0.000645 0.014267 0.003691 0.000328 0.002590
# 4 -0.001424 0.000856 0.003691 0.026959 -0.004302 -0.001042
# 5 -0.002349 0.000409 0.000328 -0.004302 0.026488 -0.001836
# 6 -0.000578 0.000019 0.002590 -0.001042 -0.001836 0.026692
#
#
# Mechanical properties :
#
#
# Convention : Reuss Voigt Hill
#
# Bulk Modulus (GPa) = 58.10762 62.96616 60.53689
# Shear Modulus (GPa) = 36.17067 38.85107 37.51087
#
# Velocity S-wave (km/s) = 4.22765 4.38149 4.30526
# Velocity P-wave (km/s) = 7.24869 7.53061 7.39099
#
# Compressibility (1/GPa) = 0.01720945
#
# Stress axis : x y z
#
# Youngs Moduli (GPa) = 88.72068 108.16534 70.09054
#
# Poissons Ratio (x) = 0.35743 0.33909
# Poissons Ratio (y) = 0.29318 0.04519
# Poissons Ratio (z) = 0.42922 0.06975
#
# Static dielectric constant tensor:
#      x y z
#    x 4.768780 0.903900 1.137490 
#    y 0.903900 4.266360 0.704620 
#    z 1.137490 0.704620 4.825150 
# 
# 
# High freq. dielectric constant tensor:
#      x y z
#    x 1.786070 0.012200 0.004510 
#    y 0.012200 1.817760 -0.003880 
#    z 0.004510 -0.003880 1.793700 
# 
# From -- ./inp_files/179119.got.cif
#   From: 2010.06.25/outbox.cif.g09.slc.cpg/sg2_90_cif.got.tgz:179119.got - 2010.06.27 13:26:56.
