data_PCOD8017277
_publ_section_title
;
Structure prediction by ZEFSAII (Michael W. Deem and Ramdas Pophale) SiO2 
 PCOD8017277
Probable space group: P -1
;
_chemical_formula_sum "Si O2"
_cell_formula_units_Z 16
_cell_length_a 8.869013
_cell_length_b 16.046986
_cell_length_c 8.282029
_cell_angle_alpha 84.870791
_cell_angle_beta 47.736810
_cell_angle_gamma 56.604731
_cell_volume 648.755561
_symmetry_space_group_name_H-M "P -1"
_symmetry_group_IT_number 2
_symmetry_cell_setting 'triclinic'
loop_
_space_group_symop_operation_xyz
x,y,z
-x,-y,-z
loop_
_atom_site_type_symbol
_atom_site_label
_atom_site_fract_x
_atom_site_fract_y
_atom_site_fract_z
Si Si1 0.540783 0.497259 0.780296
Si Si2 0.174132 0.173290 0.710886
Si Si3 0.491791 0.669110 0.565637
Si Si4 0.407861 0.001274 0.323043
Si Si5 0.977746 0.618737 0.071985
Si Si6 0.973018 0.297680 0.294709
Si Si7 0.190920 0.871849 0.934405
Si Si8 0.576042 0.089757 0.974668
O O1 0.528093 0.595904 0.703453
O O2 0.831093 0.381643 0.534615
O O3 0.500000 0.500000 0.000000
O O4 0.298220 0.507788 0.872545
O O5 0.468589 0.085692 0.602960
O O6 0.062198 0.297168 0.778647
O O7 0.195282 0.128517 0.523353
O O8 0.964697 0.172754 0.957048
O O9 0.775313 0.597838 0.269489
O O10 0.244722 0.707585 0.622237
O O11 0.438381 0.780239 0.649866
O O12 0.636469 0.993909 0.065414
O O13 0.282324 0.968130 0.291442
O O14 0.921889 0.665317 0.922955
O O15 0.247915 0.179557 0.177327
O O16 0.303873 0.860129 0.036164
O O17 0.000000 0.000000 0.000000
#
# Coordination Sequence:
#
# PCOD8017277 Si02
#       8
#     2   2   2   2   2   2   2   2
#     4  11  27  48  75 107 142 181 236 304 361 416
#     4  11  21  43  67  97 143 188 239 289 351 425
#     4  11  25  48  76 103 142 193 238 289 360 429
#     4  10  22  38  65  93 137 189 229 296 349 408
#     4  11  23  47  73 103 141 191 236 290 357 426
#     4  11  25  48  73 102 144 184 241 299 354 424
#     4  12  24  40  69 105 142 192 237 287 358 426
#     4  11  23  41  64 101 140 181 238 295 347 419
#
# _framework density 24.662600999999999
#
# number of rings (size 3 to 8) (size 9 to 14) (size 15 to 20)
#    0.000    1.000    5.000    2.250    7.000    3.000 
#    4.500    0.000    0.000    0.000    0.000    0.000 
#    0.000    0.000    0.000    0.000    0.000    0.000 
#
# Total GULP energy -198220.290478 kJ/mol
# GULP energy per Si atom -12388.768155 kJ/mol
# Density = 2.460647 g / cm^3
# Si number density = 24.662601 Si / 1000 Ang^3
#
#
#
# Elastic Constant Matrix: (Units=GPa)
#
#
# Indices 1 2 3 4 5 6 
#
# 1 94.0556 23.6164 29.4033 -2.9054 11.4584 2.7434
# 2 23.6164 70.6597 22.1519 -0.9051 -0.2690 2.5078
# 3 29.4033 22.1519 122.2598 -10.2704 16.5125 0.2253
# 4 -2.9054 -0.9051 -10.2704 40.4979 12.8317 4.6624
# 5 11.4584 -0.2690 16.5125 12.8317 44.4907 2.8226
# 6 2.7434 2.5078 0.2253 4.6624 2.8226 29.1875
#
#
#
# Elastic Compliance Matrix: (Units=1/GPa)
#
#
# Indices 1 2 3 4 5 6 
#
# 1 0.012528 -0.003570 -0.001859 0.001357 -0.002899 -0.000793
# 2 -0.003570 0.016155 -0.002477 -0.001139 0.002333 -0.001077
# 3 -0.001859 -0.002477 0.009967 0.003688 -0.004308 0.000138
# 4 0.001357 -0.001139 0.003688 0.029281 -0.009931 -0.003775
# 5 -0.002899 0.002333 -0.004308 -0.009931 0.027763 -0.000993
# 6 -0.000793 -0.001077 0.000138 -0.003775 -0.000993 0.035126
#
#
# Mechanical properties :
#
#
# Convention : Reuss Voigt Hill
#
# Bulk Modulus (GPa) = 43.78907 48.59092 46.18999
# Shear Modulus (GPa) = 32.41616 36.95546 34.68581
#
# Velocity S-wave (km/s) = 3.62938 3.87517 3.75429
# Velocity P-wave (km/s) = 5.94617 6.30616 6.12881
#
# Compressibility (1/GPa) = 0.02283675
#
# Stress axis : x y z
#
# Youngs Moduli (GPa) = 79.82248 61.90175 100.33555
#
# Poissons Ratio (x) = 0.22098 0.18653
# Poissons Ratio (y) = 0.28495 0.24856
# Poissons Ratio (z) = 0.14839 0.15335
#
# Static dielectric constant tensor:
#      x y z
#    x 4.473980 0.053020 0.218990 
#    y 0.053020 4.257850 0.194480 
#    z 0.218990 0.194480 4.806020 
# 
# 
# High freq. dielectric constant tensor:
#      x y z
#    x 1.973270 0.007800 0.017160 
#    y 0.007800 1.963930 0.012490 
#    z 0.017160 0.012490 1.997530 
# 
# From -- ./inp_files/215050.got.cif
#   From: 2010.06.25/outbox.cif.g09.slc.cpg/sg2_108_cif.got.tgz:215050.got - 2010.06.27 13:26:56.
