data_PCOD8017861
_publ_section_title
;
Structure prediction by ZEFSAII (Michael W. Deem and Ramdas Pophale) SiO2 
 PCOD8017861
Probable space group: P -1
;
_chemical_formula_sum "Si O2"
_cell_formula_units_Z 12
_cell_length_a 7.352865
_cell_length_b 11.747918
_cell_length_c 7.775222
_cell_angle_alpha 75.243123
_cell_angle_beta 97.006867
_cell_angle_gamma 123.487048
_cell_volume 541.527228
_symmetry_space_group_name_H-M "P -1"
_symmetry_group_IT_number 2
_symmetry_cell_setting 'triclinic'
loop_
_space_group_symop_operation_xyz
x,y,z
-x,-y,-z
loop_
_atom_site_type_symbol
_atom_site_label
_atom_site_fract_x
_atom_site_fract_y
_atom_site_fract_z
Si Si1 0.250152 0.442292 0.527282
Si Si2 0.630639 0.307566 0.758989
Si Si3 0.726316 0.964078 0.323491
Si Si4 0.064456 0.876072 0.389836
Si Si5 0.861463 0.173130 0.961811
Si Si6 0.332085 0.379435 0.903868
O O1 0.500000 0.500000 0.500000
O O2 0.203747 0.549424 0.383464
O O3 0.232852 0.440184 0.733421
O O4 0.087393 0.284895 0.499896
O O5 0.502188 0.185240 0.649031
O O6 0.773788 0.276747 0.913404
O O7 0.450913 0.313711 0.847630
O O8 0.720704 0.050400 0.127522
O O9 0.927982 0.947159 0.329174
O O10 0.747140 0.040500 0.477540
O O11 0.169938 0.888150 0.211505
O O12 0.115627 0.256377 0.022033
O O13 0.500000 0.500000 0.000000
#
# Coordination Sequence:
#
# PCOD8017861 Si02
#       6
#     2   2   2   2   2   2
#     4   9  18  40  61  86 124 157 204 260 298 365
#     4  11  23  42  64  92 127 162 208 257 309 371
#     4  11  22  41  65  93 127 166 208 255 308 377
#     4  10  22  39  67  91 121 171 207 250 321 358
#     4  11  24  42  64  92 131 162 206 262 307 369
#     4  10  23  40  63  96 121 165 209 252 320 363
#
# _framework density 22.159551
#
# number of rings (size 3 to 8) (size 9 to 14) (size 15 to 20)
#    0.000    1.667    5.000    1.000    4.667    4.000 
#    3.000    0.000    0.000    0.000    0.000    0.000 
#    0.000    0.000    0.000    0.000    0.000    0.000 
#
# Total GULP energy -148754.444755 kJ/mol
# GULP energy per Si atom -12396.203730 kJ/mol
# Density = 2.210911 g / cm^3
# Si number density = 22.159551 Si / 1000 Ang^3
#
#
#
# Elastic Constant Matrix: (Units=GPa)
#
#
# Indices 1 2 3 4 5 6 
#
# 1 42.5689 13.1028 24.2760 -0.2542 14.6176 -6.1554
# 2 13.1028 128.0016 57.6574 14.4834 6.4238 -12.9540
# 3 24.2760 57.6574 98.6678 -0.2894 8.0002 -20.4928
# 4 -0.2542 14.4834 -0.2894 56.1002 -8.3422 6.7438
# 5 14.6176 6.4238 8.0002 -8.3422 24.4694 -8.3311
# 6 -6.1554 -12.9540 -20.4928 6.7438 -8.3311 22.2037
#
#
#
# Elastic Compliance Matrix: (Units=1/GPa)
#
#
# Indices 1 2 3 4 5 6 
#
# 1 0.034286 0.001147 -0.008370 -0.002697 -0.020468 -0.004412
# 2 0.001147 0.011198 -0.006423 -0.003393 -0.002312 0.001086
# 3 -0.008370 -0.006423 0.018073 0.001026 0.005313 0.012295
# 4 -0.002697 -0.003393 0.001026 0.020415 0.007348 -0.005224
# 5 -0.020468 -0.002312 0.005313 0.007348 0.060749 0.018443
# 6 -0.004412 0.001086 0.012295 -0.005224 0.018443 0.064303
#
#
# Mechanical properties :
#
#
# Convention : Reuss Voigt Hill
#
# Bulk Modulus (GPa) = 27.57497 51.03452 39.30475
# Shear Modulus (GPa) = 20.12833 32.16811 26.14822
#
# Velocity S-wave (km/s) = 3.01713 3.81420 3.43884
# Velocity P-wave (km/s) = 4.96067 6.51751 5.79164
#
# Compressibility (1/GPa) = 0.03626477
#
# Stress axis : x y z
#
# Youngs Moduli (GPa) = 29.16614 89.30193 55.32971
#
# Poissons Ratio (x) = -0.10239 0.46314
# Poissons Ratio (y) = -0.03344 0.35536
# Poissons Ratio (z) = 0.24413 0.57355
#
# Static dielectric constant tensor:
#      x y z
#    x 3.988260 -0.011180 0.003490 
#    y -0.011180 4.481060 -0.259620 
#    z 0.003490 -0.259620 4.256670 
# 
# 
# High freq. dielectric constant tensor:
#      x y z
#    x 1.861890 0.005700 0.011230 
#    y 0.005700 1.878350 -0.006370 
#    z 0.011230 -0.006370 1.863650 
# 
# From -- ./inp_files/192514.got.cif
#   From: 2010.06.25/outbox.cif.g09.slc.cpg/sg2_97_cif.got.tgz:192514.got - 2010.06.27 13:26:56.
