data_PCOD8017506
_publ_section_title
;
Structure prediction by ZEFSAII (Michael W. Deem and Ramdas Pophale) SiO2 
 PCOD8017506
Probable space group: P -1
;
_chemical_formula_sum "Si O2"
_cell_formula_units_Z 16
_cell_length_a 9.078625
_cell_length_b 12.336192
_cell_length_c 15.066127
_cell_angle_alpha 99.357979
_cell_angle_beta 87.389938
_cell_angle_gamma 30.746917
_cell_volume 791.671188
_symmetry_space_group_name_H-M "P -1"
_symmetry_group_IT_number 2
_symmetry_cell_setting 'triclinic'
loop_
_space_group_symop_operation_xyz
x,y,z
-x,-y,-z
loop_
_atom_site_type_symbol
_atom_site_label
_atom_site_fract_x
_atom_site_fract_y
_atom_site_fract_z
Si Si1 0.208119 0.313476 0.542679
Si Si2 0.158975 0.222417 0.119317
Si Si3 0.445250 0.429436 0.932052
Si Si4 0.868514 0.857219 0.413422
Si Si5 0.143659 0.749742 0.568271
Si Si6 0.170480 0.831525 0.290790
Si Si7 0.650519 0.731765 0.008426
Si Si8 0.769730 0.488432 0.331968
O O1 0.011828 0.346540 0.603703
O O2 0.326500 0.329360 0.607462
O O3 0.000000 0.500000 0.500000
O O4 0.501633 0.077733 0.447955
O O5 0.335691 0.217694 0.081094
O O6 0.895951 0.349128 0.074501
O O7 0.014076 0.353098 0.231763
O O8 0.413452 0.963027 0.101390
O O9 0.713119 0.243361 0.824360
O O10 0.500000 0.500000 0.000000
O O11 0.480554 0.305840 0.984987
O O12 0.951854 0.876533 0.499489
O O13 0.988725 0.836758 0.317556
O O14 0.500000 0.500000 0.500000
O O15 0.062557 0.698342 0.624928
O O16 0.059435 0.915659 0.647672
O O17 0.461998 0.634140 0.322179
O O18 0.000000 0.500000 0.000000
#
# Coordination Sequence:
#
# PCOD8017506 Si02
#       8
#     2   2   2   2   2   2   2   2
#     4  11  23  39  55  82 123 159 189 237 295 337
#     4   9  20  37  63  88 110 149 202 238 287 357
#     4  10  22  39  61  89 121 150 188 249 305 345
#     4  11  23  38  57  86 121 158 195 238 289 348
#     4  12  21  35  64  87 118 157 199 241 287 342
#     4  11  23  39  60  89 116 153 207 240 283 358
#     4   9  18  39  61  83 114 149 192 239 293 345
#     4  11  21  37  60  87 114 154 199 242 285 345
#
# _framework density 20.21041
#
# number of rings (size 3 to 8) (size 9 to 14) (size 15 to 20)
#    0.000    1.500    3.750    1.875    0.000    1.500 
#    0.000    3.750    0.000    0.000    0.000    0.000 
#    0.000    0.000    0.000    0.000    0.000    0.000 
#
# Total GULP energy -198231.289047 kJ/mol
# GULP energy per Si atom -12389.455565 kJ/mol
# Density = 2.016441 g / cm^3
# Si number density = 20.210410 Si / 1000 Ang^3
#
#
#
# Elastic Constant Matrix: (Units=GPa)
#
#
# Indices 1 2 3 4 5 6 
#
# 1 127.7016 29.2873 55.8467 -4.1379 -29.1782 33.1297
# 2 29.2873 89.6441 32.4162 15.4750 -7.7852 17.1164
# 3 55.8467 32.4162 98.4547 6.7455 -16.6322 9.5884
# 4 -4.1379 15.4750 6.7455 26.2462 -0.0956 -3.2997
# 5 -29.1782 -7.7852 -16.6322 -0.0956 30.6645 -5.6960
# 6 33.1297 17.1164 9.5884 -3.2997 -5.6960 37.0010
#
#
#
# Elastic Compliance Matrix: (Units=1/GPa)
#
#
# Indices 1 2 3 4 5 6 
#
# 1 0.015680 -0.000581 -0.006314 0.003164 0.009425 -0.010401
# 2 -0.000581 0.015429 -0.003449 -0.009118 0.000258 -0.006497
# 3 -0.006314 -0.003449 0.015023 -0.002384 0.001895 0.003435
# 4 0.003164 -0.009118 -0.002384 0.045365 0.000687 0.006154
# 5 0.009425 0.000258 0.001895 0.000687 0.042212 -0.002490
# 6 -0.010401 -0.006497 0.003435 0.006154 -0.002490 0.038620
#
#
# Mechanical properties :
#
#
# Convention : Reuss Voigt Hill
#
# Bulk Modulus (GPa) = 39.30407 61.21123 50.25765
# Shear Modulus (GPa) = 24.81385 31.99904 28.40645
#
# Velocity S-wave (km/s) = 3.50776 3.98338 3.75311
# Velocity P-wave (km/s) = 5.99129 7.17699 6.61078
#
# Compressibility (1/GPa) = 0.02544266
#
# Stress axis : x y z
#
# Youngs Moduli (GPa) = 63.77582 64.81146 66.56302
#
# Poissons Ratio (x) = 0.03766 0.42031
# Poissons Ratio (y) = 0.03706 0.22961
# Poissons Ratio (z) = 0.40271 0.22357
#
# Static dielectric constant tensor:
#      x y z
#    x 3.470160 -0.046340 -0.429900 
#    y -0.046340 3.671270 -0.077700 
#    z -0.429900 -0.077700 3.693420 
# 
# 
# High freq. dielectric constant tensor:
#      x y z
#    x 1.785930 0.015620 -0.029640 
#    y 0.015620 1.797820 0.007920 
#    z -0.029640 0.007920 1.776550 
# 
# From -- ./inp_files/37541.got.cif
#   From: 2010.06.25/outbox.cif.g09.slc.cpg/sg2_19_cif.got.tgz:37541.got - 2010.06.27 13:26:56.
