data_PCOD8017565
_publ_section_title
;
Structure prediction by ZEFSAII (Michael W. Deem and Ramdas Pophale) SiO2 
 PCOD8017565
Probable space group: P -1
;
_chemical_formula_sum "Si O2"
_cell_formula_units_Z 16
_cell_length_a 11.970475
_cell_length_b 10.162845
_cell_length_c 8.825690
_cell_angle_alpha 46.410311
_cell_angle_beta 88.059778
_cell_angle_gamma 77.943278
_cell_volume 751.254415
_symmetry_space_group_name_H-M "P -1"
_symmetry_group_IT_number 2
_symmetry_cell_setting 'triclinic'
loop_
_space_group_symop_operation_xyz
x,y,z
-x,-y,-z
loop_
_atom_site_type_symbol
_atom_site_label
_atom_site_fract_x
_atom_site_fract_y
_atom_site_fract_z
Si Si1 0.841618 0.473973 0.607354
Si Si2 0.322412 0.136776 0.744673
Si Si3 0.913777 0.194535 0.312128
Si Si4 0.067249 0.492295 0.742016
Si Si5 0.664042 0.365431 0.226852
Si Si6 0.699474 0.755029 0.003212
Si Si7 0.455740 0.920257 0.418698
Si Si8 0.756324 0.234137 0.024373
O O1 0.772848 0.690248 0.460096
O O2 0.871729 0.427025 0.466910
O O3 0.957776 0.429346 0.736650
O O4 0.761633 0.346209 0.779379
O O5 0.346383 0.168272 0.892508
O O6 0.446386 0.114043 0.683968
O O7 0.271818 0.958647 0.864611
O O8 0.972835 0.355841 0.241795
O O9 0.791085 0.239173 0.372855
O O10 0.882066 0.201264 0.129135
O O11 0.000000 0.000000 0.500000
O O12 0.160539 0.312469 0.950937
O O13 0.644137 0.582368 0.101064
O O14 0.571179 0.278249 0.384289
O O15 0.657692 0.349827 0.054334
O O16 0.658940 0.924413 0.752502
O O17 0.500000 0.000000 0.500000
#
# Coordination Sequence:
#
# PCOD8017565 Si02
#       8
#     2   2   2   2   2   2   2   2
#     4  10  22  40  66  90 130 166 205 258 313 371
#     4  11  24  42  62  96 124 165 212 260 307 374
#     4   9  18  36  59  89 127 158 208 258 297 376
#     4   9  20  41  62  94 126 164 206 254 316 373
#     4   9  23  41  60  93 123 163 211 251 312 369
#     4  10  24  43  63  91 130 158 210 260 312 372
#     4  12  24  41  68  91 126 167 209 262 311 364
#     4  10  22  39  62  91 124 162 212 251 314 365
#
# _framework density 21.297712000000001
#
# number of rings (size 3 to 8) (size 9 to 14) (size 15 to 20)
#    0.750    1.250    1.250    1.125    1.750    6.500 
#    0.000    8.750    0.000    0.000    0.000    0.000 
#    0.000    0.000    0.000    0.000    0.000    0.000 
#
# Total GULP energy -198289.575008 kJ/mol
# GULP energy per Si atom -12393.098438 kJ/mol
# Density = 2.124924 g / cm^3
# Si number density = 21.297712 Si / 1000 Ang^3
#
#
#
# Elastic Constant Matrix: (Units=GPa)
#
#
# Indices 1 2 3 4 5 6 
#
# 1 53.4195 13.2399 35.1721 -3.7313 0.7488 0.7308
# 2 13.2399 107.9853 29.6450 -10.1550 -6.8952 3.0952
# 3 35.1721 29.6450 98.6937 0.3580 -11.8260 3.8308
# 4 -3.7313 -10.1550 0.3580 17.5105 6.0913 -4.1285
# 5 0.7488 -6.8952 -11.8260 6.0913 34.6382 -4.6035
# 6 0.7308 3.0952 3.8308 -4.1285 -4.6035 23.4089
#
#
#
# Elastic Compliance Matrix: (Units=1/GPa)
#
#
# Indices 1 2 3 4 5 6 
#
# 1 0.025837 -0.000095 -0.009870 0.007719 -0.005149 0.001170
# 2 -0.000095 0.010747 -0.003232 0.006347 -0.000049 0.000221
# 3 -0.009870 -0.003232 0.015408 -0.006733 0.005770 -0.001839
# 4 0.007719 0.006347 -0.006733 0.069081 -0.012043 0.009837
# 5 -0.005149 -0.000049 0.005770 -0.012043 0.033551 0.003697
# 6 0.001170 0.000221 -0.001839 0.009837 0.003697 0.045416
#
#
# Mechanical properties :
#
#
# Convention : Reuss Voigt Hill
#
# Bulk Modulus (GPa) = 39.06384 46.24584 42.65484
# Shear Modulus (GPa) = 21.27990 27.24762 24.26376
#
# Velocity S-wave (km/s) = 3.16438 3.58071 3.37896
# Velocity P-wave (km/s) = 5.63318 6.23349 5.94092
#
# Compressibility (1/GPa) = 0.02559912
#
# Stress axis : x y z
#
# Youngs Moduli (GPa) = 38.70437 93.05089 64.90308
#
# Poissons Ratio (x) = 0.00881 0.64057
# Poissons Ratio (y) = 0.00367 0.20975
# Poissons Ratio (z) = 0.38200 0.30072
#
# Static dielectric constant tensor:
#      x y z
#    x 3.669540 0.129990 0.150330 
#    y 0.129990 3.860930 0.014460 
#    z 0.150330 0.014460 3.767810 
# 
# 
# High freq. dielectric constant tensor:
#      x y z
#    x 1.827660 0.004310 0.007870 
#    y 0.004310 1.841370 0.004150 
#    z 0.007870 0.004150 1.826060 
# 
# From -- ./inp_files/242077.got.cif
#   From: 2010.06.25/outbox.cif.g09.slc.cpg/sg2_122_cif.got.tgz:242077.got - 2010.06.27 13:26:56.
