data_PCOD8017523
_publ_section_title
;
Structure prediction by ZEFSAII (Michael W. Deem and Ramdas Pophale) SiO2 
 PCOD8017523
Probable space group: P -1
;
_chemical_formula_sum "Si O2"
_cell_formula_units_Z 16
_cell_length_a 8.423262
_cell_length_b 9.368702
_cell_length_c 12.051300
_cell_angle_alpha 98.908183
_cell_angle_beta 54.867449
_cell_angle_gamma 99.443642
_cell_volume 765.076803
_symmetry_space_group_name_H-M "P -1"
_symmetry_group_IT_number 2
_symmetry_cell_setting 'triclinic'
loop_
_space_group_symop_operation_xyz
x,y,z
-x,-y,-z
loop_
_atom_site_type_symbol
_atom_site_label
_atom_site_fract_x
_atom_site_fract_y
_atom_site_fract_z
Si Si1 0.992019 0.534335 0.697929
Si Si2 0.281058 0.850392 0.480041
Si Si3 0.479706 0.701691 0.800309
Si Si4 0.706931 0.463529 0.603003
Si Si5 0.038357 0.063518 0.872436
Si Si6 0.110652 0.170721 0.256444
Si Si7 0.090579 0.623000 0.061391
Si Si8 0.412128 0.921557 0.672032
O O1 0.841615 0.523456 0.656201
O O2 0.972953 0.699500 0.768035
O O3 0.944265 0.423015 0.802678
O O4 0.199558 0.511193 0.554840
O O5 0.339302 0.707318 0.375598
O O6 0.383316 0.839491 0.557401
O O7 0.045866 0.854773 0.582003
O O8 0.371610 0.993427 0.395794
O O9 0.521467 0.557246 0.697132
O O10 0.670402 0.790052 0.785353
O O11 0.378266 0.806959 0.770593
O O12 0.322990 0.653914 0.952924
O O13 0.014648 0.232727 0.897358
O O14 0.260256 0.043108 0.750250
O O15 0.891714 0.973483 0.834650
O O16 0.000000 0.000000 0.000000
O O17 0.000000 0.500000 0.000000
#
# Coordination Sequence:
#
# PCOD8017523 Si02
#       8
#     2   2   2   2   2   2   2   2
#     4   9  20  42  62  94 127 162 213 254 319 372
#     4   9  20  39  63  92 124 166 208 260 321 370
#     4  11  24  41  62 100 127 166 213 260 324 373
#     4   9  20  38  67  90 125 167 203 267 312 366
#     4  11  22  43  63  85 125 174 210 256 316 372
#     4   9  21  41  66  88 128 162 204 268 313 373
#     4  12  27  41  64  96 130 170 215 261 318 388
#     4  10  22  39  61  93 126 162 214 259 315 382
#
# _framework density 20.912932999999999
#
# number of rings (size 3 to 8) (size 9 to 14) (size 15 to 20)
#    0.000    2.000    1.250    1.500    5.250    7.500 
#    2.250    0.000    0.000    0.000    0.000    0.000 
#    0.000    0.000    0.000    0.000    0.000    0.000 
#
# Total GULP energy -198325.718480 kJ/mol
# GULP energy per Si atom -12395.357405 kJ/mol
# Density = 2.086533 g / cm^3
# Si number density = 20.912933 Si / 1000 Ang^3
#
#
#
# Elastic Constant Matrix: (Units=GPa)
#
#
# Indices 1 2 3 4 5 6 
#
# 1 49.6249 11.9058 19.2975 5.4418 -12.4675 4.3571
# 2 11.9058 100.0910 31.5352 19.4260 3.2213 -5.1329
# 3 19.2975 31.5352 85.2809 -1.0187 1.3043 -8.0097
# 4 5.4418 19.4260 -1.0187 44.6648 -3.7824 0.0743
# 5 -12.4675 3.2213 1.3043 -3.7824 29.7442 -4.5099
# 6 4.3571 -5.1329 -8.0097 0.0743 -4.5099 36.8323
#
#
#
# Elastic Compliance Matrix: (Units=1/GPa)
#
#
# Indices 1 2 3 4 5 6 
#
# 1 0.025878 -0.001404 -0.005822 -0.001777 0.010539 -0.003229
# 2 -0.001404 0.012747 -0.004360 -0.005676 -0.002391 0.000713
# 3 -0.005822 -0.004360 0.015010 0.002791 -0.001799 0.003119
# 4 -0.001777 -0.005676 0.002791 0.025394 0.003029 0.000346
# 5 0.010539 -0.002391 -0.001799 0.003029 0.039188 0.002821
# 6 -0.003229 0.000713 0.003119 0.000346 0.002821 0.028654
#
#
# Mechanical properties :
#
#
# Convention : Reuss Voigt Hill
#
# Bulk Modulus (GPa) = 32.82761 40.05266 36.44013
# Shear Modulus (GPa) = 27.74734 33.73215 30.73975
#
# Velocity S-wave (km/s) = 3.64648 4.02055 3.83808
# Velocity P-wave (km/s) = 5.78450 6.38332 6.09127
#
# Compressibility (1/GPa) = 0.03046217
#
# Stress axis : x y z
#
# Youngs Moduli (GPa) = 38.64251 78.45140 66.62402
#
# Poissons Ratio (x) = 0.11011 0.38792
# Poissons Ratio (y) = 0.05424 0.29049
# Poissons Ratio (z) = 0.22499 0.34206
#
# Static dielectric constant tensor:
#      x y z
#    x 3.276920 0.243780 0.430090 
#    y 0.243780 4.026540 -0.164180 
#    z 0.430090 -0.164180 2.469410 
# 
# 
# High freq. dielectric constant tensor:
#      x y z
#    x 1.799960 0.012410 -0.008830 
#    y 0.012410 1.831450 0.005730 
#    z -0.008830 0.005730 1.817910 
# 
# From -- ./inp_files/298275.got.cif
#   From: 2010.06.25/outbox.cif.g09.slc.cpg/sg2_150_cif.got.tgz:298275.got - 2010.06.27 13:26:56.
