data_PCOD8017929
_publ_section_title
;
Structure prediction by ZEFSAII (Michael W. Deem and Ramdas Pophale) SiO2 
 PCOD8017929
Probable space group: P -1
;
_chemical_formula_sum "Si O2"
_cell_formula_units_Z 16
_cell_length_a 12.895647
_cell_length_b 17.114650
_cell_length_c 5.338497
_cell_angle_alpha 120.701306
_cell_angle_beta 123.063125
_cell_angle_gamma 48.170155
_cell_volume 715.174473
_symmetry_space_group_name_H-M "P -1"
_symmetry_group_IT_number 2
_symmetry_cell_setting 'triclinic'
loop_
_space_group_symop_operation_xyz
x,y,z
-x,-y,-z
loop_
_atom_site_type_symbol
_atom_site_label
_atom_site_fract_x
_atom_site_fract_y
_atom_site_fract_z
Si Si1 0.636577 0.410823 0.685568
Si Si2 0.795538 0.255542 0.239312
Si Si3 0.611723 0.241548 0.595303
Si Si4 0.836896 0.024798 0.319466
Si Si5 0.866297 0.907515 0.661369
Si Si6 0.817729 0.438840 0.323472
Si Si7 0.839266 0.712671 0.425317
Si Si8 0.712589 0.676500 0.697326
O O1 0.500000 0.500000 0.500000
O O2 0.749547 0.291757 0.521088
O O3 0.568255 0.366323 0.719101
O O4 0.735246 0.457921 0.978481
O O5 0.766187 0.368800 0.281158
O O6 0.959705 0.158500 0.254049
O O7 0.697387 0.212351 0.925938
O O8 0.462851 0.242729 0.400137
O O9 0.719845 0.152783 0.387483
O O10 0.801400 0.971190 0.418692
O O11 0.814864 0.985425 0.959423
O O12 0.000000 0.000000 0.500000
O O13 0.809764 0.829007 0.514476
O O14 0.759378 0.553426 0.554132
O O15 0.992187 0.375503 0.433833
O O16 0.759019 0.714195 0.575178
O O17 0.784408 0.682277 0.058170
#
# Coordination Sequence:
#
# PCOD8017929 Si02
#       8
#     2   2   2   2   2   2   2   2
#     4  11  23  40  69 101 147 175 215 280 363 409
#     4  10  22  39  68  99 140 174 218 284 357 405
#     4  11  26  41  66 104 139 176 225 282 351 409
#     4  12  24  44  73 109 132 171 222 288 348 413
#     4  11  25  45  72 100 137 170 232 283 341 397
#     4  10  24  41  68 101 133 184 230 282 333 408
#     4  11  27  46  70  96 136 189 236 277 327 394
#     4  12  26  45  67  99 138 186 236 277 326 404
#
# _framework density 22.372164000000001
#
# number of rings (size 3 to 8) (size 9 to 14) (size 15 to 20)
#    0.000    1.000    1.250    4.125   14.000    2.000 
#    0.000    3.750    0.000    0.000    0.000    0.000 
#    0.000    0.000    0.000    0.000    0.000    0.000 
#
# Total GULP energy -198212.935781 kJ/mol
# GULP energy per Si atom -12388.308486 kJ/mol
# Density = 2.232124 g / cm^3
# Si number density = 22.372164 Si / 1000 Ang^3
#
#
#
# Elastic Constant Matrix: (Units=GPa)
#
#
# Indices 1 2 3 4 5 6 
#
# 1 98.0936 34.5289 46.2912 -14.8410 11.0690 -9.5060
# 2 34.5289 90.2251 25.4311 -5.8627 19.5689 -1.6271
# 3 46.2912 25.4311 156.1563 -8.5311 17.2213 -17.0291
# 4 -14.8410 -5.8627 -8.5311 24.0504 2.1050 -9.7271
# 5 11.0690 19.5689 17.2213 2.1050 34.0256 -4.6049
# 6 -9.5060 -1.6271 -17.0291 -9.7271 -4.6049 27.8382
#
#
#
# Elastic Compliance Matrix: (Units=1/GPa)
#
#
# Indices 1 2 3 4 5 6 
#
# 1 0.015115 -0.004083 -0.002376 0.010382 -0.001072 0.006919
# 2 -0.004083 0.014303 -0.000514 0.000669 -0.006921 -0.001783
# 3 -0.002376 -0.000514 0.008224 0.003581 -0.002638 0.005004
# 4 0.010382 0.000669 0.003581 0.060412 -0.005804 0.025923
# 5 -0.001072 -0.006921 -0.002638 -0.005804 0.035613 0.001478
# 6 0.006919 -0.001783 0.005004 0.025923 0.001478 0.050544
#
#
# Mechanical properties :
#
#
# Convention : Reuss Voigt Hill
#
# Bulk Modulus (GPa) = 42.19874 61.88636 52.04255
# Shear Modulus (GPa) = 24.26539 33.06443 28.66491
#
# Velocity S-wave (km/s) = 3.29694 3.84855 3.58337
# Velocity P-wave (km/s) = 5.77894 6.88990 6.35873
#
# Compressibility (1/GPa) = 0.02369739
#
# Stress axis : x y z
#
# Youngs Moduli (GPa) = 66.16006 69.91545 121.59367
#
# Poissons Ratio (x) = 0.28545 0.28888
# Poissons Ratio (y) = 0.27012 0.06246
# Poissons Ratio (z) = 0.15718 0.03592
#
# Static dielectric constant tensor:
#      x y z
#    x 4.364760 0.336560 -0.253980 
#    y 0.336560 4.402810 -0.119600 
#    z -0.253980 -0.119600 4.406430 
# 
# 
# High freq. dielectric constant tensor:
#      x y z
#    x 1.880990 0.006780 -0.005840 
#    y 0.006780 1.893610 0.005750 
#    z -0.005840 0.005750 1.889460 
# 
# From -- ./inp_files/81645.got.cif
#   From: 2010.06.25/outbox.cif.g09.slc.cpg/sg2_41_cif.got.tgz:81645.got - 2010.06.27 13:26:56.
