data_PCOD8017655
_publ_section_title
;
Structure prediction by ZEFSAII (Michael W. Deem and Ramdas Pophale) SiO2 
 PCOD8017655
Probable space group: P -1
;
_chemical_formula_sum "Si O2"
_cell_formula_units_Z 14
_cell_length_a 8.838747
_cell_length_b 19.639515
_cell_length_c 4.944216
_cell_angle_alpha 106.573178
_cell_angle_beta 89.935968
_cell_angle_gamma 46.344038
_cell_volume 570.369320
_symmetry_space_group_name_H-M "P -1"
_symmetry_group_IT_number 2
_symmetry_cell_setting 'triclinic'
loop_
_space_group_symop_operation_xyz
x,y,z
-x,-y,-z
loop_
_atom_site_type_symbol
_atom_site_label
_atom_site_fract_x
_atom_site_fract_y
_atom_site_fract_z
Si Si1 0.909052 0.573245 0.834140
Si Si2 0.158542 0.094388 0.012487
Si Si3 0.421985 0.135523 0.223328
Si Si4 0.343288 0.627654 0.422166
Si Si5 0.516857 0.790716 0.203661
Si Si6 0.125248 0.834734 0.422293
Si Si7 0.215946 0.590564 0.870349
O O1 0.000000 0.500000 0.500000
O O2 0.986621 0.628956 0.882413
O O3 0.647842 0.674532 0.977155
O O4 0.000000 0.500000 0.000000
O O5 0.007017 0.152029 0.814829
O O6 0.379369 0.979900 0.797417
O O7 0.212971 0.155792 0.189309
O O8 0.039719 0.090759 0.248902
O O9 0.364625 0.212334 0.542511
O O10 0.499521 0.147879 0.966979
O O11 0.296834 0.720867 0.416898
O O12 0.229549 0.654092 0.744240
O O13 0.601772 0.529848 0.347240
O O14 0.246715 0.601149 0.192132
O O15 0.268440 0.854118 0.356192
#
# Coordination Sequence:
#
# PCOD8017655 Si02
#       7
#     2   2   2   2   2   2   2
#     4  12  26  44  67  96 141 184 227 277 346 404
#     4  11  26  46  74 101 143 183 229 301 350 415
#     4  11  26  49  70 105 138 184 240 283 356 431
#     4  10  22  39  63  95 132 165 235 273 337 396
#     4  12  27  44  74 104 142 184 237 288 349 426
#     4  12  25  42  70 108 139 185 226 301 345 416
#     4  10  22  40  64  92 126 185 218 284 324 404
#
# _framework density 24.545501000000002
#
# number of rings (size 3 to 8) (size 9 to 14) (size 15 to 20)
#    0.000    0.857    0.000    6.000    6.000    9.143 
#    0.000    0.000    0.000    0.000    0.000    0.000 
#    0.000    0.000    0.000    0.000    0.000    0.000 
#
# Total GULP energy -173650.081907 kJ/mol
# GULP energy per Si atom -12403.577279 kJ/mol
# Density = 2.448963 g / cm^3
# Si number density = 24.545501 Si / 1000 Ang^3
#
#
#
# Elastic Constant Matrix: (Units=GPa)
#
#
# Indices 1 2 3 4 5 6 
#
# 1 82.7477 20.2179 18.6590 -12.9748 -4.1742 3.7664
# 2 20.2179 85.9508 22.1712 -22.0326 -4.5475 1.0345
# 3 18.6590 22.1712 126.5520 -16.0342 -2.3646 -4.8247
# 4 -12.9748 -22.0326 -16.0342 48.3319 1.6323 -4.4185
# 5 -4.1742 -4.5475 -2.3646 1.6323 34.7365 -5.3481
# 6 3.7664 1.0345 -4.8247 -4.4185 -5.3481 32.2551
#
#
#
# Elastic Compliance Matrix: (Units=1/GPa)
#
#
# Indices 1 2 3 4 5 6 
#
# 1 0.013348 -0.002218 -0.001360 0.001973 0.000933 -0.001266
# 2 -0.002218 0.013938 -0.001398 0.005300 0.001298 0.000544
# 3 -0.001360 -0.001398 0.008684 0.002033 0.000434 0.001853
# 4 0.001973 0.005300 0.002033 0.024602 0.000428 0.003345
# 5 0.000933 0.001298 0.000434 0.000428 0.029837 0.004920
# 6 -0.001266 0.000544 0.001853 0.003345 0.004920 0.032684
#
#
# Mechanical properties :
#
#
# Convention : Reuss Voigt Hill
#
# Bulk Modulus (GPa) = 38.43815 46.37188 42.40501
# Shear Modulus (GPa) = 35.28122 38.67819 36.97970
#
# Velocity S-wave (km/s) = 3.79539 3.97391 3.88568
# Velocity P-wave (km/s) = 5.90768 6.32370 6.11922
#
# Compressibility (1/GPa) = 0.02601582
#
# Stress axis : x y z
#
# Youngs Moduli (GPa) = 74.91869 71.74723 115.15769
#
# Poissons Ratio (x) = 0.15916 0.15663
# Poissons Ratio (y) = 0.16620 0.16102
# Poissons Ratio (z) = 0.10190 0.10032
#
# Static dielectric constant tensor:
#      x y z
#    x 4.398580 -0.086470 -0.254630 
#    y -0.086470 4.282140 -0.026930 
#    z -0.254630 -0.026930 4.674380 
# 
# 
# High freq. dielectric constant tensor:
#      x y z
#    x 1.970330 -0.004920 -0.012310 
#    y -0.004920 1.983900 -0.006530 
#    z -0.012310 -0.006530 1.985120 
# 
# From -- ./inp_files/42659.got.cif
#   From: 2010.06.25/outbox.cif.g09.slc.cpg/sg2_22_cif.got.tgz:42659.got - 2010.06.27 13:26:56.
