data_PCOD8017677
_publ_section_title
;
Structure prediction by ZEFSAII (Michael W. Deem and Ramdas Pophale) SiO2 
 PCOD8017677
Probable space group: P -1
;
_chemical_formula_sum "Si O2"
_cell_formula_units_Z 16
_cell_length_a 16.087323
_cell_length_b 9.536456
_cell_length_c 6.330754
_cell_angle_alpha 63.286209
_cell_angle_beta 101.995539
_cell_angle_gamma 128.593492
_cell_volume 674.412939
_symmetry_space_group_name_H-M "P -1"
_symmetry_group_IT_number 2
_symmetry_cell_setting 'triclinic'
loop_
_space_group_symop_operation_xyz
x,y,z
-x,-y,-z
loop_
_atom_site_type_symbol
_atom_site_label
_atom_site_fract_x
_atom_site_fract_y
_atom_site_fract_z
Si Si1 0.393055 0.918712 0.623710
Si Si2 0.186688 0.143500 0.804981
Si Si3 0.929016 0.483580 0.661245
Si Si4 0.650076 0.640409 0.592483
Si Si5 0.199493 0.495858 0.748383
Si Si6 0.005722 0.724865 0.923073
Si Si7 0.471106 0.227045 0.800665
Si Si8 0.660372 0.866081 0.825482
O O1 0.314986 0.681568 0.772025
O O2 0.500000 0.000000 0.500000
O O3 0.432891 0.024834 0.802281
O O4 0.318900 0.968287 0.438804
O O5 0.231269 0.229842 0.533561
O O6 0.201861 0.312817 0.841026
O O7 0.243917 0.061151 0.010353
O O8 0.062357 0.955496 0.841039
O O9 0.823045 0.438826 0.529665
O O10 0.911451 0.319570 0.925843
O O11 0.000000 0.500000 0.500000
O O12 0.987921 0.687912 0.686814
O O13 0.597801 0.406319 0.715297
O O14 0.586848 0.685083 0.376741
O O15 0.643360 0.690519 0.796615
O O16 0.107642 0.423291 0.920920
O O17 0.444315 0.193971 0.058423
#
# Coordination Sequence:
#
# PCOD8017677 Si02
#       8
#     2   2   2   2   2   2   2   2
#     4  11  24  41  61  88 122 159 201 250 300 352
#     4  11  23  39  62  92 123 158 201 245 296 359
#     4   9  21  40  64  89 120 157 198 246 297 352
#     4   9  19  35  58  88 119 153 197 247 294 347
#     4  11  24  40  60  90 125 157 198 251 299 350
#     4  10  22  41  65  90 119 160 202 241 297 362
#     4   9  19  37  59  85 117 155 200 245 294 352
#     4  10  22  39  64  88 120 162 201 244 300 358
#
# _framework density 23.724339000000001
#
# number of rings (size 3 to 8) (size 9 to 14) (size 15 to 20)
#    0.000    2.000    0.000    2.250    0.000   17.000 
#    0.000    0.000    0.000    0.000    0.000    0.000 
#    0.000    0.000    0.000    0.000    0.000    0.000 
#
# Total GULP energy -198264.179455 kJ/mol
# GULP energy per Si atom -12391.511216 kJ/mol
# Density = 2.367034 g / cm^3
# Si number density = 23.724339 Si / 1000 Ang^3
#
#
#
# Elastic Constant Matrix: (Units=GPa)
#
#
# Indices 1 2 3 4 5 6 
#
# 1 65.2649 37.7984 24.2994 -3.1283 -11.5566 1.4432
# 2 37.7984 212.7417 49.1793 -2.1860 -27.2995 6.2258
# 3 24.2994 49.1793 96.4913 25.0392 -18.2658 6.1020
# 4 -3.1283 -2.1860 25.0392 27.8155 -1.5959 -13.6855
# 5 -11.5566 -27.2995 -18.2658 -1.5959 32.5073 -0.0562
# 6 1.4432 6.2258 6.1020 -13.6855 -0.0562 33.3339
#
#
#
# Elastic Compliance Matrix: (Units=1/GPa)
#
#
# Indices 1 2 3 4 5 6 
#
# 1 0.019638 -0.001656 -0.006824 0.010907 0.002300 0.005190
# 2 -0.001656 0.006129 -0.003253 0.003959 0.002927 0.001153
# 3 -0.006824 -0.003253 0.023671 -0.029613 0.006662 -0.015577
# 4 0.010907 0.003959 -0.029613 0.082592 -0.005317 0.038109
# 5 0.002300 0.002927 0.006662 -0.005317 0.037514 -0.003985
# 6 0.005190 0.001153 -0.015577 0.038109 -0.003985 0.048050
#
#
# Mechanical properties :
#
#
# Convention : Reuss Voigt Hill
#
# Bulk Modulus (GPa) = 38.50510 66.33914 52.42212
# Shear Modulus (GPa) = 20.02266 36.27938 28.15102
#
# Velocity S-wave (km/s) = 2.90827 3.91475 3.44843
# Velocity P-wave (km/s) = 5.24813 6.96110 6.16440
#
# Compressibility (1/GPa) = 0.02597059
#
# Stress axis : x y z
#
# Youngs Moduli (GPa) = 50.92284 163.14977 42.24596
#
# Poissons Ratio (x) = 0.27019 0.28831
# Poissons Ratio (y) = 0.08433 0.13743
# Poissons Ratio (z) = 0.34752 0.53073
#
# Static dielectric constant tensor:
#      x y z
#    x 4.159590 -0.003470 0.141080 
#    y -0.003470 4.235250 0.069320 
#    z 0.141080 0.069320 4.501230 
# 
# 
# High freq. dielectric constant tensor:
#      x y z
#    x 1.919770 -0.007590 0.001450 
#    y -0.007590 1.940420 0.009890 
#    z 0.001450 0.009890 1.939630 
# 
# From -- ./inp_files/106715.got.cif
#   From: 2010.06.25/outbox.cif.g09.slc.cpg/sg2_54_cif.got.tgz:106715.got - 2010.06.27 13:26:56.
