data_PCOD8017056
_publ_section_title
;
Structure prediction by ZEFSAII (Michael W. Deem and Ramdas Pophale) SiO2 
 PCOD8017056
Probable space group: P -1
;
_chemical_formula_sum "Si O2"
_cell_formula_units_Z 16
_cell_length_a 15.495949
_cell_length_b 11.676108
_cell_length_c 9.588367
_cell_angle_alpha 67.235947
_cell_angle_beta 132.772786
_cell_angle_gamma 142.925341
_cell_volume 719.163108
_symmetry_space_group_name_H-M "P -1"
_symmetry_group_IT_number 2
_symmetry_cell_setting 'triclinic'
loop_
_space_group_symop_operation_xyz
x,y,z
-x,-y,-z
loop_
_atom_site_type_symbol
_atom_site_label
_atom_site_fract_x
_atom_site_fract_y
_atom_site_fract_z
Si Si1 0.268692 0.718423 0.789944
Si Si2 0.111465 0.744225 0.378264
Si Si3 0.837614 0.924645 0.759891
Si Si4 0.183108 0.773346 0.951595
Si Si5 0.768478 0.332933 0.689236
Si Si6 0.398145 0.183749 0.969045
Si Si7 0.464913 0.636026 0.670132
Si Si8 0.804493 0.811158 0.458957
O O1 0.259006 0.822112 0.620085
O O2 0.274716 0.794669 0.904236
O O3 0.456109 0.796824 0.933469
O O4 0.098149 0.476629 0.701720
O O5 0.176747 0.738291 0.309942
O O6 0.107499 0.887455 0.290709
O O7 0.633019 0.737250 0.700317
O O8 0.830264 0.856532 0.630737
O O9 0.000000 0.000000 0.000000
O O10 0.954533 0.573074 0.804125
O O11 0.295581 0.784451 0.183125
O O12 0.213498 0.946908 0.921223
O O13 0.595934 0.271667 0.467590
O O14 0.466734 0.319243 0.115299
O O15 0.356749 0.237065 0.766963
O O16 0.275840 0.394922 0.551903
O O17 0.000000 0.000000 0.500000
#
# Coordination Sequence:
#
# PCOD8017056 Si02
#       8
#     2   2   2   2   2   2   2   2
#     4  10  22  37  68 102 140 178 229 290 342 415
#     4  10  22  43  68 102 139 181 228 286 351 413
#     4  12  29  48  75 103 144 186 236 293 356 423
#     4  10  22  38  63 102 139 178 226 285 354 404
#     4  10  22  42  68  98 139 185 224 289 349 419
#     4  12  24  41  71 100 141 181 238 287 346 419
#     4  12  27  46  72 103 145 185 242 286 353 418
#     4  12  29  49  73  99 140 192 241 292 349 420
#
# _framework density 22.248083000000001
#
# number of rings (size 3 to 8) (size 9 to 14) (size 15 to 20)
#    0.000    1.000    1.250    4.125    7.000    4.000 
#    0.000    0.000    0.000    0.000    0.000    0.000 
#    0.000    0.000    0.000    0.000    0.000    0.000 
#
# Total GULP energy -198400.184476 kJ/mol
# GULP energy per Si atom -12400.011530 kJ/mol
# Density = 2.219745 g / cm^3
# Si number density = 22.248083 Si / 1000 Ang^3
#
#
#
# Elastic Constant Matrix: (Units=GPa)
#
#
# Indices 1 2 3 4 5 6 
#
# 1 221.7066 55.8418 87.0268 15.0501 -48.9240 1.1102
# 2 55.8418 101.0822 30.5163 -5.1374 -22.7578 -11.6379
# 3 87.0268 30.5163 160.5088 -14.0866 -29.3547 -6.4302
# 4 15.0501 -5.1374 -14.0866 52.4282 1.6912 -1.2960
# 5 -48.9240 -22.7578 -29.3547 1.6912 55.9978 -1.9815
# 6 1.1102 -11.6379 -6.4302 -1.2960 -1.9815 39.1785
#
#
#
# Elastic Compliance Matrix: (Units=1/GPa)
#
#
# Indices 1 2 3 4 5 6 
#
# 1 0.007549 -0.002665 -0.003241 -0.003460 0.003866 -0.001457
# 2 -0.002665 0.012592 -0.000099 0.001980 0.002819 0.004008
# 3 -0.003241 -0.000099 0.008655 0.003235 0.001626 0.001672
# 4 -0.003460 0.001980 0.003235 0.021212 -0.001097 0.001864
# 5 0.003866 0.002819 0.001626 -0.001097 0.023343 0.002139
# 6 -0.001457 0.004008 0.001672 0.001864 0.002139 0.027200
#
#
# Mechanical properties :
#
#
# Convention : Reuss Voigt Hill
#
# Bulk Modulus (GPa) = 59.57724 92.22973 75.90349
# Shear Modulus (GPa) = 42.31648 50.18173 46.24911
#
# Velocity S-wave (km/s) = 4.36596 4.75442 4.56432
# Velocity P-wave (km/s) = 7.22857 8.46667 7.87200
#
# Compressibility (1/GPa) = 0.01678493
#
# Stress axis : x y z
#
# Youngs Moduli (GPa) = 132.45932 79.41605 115.54229
#
# Poissons Ratio (x) = 0.21165 0.37453
# Poissons Ratio (y) = 0.35302 0.01145
# Poissons Ratio (z) = 0.42936 0.00787
#
# Static dielectric constant tensor:
#      x y z
#    x 3.893890 0.040640 -0.146800 
#    y 0.040640 4.235570 0.013320 
#    z -0.146800 0.013320 4.285360 
# 
# 
# High freq. dielectric constant tensor:
#      x y z
#    x 1.875740 0.001730 -0.006770 
#    y 0.001730 1.888300 -0.000790 
#    z -0.006770 -0.000790 1.892130 
# 
# From -- ./inp_files/307172.got.cif
#   From: 2010.06.25/outbox.cif.g09.slc.cpg/sg2_154_cif.got.tgz:307172.got - 2010.06.27 13:26:56.
