data_PCOD8017918
_publ_section_title
;
Structure prediction by ZEFSAII (Michael W. Deem and Ramdas Pophale) SiO2 
 PCOD8017918
Probable space group: P -1
;
_chemical_formula_sum "Si O2"
_cell_formula_units_Z 16
_cell_length_a 11.011331
_cell_length_b 8.279452
_cell_length_c 8.908370
_cell_angle_alpha 92.782564
_cell_angle_beta 65.051900
_cell_angle_gamma 98.355145
_cell_volume 728.485133
_symmetry_space_group_name_H-M "P -1"
_symmetry_group_IT_number 2
_symmetry_cell_setting 'triclinic'
loop_
_space_group_symop_operation_xyz
x,y,z
-x,-y,-z
loop_
_atom_site_type_symbol
_atom_site_label
_atom_site_fract_x
_atom_site_fract_y
_atom_site_fract_z
Si Si1 0.057300 0.645189 0.081038
Si Si2 0.388428 0.170925 0.368036
Si Si3 0.862991 0.855510 0.706069
Si Si4 0.090662 0.770555 0.377604
Si Si5 0.345755 0.793633 0.441737
Si Si6 0.675195 0.331291 0.222757
Si Si7 0.629499 0.700599 0.298366
Si Si8 0.119138 0.145179 0.961991
O O1 0.065601 0.629054 0.256912
O O2 0.932975 0.742100 0.129802
O O3 0.205183 0.720514 0.945964
O O4 0.000000 0.500000 0.000000
O O5 0.284268 0.192307 0.290917
O O6 0.537327 0.229028 0.226839
O O7 0.364720 0.289521 0.523761
O O8 0.376381 0.989624 0.434006
O O9 0.968537 0.761041 0.558113
O O10 0.898182 0.051530 0.698096
O O11 0.867598 0.792262 0.870886
O O12 0.226797 0.736311 0.385471
O O13 0.296549 0.727549 0.627266
O O14 0.478670 0.716575 0.320104
O O15 0.668963 0.525147 0.222016
O O16 0.727677 0.854159 0.178523
O O17 0.000000 0.000000 0.000000
#
# Coordination Sequence:
#
# PCOD8017918 Si02
#       8
#     2   2   2   2   2   2   2   2
#     4  12  25  44  62  96 133 168 212 259 324 381
#     4  10  22  39  68  97 124 165 215 267 312 376
#     4  10  22  40  67  98 125 161 219 264 320 367
#     4  10  22  42  66  96 129 164 209 274 311 380
#     4  10  22  40  68  97 121 167 218 262 318 371
#     4  11  23  42  63  90 136 170 206 259 320 387
#     4  11  23  42  62  94 132 169 211 256 323 384
#     4  12  25  41  69  95 127 172 214 265 314 379
#
# _framework density 21.963387000000001
#
# number of rings (size 3 to 8) (size 9 to 14) (size 15 to 20)
#    0.000    1.250    2.500    4.500    7.000    1.000 
#    4.500    5.000    0.000    0.000    0.000    0.000 
#    0.000    0.000    0.000    0.000    0.000    0.000 
#
# Total GULP energy -198215.924298 kJ/mol
# GULP energy per Si atom -12388.495269 kJ/mol
# Density = 2.191340 g / cm^3
# Si number density = 21.963387 Si / 1000 Ang^3
#
#
#
# Elastic Constant Matrix: (Units=GPa)
#
#
# Indices 1 2 3 4 5 6 
#
# 1 171.5163 25.7500 81.3942 1.8790 11.3078 15.9205
# 2 25.7500 42.6718 2.4899 0.9407 6.0350 9.8625
# 3 81.3942 2.4899 128.7008 0.8492 -5.9144 15.0871
# 4 1.8790 0.9407 0.8492 28.7538 9.2953 -1.5434
# 5 11.3078 6.0350 -5.9144 9.2953 35.7210 2.9588
# 6 15.9205 9.8625 15.0871 -1.5434 2.9588 32.9095
#
#
#
# Elastic Compliance Matrix: (Units=1/GPa)
#
#
# Indices 1 2 3 4 5 6 
#
# 1 0.009778 -0.005062 -0.006253 0.000842 -0.003495 0.000007
# 2 -0.005062 0.028287 0.003447 -0.000496 -0.001859 -0.007465
# 3 -0.006253 0.003447 0.012346 -0.001652 0.004213 -0.004124
# 4 0.000842 -0.000496 -0.001652 0.038431 -0.010727 0.003266
# 5 -0.003495 -0.001859 0.004213 -0.010727 0.033166 -0.003168
# 6 0.000007 -0.007465 -0.004124 0.003266 -0.003168 0.034949
#
#
# Mechanical properties :
#
#
# Convention : Reuss Voigt Hill
#
# Bulk Modulus (GPa) = 28.83889 62.46190 45.65039
# Shear Modulus (GPa) = 27.13675 35.02718 31.08196
#
# Velocity S-wave (km/s) = 3.51884 3.99783 3.76596
# Velocity P-wave (km/s) = 5.44689 7.05769 6.30395
#
# Compressibility (1/GPa) = 0.03467540
#
# Stress axis : x y z
#
# Youngs Moduli (GPa) = 102.26727 35.35181 80.99860
#
# Poissons Ratio (x) = 0.17894 0.50650
# Poissons Ratio (y) = 0.51764 -0.27919
# Poissons Ratio (z) = 0.63949 -0.12185
#
# Static dielectric constant tensor:
#      x y z
#    x 3.505710 0.333270 3.927670 
#    y 0.333270 3.681350 -1.054350 
#    z 3.927670 -1.054350 -17.231200 
# 
# 
# High freq. dielectric constant tensor:
#      x y z
#    x 1.887530 0.005690 -0.009180 
#    y 0.005690 1.849200 -0.002110 
#    z -0.009180 -0.002110 1.857530 
# 
# From -- ./inp_files/239562.got.cif
#   From: 2010.06.25/outbox.cif.g09.slc.cpg/sg2_120_cif.got.tgz:239562.got - 2010.06.27 13:26:56.
