data_PCOD8017143
_publ_section_title
;
Structure prediction by ZEFSAII (Michael W. Deem and Ramdas Pophale) SiO2 
 PCOD8017143
Probable space group: P -1
;
_chemical_formula_sum "Si O2"
_cell_formula_units_Z 14
_cell_length_a 12.210560
_cell_length_b 11.091913
_cell_length_c 11.819768
_cell_angle_alpha 52.715580
_cell_angle_beta 149.282207
_cell_angle_gamma 124.487853
_cell_volume 646.536156
_symmetry_space_group_name_H-M "P -1"
_symmetry_group_IT_number 2
_symmetry_cell_setting 'triclinic'
loop_
_space_group_symop_operation_xyz
x,y,z
-x,-y,-z
loop_
_atom_site_type_symbol
_atom_site_label
_atom_site_fract_x
_atom_site_fract_y
_atom_site_fract_z
Si Si1 0.636295 0.178039 0.448545
Si Si2 0.837254 0.296842 0.795820
Si Si3 0.381062 0.629223 0.878111
Si Si4 0.704373 0.166407 0.982270
Si Si5 0.185476 0.103505 0.170145
Si Si6 0.318116 0.174500 0.797882
Si Si7 0.989548 0.374443 0.284565
O O1 0.726441 0.243933 0.610128
O O2 0.732286 0.283068 0.371939
O O3 0.375744 0.176217 0.214964
O O4 0.702218 0.007854 0.581234
O O5 0.687794 0.226843 0.805139
O O6 0.862121 0.480399 0.716792
O O7 0.073887 0.237705 0.055627
O O8 0.193222 0.562279 0.834708
O O9 0.500000 0.500000 0.000000
O O10 0.552278 0.746561 0.027549
O O11 0.468633 0.168074 0.825318
O O12 0.885442 0.277121 0.143836
O O13 0.773116 0.995354 0.146277
O O14 0.000000 0.000000 0.000000
O O15 0.122709 0.268497 0.539450
#
# Coordination Sequence:
#
# PCOD8017143 Si02
#       7
#     2   2   2   2   2   2   2
#     4  10  22  38  60  95 129 169 206 256 324 376
#     4  11  23  39  66  94 129 165 214 267 317 379
#     4  11  24  40  65  95 135 167 210 263 321 386
#     4  10  24  44  64  93 126 168 222 271 311 373
#     4   9  21  37  57  91 128 161 208 253 311 380
#     4  10  24  43  67  91 128 167 221 265 317 382
#     4  11  24  43  65  94 127 175 214 262 323 376
#
# _framework density 21.653853000000002
#
# number of rings (size 3 to 8) (size 9 to 14) (size 15 to 20)
#    0.000    1.714    0.000    2.571    8.000    6.286 
#    0.000    0.000    0.000    0.000    0.000    0.000 
#    0.000    0.000    0.000    0.000    0.000    0.000 
#
# Total GULP energy -173607.788596 kJ/mol
# GULP energy per Si atom -12400.556328 kJ/mol
# Density = 2.160457 g / cm^3
# Si number density = 21.653853 Si / 1000 Ang^3
#
#
#
# Elastic Constant Matrix: (Units=GPa)
#
#
# Indices 1 2 3 4 5 6 
#
# 1 87.1305 30.3939 27.1817 -2.8368 -14.3303 -2.0003
# 2 30.3939 116.0666 19.8047 -8.6662 -3.1832 1.9974
# 3 27.1817 19.8047 76.8273 0.2099 -2.1296 -6.1326
# 4 -2.8368 -8.6662 0.2099 34.9102 -0.0258 2.4376
# 5 -14.3303 -3.1832 -2.1296 -0.0258 38.6874 -6.7978
# 6 -2.0003 1.9974 -6.1326 2.4376 -6.7978 31.8771
#
#
#
# Elastic Compliance Matrix: (Units=1/GPa)
#
#
# Indices 1 2 3 4 5 6 
#
# 1 0.014731 -0.002995 -0.004185 0.000385 0.005225 0.001392
# 2 -0.002995 0.009856 -0.001619 0.002312 -0.000637 -0.001430
# 3 -0.004185 -0.001619 0.015126 -0.001025 -0.000368 0.002749
# 4 0.000385 0.002312 -0.001025 0.029438 -0.000161 -0.002603
# 5 0.005225 -0.000637 -0.000368 -0.000161 0.028846 0.006461
# 6 0.001392 -0.001430 0.002749 -0.002603 0.006461 0.033653
#
#
# Mechanical properties :
#
#
# Convention : Reuss Voigt Hill
#
# Bulk Modulus (GPa) = 45.21861 48.30946 46.76403
# Shear Modulus (GPa) = 31.92418 34.60456 33.26437
#
# Velocity S-wave (km/s) = 3.84382 4.00193 3.92367
# Velocity P-wave (km/s) = 6.37399 6.61153 6.49384
#
# Compressibility (1/GPa) = 0.02211479
#
# Stress axis : x y z
#
# Youngs Moduli (GPa) = 67.88275 101.45904 66.11039
#
# Poissons Ratio (x) = 0.30391 0.27667
# Poissons Ratio (y) = 0.20334 0.10704
# Poissons Ratio (z) = 0.28409 0.16427
#
# Static dielectric constant tensor:
#      x y z
#    x 3.972440 0.032500 0.164990 
#    y 0.032500 4.104330 -0.217780 
#    z 0.164990 -0.217780 4.039910 
# 
# 
# High freq. dielectric constant tensor:
#      x y z
#    x 1.843890 0.003160 0.002180 
#    y 0.003160 1.862050 -0.007380 
#    z 0.002180 -0.007380 1.850130 
# 
# From -- ./inp_files/63457.got.cif
#   From: 2010.06.25/outbox.cif.g09.slc.cpg/sg2_32_cif.got.tgz:63457.got - 2010.06.27 13:26:56.
