data_PCOD8017566
_publ_section_title
;
Structure prediction by ZEFSAII (Michael W. Deem and Ramdas Pophale) SiO2 
 PCOD8017566
Probable space group: P -1
;
_chemical_formula_sum "Si O2"
_cell_formula_units_Z 14
_cell_length_a 8.806750
_cell_length_b 11.540614
_cell_length_c 8.575405
_cell_angle_alpha 123.086442
_cell_angle_beta 64.958816
_cell_angle_gamma 92.164572
_cell_volume 639.789620
_symmetry_space_group_name_H-M "P -1"
_symmetry_group_IT_number 2
_symmetry_cell_setting 'triclinic'
loop_
_space_group_symop_operation_xyz
x,y,z
-x,-y,-z
loop_
_atom_site_type_symbol
_atom_site_label
_atom_site_fract_x
_atom_site_fract_y
_atom_site_fract_z
Si Si1 0.826130 0.964120 0.604739
Si Si2 0.697209 0.670859 0.936435
Si Si3 0.613587 0.800093 0.382105
Si Si4 0.806607 0.500132 0.046860
Si Si5 0.084241 0.164841 0.207619
Si Si6 0.729248 0.136305 0.240064
Si Si7 0.642027 0.260066 0.041787
O O1 0.739858 0.895859 0.453668
O O2 0.870475 0.849165 0.640149
O O3 0.691890 0.107139 0.825345
O O4 0.000000 0.000000 0.500000
O O5 0.621209 0.798582 0.188687
O O6 0.770257 0.522713 0.891949
O O7 0.547702 0.654289 0.870419
O O8 0.853488 0.703181 0.793177
O O9 0.682187 0.635459 0.291383
O O10 0.417809 0.865930 0.570904
O O11 0.778093 0.350192 0.003961
O O12 0.000000 0.500000 0.000000
O O13 0.877855 0.198106 0.299698
O O14 0.185958 0.022639 0.970506
O O15 0.642013 0.238779 0.211524
#
# Coordination Sequence:
#
# PCOD8017566 Si02
#       7
#     2   2   2   2   2   2   2
#     4  11  24  38  64  96 122 162 205 263 304 366
#     4  10  23  39  65  90 120 170 202 253 305 372
#     4  10  24  39  63  95 123 158 211 253 306 359
#     4  10  22  41  64  89 125 168 204 254 309 367
#     4  10  22  39  62  91 132 161 203 250 320 363
#     4  10  22  39  62  94 125 167 200 258 307 366
#     4  11  22  40  65  87 130 163 209 246 315 370
#
# _framework density 21.882190999999999
#
# number of rings (size 3 to 8) (size 9 to 14) (size 15 to 20)
#    0.857    0.857    0.000    3.857    8.000    4.000 
#    0.000    0.000    0.000    4.286    0.000    0.000 
#    0.000    0.000    0.000    0.000    0.000    0.000 
#
# Total GULP energy -173584.549565 kJ/mol
# GULP energy per Si atom -12398.896398 kJ/mol
# Density = 2.183239 g / cm^3
# Si number density = 21.882191 Si / 1000 Ang^3
#
#
#
# Elastic Constant Matrix: (Units=GPa)
#
#
# Indices 1 2 3 4 5 6 
#
# 1 135.9848 13.8796 13.1700 -4.8186 -9.8075 10.2434
# 2 13.8796 75.1356 4.9357 -10.5314 6.5079 8.7263
# 3 13.1700 4.9357 41.0619 -12.0575 -6.4660 5.4373
# 4 -4.8186 -10.5314 -12.0575 30.6361 7.4381 -7.3180
# 5 -9.8075 6.5079 -6.4660 7.4381 27.3356 -1.5916
# 6 10.2434 8.7263 5.4373 -7.3180 -1.5916 42.2048
#
#
#
# Elastic Compliance Matrix: (Units=1/GPa)
#
#
# Indices 1 2 3 4 5 6 
#
# 1 0.007999 -0.001600 -0.002055 -0.001172 0.003000 -0.001436
# 2 -0.001600 0.015182 -0.000279 0.005844 -0.005957 -0.001926
# 3 -0.002055 -0.000279 0.028602 0.009703 0.003378 -0.001319
# 4 -0.001172 0.005844 0.009703 0.041999 -0.010671 0.004706
# 5 0.003000 -0.005957 0.003378 -0.010671 0.042770 -0.000169
# 6 -0.001436 -0.001926 -0.001319 0.004706 -0.000169 0.025420
#
#
# Mechanical properties :
#
#
# Convention : Reuss Voigt Hill
#
# Bulk Modulus (GPa) = 22.77099 35.12810 28.94955
# Shear Modulus (GPa) = 27.10360 34.71509 30.90934
#
# Velocity S-wave (km/s) = 3.52321 3.98735 3.76245
# Velocity P-wave (km/s) = 5.19418 6.10629 5.66861
#
# Compressibility (1/GPa) = 0.04391553
#
# Stress axis : x y z
#
# Youngs Moduli (GPa) = 125.01421 65.86817 34.96300
#
# Poissons Ratio (x) = 0.10539 0.07184
# Poissons Ratio (y) = 0.20003 0.00974
# Poissons Ratio (z) = 0.25688 0.01836
#
# Static dielectric constant tensor:
#      x y z
#    x 3.988290 -0.090880 0.060740 
#    y -0.090880 3.914730 -0.099340 
#    z 0.060740 -0.099340 3.717670 
# 
# 
# High freq. dielectric constant tensor:
#      x y z
#    x 1.875780 -0.002930 -0.001890 
#    y -0.002930 1.859920 -0.013530 
#    z -0.001890 -0.013530 1.834820 
# 
# From -- ./inp_files/181857.got.cif
#   From: 2010.06.25/outbox.cif.g09.slc.cpg/sg2_91_cif.got.tgz:181857.got - 2010.06.27 13:26:56.
