data_PCOD8017962
_publ_section_title
;
Structure prediction by ZEFSAII (Michael W. Deem and Ramdas Pophale) SiO2 
 PCOD8017962
Probable space group: P -1
;
_chemical_formula_sum "Si O2"
_cell_formula_units_Z 14
_cell_length_a 32.234478
_cell_length_b 31.354097
_cell_length_c 12.685597
_cell_angle_alpha 161.311389
_cell_angle_beta 19.167102
_cell_angle_gamma 171.092872
_cell_volume 626.196671
_symmetry_space_group_name_H-M "P -1"
_symmetry_group_IT_number 2
_symmetry_cell_setting 'triclinic'
loop_
_space_group_symop_operation_xyz
x,y,z
-x,-y,-z
loop_
_atom_site_type_symbol
_atom_site_label
_atom_site_fract_x
_atom_site_fract_y
_atom_site_fract_z
Si Si1 0.768107 0.106130 0.682329
Si Si2 0.317988 0.667268 0.573263
Si Si3 0.651611 0.365344 0.807870
Si Si4 0.010444 0.843547 0.411622
Si Si5 0.934162 0.065962 0.744099
Si Si6 0.567107 0.693891 0.358771
Si Si7 0.218988 0.751379 0.648099
O O1 0.088707 0.392441 0.557666
O O2 0.608590 0.921211 0.525398
O O3 0.667342 0.911354 0.557196
O O4 0.719041 0.212005 0.083116
O O5 0.320153 0.583639 0.265132
O O6 0.734921 0.290668 0.454747
O O7 0.866922 0.636619 0.999070
O O8 0.363998 0.151640 0.036618
O O9 0.707204 0.527429 0.438375
O O10 0.006060 0.913228 0.472597
O O11 0.182886 0.099000 0.675353
O O12 0.166563 0.850527 0.044702
O O13 0.000000 0.000000 0.500000
O O14 0.500000 0.500000 0.000000
O O15 0.000000 0.500000 0.500000
O O16 0.500000 0.000000 0.500000
#
# Coordination Sequence:
#
# PCOD8017962 Si02
#       7
#     2   2   2   2   2   2   2
#     4  10  22  43  63  99 133 173 230 287 345 397
#     4  10  22  39  70  95 134 173 222 288 348 407
#     4  12  23  43  68 103 132 180 227 274 352 417
#     4  12  25  46  70 101 142 182 232 297 351 403
#     4  12  27  45  66  97 141 181 226 275 339 427
#     4  12  27  45  70  98 139 189 241 284 344 417
#     4  12  22  41  71 102 140 173 222 287 346 417
#
# _framework density 22.357192999999999
#
# number of rings (size 3 to 8) (size 9 to 14) (size 15 to 20)
#    0.000    0.571    2.857    5.143    0.000    6.857 
#    0.000    0.000    0.000    0.000    0.000    0.000 
#    0.000    0.000    0.000    0.000    0.000    0.000 
#
# Total GULP energy -173561.836223 kJ/mol
# GULP energy per Si atom -12397.274016 kJ/mol
# Density = 2.230631 g / cm^3
# Si number density = 22.357193 Si / 1000 Ang^3
#
#
#
# Elastic Constant Matrix: (Units=GPa)
#
#
# Indices 1 2 3 4 5 6 
#
# 1 158.5544 55.2039 48.7224 9.2063 4.1252 -9.5157
# 2 55.2039 161.4035 25.6881 4.3946 5.9713 0.6360
# 3 48.7224 25.6881 62.3437 5.1479 -6.5660 -7.0441
# 4 9.2063 4.3946 5.1479 31.0652 5.7009 5.8566
# 5 4.1252 5.9713 -6.5660 5.7009 44.1950 6.7746
# 6 -9.5157 0.6360 -7.0441 5.8566 6.7746 45.9973
#
#
#
# Elastic Compliance Matrix: (Units=1/GPa)
#
#
# Indices 1 2 3 4 5 6 
#
# 1 0.009119 -0.002048 -0.006176 -0.001367 -0.001525 0.001368
# 2 -0.002048 0.007174 -0.001537 0.000137 -0.000926 -0.000639
# 3 -0.006176 -0.001537 0.022386 -0.002789 0.004177 0.001912
# 4 -0.001367 0.000137 -0.002789 0.034640 -0.004080 -0.004521
# 5 -0.001525 -0.000926 0.004177 -0.004080 0.024462 -0.002746
# 6 0.001368 -0.000639 0.001912 -0.004521 -0.002746 0.023305
#
#
# Mechanical properties :
#
#
# Convention : Reuss Voigt Hill
#
# Bulk Modulus (GPa) = 52.19763 71.28117 61.73940
# Shear Modulus (GPa) = 34.01535 41.09730 37.55633
#
# Velocity S-wave (km/s) = 3.90481 4.29209 4.10302
# Velocity P-wave (km/s) = 6.61270 7.51763 7.07964
#
# Compressibility (1/GPa) = 0.01915796
#
# Stress axis : x y z
#
# Youngs Moduli (GPa) = 109.66200 139.39972 44.67060
#
# Poissons Ratio (x) = 0.28545 0.27589
# Poissons Ratio (y) = 0.22455 0.06864
# Poissons Ratio (z) = 0.67728 0.21420
#
# Static dielectric constant tensor:
#      x y z
#    x 4.277070 0.067040 0.074780 
#    y 0.067040 4.199980 0.024830 
#    z 0.074780 0.024830 3.898750 
# 
# 
# High freq. dielectric constant tensor:
#      x y z
#    x 1.895760 0.006510 0.005650 
#    y 0.006510 1.902580 0.002980 
#    z 0.005650 0.002980 1.872780 
# 
# From -- ./inp_files/477845.got.cif
#   From: 2010.06.25/outbox.cif.g09.slc.cpg/sg2_239_cif.got.tgz:477845.got - 2010.06.27 13:26:56.
