data_PCOD8017025
_publ_section_title
;
Structure prediction by ZEFSAII (Michael W. Deem and Ramdas Pophale) SiO2 
 PCOD8017025
Probable space group: P -1
;
_chemical_formula_sum "Si O2"
_cell_formula_units_Z 16
_cell_length_a 22.672167
_cell_length_b 14.630078
_cell_length_c 13.631495
_cell_angle_alpha 29.261286
_cell_angle_beta 21.126201
_cell_angle_gamma 33.375830
_cell_volume 790.713094
_symmetry_space_group_name_H-M "P -1"
_symmetry_group_IT_number 2
_symmetry_cell_setting 'triclinic'
loop_
_space_group_symop_operation_xyz
x,y,z
-x,-y,-z
loop_
_atom_site_type_symbol
_atom_site_label
_atom_site_fract_x
_atom_site_fract_y
_atom_site_fract_z
Si Si1 0.002552 0.874925 0.853807
Si Si2 0.630526 0.750254 0.111896
Si Si3 0.019123 0.205859 0.818672
Si Si4 0.987437 0.307757 0.463456
Si Si5 0.572495 0.519806 0.610117
Si Si6 0.627161 0.179339 0.718815
Si Si7 0.122343 0.434094 0.785191
Si Si8 0.796652 0.472744 0.795250
O O1 0.198055 0.819568 0.605443
O O2 0.950112 0.094179 0.713077
O O3 0.940745 0.807634 0.116488
O O4 0.916258 0.769226 0.001029
O O5 0.579434 0.634850 0.391557
O O6 0.513730 0.721872 0.227387
O O7 0.817172 0.679257 0.856531
O O8 0.601395 0.968087 0.985490
O O9 0.170073 0.308854 0.441520
O O10 0.851736 0.342831 0.925715
O O11 0.000000 0.000000 0.000000
O O12 0.896594 0.415065 0.413096
O O13 0.912297 0.395882 0.597480
O O14 0.622495 0.299782 0.713159
O O15 0.691612 0.588614 0.442851
O O16 0.392858 0.544594 0.914728
O O17 0.000000 0.500000 0.000000
#
# Coordination Sequence:
#
# PCOD8017025 Si02
#       8
#     2   2   2   2   2   2   2   2
#     4  11  22  42  68  96 128 171 221 270 318 387
#     4  10  22  39  64  93 129 163 214 266 334 382
#     4  11  23  43  70  99 134 170 206 263 335 397
#     4  11  23  43  67  95 127 174 222 262 322 393
#     4  12  25  41  63  93 132 170 216 272 320 373
#     4  10  22  37  64  98 126 163 212 276 323 386
#     4  12  24  44  66  90 129 180 226 267 316 375
#     4  11  26  40  68 102 130 166 216 265 330 396
#
# _framework density 20.234901000000001
#
# number of rings (size 3 to 8) (size 9 to 14) (size 15 to 20)
#    0.000    1.000    5.000    1.125    3.500    4.000 
#    0.000    0.625    0.000    0.000    0.000    0.000 
#    0.000    0.000    0.000    0.000    0.000    0.000 
#
# Total GULP energy -198415.482505 kJ/mol
# GULP energy per Si atom -12400.967657 kJ/mol
# Density = 2.018884 g / cm^3
# Si number density = 20.234901 Si / 1000 Ang^3
#
#
#
# Elastic Constant Matrix: (Units=GPa)
#
#
# Indices 1 2 3 4 5 6 
#
# 1 75.8893 28.6228 40.1675 -7.7686 -11.4088 7.9095
# 2 28.6228 90.8646 55.1293 -17.0983 -2.0373 4.5873
# 3 40.1675 55.1293 125.6864 -3.1357 -17.6996 -3.8035
# 4 -7.7686 -17.0983 -3.1357 37.0839 1.3469 -5.6356
# 5 -11.4088 -2.0373 -17.6996 1.3469 37.0813 -1.1849
# 6 7.9095 4.5873 -3.8035 -5.6356 -1.1849 30.9219
#
#
#
# Elastic Compliance Matrix: (Units=1/GPa)
#
#
# Indices 1 2 3 4 5 6 
#
# 1 0.017315 -0.002386 -0.004152 0.001426 0.003028 -0.004210
# 2 -0.002386 0.017464 -0.007282 0.006796 -0.003554 -0.001774
# 3 -0.004152 -0.007282 0.013193 -0.002764 0.004830 0.003447
# 4 0.001426 0.006796 -0.002764 0.030803 -0.001503 0.003843
# 5 0.003028 -0.003554 0.004830 -0.001503 0.030103 0.001227
# 6 -0.004210 -0.001774 0.003447 0.003843 0.001227 0.034851
#
#
# Mechanical properties :
#
#
# Convention : Reuss Voigt Hill
#
# Bulk Modulus (GPa) = 49.18734 60.03108 54.60921
# Shear Modulus (GPa) = 28.06662 32.25213 30.15938
#
# Velocity S-wave (km/s) = 3.72834 3.99668 3.86484
# Velocity P-wave (km/s) = 6.54942 7.14349 6.85290
#
# Compressibility (1/GPa) = 0.02033043
#
# Stress axis : x y z
#
# Youngs Moduli (GPa) = 57.75403 57.26065 75.79741
#
# Poissons Ratio (x) = 0.13663 0.31474
# Poissons Ratio (y) = 0.13781 0.55197
# Poissons Ratio (z) = 0.23982 0.41698
#
# Static dielectric constant tensor:
#      x y z
#    x 9.847030 -2.058550 -2.342760 
#    y -2.058550 4.518000 0.535860 
#    z -2.342760 0.535860 4.621740 
# 
# 
# High freq. dielectric constant tensor:
#      x y z
#    x 1.786970 0.000270 -0.002530 
#    y 0.000270 1.795560 -0.018650 
#    z -0.002530 -0.018650 1.796080 
# 
# From -- ./inp_files/454403.got.cif
#   From: 2010.06.25/outbox.cif.g09.slc.cpg/sg2_228_cif.got.tgz:454403.got - 2010.06.27 13:26:56.
