data_PCOD8017934
_publ_section_title
;
Structure prediction by ZEFSAII (Michael W. Deem and Ramdas Pophale) SiO2 
 PCOD8017934
Probable space group: P -1
;
_chemical_formula_sum "Si O2"
_cell_formula_units_Z 14
_cell_length_a 10.216789
_cell_length_b 14.606988
_cell_length_c 13.849047
_cell_angle_alpha 27.636445
_cell_angle_beta 52.201400
_cell_angle_gamma 36.781812
_cell_volume 538.157879
_symmetry_space_group_name_H-M "P -1"
_symmetry_group_IT_number 2
_symmetry_cell_setting 'triclinic'
loop_
_space_group_symop_operation_xyz
x,y,z
-x,-y,-z
loop_
_atom_site_type_symbol
_atom_site_label
_atom_site_fract_x
_atom_site_fract_y
_atom_site_fract_z
Si Si1 0.226189 0.219753 0.419479
Si Si2 0.994237 0.633207 0.976064
Si Si3 0.685166 0.398324 0.681935
Si Si4 0.532016 0.937702 0.156243
Si Si5 0.045249 0.923861 0.316051
Si Si6 0.812540 0.312932 0.329242
Si Si7 0.007077 0.331497 0.734118
O O1 0.123186 0.478585 0.290387
O O2 0.164266 0.049696 0.642551
O O3 0.500000 0.000000 0.500000
O O4 0.122399 0.345950 0.241424
O O5 0.113498 0.551314 0.890989
O O6 0.719924 0.821643 0.909103
O O7 0.040556 0.797287 0.861481
O O8 0.633642 0.638598 0.417738
O O9 0.801095 0.157196 0.773406
O O10 0.455144 0.515435 0.731869
O O11 0.868280 0.264739 0.812682
O O12 0.719004 0.942772 0.108486
O O13 0.500000 0.000000 0.000000
O O14 0.186548 0.679443 0.561705
O O15 0.000000 0.000000 0.500000
O O16 0.000000 0.500000 0.500000
#
# Coordination Sequence:
#
# PCOD8017934 Si02
#       7
#     2   2   2   2   2   2   2
#     4  12  27  46  70 103 145 186 235 295 363 420
#     4  11  25  46  72 107 139 186 239 296 352 420
#     4  11  21  42  69 106 146 188 232 292 356 420
#     4  11  19  39  73 102 139 183 239 282 347 417
#     4  11  23  44  74 102 138 191 239 285 356 417
#     4  10  22  39  69 105 145 186 230 297 353 417
#     4  10  22  41  71 101 141 188 227 290 356 406
#
# _framework density 26.014669000000001
#
# number of rings (size 3 to 8) (size 9 to 14) (size 15 to 20)
#    0.000    1.143    7.143    0.429    4.000    1.143 
#    0.000    5.000    0.000    0.000    0.000    0.000 
#    0.000    0.000    0.000    0.000    0.000    0.000 
#
# Total GULP energy -173498.873101 kJ/mol
# GULP energy per Si atom -12392.776650 kJ/mol
# Density = 2.595546 g / cm^3
# Si number density = 26.014669 Si / 1000 Ang^3
#
#
#
# Elastic Constant Matrix: (Units=GPa)
#
#
# Indices 1 2 3 4 5 6 
#
# 1 134.4130 92.3204 33.9828 -5.0851 27.3384 -16.5526
# 2 92.3204 159.4103 29.5181 8.8245 0.9055 -22.4555
# 3 33.9828 29.5181 85.7200 7.8298 5.6587 -13.6017
# 4 -5.0851 8.8245 7.8298 51.7249 3.2387 1.5841
# 5 27.3384 0.9055 5.6587 3.2387 41.2973 -6.4038
# 6 -16.5526 -22.4555 -13.6017 1.5841 -6.4038 64.1834
#
#
#
# Elastic Compliance Matrix: (Units=1/GPa)
#
#
# Indices 1 2 3 4 5 6 
#
# 1 0.017335 -0.009737 -0.003334 0.004605 -0.011303 -0.000884
# 2 -0.009737 0.012463 -0.000148 -0.003571 0.006875 0.002592
# 3 -0.003334 -0.000148 0.013541 -0.002472 0.000875 0.002106
# 4 0.004605 -0.003571 -0.002472 0.021100 -0.004528 -0.001558
# 5 -0.011303 0.006875 0.000875 -0.004528 0.032248 0.003005
# 6 -0.000884 0.002592 0.002106 -0.001558 0.003005 0.017044
#
#
# Mechanical properties :
#
#
# Convention : Reuss Voigt Hill
#
# Bulk Modulus (GPa) = 59.16848 76.79844 67.98346
# Shear Modulus (GPa) = 34.29289 46.35593 40.32441
#
# Velocity S-wave (km/s) = 3.63466 4.22585 3.94136
# Velocity P-wave (km/s) = 6.35673 7.30724 6.84849
#
# Compressibility (1/GPa) = 0.01690089
#
# Stress axis : x y z
#
# Youngs Moduli (GPa) = 57.68712 80.23463 73.85120
#
# Poissons Ratio (x) = 0.78126 0.24621
# Poissons Ratio (y) = 0.56171 0.01093
# Poissons Ratio (z) = 0.19232 0.01187
#
# Static dielectric constant tensor:
#      x y z
#    x 18.259840 -2.520640 2.590920 
#    y -2.520640 5.241190 -0.176280 
#    z 2.590920 -0.176280 5.654640 
# 
# 
# High freq. dielectric constant tensor:
#      x y z
#    x 2.061390 -0.001050 -0.008680 
#    y -0.001050 2.050640 0.015370 
#    z -0.008680 0.015370 2.050980 
# 
# From -- ./inp_files/298250.got.cif
#   From: 2010.06.25/outbox.cif.g09.slc.cpg/sg2_150_cif.got.tgz:298250.got - 2010.06.27 13:26:56.
