data_PCOD8017377
_publ_section_title
;
Structure prediction by ZEFSAII (Michael W. Deem and Ramdas Pophale) SiO2 
 PCOD8017377
Probable space group: P -1
;
_chemical_formula_sum "Si O2"
_cell_formula_units_Z 14
_cell_length_a 8.595915
_cell_length_b 15.003439
_cell_length_c 18.398601
_cell_angle_alpha 160.499489
_cell_angle_beta 80.015392
_cell_angle_gamma 108.600577
_cell_volume 687.274800
_symmetry_space_group_name_H-M "P -1"
_symmetry_group_IT_number 2
_symmetry_cell_setting 'triclinic'
loop_
_space_group_symop_operation_xyz
x,y,z
-x,-y,-z
loop_
_atom_site_type_symbol
_atom_site_label
_atom_site_fract_x
_atom_site_fract_y
_atom_site_fract_z
Si Si1 0.717541 0.738108 0.106459
Si Si2 0.696945 0.700333 0.667754
Si Si3 0.567299 0.559385 0.823235
Si Si4 0.632703 0.219731 0.096275
Si Si5 0.849523 0.667442 0.772710
Si Si6 0.524141 0.081856 0.644755
Si Si7 0.941673 0.708911 0.532494
O O1 0.649397 0.914252 0.302192
O O2 0.597491 0.656740 0.979975
O O3 0.690666 0.421675 0.901630
O O4 0.930161 0.942665 0.233097
O O5 0.500000 0.500000 0.500000
O O6 0.695697 0.580485 0.657156
O O7 0.853714 0.678626 0.594836
O O8 0.742367 0.051427 0.929651
O O9 0.474817 0.735437 0.926833
O O10 0.764424 0.663219 0.854321
O O11 0.449891 0.195053 0.536971
O O12 0.777936 0.546619 0.364888
O O13 0.500000 0.000000 0.000000
O O14 0.928050 0.437218 0.585926
O O15 0.000000 0.000000 0.000000
O O16 0.500000 0.000000 0.500000
#
# Coordination Sequence:
#
# PCOD8017377 Si02
#       7
#     2   2   2   2   2   2   2
#     4  10  22  38  69  98 116 158 217 264 314 372
#     4  12  25  39  58  85 131 176 212 246 302 375
#     4  11  22  40  64  90 129 169 204 255 321 370
#     4  12  24  42  56  88 135 174 203 249 309 371
#     4  12  22  38  59  90 128 165 212 260 301 361
#     4   9  20  42  67  95 124 153 206 270 325 369
#     4  12  24  39  62  92 124 168 215 262 303 361
#
# _framework density 20.370311000000001
#
# number of rings (size 3 to 8) (size 9 to 14) (size 15 to 20)
#    0.000    0.857    5.714    1.286    2.000    1.143 
#    0.000    0.714    0.000    8.571    0.000    0.000 
#    0.000    0.000    0.000    0.000    0.000    0.000 
#
# Total GULP energy -173541.430883 kJ/mol
# GULP energy per Si atom -12395.816492 kJ/mol
# Density = 2.032395 g / cm^3
# Si number density = 20.370311 Si / 1000 Ang^3
#
#
#
# Elastic Constant Matrix: (Units=GPa)
#
#
# Indices 1 2 3 4 5 6 
#
# 1 79.4547 31.1732 22.6275 -1.1022 -2.4980 1.8537
# 2 31.1732 93.1904 31.0917 -2.1538 -0.2915 10.8284
# 3 22.6275 31.0917 92.6910 7.7661 9.4256 4.9559
# 4 -1.1022 -2.1538 7.7661 42.6867 8.8865 -3.4689
# 5 -2.4980 -0.2915 9.4256 8.8865 43.0728 -2.1196
# 6 1.8537 10.8284 4.9559 -3.4689 -2.1196 28.1077
#
#
#
# Elastic Compliance Matrix: (Units=1/GPa)
#
#
# Indices 1 2 3 4 5 6 
#
# 1 0.015003 -0.004334 -0.002450 0.000437 0.001349 0.001268
# 2 -0.004334 0.013853 -0.003448 0.000818 0.000215 -0.004326
# 3 -0.002450 -0.003448 0.013062 -0.002168 -0.002639 -0.001280
# 4 0.000437 0.000818 -0.002168 0.025042 -0.004524 0.002788
# 5 0.001349 0.000215 -0.002639 -0.004524 0.024886 0.001612
# 6 0.001268 -0.004326 -0.001280 0.002788 0.001612 0.037852
#
#
# Mechanical properties :
#
#
# Convention : Reuss Voigt Hill
#
# Bulk Modulus (GPa) = 46.61318 48.34676 47.47997
# Shear Modulus (GPa) = 31.78368 34.80301 33.29335
#
# Velocity S-wave (km/s) = 3.95434 4.13790 4.04716
# Velocity P-wave (km/s) = 6.61677 6.82753 6.72298
#
# Compressibility (1/GPa) = 0.02145316
#
# Stress axis : x y z
#
# Youngs Moduli (GPa) = 66.65362 72.18582 76.55978
#
# Poissons Ratio (x) = 0.31287 0.18759
# Poissons Ratio (y) = 0.28889 0.26397
# Poissons Ratio (z) = 0.16332 0.24889
#
# Static dielectric constant tensor:
#      x y z
#    x 3.547970 0.107660 -0.171280 
#    y 0.107660 -0.533630 -2.900900 
#    z -0.171280 -2.900900 2.405350 
# 
# 
# High freq. dielectric constant tensor:
#      x y z
#    x 1.770990 0.014220 -0.012160 
#    y 0.014220 1.798580 -0.001160 
#    z -0.012160 -0.001160 1.816150 
# 
# From -- ./inp_files/51031.got.cif
#   From: 2010.06.25/outbox.cif.g09.slc.cpg/sg2_26_cif.got.tgz:51031.got - 2010.06.27 13:26:56.
