data_PCOD8017586
_publ_section_title
;
Structure prediction by ZEFSAII (Michael W. Deem and Ramdas Pophale) SiO2 
 PCOD8017586
Probable space group: P -1
;
_chemical_formula_sum "Si O2"
_cell_formula_units_Z 16
_cell_length_a 10.365771
_cell_length_b 14.581107
_cell_length_c 11.695968
_cell_angle_alpha 31.073476
_cell_angle_beta 68.625807
_cell_angle_gamma 56.468098
_cell_volume 735.906557
_symmetry_space_group_name_H-M "P -1"
_symmetry_group_IT_number 2
_symmetry_cell_setting 'triclinic'
loop_
_space_group_symop_operation_xyz
x,y,z
-x,-y,-z
loop_
_atom_site_type_symbol
_atom_site_label
_atom_site_fract_x
_atom_site_fract_y
_atom_site_fract_z
Si Si1 0.894385 0.107816 0.527890
Si Si2 0.224489 0.713484 0.212278
Si Si3 0.439601 0.627305 0.025499
Si Si4 0.024173 0.556383 0.777429
Si Si5 0.618935 0.185627 0.381316
Si Si6 0.722234 0.725605 0.839382
Si Si7 0.128191 0.427990 0.632960
Si Si8 0.110336 0.055733 0.056171
O O1 0.923760 0.288100 0.359788
O O2 0.716569 0.192772 0.450398
O O3 0.928346 0.961813 0.781245
O O4 0.000000 0.000000 0.500000
O O5 0.259146 0.492823 0.486309
O O6 0.224536 0.840929 0.186870
O O7 0.361683 0.689669 0.108451
O O8 0.056581 0.824774 0.083135
O O9 0.325695 0.792307 0.789036
O O10 0.606323 0.630173 0.976454
O O11 0.457282 0.406727 0.217937
O O12 0.031332 0.548699 0.647730
O O13 0.840955 0.633194 0.790312
O O14 0.157486 0.338414 0.021942
O O15 0.611627 0.975418 0.608302
O O16 0.000000 0.500000 0.500000
O O17 0.204521 0.184049 0.885033
#
# Coordination Sequence:
#
# PCOD8017586 Si02
#       8
#     2   2   2   2   2   2   2   2
#     4  12  21  39  69  98 129 168 212 278 328 376
#     4  10  22  42  63  94 129 171 217 267 315 390
#     4  11  25  42  64  93 136 174 215 258 330 392
#     4  11  23  41  68 101 130 162 225 272 322 383
#     4  11  24  41  61  95 131 173 214 263 326 391
#     4  11  24  42  66  98 132 168 211 275 326 382
#     4  10  22  39  62  95 128 165 211 266 317 376
#     4  10  22  39  67  95 127 168 219 266 326 373
#
# _framework density 21.741890000000001
#
# number of rings (size 3 to 8) (size 9 to 14) (size 15 to 20)
#    0.000    1.250    3.750    1.875    1.750    5.000 
#    0.000    2.500    0.000    3.000    0.000    0.000 
#    0.000    0.000    0.000    0.000    0.000    0.000 
#
# Total GULP energy -198238.397443 kJ/mol
# GULP energy per Si atom -12389.899840 kJ/mol
# Density = 2.169240 g / cm^3
# Si number density = 21.741890 Si / 1000 Ang^3
#
#
#
# Elastic Constant Matrix: (Units=GPa)
#
#
# Indices 1 2 3 4 5 6 
#
# 1 63.5867 39.7336 24.0068 5.0868 -16.5307 10.4752
# 2 39.7336 127.6590 60.2128 20.6440 -12.9559 25.3348
# 3 24.0068 60.2128 130.8320 -1.4307 -19.8645 9.1816
# 4 5.0868 20.6440 -1.4307 43.8490 4.8244 1.4780
# 5 -16.5307 -12.9559 -19.8645 4.8244 32.4635 6.5022
# 6 10.4752 25.3348 9.1816 1.4780 6.5022 31.3239
#
#
#
# Elastic Compliance Matrix: (Units=1/GPa)
#
#
# Indices 1 2 3 4 5 6 
#
# 1 0.022534 -0.004385 0.000007 -0.001572 0.011213 -0.006244
# 2 -0.004385 0.014850 -0.004884 -0.006718 0.003615 -0.009546
# 3 0.000007 -0.004884 0.010563 0.002183 0.004219 -0.000127
# 4 -0.001572 -0.006718 0.002183 0.026832 -0.007246 0.005557
# 5 0.011213 0.003615 0.004219 -0.007246 0.045001 -0.016909
# 6 -0.006244 -0.009546 -0.000127 0.005557 -0.016909 0.045018
#
#
# Mechanical properties :
#
#
# Convention : Reuss Voigt Hill
#
# Bulk Modulus (GPa) = 33.98907 63.33157 48.66032
# Shear Modulus (GPa) = 25.88921 34.73558 30.31239
#
# Velocity S-wave (km/s) = 3.45447 4.00138 3.73794
# Velocity P-wave (km/s) = 5.61944 7.10916 6.40774
#
# Compressibility (1/GPa) = 0.02942122
#
# Stress axis : x y z
#
# Youngs Moduli (GPa) = 44.37799 67.34149 94.66669
#
# Poissons Ratio (x) = 0.29532 -0.00066
# Poissons Ratio (y) = 0.19462 0.46238
# Poissons Ratio (z) = -0.00031 0.32892
#
# Static dielectric constant tensor:
#      x y z
#    x 3.451040 1.351360 -0.007260 
#    y 1.351360 0.519430 -0.322460 
#    z -0.007260 -0.322460 4.638820 
# 
# 
# High freq. dielectric constant tensor:
#      x y z
#    x 1.832820 0.032540 -0.007740 
#    y 0.032540 1.845890 0.003840 
#    z -0.007740 0.003840 1.877290 
# 
# From -- ./inp_files/432271.got.cif
#   From: 2010.06.25/outbox.cif.g09.slc.cpg/sg2_217_cif.got.tgz:432271.got - 2010.06.27 13:26:56.
