data_PCOD8017901
_publ_section_title
;
Structure prediction by ZEFSAII (Michael W. Deem and Ramdas Pophale) SiO2 
 PCOD8017901
Probable space group: P -1
;
_chemical_formula_sum "Si O2"
_cell_formula_units_Z 14
_cell_length_a 9.542688
_cell_length_b 18.195774
_cell_length_c 16.977708
_cell_angle_alpha 22.992502
_cell_angle_beta 29.167194
_cell_angle_gamma 30.233306
_cell_volume 532.443853
_symmetry_space_group_name_H-M "P -1"
_symmetry_group_IT_number 2
_symmetry_cell_setting 'triclinic'
loop_
_space_group_symop_operation_xyz
x,y,z
-x,-y,-z
loop_
_atom_site_type_symbol
_atom_site_label
_atom_site_fract_x
_atom_site_fract_y
_atom_site_fract_z
Si Si1 0.717842 0.085159 0.680287
Si Si2 0.059669 0.216142 0.886557
Si Si3 0.337175 0.008939 0.810072
Si Si4 0.161780 0.722362 0.906758
Si Si5 0.726586 0.485667 0.330755
Si Si6 0.643399 0.576692 0.113173
Si Si7 0.318921 0.368327 0.373337
O O1 0.624495 0.052388 0.669039
O O2 0.855677 0.264392 0.448592
O O3 0.399240 0.146256 0.825696
O O4 0.965435 0.887682 0.781476
O O5 0.987497 0.444362 0.667486
O O6 0.056919 0.072471 0.952882
O O7 0.836756 0.192477 0.088911
O O8 0.250200 0.162476 0.627554
O O9 0.465732 0.776098 0.954025
O O10 0.502779 0.643153 0.785612
O O11 0.014849 0.544926 0.160136
O O12 0.500000 0.500000 0.500000
O O13 0.568104 0.621712 0.198932
O O14 0.516395 0.406771 0.310987
O O15 0.000000 0.500000 0.000000
#
# Coordination Sequence:
#
# PCOD8017901 Si02
#       7
#     2   2   2   2   2   2   2
#     4  10  22  39  68  90 126 163 225 254 317 373
#     4  10  23  45  65  94 131 176 215 259 324 387
#     4  10  23  41  65  92 131 171 214 258 321 389
#     4  12  24  42  67  98 128 167 221 270 318 375
#     4  12  22  38  66  96 127 166 215 269 314 375
#     4  12  24  41  64 101 132 163 219 269 323 379
#     4  12  25  42  67  95 138 169 208 270 329 384
#
# _framework density 26.293852000000001
#
# number of rings (size 3 to 8) (size 9 to 14) (size 15 to 20)
#    0.857    0.000    5.714    1.286    4.000    1.714 
#    0.000    2.857    0.000    3.429    0.000    0.000 
#    0.000    0.000    0.000    0.000    0.000    0.000 
#
# Total GULP energy -173537.321905 kJ/mol
# GULP energy per Si atom -12395.522993 kJ/mol
# Density = 2.623401 g / cm^3
# Si number density = 26.293852 Si / 1000 Ang^3
#
#
#
# Elastic Constant Matrix: (Units=GPa)
#
#
# Indices 1 2 3 4 5 6 
#
# 1 59.0197 15.7567 3.5070 3.0906 -0.8044 16.0247
# 2 15.7567 114.9610 36.9178 -9.1878 -2.1002 -5.0519
# 3 3.5070 36.9178 105.7159 -4.3757 -5.9288 16.5368
# 4 3.0906 -9.1878 -4.3757 48.9308 7.3961 11.3297
# 5 -0.8044 -2.1002 -5.9288 7.3961 35.2391 3.3674
# 6 16.0247 -5.0519 16.5368 11.3297 3.3674 46.1067
#
#
#
# Elastic Compliance Matrix: (Units=1/GPa)
#
#
# Indices 1 2 3 4 5 6 
#
# 1 0.020064 -0.003731 0.001988 -0.000106 0.001373 -0.008169
# 2 -0.003731 0.010814 -0.004239 0.001125 -0.000751 0.003780
# 3 0.001988 -0.004239 0.011964 0.001193 0.002118 -0.005894
# 4 -0.000106 0.001125 0.001193 0.022643 -0.003957 -0.005543
# 5 0.001373 -0.000751 0.002118 -0.003957 0.029792 -0.002523
# 6 -0.008169 0.003780 -0.005894 -0.005543 -0.002523 0.028603
#
#
# Mechanical properties :
#
#
# Convention : Reuss Voigt Hill
#
# Bulk Modulus (GPa) = 32.38697 43.56217 37.97457
# Shear Modulus (GPa) = 34.21456 40.95635 37.58546
#
# Velocity S-wave (km/s) = 3.61118 3.95098 3.78489
# Velocity P-wave (km/s) = 5.45267 6.11695 5.79433
#
# Compressibility (1/GPa) = 0.03087661
#
# Stress axis : x y z
#
# Youngs Moduli (GPa) = 49.84133 92.47527 83.58343
#
# Poissons Ratio (x) = 0.34499 -0.16614
# Poissons Ratio (y) = 0.18594 0.35435
# Poissons Ratio (z) = -0.09907 0.39205
#
# Static dielectric constant tensor:
#      x y z
#    x 4.847170 0.156310 -0.049350 
#    y 0.156310 4.712570 -0.066680 
#    z -0.049350 -0.066680 4.745100 
# 
# 
# High freq. dielectric constant tensor:
#      x y z
#    x 2.061330 0.001730 -0.000200 
#    y 0.001730 2.056740 -0.012040 
#    z -0.000200 -0.012040 2.044760 
# 
# From -- ./inp_files/570649.got.cif
#   From: 2010.06.25/outbox.cif.g09.slc.cpg/sg2_286_cif.got.tgz:570649.got - 2010.06.27 13:26:56.
