data_PCOD8017654
_publ_section_title
;
Structure prediction by ZEFSAII (Michael W. Deem and Ramdas Pophale) SiO2 
 PCOD8017654
Probable space group: P -1
;
_chemical_formula_sum "Si O2"
_cell_formula_units_Z 16
_cell_length_a 14.261367
_cell_length_b 21.888838
_cell_length_c 5.548041
_cell_angle_alpha 115.370599
_cell_angle_beta 53.631667
_cell_angle_gamma 148.274709
_cell_volume 721.450759
_symmetry_space_group_name_H-M "P -1"
_symmetry_group_IT_number 2
_symmetry_cell_setting 'triclinic'
loop_
_space_group_symop_operation_xyz
x,y,z
-x,-y,-z
loop_
_atom_site_type_symbol
_atom_site_label
_atom_site_fract_x
_atom_site_fract_y
_atom_site_fract_z
Si Si1 0.692170 0.375686 0.677441
Si Si2 0.205259 0.957887 0.384551
Si Si3 0.907460 0.406919 0.790964
Si Si4 0.988422 0.137391 0.973888
Si Si5 0.593777 0.652748 0.114866
Si Si6 0.329283 0.435059 0.461119
Si Si7 0.087584 0.772046 0.025017
Si Si8 0.655538 0.219146 0.203460
O O1 0.902393 0.518223 0.549129
O O2 0.497541 0.332085 0.889856
O O3 0.647968 0.292540 0.425214
O O4 0.719365 0.356907 0.867356
O O5 0.092645 0.935869 0.277803
O O6 0.186405 0.867551 0.242289
O O7 0.437096 0.090194 0.238245
O O8 0.116847 0.939932 0.749386
O O9 0.000000 0.500000 0.000000
O O10 0.809350 0.292436 0.861880
O O11 0.949599 0.200466 0.112327
O O12 0.229582 0.235528 0.788400
O O13 0.402589 0.531693 0.346918
O O14 0.708718 0.651317 0.777919
O O15 0.500000 0.500000 0.500000
O O16 0.125770 0.360104 0.780668
O O17 0.243516 0.784132 0.759980
#
# Coordination Sequence:
#
# PCOD8017654 Si02
#       8
#     2   2   2   2   2   2   2   2
#     4  10  23  40  66  90 129 167 208 268 326 391
#     4  10  23  42  65  96 131 173 218 272 327 377
#     4   9  21  43  57  91 124 164 211 260 320 384
#     4  10  22  43  64  94 136 168 215 277 323 379
#     4  11  22  40  62  95 128 166 216 265 328 390
#     4  11  21  37  64  93 123 169 209 265 327 388
#     4  10  22  39  63  95 131 164 215 272 323 381
#     4  11  23  40  65  94 122 173 216 265 325 388
#
# _framework density 22.177537999999998
#
# number of rings (size 3 to 8) (size 9 to 14) (size 15 to 20)
#    0.750    1.000    2.500    1.125    1.750    6.500 
#    0.000    1.250    0.000    0.000    0.000    0.000 
#    0.000    0.000    0.000    0.000    0.000    0.000 
#
# Total GULP energy -198239.082681 kJ/mol
# GULP energy per Si atom -12389.942668 kJ/mol
# Density = 2.212706 g / cm^3
# Si number density = 22.177538 Si / 1000 Ang^3
#
#
#
# Elastic Constant Matrix: (Units=GPa)
#
#
# Indices 1 2 3 4 5 6 
#
# 1 131.1046 42.0203 21.9821 -4.4766 0.5861 32.1261
# 2 42.0203 116.5614 26.0770 -23.3968 -2.8939 22.3616
# 3 21.9821 26.0770 52.7681 -7.7145 15.1046 7.1409
# 4 -4.4766 -23.3968 -7.7145 17.9881 2.4810 1.6832
# 5 0.5861 -2.8939 15.1046 2.4810 36.3463 -1.2294
# 6 32.1261 22.3616 7.1409 1.6832 -1.2294 34.6338
#
#
#
# Elastic Compliance Matrix: (Units=1/GPa)
#
#
# Indices 1 2 3 4 5 6 
#
# 1 0.010609 -0.001622 -0.002634 0.000102 0.000509 -0.008237
# 2 -0.001622 0.015355 -0.003295 0.018817 0.001043 -0.008608
# 3 -0.002634 -0.003295 0.026503 0.008220 -0.011853 -0.001714
# 4 0.000102 0.018817 0.008220 0.086509 -0.008448 -0.018443
# 5 0.000509 0.001043 -0.011853 -0.008448 0.033188 0.002887
# 6 -0.008237 -0.008608 -0.001714 -0.018443 0.002887 0.043424
#
#
# Mechanical properties :
#
#
# Convention : Reuss Voigt Hill
#
# Bulk Modulus (GPa) = 26.76297 53.39922 40.08110
# Shear Modulus (GPa) = 20.56381 31.81730 26.19056
#
# Velocity S-wave (km/s) = 3.04836 3.79180 3.44022
# Velocity P-wave (km/s) = 4.94811 6.58033 5.82170
#
# Compressibility (1/GPa) = 0.03736505
#
# Stress axis : x y z
#
# Youngs Moduli (GPa) = 94.26343 65.12334 37.73151
#
# Poissons Ratio (x) = 0.10562 0.09938
# Poissons Ratio (y) = 0.15288 0.12433
# Poissons Ratio (z) = 0.24828 0.21460
#
# Static dielectric constant tensor:
#      x y z
#    x 3.968450 0.012510 0.308790 
#    y 0.012510 4.086760 -0.234430 
#    z 0.308790 -0.234430 3.938850 
# 
# 
# High freq. dielectric constant tensor:
#      x y z
#    x 1.873610 0.017050 0.017550 
#    y 0.017050 1.872520 -0.011180 
#    z 0.017550 -0.011180 1.838580 
# 
# From -- ./inp_files/100954.got.cif
#   From: 2010.06.25/outbox.cif.g09.slc.cpg/sg2_51_cif.got.tgz:100954.got - 2010.06.27 13:26:56.
