data_PCOD8017690
_publ_section_title
;
Structure prediction by ZEFSAII (Michael W. Deem and Ramdas Pophale) SiO2 
 PCOD8017690
Probable space group: P -1
;
_chemical_formula_sum "Si O2"
_cell_formula_units_Z 16
_cell_length_a 12.607254
_cell_length_b 11.379746
_cell_length_c 8.064862
_cell_angle_alpha 58.305416
_cell_angle_beta 108.593097
_cell_angle_gamma 136.878201
_cell_volume 668.776345
_symmetry_space_group_name_H-M "P -1"
_symmetry_group_IT_number 2
_symmetry_cell_setting 'triclinic'
loop_
_space_group_symop_operation_xyz
x,y,z
-x,-y,-z
loop_
_atom_site_type_symbol
_atom_site_label
_atom_site_fract_x
_atom_site_fract_y
_atom_site_fract_z
Si Si1 0.965689 0.786836 0.832186
Si Si2 0.041263 0.324110 0.761518
Si Si3 0.778423 0.281489 0.554178
Si Si4 0.500951 0.906762 0.232150
Si Si5 0.169893 0.162188 0.862076
Si Si6 0.559650 0.440825 0.447720
Si Si7 0.728623 0.809925 0.747886
Si Si8 0.823951 0.154619 0.366633
O O1 0.017845 0.740216 0.734921
O O2 0.827954 0.775642 0.727738
O O3 0.117967 0.997830 0.830419
O O4 0.899020 0.622243 0.057790
O O5 0.160247 0.506378 0.560475
O O6 0.022187 0.138422 0.854416
O O7 0.875275 0.257817 0.731115
O O8 0.599150 0.110906 0.652389
O O9 0.817317 0.287051 0.375172
O O10 0.426858 0.690130 0.341961
O O11 0.681462 0.040539 0.255994
O O12 0.500000 0.000000 0.000000
O O13 0.272562 0.365539 0.670860
O O14 0.272195 0.204827 0.042136
O O15 0.500000 0.500000 0.500000
O O16 0.445100 0.331245 0.311167
O O17 0.813299 0.026407 0.593004
#
# Coordination Sequence:
#
# PCOD8017690 Si02
#       8
#     2   2   2   2   2   2   2   2
#     4  11  22  40  66  98 131 168 217 268 331 383
#     4  10  22  39  64  91 128 170 215 265 318 385
#     4  11  22  41  62  92 128 171 218 260 320 388
#     4  11  24  45  64  92 131 174 218 265 331 389
#     4  11  20  41  67  95 129 169 217 270 325 392
#     4  11  24  42  64  99 132 170 215 279 326 392
#     4  10  22  39  64  98 128 169 217 266 335 383
#     4  11  23  39  64  92 129 169 217 264 319 392
#
# _framework density 23.924291
#
# number of rings (size 3 to 8) (size 9 to 14) (size 15 to 20)
#    0.000    1.250    1.250    6.375    0.000    2.500 
#    4.500    0.000    0.000    0.000    0.000    0.000 
#    0.000    0.000    0.000    0.000    0.000    0.000 
#
# Total GULP energy -198211.171339 kJ/mol
# GULP energy per Si atom -12388.198209 kJ/mol
# Density = 2.386984 g / cm^3
# Si number density = 23.924291 Si / 1000 Ang^3
#
#
#
# Elastic Constant Matrix: (Units=GPa)
#
#
# Indices 1 2 3 4 5 6 
#
# 1 92.8027 0.3917 32.4032 -2.9498 -1.0183 -13.1460
# 2 0.3917 16.8098 18.6688 1.3596 -0.8820 -2.7295
# 3 32.4032 18.6688 137.2135 0.2836 25.2442 -5.8670
# 4 -2.9498 1.3596 0.2836 16.9368 -4.3040 -5.2552
# 5 -1.0183 -0.8820 25.2442 -4.3040 38.3388 1.3411
# 6 -13.1460 -2.7295 -5.8670 -5.2552 1.3411 35.4094
#
#
#
# Elastic Compliance Matrix: (Units=1/GPa)
#
#
# Indices 1 2 3 4 5 6 
#
# 1 0.013136 0.005057 -0.004240 0.004440 0.003578 0.005088
# 2 0.005057 0.075350 -0.013114 -0.000793 0.010239 0.005008
# 3 -0.004240 -0.013114 0.011567 -0.002188 -0.008253 -0.000681
# 4 0.004440 -0.000793 -0.002188 0.065369 0.008508 0.010604
# 5 0.003578 0.010239 -0.008253 0.008508 0.032776 0.000771
# 6 0.005088 0.005008 -0.000681 0.010604 0.000771 0.031948
#
#
# Mechanical properties :
#
#
# Convention : Reuss Voigt Hill
#
# Bulk Modulus (GPa) = 13.25210 38.86150 26.05680
# Shear Modulus (GPa) = 17.86402 31.16116 24.51259
#
# Velocity S-wave (km/s) = 2.73553 3.61292 3.20439
# Velocity P-wave (km/s) = 3.94064 5.80371 4.96043
#
# Compressibility (1/GPa) = 0.07545972
#
# Stress axis : x y z
#
# Youngs Moduli (GPa) = 76.12839 13.27135 86.45161
#
# Poissons Ratio (x) = -0.06712 0.36655
# Poissons Ratio (y) = -0.38501 1.13374
# Poissons Ratio (z) = 0.32278 0.17404
#
# Static dielectric constant tensor:
#      x y z
#    x 4.127720 0.009230 0.326520 
#    y 0.009230 4.124990 -0.166980 
#    z 0.326520 -0.166980 4.471050 
# 
# 
# High freq. dielectric constant tensor:
#      x y z
#    x 1.958470 0.000200 0.012850 
#    y 0.000200 1.921230 -0.008340 
#    z 0.012850 -0.008340 1.965770 
# 
# From -- ./inp_files/261678.got.cif
#   From: 2010.06.25/outbox.cif.g09.slc.cpg/sg2_131_cif.got.tgz:261678.got - 2010.06.27 13:26:56.
