data_PCOD8017718
_publ_section_title
;
Structure prediction by ZEFSAII (Michael W. Deem and Ramdas Pophale) SiO2 
 PCOD8017718
Probable space group: P -1
;
_chemical_formula_sum "Si O2"
_cell_formula_units_Z 14
_cell_length_a 22.344606
_cell_length_b 13.101511
_cell_length_c 9.246117
_cell_angle_alpha 60.138062
_cell_angle_beta 38.071063
_cell_angle_gamma 30.457594
_cell_volume 690.366570
_symmetry_space_group_name_H-M "P -1"
_symmetry_group_IT_number 2
_symmetry_cell_setting 'triclinic'
loop_
_space_group_symop_operation_xyz
x,y,z
-x,-y,-z
loop_
_atom_site_type_symbol
_atom_site_label
_atom_site_fract_x
_atom_site_fract_y
_atom_site_fract_z
Si Si1 0.754833 0.480594 0.745740
Si Si2 0.798950 0.410587 0.365936
Si Si3 0.896690 0.082213 0.787840
Si Si4 0.098440 0.283739 0.250418
Si Si5 0.661786 0.097557 0.170158
Si Si6 0.100421 0.278982 0.780886
Si Si7 0.629635 0.973320 0.824656
O O1 0.799414 0.436186 0.519595
O O2 0.785074 0.321246 0.878427
O O3 0.910564 0.404989 0.580215
O O4 0.523649 0.762113 0.018380
O O5 0.578869 0.637587 0.557086
O O6 0.920657 0.157642 0.285508
O O7 0.914491 0.387637 0.073604
O O8 0.736052 0.147748 0.035499
O O9 0.000000 0.000000 0.500000
O O10 0.218806 0.221247 0.194319
O O11 0.998751 0.485594 0.189236
O O12 0.256428 0.027784 0.053052
O O13 0.735351 0.917584 0.266695
O O14 0.224847 0.129203 0.502258
O O15 0.500000 0.000000 0.000000
#
# Coordination Sequence:
#
# PCOD8017718 Si02
#       7
#     2   2   2   2   2   2   2
#     4  11  22  41  65  96 127 162 213 257 309 372
#     4  10  22  39  64  95 125 165 205 259 312 363
#     4   9  19  38  63  98 127 153 212 268 302 360
#     4  12  23  40  65  93 125 167 208 255 310 374
#     4  11  22  39  68  97 125 165 208 259 315 362
#     4  11  25  40  61  94 133 160 208 262 307 375
#     4  12  27  42  62  94 126 170 210 251 316 376
#
# _framework density 20.279081000000001
#
# number of rings (size 3 to 8) (size 9 to 14) (size 15 to 20)
#    0.000    1.143    7.143    0.857    2.000    4.000 
#    0.000    2.857    0.000    5.143    0.000    0.000 
#    0.000    0.000    0.000    0.000    0.000    0.000 
#
# Total GULP energy -173522.558151 kJ/mol
# GULP energy per Si atom -12394.468439 kJ/mol
# Density = 2.023292 g / cm^3
# Si number density = 20.279081 Si / 1000 Ang^3
#
#
#
# Elastic Constant Matrix: (Units=GPa)
#
#
# Indices 1 2 3 4 5 6 
#
# 1 75.6541 55.6011 30.1215 2.4178 -26.4163 -16.1774
# 2 55.6011 159.7040 64.1172 11.3778 -27.5167 10.5472
# 3 30.1215 64.1172 125.4868 13.2729 -15.7216 -2.0716
# 4 2.4178 11.3778 13.2729 31.0053 -4.8298 -8.4038
# 5 -26.4163 -27.5167 -15.7216 -4.8298 32.1673 8.5395
# 6 -16.1774 10.5472 -2.0716 -8.4038 8.5395 31.4240
#
#
#
# Elastic Compliance Matrix: (Units=1/GPa)
#
#
# Indices 1 2 3 4 5 6 
#
# 1 0.027035 -0.008542 -0.001256 0.007564 0.011258 0.015665
# 2 -0.008542 0.012425 -0.003451 -0.004805 0.004184 -0.011217
# 3 -0.001256 -0.003451 0.010424 -0.002936 0.000604 0.000249
# 4 0.007564 -0.004805 -0.002936 0.039171 0.002539 0.015098
# 5 0.011258 0.004184 0.000604 0.002539 0.046592 -0.007551
# 6 0.015665 -0.011217 0.000249 0.015098 -0.007551 0.049759
#
#
# Mechanical properties :
#
#
# Convention : Reuss Voigt Hill
#
# Bulk Modulus (GPa) = 42.75994 73.39161 58.07578
# Shear Modulus (GPa) = 22.75852 32.98633 27.87242
#
# Velocity S-wave (km/s) = 3.35366 4.03751 3.71137
# Velocity P-wave (km/s) = 6.01062 7.61608 6.86047
#
# Compressibility (1/GPa) = 0.02338637
#
# Stress axis : x y z
#
# Youngs Moduli (GPa) = 36.98963 80.48457 95.93173
#
# Poissons Ratio (x) = 0.68747 0.12049
# Poissons Ratio (y) = 0.31595 0.33105
# Poissons Ratio (z) = 0.04646 0.27775
#
# Static dielectric constant tensor:
#      x y z
#    x 3.450100 0.105280 -0.077510 
#    y 0.105280 4.311090 0.153450 
#    z -0.077510 0.153450 3.702100 
# 
# 
# High freq. dielectric constant tensor:
#      x y z
#    x 1.761850 -0.000960 -0.013880 
#    y -0.000960 1.811660 0.012610 
#    z -0.013880 0.012610 1.796390 
# 
# From -- ./inp_files/199221.got.cif
#   From: 2010.06.25/outbox.cif.g09.slc.cpg/sg2_100_cif.got.tgz:199221.got - 2010.06.27 13:26:56.
