data_PCOD8017704
_publ_section_title
;
Structure prediction by ZEFSAII (Michael W. Deem and Ramdas Pophale) SiO2 
 PCOD8017704
Probable space group: P -1
;
_chemical_formula_sum "Si O2"
_cell_formula_units_Z 16
_cell_length_a 26.031235
_cell_length_b 25.827339
_cell_length_c 17.962244
_cell_angle_alpha 159.930944
_cell_angle_beta 159.648116
_cell_angle_gamma 11.209841
_cell_volume 781.450682
_symmetry_space_group_name_H-M "P -1"
_symmetry_group_IT_number 2
_symmetry_cell_setting 'triclinic'
loop_
_space_group_symop_operation_xyz
x,y,z
-x,-y,-z
loop_
_atom_site_type_symbol
_atom_site_label
_atom_site_fract_x
_atom_site_fract_y
_atom_site_fract_z
Si Si1 0.034717 0.556908 0.398071
Si Si2 0.460318 0.923005 0.120252
Si Si3 0.890995 0.343948 0.673369
Si Si4 0.840851 0.841133 0.363917
Si Si5 0.216015 0.695609 0.911629
Si Si6 0.547446 0.094465 0.080370
Si Si7 0.723578 0.185748 0.172374
Si Si8 0.228497 0.750135 0.172184
O O1 0.144633 0.588809 0.645713
O O2 0.749157 0.743557 0.294556
O O3 0.007584 0.647391 0.400913
O O4 0.243294 0.241712 0.252103
O O5 0.484621 0.824210 0.938722
O O6 0.374407 0.874779 0.998308
O O7 0.611404 0.655312 0.743406
O O8 0.854672 0.194298 0.419068
O O9 0.955776 0.351325 0.689216
O O10 0.134693 0.178602 0.836572
O O11 0.737878 0.099085 0.582780
O O12 0.573590 0.969287 0.160710
O O13 0.500000 0.500000 0.000000
O O14 0.232366 0.676575 0.996683
O O15 0.000000 0.000000 0.000000
O O16 0.476384 0.474114 0.183256
O O17 0.947593 0.941331 0.087097
#
# Coordination Sequence:
#
# PCOD8017704 Si02
#       8
#     2   2   2   2   2   2   2   2
#     4  11  24  42  67  98 128 169 209 260 328 382
#     4  11  25  45  65  89 130 176 220 263 310 375
#     4  11  23  38  61  92 125 168 214 268 320 373
#     4  10  22  39  64  92 136 158 210 261 340 382
#     4  12  24  42  69 104 137 158 204 261 319 396
#     4  11  23  38  61  92 125 168 214 268 320 373
#     4  11  25  45  65  89 130 176 220 263 310 375
#     4  11  24  42  67  98 128 169 209 260 328 382
#
# _framework density 20.474741000000002
#
# number of rings (size 3 to 8) (size 9 to 14) (size 15 to 20)
#    0.000    1.000    1.250    6.000    3.500    5.000 
#    0.000    3.750    0.000    0.000    0.000    0.000 
#    0.000    0.000    0.000    0.000    0.000    0.000 
#
# Total GULP energy -198505.262101 kJ/mol
# GULP energy per Si atom -12406.578881 kJ/mol
# Density = 2.042814 g / cm^3
# Si number density = 20.474741 Si / 1000 Ang^3
#
#
#
# Elastic Constant Matrix: (Units=GPa)
#
#
# Indices 1 2 3 4 5 6 
#
# 1 145.6160 65.0656 86.4597 8.3861 23.6161 0.9166
# 2 65.0656 143.5719 44.7359 5.5448 20.6202 5.3265
# 3 86.4597 44.7359 124.2772 -8.7517 -5.7376 0.7636
# 4 8.3861 5.5448 -8.7517 38.9192 3.7982 9.0620
# 5 23.6161 20.6202 -5.7376 3.7982 45.3393 10.9737
# 6 0.9166 5.3265 0.7636 9.0620 10.9737 46.1268
#
#
#
# Elastic Compliance Matrix: (Units=1/GPa)
#
#
# Indices 1 2 3 4 5 6 
#
# 1 0.016687 -0.002522 -0.011560 -0.005738 -0.009376 0.003509
# 2 -0.002522 0.009102 -0.001715 -0.000826 -0.002947 -0.000109
# 3 -0.011560 -0.001715 0.017619 0.006574 0.009295 -0.003367
# 4 -0.005738 -0.000826 0.006574 0.029724 0.003284 -0.006520
# 5 -0.009376 -0.002947 0.009295 0.003284 0.031034 -0.007655
# 6 0.003509 -0.000109 -0.003367 -0.006520 -0.007655 0.024780
#
#
# Mechanical properties :
#
#
# Convention : Reuss Voigt Hill
#
# Bulk Modulus (GPa) = 84.65056 89.55418 87.10237
# Shear Modulus (GPa) = 30.39920 40.55730 35.47825
#
# Velocity S-wave (km/s) = 3.85738 4.45550 4.16719
# Velocity P-wave (km/s) = 7.82770 8.38465 8.11096
#
# Compressibility (1/GPa) = 0.01181327
#
# Stress axis : x y z
#
# Youngs Moduli (GPa) = 59.92699 109.86671 56.75809
#
# Poissons Ratio (x) = 0.27714 0.65610
# Poissons Ratio (y) = 0.15117 0.09734
# Poissons Ratio (z) = 0.69273 0.18843
#
# Static dielectric constant tensor:
#      x y z
#    x 3.911100 -0.121600 -0.043370 
#    y -0.121600 3.817120 -0.080440 
#    z -0.043370 -0.080440 3.945110 
# 
# 
# High freq. dielectric constant tensor:
#      x y z
#    x 1.799940 -0.008470 -0.005450 
#    y -0.008470 1.818260 -0.004530 
#    z -0.005450 -0.004530 1.804850 
# 
# From -- ./inp_files/538866.got.cif
#   From: 2010.06.25/outbox.cif.g09.slc.cpg/sg2_270_cif.got.tgz:538866.got - 2010.06.27 13:26:56.
