data_PCOD8017111
_publ_section_title
;
Structure prediction by ZEFSAII (Michael W. Deem and Ramdas Pophale) SiO2 
 PCOD8017111
Probable space group: P -1
;
_chemical_formula_sum "Si O2"
_cell_formula_units_Z 14
_cell_length_a 8.148557
_cell_length_b 11.058185
_cell_length_c 12.686926
_cell_angle_alpha 65.210322
_cell_angle_beta 117.426940
_cell_angle_gamma 140.556070
_cell_volume 640.551716
_symmetry_space_group_name_H-M "P -1"
_symmetry_group_IT_number 2
_symmetry_cell_setting 'triclinic'
loop_
_space_group_symop_operation_xyz
x,y,z
-x,-y,-z
loop_
_atom_site_type_symbol
_atom_site_label
_atom_site_fract_x
_atom_site_fract_y
_atom_site_fract_z
Si Si1 0.649747 0.269187 0.185444
Si Si2 0.832922 0.581837 0.274317
Si Si3 0.551951 0.588100 0.371988
Si Si4 0.102434 0.369517 0.175289
Si Si5 0.345245 0.962253 0.362698
Si Si6 0.067992 0.022096 0.748388
Si Si7 0.592158 0.698308 0.068962
O O1 0.782420 0.412534 0.271820
O O2 0.844359 0.329822 0.124566
O O3 0.539708 0.077939 0.277256
O O4 0.419159 0.239351 0.072415
O O5 0.644286 0.522791 0.338728
O O6 0.772948 0.658227 0.134850
O O7 0.133721 0.739655 0.349339
O O8 0.500000 0.500000 0.500000
O O9 0.761357 0.819488 0.353680
O O10 0.265571 0.489081 0.285268
O O11 0.286586 0.501672 0.081772
O O12 0.009320 0.168627 0.223630
O O13 0.202343 0.032219 0.304294
O O14 0.500000 0.000000 0.500000
O O15 0.260489 0.127122 0.869323
#
# Coordination Sequence:
#
# PCOD8017111 Si02
#       7
#     2   2   2   2   2   2   2
#     4  12  23  37  62  94 122 159 195 252 308 352
#     4   9  22  41  61  88 121 155 200 254 301 356
#     4   9  20  40  63  83 114 164 208 238 294 358
#     4  10  22  38  59  93 120 156 204 246 302 362
#     4  10  23  40  58  87 121 154 206 248 299 356
#     4   9  21  42  61  86 122 158 200 251 297 362
#     4   9  21  41  64  86 120 158 207 245 298 363
#
# _framework density 21.856159000000002
#
# number of rings (size 3 to 8) (size 9 to 14) (size 15 to 20)
#    0.000    2.857    0.000    2.571    4.000    7.429 
#    5.143    0.000    0.000    0.000    0.000    0.000 
#    0.000    0.000    0.000    0.000    0.000    0.000 
#
# Total GULP energy -173450.292025 kJ/mol
# GULP energy per Si atom -12389.306573 kJ/mol
# Density = 2.180641 g / cm^3
# Si number density = 21.856159 Si / 1000 Ang^3
#
#
#
# Elastic Constant Matrix: (Units=GPa)
#
#
# Indices 1 2 3 4 5 6 
#
# 1 54.4872 27.8902 8.7952 4.7548 7.5417 -3.0912
# 2 27.8902 92.7980 40.2573 3.3249 3.0295 10.3297
# 3 8.7952 40.2573 132.1046 0.8789 -6.6703 8.3485
# 4 4.7548 3.3249 0.8789 27.1331 5.5243 4.5984
# 5 7.5417 3.0295 -6.6703 5.5243 16.7994 -0.6866
# 6 -3.0912 10.3297 8.3485 4.5984 -0.6866 22.1321
#
#
#
# Elastic Compliance Matrix: (Units=1/GPa)
#
#
# Indices 1 2 3 4 5 6 
#
# 1 0.024081 -0.007618 -0.000142 -0.002838 -0.008261 0.007306
# 2 -0.007618 0.015550 -0.003867 0.001083 -0.001568 -0.007137
# 3 -0.000142 -0.003867 0.009075 -0.000466 0.004460 -0.001403
# 4 -0.002838 0.001083 -0.000466 0.041574 -0.013177 -0.009773
# 5 -0.008261 -0.001568 0.004460 -0.013177 0.069735 0.002797
# 6 0.007306 -0.007137 -0.001403 -0.009773 0.002797 0.052181
#
#
# Mechanical properties :
#
#
# Convention : Reuss Voigt Hill
#
# Bulk Modulus (GPa) = 39.28896 48.14169 43.71532
# Shear Modulus (GPa) = 20.49750 26.70939 23.60344
#
# Velocity S-wave (km/s) = 3.06573 3.49958 3.28982
# Velocity P-wave (km/s) = 5.52692 6.19708 5.87157
#
# Compressibility (1/GPa) = 0.02545244
#
# Stress axis : x y z
#
# Youngs Moduli (GPa) = 41.52711 64.30936 110.19878
#
# Poissons Ratio (x) = 0.48989 0.01562
# Poissons Ratio (y) = 0.31634 0.42612
# Poissons Ratio (z) = 0.00589 0.24867
#
# Static dielectric constant tensor:
#      x y z
#    x 3.658000 0.238510 0.085150 
#    y 0.238510 4.160460 0.079790 
#    z 0.085150 0.079790 3.790050 
# 
# 
# High freq. dielectric constant tensor:
#      x y z
#    x 1.830880 0.012690 0.004250 
#    y 0.012690 1.871480 0.002330 
#    z 0.004250 0.002330 1.853530 
# 
# From -- ./inp_files/498994.got.cif
#   From: 2010.06.25/outbox.cif.g09.slc.cpg/sg2_250_cif.got.tgz:498994.got - 2010.06.27 13:26:56.
