data_PCOD8017792
_publ_section_title
;
Structure prediction by ZEFSAII (Michael W. Deem and Ramdas Pophale) SiO2 
 PCOD8017792
Probable space group: P -1
;
_chemical_formula_sum "Si O2"
_cell_formula_units_Z 14
_cell_length_a 16.270252
_cell_length_b 5.240337
_cell_length_c 25.394182
_cell_angle_alpha 97.022098
_cell_angle_beta 18.934348
_cell_angle_gamma 87.613069
_cell_volume 608.472365
_symmetry_space_group_name_H-M "P -1"
_symmetry_group_IT_number 2
_symmetry_cell_setting 'triclinic'
loop_
_space_group_symop_operation_xyz
x,y,z
-x,-y,-z
loop_
_atom_site_type_symbol
_atom_site_label
_atom_site_fract_x
_atom_site_fract_y
_atom_site_fract_z
Si Si1 0.797561 0.970766 0.397018
Si Si2 0.827464 0.402103 0.314632
Si Si3 0.854875 0.568098 0.646115
Si Si4 0.163726 0.248152 0.819398
Si Si5 0.753573 0.060247 0.020921
Si Si6 0.095369 0.976071 0.548749
Si Si7 0.704174 0.856358 0.152527
O O1 0.863871 0.660024 0.325226
O O2 0.934334 0.917823 0.370612
O O3 0.937244 0.126701 0.281386
O O4 0.450828 0.190839 0.613213
O O5 0.500000 0.500000 0.500000
O O6 0.049585 0.278249 0.127060
O O7 0.508537 0.757695 0.855191
O O8 0.000000 0.500000 0.500000
O O9 0.920285 0.266826 0.627117
O O10 0.965957 0.755519 0.616972
O O11 0.247334 0.036061 0.816299
O O12 0.968465 0.195955 0.894599
O O13 0.002010 0.575441 0.948037
O O14 0.629442 0.089407 0.156523
O O15 0.431307 0.797525 0.321986
#
# Coordination Sequence:
#
# PCOD8017792 Si02
#       7
#     2   2   2   2   2   2   2
#     4  11  25  47  69  95 136 182 222 271 332 397
#     4  12  25  44  69 102 136 173 224 275 334 392
#     4  12  25  44  69 102 136 173 224 275 334 392
#     4  10  22  39  65  98 132 171 215 274 343 406
#     4  12  25  38  69  96 136 166 224 276 337 384
#     4  11  25  47  69  95 136 182 222 271 332 397
#     4  10  22  39  65  98 132 171 215 274 343 406
#
# _framework density 23.008441000000001
#
# number of rings (size 3 to 8) (size 9 to 14) (size 15 to 20)
#    0.000    0.857    2.857    3.857    4.000    0.000 
#    0.000    4.286    0.000    0.000    0.000    0.000 
#    0.000    0.000    0.000    0.000    0.000    0.000 
#
# Total GULP energy -173606.440328 kJ/mol
# GULP energy per Si atom -12400.460023 kJ/mol
# Density = 2.295607 g / cm^3
# Si number density = 23.008441 Si / 1000 Ang^3
#
#
#
# Elastic Constant Matrix: (Units=GPa)
#
#
# Indices 1 2 3 4 5 6 
#
# 1 92.3915 21.0015 28.8404 -6.5071 -2.9089 12.3718
# 2 21.0015 95.9275 6.6556 2.4625 5.3992 11.6260
# 3 28.8404 6.6556 89.6748 8.3989 -8.7845 9.7445
# 4 -6.5071 2.4625 8.3989 25.6596 -0.1298 4.3297
# 5 -2.9089 5.3992 -8.7845 -0.1298 35.9947 -3.4684
# 6 12.3718 11.6260 9.7445 4.3297 -3.4684 45.4816
#
#
#
# Elastic Compliance Matrix: (Units=1/GPa)
#
#
# Indices 1 2 3 4 5 6 
#
# 1 0.013500 -0.002487 -0.004375 0.005536 0.000164 -0.002614
# 2 -0.002487 0.011392 0.000127 -0.001389 -0.002104 -0.002291
# 3 -0.004375 0.000127 0.013431 -0.005335 0.002790 -0.000999
# 4 0.005536 -0.001389 -0.005335 0.042954 -0.000893 -0.004165
# 5 0.000164 -0.002104 0.002790 -0.000893 0.029000 0.002192
# 6 -0.002614 -0.002291 -0.000999 -0.004165 0.002192 0.024061
#
#
# Mechanical properties :
#
#
# Convention : Reuss Voigt Hill
#
# Bulk Modulus (GPa) = 40.23745 43.44320 41.84033
# Shear Modulus (GPa) = 32.03270 36.19359 34.11314
#
# Velocity S-wave (km/s) = 3.73529 3.97048 3.85468
# Velocity P-wave (km/s) = 6.01076 6.31997 6.16730
#
# Compressibility (1/GPa) = 0.02485247
#
# Stress axis : x y z
#
# Youngs Moduli (GPa) = 74.07628 87.78187 74.45623
#
# Poissons Ratio (x) = 0.21827 0.32578
# Poissons Ratio (y) = 0.18419 -0.00947
# Poissons Ratio (z) = 0.32412 -0.01116
#
# Static dielectric constant tensor:
#      x y z
#    x 4.608330 -0.177700 0.069900 
#    y -0.177700 3.965810 -0.041360 
#    z 0.069900 -0.041360 4.173570 
# 
# 
# High freq. dielectric constant tensor:
#      x y z
#    x 1.926400 -0.006730 0.004900 
#    y -0.006730 1.899490 0.000990 
#    z 0.004900 0.000990 1.902530 
# 
# From -- ./inp_files/68323.got.cif
#   From: 2010.06.25/outbox.cif.g09.slc.cpg/sg2_35_cif.got.tgz:68323.got - 2010.06.27 13:26:56.
