data_PCOD8017457
_publ_section_title
;
Structure prediction by ZEFSAII (Michael W. Deem and Ramdas Pophale) SiO2 
 PCOD8017457
Probable space group: P -1
;
_chemical_formula_sum "Si O2"
_cell_formula_units_Z 16
_cell_length_a 11.896326
_cell_length_b 9.230120
_cell_length_c 15.091219
_cell_angle_alpha 122.803418
_cell_angle_beta 60.157214
_cell_angle_gamma 74.385571
_cell_volume 813.988658
_symmetry_space_group_name_H-M "P -1"
_symmetry_group_IT_number 2
_symmetry_cell_setting 'triclinic'
loop_
_space_group_symop_operation_xyz
x,y,z
-x,-y,-z
loop_
_atom_site_type_symbol
_atom_site_label
_atom_site_fract_x
_atom_site_fract_y
_atom_site_fract_z
Si Si1 0.988479 0.457720 0.354101
Si Si2 0.714285 0.329492 0.837980
Si Si3 0.387576 0.549346 0.277935
Si Si4 0.227141 0.376581 0.000479
Si Si5 0.441653 0.251430 0.696926
Si Si6 0.805850 0.673187 0.316889
Si Si7 0.969987 0.252986 0.459792
Si Si8 0.382404 0.012108 0.978233
O O1 0.837999 0.583909 0.375480
O O2 0.025768 0.624007 0.415294
O O3 0.913950 0.430838 0.459446
O O4 0.177962 0.174639 0.154442
O O5 0.714103 0.383887 0.754270
O O6 0.827933 0.042675 0.720976
O O7 0.500000 0.500000 0.000000
O O8 0.794305 0.404513 0.890695
O O9 0.515801 0.593424 0.244145
O O10 0.520057 0.266533 0.168616
O O11 0.194090 0.733817 0.473558
O O12 0.339467 0.254722 0.821718
O O13 0.361717 0.137522 0.936177
O O14 0.005215 0.528739 0.140358
O O15 0.287347 0.391422 0.724104
O O16 0.645028 0.980126 0.491013
O O17 0.500000 0.000000 0.000000
#
# Coordination Sequence:
#
# PCOD8017457 Si02
#       8
#     2   2   2   2   2   2   2   2
#     4  10  22  39  60  87 127 162 200 248 314 370
#     4  12  22  35  58  92 126 153 200 254 310 367
#     4  12  22  38  60  96 124 154 209 251 310 369
#     4  11  23  40  66  90 124 165 204 253 314 370
#     4  11  24  41  69  87 120 166 211 261 304 362
#     4  10  23  45  63  89 121 163 217 255 302 364
#     4  11  23  35  62  92 123 162 194 257 315 371
#     4  11  21  38  59  92 127 162 195 248 311 378
#
# _framework density 19.656293000000002
#
# number of rings (size 3 to 8) (size 9 to 14) (size 15 to 20)
#    0.000    1.000    3.750    3.750    1.750    0.000 
#    0.000    3.125    2.750    0.000    0.000    0.000 
#    0.000    0.000    0.000    0.000    0.000    0.000 
#
# Total GULP energy -198267.720928 kJ/mol
# GULP energy per Si atom -12391.732558 kJ/mol
# Density = 1.961155 g / cm^3
# Si number density = 19.656293 Si / 1000 Ang^3
#
#
#
# Elastic Constant Matrix: (Units=GPa)
#
#
# Indices 1 2 3 4 5 6 
#
# 1 96.5020 42.7934 30.8215 -3.2053 -15.9684 -18.4194
# 2 42.7934 97.8655 32.3767 1.3802 -6.9182 -9.6009
# 3 30.8215 32.3767 88.6361 7.4719 -15.1043 2.5517
# 4 -3.2053 1.3802 7.4719 36.6430 0.3210 -1.3806
# 5 -15.9684 -6.9182 -15.1043 0.3210 30.9180 -1.9294
# 6 -18.4194 -9.6009 2.5517 -1.3806 -1.9294 30.4300
#
#
#
# Elastic Compliance Matrix: (Units=1/GPa)
#
#
# Indices 1 2 3 4 5 6 
#
# 1 0.016457 -0.004754 -0.003394 0.002604 0.006329 0.009266
# 2 -0.004754 0.013544 -0.003505 -0.000141 -0.001034 0.001618
# 3 -0.003394 -0.003505 0.014924 -0.003409 0.004522 -0.004280
# 4 0.002604 -0.000141 -0.003409 0.028338 -0.000454 0.003075
# 5 0.006329 -0.001034 0.004522 -0.000454 0.037938 0.005510
# 6 0.009266 0.001618 -0.004280 0.003075 0.005510 0.039829
#
#
# Mechanical properties :
#
#
# Convention : Reuss Voigt Hill
#
# Bulk Modulus (GPa) = 46.25581 54.99851 50.62716
# Shear Modulus (GPa) = 27.54185 31.39900 29.47043
#
# Velocity S-wave (km/s) = 3.74728 4.00109 3.87626
# Velocity P-wave (km/s) = 6.50433 7.02750 6.77097
#
# Compressibility (1/GPa) = 0.02161890
#
# Stress axis : x y z
#
# Youngs Moduli (GPa) = 60.76561 73.83403 67.00731
#
# Poissons Ratio (x) = 0.35097 0.22742
# Poissons Ratio (y) = 0.28885 0.23488
# Poissons Ratio (z) = 0.20623 0.25881
#
# Static dielectric constant tensor:
#      x y z
#    x 2.769030 -1.206820 -0.037850 
#    y -1.206820 1.604100 -0.082600 
#    z -0.037850 -0.082600 3.566460 
# 
# 
# High freq. dielectric constant tensor:
#      x y z
#    x 1.753380 -0.002680 -0.014030 
#    y -0.002680 1.765790 -0.003230 
#    z -0.014030 -0.003230 1.781420 
# 
# From -- ./inp_files/178927.got.cif
#   From: 2010.06.25/outbox.cif.g09.slc.cpg/sg2_90_cif.got.tgz:178927.got - 2010.06.27 13:26:56.
