data_PCOD8017591
_publ_section_title
;
Structure prediction by ZEFSAII (Michael W. Deem and Ramdas Pophale) SiO2 
 PCOD8017591
Probable space group: P -1
;
_chemical_formula_sum "Si O2"
_cell_formula_units_Z 16
_cell_length_a 8.388442
_cell_length_b 19.257975
_cell_length_c 19.095886
_cell_angle_alpha 158.236230
_cell_angle_beta 40.863411
_cell_angle_gamma 129.764911
_cell_volume 722.888829
_symmetry_space_group_name_H-M "P -1"
_symmetry_group_IT_number 2
_symmetry_cell_setting 'triclinic'
loop_
_space_group_symop_operation_xyz
x,y,z
-x,-y,-z
loop_
_atom_site_type_symbol
_atom_site_label
_atom_site_fract_x
_atom_site_fract_y
_atom_site_fract_z
Si Si1 0.014333 0.382857 0.665475
Si Si2 0.257796 0.087780 0.420142
Si Si3 0.445340 0.583226 0.504270
Si Si4 0.088169 0.942250 0.702726
Si Si5 0.195754 0.067081 0.579940
Si Si6 0.401075 0.811876 0.867115
Si Si7 0.787773 0.104846 0.223957
Si Si8 0.651940 0.778131 0.191100
O O1 0.924667 0.243947 0.511136
O O2 0.102347 0.283622 0.617619
O O3 0.253187 0.447343 0.616100
O O4 0.773010 0.567586 0.922950
O O5 0.270127 0.131612 0.539513
O O6 0.542394 0.013713 0.223979
O O7 0.102589 0.924488 0.309228
O O8 0.317417 0.736524 0.750489
O O9 0.400361 0.369118 0.330329
O O10 0.323277 0.671425 0.554333
O O11 0.099848 0.887806 0.729840
O O12 0.305455 0.036054 0.692144
O O13 0.838928 0.116801 0.935993
O O14 0.252436 0.221081 0.760379
O O15 0.346961 0.843882 0.344682
O O16 0.500000 0.000000 0.000000
O O17 0.000000 0.000000 0.000000
#
# Coordination Sequence:
#
# PCOD8017591 Si02
#       8
#     2   2   2   2   2   2   2   2
#     4  11  23  40  65  97 132 172 225 273 331 408
#     4  10  22  42  67  98 133 172 225 272 336 399
#     4  10  22  39  62  96 127 173 226 267 334 400
#     4  12  22  42  64  97 134 180 219 276 340 388
#     4  10  22  44  69  97 132 177 220 281 338 392
#     4  11  21  38  67  91 129 176 223 274 330 398
#     4  11  23  42  67  98 139 179 219 282 337 397
#     4  11  23  43  69  97 131 175 221 276 340 398
#
# _framework density 22.133417000000001
#
# number of rings (size 3 to 8) (size 9 to 14) (size 15 to 20)
#    0.000    1.250    6.250    0.000    0.000    1.000 
#    0.000    8.125    0.000    0.000    0.000    0.000 
#    0.000    0.000    0.000    0.000    0.000    0.000 
#
# Total GULP energy -198260.522905 kJ/mol
# GULP energy per Si atom -12391.282682 kJ/mol
# Density = 2.208304 g / cm^3
# Si number density = 22.133417 Si / 1000 Ang^3
#
#
#
# Elastic Constant Matrix: (Units=GPa)
#
#
# Indices 1 2 3 4 5 6 
#
# 1 120.0371 47.4104 56.3299 3.6311 5.6045 -24.8564
# 2 47.4104 101.4730 37.6047 -3.4935 0.6370 -9.1095
# 3 56.3299 37.6047 145.5354 3.9315 11.8583 0.6167
# 4 3.6311 -3.4935 3.9315 40.6102 0.9124 -5.5436
# 5 5.6045 0.6370 11.8583 0.9124 26.6423 -4.5262
# 6 -24.8564 -9.1095 0.6167 -5.5436 -4.5262 39.4531
#
#
#
# Elastic Compliance Matrix: (Units=1/GPa)
#
#
# Indices 1 2 3 4 5 6 
#
# 1 0.013490 -0.004049 -0.004242 -0.000107 0.000453 0.007668
# 2 -0.004049 0.012549 -0.001842 0.001694 0.001446 0.000779
# 3 -0.004242 -0.001842 0.009348 -0.001122 -0.003839 -0.003842
# 4 -0.000107 0.001694 -0.001122 0.025421 0.000281 0.003945
# 5 0.000453 0.001446 -0.003839 0.000281 0.040005 0.005308
# 6 0.007668 0.000779 -0.003842 0.003945 0.005308 0.031580
#
#
# Mechanical properties :
#
#
# Convention : Reuss Voigt Hill
#
# Bulk Modulus (GPa) = 66.13213 72.19282 69.16248
# Shear Modulus (GPa) = 31.70579 36.38783 34.04681
#
# Velocity S-wave (km/s) = 3.78892 4.05905 3.92631
# Velocity P-wave (km/s) = 7.00607 7.39296 7.20211
#
# Compressibility (1/GPa) = 0.01512124
#
# Stress axis : x y z
#
# Youngs Moduli (GPa) = 74.12661 79.69057 106.97143
#
# Poissons Ratio (x) = 0.32269 0.45374
# Poissons Ratio (y) = 0.30016 0.19704
# Poissons Ratio (z) = 0.31443 0.14679
#
# Static dielectric constant tensor:
#      x y z
#    x 4.219380 0.190060 -0.561780 
#    y 0.190060 4.596240 -0.644780 
#    z -0.561780 -0.644780 4.295150 
# 
# 
# High freq. dielectric constant tensor:
#      x y z
#    x 1.864430 -0.010200 -0.015410 
#    y -0.010200 1.886620 -0.017860 
#    z -0.015410 -0.017860 1.855100 
# 
# From -- ./inp_files/591685.got.cif
#   From: 2010.06.25/outbox.cif.g09.slc.cpg/sg2_296_cif.got.tgz:591685.got - 2010.06.27 13:26:56.
