data_PCOD8017052
_publ_section_title
;
Structure prediction by ZEFSAII (Michael W. Deem and Ramdas Pophale) SiO2 
 PCOD8017052
Probable space group: P -1
;
_chemical_formula_sum "Si O2"
_cell_formula_units_Z 12
_cell_length_a 4.886789
_cell_length_b 8.944471
_cell_length_c 19.993767
_cell_angle_alpha 38.797896
_cell_angle_beta 112.337027
_cell_angle_gamma 113.629545
_cell_volume 498.169205
_symmetry_space_group_name_H-M "P -1"
_symmetry_group_IT_number 2
_symmetry_cell_setting 'triclinic'
loop_
_space_group_symop_operation_xyz
x,y,z
-x,-y,-z
loop_
_atom_site_type_symbol
_atom_site_label
_atom_site_fract_x
_atom_site_fract_y
_atom_site_fract_z
Si Si1 0.684938 0.332910 0.277670
Si Si2 0.252369 0.199621 0.409061
Si Si3 0.757603 0.935206 0.312874
Si Si4 0.221457 0.126610 0.921823
Si Si5 0.077133 0.837983 0.257132
Si Si6 0.867054 0.310789 0.473850
O O1 0.416035 0.237882 0.337315
O O2 0.653847 0.588184 0.153327
O O3 0.012424 0.379405 0.329658
O O4 0.726250 0.146360 0.287556
O O5 0.501223 0.254188 0.473104
O O6 0.089083 0.912093 0.495327
O O7 0.430819 0.836242 0.286655
O O8 0.984967 0.020761 0.242162
O O9 0.908715 0.711541 0.435796
O O10 0.053282 0.078233 0.852484
O O11 0.500000 0.000000 0.000000
O O12 0.000000 0.000000 0.000000
O O13 0.913855 0.569168 0.353947
#
# Coordination Sequence:
#
# PCOD8017052 Si02
#       6
#     2   2   2   2   2   2
#     4  11  23  46  67  97 137 176 223 276 327 394
#     4  10  22  37  67 102 137 180 222 263 315 398
#     4  11  25  41  66 103 144 179 205 262 344 412
#     4  12  27  49  74  96 121 174 238 289 331 380
#     4  12  25  44  66 101 140 175 222 275 328 390
#     4  10  22  39  66 102 146 178 217 252 331 403
#
# _framework density 24.088203
#
# number of rings (size 3 to 8) (size 9 to 14) (size 15 to 20)
#    0.000    1.000    1.667    5.000    2.333   10.000 
#    0.000    5.000    0.000    0.000    0.000    0.000 
#    0.000    0.000    0.000    0.000    0.000    0.000 
#
# Total GULP energy -148690.728106 kJ/mol
# GULP energy per Si atom -12390.894009 kJ/mol
# Density = 2.403338 g / cm^3
# Si number density = 24.088203 Si / 1000 Ang^3
#
#
#
# Elastic Constant Matrix: (Units=GPa)
#
#
# Indices 1 2 3 4 5 6 
#
# 1 130.8390 31.2360 73.3407 14.5938 16.0790 -6.9600
# 2 31.2360 63.8485 55.3436 22.3326 5.1953 -0.9112
# 3 73.3407 55.3436 185.3239 11.5138 16.1614 3.3414
# 4 14.5938 22.3326 11.5138 47.8147 1.6681 6.9800
# 5 16.0790 5.1953 16.1614 1.6681 50.9768 15.5378
# 6 -6.9600 -0.9112 3.3414 6.9800 15.5378 50.2346
#
#
#
# Elastic Compliance Matrix: (Units=1/GPa)
#
#
# Indices 1 2 3 4 5 6 
#
# 1 0.010655 -0.001077 -0.003554 -0.002216 -0.002939 0.002910
# 2 -0.001077 0.025583 -0.006563 -0.010366 -0.000570 0.002368
# 3 -0.003554 -0.006563 0.008701 0.002268 -0.000645 -0.001306
# 4 -0.002216 -0.010366 0.002268 0.026535 0.001644 -0.004841
# 5 -0.002939 -0.000570 -0.000645 0.001644 0.023116 -0.007753
# 6 0.002910 0.002368 -0.001306 -0.004841 -0.007753 0.023510
#
#
# Mechanical properties :
#
#
# Convention : Reuss Voigt Hill
#
# Bulk Modulus (GPa) = 44.33991 77.76132 61.05061
# Shear Modulus (GPa) = 33.78264 44.47797 39.13031
#
# Velocity S-wave (km/s) = 3.74900 4.30171 4.03483
# Velocity P-wave (km/s) = 6.09814 7.55149 6.86339
#
# Compressibility (1/GPa) = 0.02255305
#
# Stress axis : x y z
#
# Youngs Moduli (GPa) = 93.85163 39.08776 114.92812
#
# Poissons Ratio (x) = 0.04209 0.40842
# Poissons Ratio (y) = 0.10105 0.75427
# Poissons Ratio (z) = 0.33352 0.25653
#
# Static dielectric constant tensor:
#      x y z
#    x 5.049070 -0.361630 0.107240 
#    y -0.361630 5.945280 0.745150 
#    z 0.107240 0.745150 4.570550 
# 
# 
# High freq. dielectric constant tensor:
#      x y z
#    x 1.997190 -0.010100 0.011260 
#    y -0.010100 1.963440 0.009720 
#    z 0.011260 0.009720 1.933930 
# 
# From -- ./inp_files/90237.got.cif
#   From: 2010.06.25/outbox.cif.g09.slc.cpg/sg2_46_cif.got.tgz:90237.got - 2010.06.27 13:26:56.
