data_PCOD8017335
_publ_section_title
;
Structure prediction by ZEFSAII (Michael W. Deem and Ramdas Pophale) SiO2 
 PCOD8017335
Probable space group: P -1
;
_chemical_formula_sum "Si O2"
_cell_formula_units_Z 16
_cell_length_a 12.202802
_cell_length_b 11.969125
_cell_length_c 11.943938
_cell_angle_alpha 152.393021
_cell_angle_beta 112.505525
_cell_angle_gamma 58.954403
_cell_volume 680.393627
_symmetry_space_group_name_H-M "P -1"
_symmetry_group_IT_number 2
_symmetry_cell_setting 'triclinic'
loop_
_space_group_symop_operation_xyz
x,y,z
-x,-y,-z
loop_
_atom_site_type_symbol
_atom_site_label
_atom_site_fract_x
_atom_site_fract_y
_atom_site_fract_z
Si Si1 0.128081 0.157820 0.158317
Si Si2 0.685487 0.734726 0.531927
Si Si3 0.283074 0.143458 0.014885
Si Si4 0.938067 0.387187 0.780685
Si Si5 0.843302 0.098670 0.659707
Si Si6 0.577135 0.180111 0.727767
Si Si7 0.130185 0.709763 0.922241
Si Si8 0.515368 0.731835 0.648339
O O1 0.193558 0.339547 0.400976
O O2 0.218342 0.001009 0.948033
O O3 0.989313 0.352405 0.224762
O O4 0.119016 0.966441 0.079138
O O5 0.733532 0.540434 0.271045
O O6 0.568498 0.681207 0.496618
O O7 0.638697 0.042757 0.748723
O O8 0.167905 0.394868 0.142472
O O9 0.385135 0.199965 0.179935
O O10 0.367793 0.958066 0.783706
O O11 0.859701 0.234002 0.671899
O O12 0.053849 0.206782 0.581944
O O13 0.000000 0.500000 0.000000
O O14 0.695037 0.128386 0.640580
O O15 0.880883 0.234185 0.900526
O O16 0.500000 0.000000 0.500000
O O17 0.500000 0.500000 0.000000
O O18 0.500000 0.500000 0.500000
#
# Coordination Sequence:
#
# PCOD8017335 Si02
#       8
#     2   2   2   2   2   2   2   2
#     4  10  22  38  67 105 139 184 232 293 379 436
#     4  11  24  42  69 104 144 190 245 303 370 450
#     4  10  23  42  67  99 139 178 238 298 356 440
#     4  11  27  46  76 103 144 192 248 315 381 458
#     4  11  27  48  70 108 142 191 253 311 382 454
#     4  12  29  48  75 108 151 206 257 316 377 454
#     4  11  22  41  71 103 145 179 233 304 377 448
#     4  10  23  43  69 100 142 189 240 296 367 439
#
# _framework density 23.515798
#
# number of rings (size 3 to 8) (size 9 to 14) (size 15 to 20)
#    0.000    1.250    1.250    2.625    7.000    8.000 
#    0.000    0.000    0.000    0.000    0.000    0.000 
#    0.000    0.000    0.000    0.000    0.000    0.000 
#
# Total GULP energy -198233.865579 kJ/mol
# GULP energy per Si atom -12389.616599 kJ/mol
# Density = 2.346228 g / cm^3
# Si number density = 23.515798 Si / 1000 Ang^3
#
#
#
# Elastic Constant Matrix: (Units=GPa)
#
#
# Indices 1 2 3 4 5 6 
#
# 1 154.5517 29.6567 47.5677 6.4161 -31.2313 7.6105
# 2 29.6567 77.3124 31.7797 8.9891 -20.0002 -4.5695
# 3 47.5677 31.7797 116.5432 14.5306 -40.4563 -5.0145
# 4 6.4161 8.9891 14.5306 34.8173 -0.1666 -0.1507
# 5 -31.2313 -20.0002 -40.4563 -0.1666 45.4021 -1.5301
# 6 7.6105 -4.5695 -5.0145 -0.1507 -1.5301 38.5338
#
#
#
# Elastic Compliance Matrix: (Units=1/GPa)
#
#
# Indices 1 2 3 4 5 6 
#
# 1 0.008083 -0.001614 -0.001796 -0.000316 0.003184 -0.001896
# 2 -0.001614 0.015872 -0.001634 -0.003088 0.004487 0.002154
# 3 -0.001796 -0.001634 0.014257 -0.005135 0.010811 0.002425
# 4 -0.000316 -0.003088 -0.005135 0.031686 -0.006074 -0.001089
# 5 0.003184 0.004487 0.010811 -0.006074 0.035895 0.002712
# 6 -0.001896 0.002154 0.002425 -0.001089 0.002712 0.027000
#
#
# Mechanical properties :
#
#
# Convention : Reuss Voigt Hill
#
# Bulk Modulus (GPa) = 35.55730 62.93507 49.24619
# Shear Modulus (GPa) = 32.83960 39.71086 36.27523
#
# Velocity S-wave (km/s) = 3.74102 4.11382 3.93184
# Velocity P-wave (km/s) = 5.81496 7.02750 6.44978
#
# Compressibility (1/GPa) = 0.02812362
#
# Stress axis : x y z
#
# Youngs Moduli (GPa) = 123.72264 63.00211 70.14262
#
# Poissons Ratio (x) = 0.10168 0.12597
# Poissons Ratio (y) = 0.19969 0.11463
# Poissons Ratio (z) = 0.22219 0.10296
#
# Static dielectric constant tensor:
#      x y z
#    x 4.981280 -0.146860 -0.316030 
#    y -0.146860 4.277170 0.094840 
#    z -0.316030 0.094840 3.989530 
# 
# 
# High freq. dielectric constant tensor:
#      x y z
#    x 1.962570 0.001240 -0.009290 
#    y 0.001240 1.930810 0.001060 
#    z -0.009290 0.001060 1.913480 
# 
# From -- ./inp_files/429262.got.cif
#   From: 2010.06.25/outbox.cif.g09.slc.cpg/sg2_215_cif.got.tgz:429262.got - 2010.06.27 13:26:56.
