data_PCOD8017867
_publ_section_title
;
Structure prediction by ZEFSAII (Michael W. Deem and Ramdas Pophale) SiO2 
 PCOD8017867
Probable space group: P -1
;
_chemical_formula_sum "Si O2"
_cell_formula_units_Z 16
_cell_length_a 8.398907
_cell_length_b 19.344394
_cell_length_c 14.494530
_cell_angle_alpha 139.715655
_cell_angle_beta 145.684002
_cell_angle_gamma 38.653645
_cell_volume 781.435312
_symmetry_space_group_name_H-M "P -1"
_symmetry_group_IT_number 2
_symmetry_cell_setting 'triclinic'
loop_
_space_group_symop_operation_xyz
x,y,z
-x,-y,-z
loop_
_atom_site_type_symbol
_atom_site_label
_atom_site_fract_x
_atom_site_fract_y
_atom_site_fract_z
Si Si1 0.241808 0.126925 0.522762
Si Si2 0.646781 0.527655 0.961910
Si Si3 0.178323 0.088186 0.078249
Si Si4 0.793665 0.100520 0.433011
Si Si5 0.257046 0.715023 0.269841
Si Si6 0.675549 0.248929 0.865803
Si Si7 0.276424 0.345694 0.045677
Si Si8 0.876318 0.150731 0.196260
O O1 0.404862 0.208117 0.722320
O O2 0.999617 0.121520 0.474720
O O3 0.081683 0.175623 0.397646
O O4 0.500000 0.000000 0.500000
O O5 0.525783 0.425856 0.777188
O O6 0.581910 0.615674 0.934483
O O7 0.458057 0.609540 0.039425
O O8 0.021181 0.461492 0.093846
O O9 0.534606 0.069676 0.228208
O O10 0.038419 0.133097 0.157175
O O11 0.982881 0.183961 0.006953
O O12 0.174987 0.965154 0.922250
O O13 0.619431 0.221718 0.530529
O O14 0.000000 0.000000 0.500000
O O15 0.235385 0.778441 0.225959
O O16 0.909187 0.733149 0.153099
O O17 0.555941 0.266748 0.164515
#
# Coordination Sequence:
#
# PCOD8017867 Si02
#       8
#     2   2   2   2   2   2   2   2
#     4  12  26  43  65  94 134 170 213 263 330 383
#     4   9  20  39  67  94 127 177 216 263 320 382
#     4  11  25  38  69  95 132 164 219 259 330 383
#     4  12  26  42  63  97 131 170 211 269 322 383
#     4  10  22  39  67  92 133 165 219 256 327 368
#     4  12  22  42  68  98 129 174 216 265 320 392
#     4   9  19  37  67  91 127 170 216 260 319 376
#     4  11  22  42  64  96 130 170 211 270 320 389
#
# _framework density 20.475142000000002
#
# number of rings (size 3 to 8) (size 9 to 14) (size 15 to 20)
#    0.750    0.500    2.500    4.125    3.500    0.500 
#    0.000    1.250    2.750    0.000    0.000    0.000 
#    0.000    0.000    0.000    0.000    0.000    0.000 
#
# Total GULP energy -198344.492124 kJ/mol
# GULP energy per Si atom -12396.530758 kJ/mol
# Density = 2.042854 g / cm^3
# Si number density = 20.475142 Si / 1000 Ang^3
#
#
#
# Elastic Constant Matrix: (Units=GPa)
#
#
# Indices 1 2 3 4 5 6 
#
# 1 79.0317 12.6720 15.7523 3.1859 -3.7192 6.9138
# 2 12.6720 114.7979 33.2225 -6.1539 -6.0065 -7.7371
# 3 15.7523 33.2225 92.3246 -5.3317 4.2315 -1.3191
# 4 3.1859 -6.1539 -5.3317 36.1079 1.3829 -1.5066
# 5 -3.7192 -6.0065 4.2315 1.3829 32.2342 4.2746
# 6 6.9138 -7.7371 -1.3191 -1.5066 4.2746 26.8990
#
#
#
# Elastic Compliance Matrix: (Units=1/GPa)
#
#
# Indices 1 2 3 4 5 6 
#
# 1 0.013874 -0.001174 -0.002235 -0.002032 0.002360 -0.004502
# 2 -0.001174 0.010193 -0.003428 0.001386 0.001775 0.002861
# 3 -0.002235 -0.003428 0.012675 0.001620 -0.002727 0.000734
# 4 -0.002032 0.001386 0.001620 0.028539 -0.001796 0.002884
# 5 0.002360 0.001775 -0.002727 -0.001796 0.032796 -0.005542
# 6 -0.004502 0.002861 0.000734 0.002884 -0.005542 0.040234
#
#
# Mechanical properties :
#
#
# Convention : Reuss Voigt Hill
#
# Bulk Modulus (GPa) = 43.34842 45.49422 44.42132
# Shear Modulus (GPa) = 31.31420 34.01537 32.66479
#
# Velocity S-wave (km/s) = 3.91497 4.08033 3.99850
# Velocity P-wave (km/s) = 6.45393 6.66830 6.56199
#
# Compressibility (1/GPa) = 0.02306889
#
# Stress axis : x y z
#
# Youngs Moduli (GPa) = 72.07975 98.11094 78.89449
#
# Poissons Ratio (x) = 0.11515 0.17630
# Poissons Ratio (y) = 0.08460 0.27044
# Poissons Ratio (z) = 0.16107 0.33632
#
# Static dielectric constant tensor:
#      x y z
#    x 3.796680 0.101850 0.346090 
#    y 0.101850 3.742330 0.217150 
#    z 0.346090 0.217150 4.348570 
# 
# 
# High freq. dielectric constant tensor:
#      x y z
#    x 1.807610 0.005600 0.002220 
#    y 0.005600 1.803490 0.008710 
#    z 0.002220 0.008710 1.779120 
# 
# From -- ./inp_files/205835.got.cif
#   From: 2010.06.25/outbox.cif.g09.slc.cpg/sg2_103_cif.got.tgz:205835.got - 2010.06.27 13:26:56.
