data_PCOD8017243
_publ_section_title
;
Structure prediction by ZEFSAII (Michael W. Deem and Ramdas Pophale) SiO2 
 PCOD8017243
Probable space group: P -1
;
_chemical_formula_sum "Si O2"
_cell_formula_units_Z 16
_cell_length_a 28.456156
_cell_length_b 11.871683
_cell_length_c 23.083650
_cell_angle_alpha 29.888225
_cell_angle_beta 169.121689
_cell_angle_gamma 149.339003
_cell_volume 730.159218
_symmetry_space_group_name_H-M "P -1"
_symmetry_group_IT_number 2
_symmetry_cell_setting 'triclinic'
loop_
_space_group_symop_operation_xyz
x,y,z
-x,-y,-z
loop_
_atom_site_type_symbol
_atom_site_label
_atom_site_fract_x
_atom_site_fract_y
_atom_site_fract_z
Si Si1 0.187827 0.887112 0.736219
Si Si2 0.864279 0.953142 0.720979
Si Si3 0.641424 0.283078 0.783202
Si Si4 0.168649 0.365897 0.950603
Si Si5 0.482628 0.387543 0.214397
Si Si6 0.945398 0.616973 0.072899
Si Si7 0.290751 0.870550 0.740338
Si Si8 0.869203 0.995630 0.093929
O O1 0.171006 0.956899 0.616814
O O2 0.103898 0.622576 0.757852
O O3 0.000000 0.000000 0.500000
O O4 0.474934 0.953653 0.073580
O O5 0.569003 0.917570 0.363843
O O6 0.022793 0.890700 0.885070
O O7 0.939542 0.795032 0.934991
O O8 0.931935 0.214591 0.703812
O O9 0.500000 0.500000 0.500000
O O10 0.792249 0.203491 0.946370
O O11 0.832360 0.363079 0.030251
O O12 0.411555 0.333806 0.219765
O O13 0.211917 0.296921 0.100998
O O14 0.778499 0.405326 0.559174
O O15 0.378690 0.620669 0.965384
O O16 0.367289 0.185942 0.123270
O O17 0.081884 0.864459 0.440912
#
# Coordination Sequence:
#
# PCOD8017243 Si02
#       8
#     2   2   2   2   2   2   2   2
#     4  10  22  38  63  96 131 168 212 264 323 383
#     4  10  24  44  62  97 129 171 218 265 325 382
#     4  10  25  41  61  93 129 172 217 262 321 380
#     4  10  22  38  64  92 126 167 215 265 313 380
#     4  10  23  43  65  98 127 170 220 263 324 382
#     4  11  23  39  68  91 130 171 217 266 319 380
#     4  10  23  40  65  98 131 164 217 265 321 389
#     4  11  24  41  69  92 136 172 210 270 327 383
#
# _framework density 21.913031
#
# number of rings (size 3 to 8) (size 9 to 14) (size 15 to 20)
#    0.000    1.750    0.000    2.250    8.750    7.000 
#    0.000    0.000    0.000    9.000    0.000    0.000 
#    0.000    0.000    0.000    0.000    0.000    0.000 
#
# Total GULP energy -198381.137673 kJ/mol
# GULP energy per Si atom -12398.821105 kJ/mol
# Density = 2.186316 g / cm^3
# Si number density = 21.913031 Si / 1000 Ang^3
#
#
#
# Elastic Constant Matrix: (Units=GPa)
#
#
# Indices 1 2 3 4 5 6 
#
# 1 117.6609 45.1634 43.9503 12.5842 6.9319 -13.4327
# 2 45.1634 111.3155 44.5140 28.7406 6.8246 -10.1262
# 3 43.9503 44.5140 98.2340 20.6460 -5.5111 -2.0580
# 4 12.5842 28.7406 20.6460 41.7790 -1.3249 -1.9195
# 5 6.9319 6.8246 -5.5111 -1.3249 29.7729 0.8323
# 6 -13.4327 -10.1262 -2.0580 -1.9195 0.8323 37.9592
#
#
#
# Elastic Compliance Matrix: (Units=1/GPa)
#
#
# Indices 1 2 3 4 5 6 
#
# 1 0.011573 -0.002680 -0.004158 0.000469 -0.002920 0.003243
# 2 -0.002680 0.013757 -0.003758 -0.006810 -0.003591 0.002252
# 3 -0.004158 -0.003758 0.014656 -0.003354 0.004448 -0.001946
# 4 0.000469 -0.006810 -0.003354 0.030189 0.002184 -0.000354
# 5 -0.002920 -0.003591 0.004448 0.002184 0.036079 -0.002431
# 6 0.003243 0.002252 -0.001946 -0.000354 -0.002431 0.028022
#
#
# Mechanical properties :
#
#
# Convention : Reuss Voigt Hill
#
# Bulk Modulus (GPa) = 53.20536 66.05176 59.62856
# Shear Modulus (GPa) = 30.91537 34.80774 32.86156
#
# Velocity S-wave (km/s) = 3.76017 3.98986 3.87671
# Velocity P-wave (km/s) = 6.57151 7.17171 6.87816
#
# Compressibility (1/GPa) = 0.01879510
#
# Stress axis : x y z
#
# Youngs Moduli (GPa) = 86.40995 72.69191 68.22952
#
# Poissons Ratio (x) = 0.19479 0.28368
# Poissons Ratio (y) = 0.23156 0.25640
# Poissons Ratio (z) = 0.35927 0.27317
#
# Static dielectric constant tensor:
#      x y z
#    x 4.271810 -0.101930 0.068300 
#    y -0.101930 4.261420 0.528240 
#    z 0.068300 0.528240 3.850450 
# 
# 
# High freq. dielectric constant tensor:
#      x y z
#    x 1.875910 -0.008550 0.010070 
#    y -0.008550 1.874230 0.021880 
#    z 0.010070 0.021880 1.842580 
# 
# From -- ./inp_files/464685.got.cif
#   From: 2010.06.25/outbox.cif.g09.slc.cpg/sg2_233_cif.got.tgz:464685.got - 2010.06.27 13:26:56.
