data_PCOD8017077
_publ_section_title
;
Structure prediction by ZEFSAII (Michael W. Deem and Ramdas Pophale) SiO2 
 PCOD8017077
Probable space group: P -1
;
_chemical_formula_sum "Si O2"
_cell_formula_units_Z 14
_cell_length_a 8.774138
_cell_length_b 11.738311
_cell_length_c 11.558551
_cell_angle_alpha 50.848183
_cell_angle_beta 143.339628
_cell_angle_gamma 122.524664
_cell_volume 549.946403
_symmetry_space_group_name_H-M "P -1"
_symmetry_group_IT_number 2
_symmetry_cell_setting 'triclinic'
loop_
_space_group_symop_operation_xyz
x,y,z
-x,-y,-z
loop_
_atom_site_type_symbol
_atom_site_label
_atom_site_fract_x
_atom_site_fract_y
_atom_site_fract_z
Si Si1 0.368660 0.497409 0.544207
Si Si2 0.842135 0.046234 0.588245
Si Si3 0.376046 0.778860 0.117773
Si Si4 0.172892 0.103809 0.956537
Si Si5 0.293493 0.967299 0.733785
Si Si6 0.477038 0.251653 0.347686
Si Si7 0.951951 0.652418 0.120427
O O1 0.500000 0.500000 0.500000
O O2 0.473262 0.355779 0.761642
O O3 0.427821 0.651831 0.547320
O O4 0.061598 0.497158 0.328440
O O5 0.920267 0.040351 0.500796
O O6 0.705065 0.192610 0.447811
O O7 0.110079 0.058647 0.814104
O O8 0.685603 0.894115 0.617511
O O9 0.163817 0.735565 0.112188
O O10 0.606904 0.875188 0.256923
O O11 0.233073 0.852520 0.875484
O O12 0.099312 0.265192 0.843330
O O13 0.472668 0.086592 0.169149
O O14 0.000000 0.000000 0.000000
O O15 0.312630 0.361606 0.101672
#
# Coordination Sequence:
#
# PCOD8017077 Si02
#       7
#     2   2   2   2   2   2   2
#     4  10  22  38  57  86 125 157 194 239 294 357
#     4  11  20  33  63  95 114 147 200 256 291 338
#     4  10  23  41  59  84 130 160 188 241 305 356
#     4  12  19  36  66  92 115 146 208 253 287 338
#     4  11  22  41  61  88 122 157 193 248 301 348
#     4  11  20  33  62  93 112 148 203 248 290 333
#     4  11  20  38  63  91 114 154 201 247 287 351
#
# _framework density 25.457025999999999
#
# number of rings (size 3 to 8) (size 9 to 14) (size 15 to 20)
#    0.000    1.143    5.714    2.571    0.000    2.286 
#    0.000   13.571    0.000    0.000    0.000    0.000 
#    0.000    0.000    0.000    0.000    0.000    0.000 
#
# Total GULP energy -173468.794321 kJ/mol
# GULP energy per Si atom -12390.628166 kJ/mol
# Density = 2.539908 g / cm^3
# Si number density = 25.457026 Si / 1000 Ang^3
#
#
#
# Elastic Constant Matrix: (Units=GPa)
#
#
# Indices 1 2 3 4 5 6 
#
# 1 107.8399 21.8211 8.4399 6.8045 -10.6309 -37.8958
# 2 21.8211 72.6935 33.6951 2.0398 -4.0164 -36.0097
# 3 8.4399 33.6951 144.2313 11.7765 -12.3765 -25.0800
# 4 6.8045 2.0398 11.7765 40.6001 -13.9989 1.6201
# 5 -10.6309 -4.0164 -12.3765 -13.9989 36.3413 2.3341
# 6 -37.8958 -36.0097 -25.0800 1.6201 2.3341 42.1353
#
#
#
# Elastic Compliance Matrix: (Units=1/GPa)
#
#
# Indices 1 2 3 4 5 6 
#
# 1 0.015131 0.003658 0.001860 -0.002858 0.003222 0.017774
# 2 0.003658 0.025497 -0.001737 -0.002015 0.000974 0.024070
# 3 0.001860 -0.001737 0.008492 -0.002182 0.002069 0.005213
# 4 -0.002858 -0.002015 -0.002182 0.029607 0.010071 -0.007287
# 5 0.003222 0.000974 0.002069 0.010071 0.032975 0.002748
# 6 0.017774 0.024070 0.005213 -0.007287 0.002748 0.063520
#
#
# Mechanical properties :
#
#
# Convention : Reuss Voigt Hill
#
# Bulk Modulus (GPa) = 17.64175 50.29744 33.96959
# Shear Modulus (GPa) = 26.80195 41.20257 34.00226
#
# Velocity S-wave (km/s) = 3.24826 4.02744 3.65865
# Velocity P-wave (km/s) = 4.58402 6.43644 5.58753
#
# Compressibility (1/GPa) = 0.05668373
#
# Stress axis : x y z
#
# Youngs Moduli (GPa) = 66.09006 39.21985 117.75166
#
# Poissons Ratio (x) = -0.14348 -0.21906
# Poissons Ratio (y) = -0.24178 0.20454
# Poissons Ratio (z) = -0.12295 0.06813
#
# Static dielectric constant tensor:
#      x y z
#    x 5.176160 -0.732730 0.420130 
#    y -0.732730 4.944000 -0.449240 
#    z 0.420130 -0.449240 5.897800 
# 
# 
# High freq. dielectric constant tensor:
#      x y z
#    x 2.042060 -0.041750 0.024780 
#    y -0.041750 1.977040 0.006530 
#    z 0.024780 0.006530 2.053860 
# 
# From -- ./inp_files/257345.got.cif
#   From: 2010.06.25/outbox.cif.g09.slc.cpg/sg2_129_cif.got.tgz:257345.got - 2010.06.27 13:26:56.
