data_PCOD8017992
_publ_section_title
;
Structure prediction by ZEFSAII (Michael W. Deem and Ramdas Pophale) SiO2 
 PCOD8017992
Probable space group: P -1
;
_chemical_formula_sum "Si O2"
_cell_formula_units_Z 16
_cell_length_a 9.576195
_cell_length_b 8.925891
_cell_length_c 14.393037
_cell_angle_alpha 50.823114
_cell_angle_beta 90.595355
_cell_angle_gamma 66.957694
_cell_volume 818.363890
_symmetry_space_group_name_H-M "P -1"
_symmetry_group_IT_number 2
_symmetry_cell_setting 'triclinic'
loop_
_space_group_symop_operation_xyz
x,y,z
-x,-y,-z
loop_
_atom_site_type_symbol
_atom_site_label
_atom_site_fract_x
_atom_site_fract_y
_atom_site_fract_z
Si Si1 0.705292 0.398414 0.649318
Si Si2 0.153721 0.041349 0.581398
Si Si3 0.728666 0.781581 0.160223
Si Si4 0.965376 0.701100 0.352770
Si Si5 0.038135 0.716086 0.691196
Si Si6 0.247051 0.020484 0.273476
Si Si7 0.364929 0.900242 0.128547
Si Si8 0.543175 0.916560 0.430146
O O1 0.592495 0.657558 0.521089
O O2 0.883461 0.358389 0.689322
O O3 0.713926 0.240076 0.624132
O O4 0.645864 0.325799 0.770064
O O5 0.159338 0.813969 0.639920
O O6 0.052876 0.108363 0.650321
O O7 0.321634 0.023141 0.621266
O O8 0.073228 0.223383 0.425926
O O9 0.805528 0.784777 0.257475
O O10 0.843540 0.550412 0.196496
O O11 0.553923 0.819379 0.168487
O O12 0.710074 0.982832 0.015933
O O13 0.000000 0.500000 0.500000
O O14 0.925721 0.810127 0.745526
O O15 0.258883 0.075387 0.142959
O O16 0.382899 0.051161 0.314456
O O17 0.500000 0.000000 0.500000
#
# Coordination Sequence:
#
# PCOD8017992 Si02
#       8
#     2   2   2   2   2   2   2   2
#     4  10  23  39  59  90 123 161 200 245 308 366
#     4  11  22  35  55  93 124 153 195 247 318 360
#     4  11  23  42  67  85 119 165 213 251 294 363
#     4  12  21  37  63  93 120 156 197 258 310 352
#     4  11  22  37  60  89 124 157 200 253 303 364
#     4  10  22  40  57  89 124 161 199 245 308 365
#     4   9  24  43  63  85 117 174 210 236 299 374
#     4  12  22  33  59  91 125 152 198 252 303 354
#
# _framework density 19.551205
#
# number of rings (size 3 to 8) (size 9 to 14) (size 15 to 20)
#    0.750    0.500    5.000    1.125    1.750    1.000 
#    0.000    0.000    2.750    2.250    0.000    0.000 
#    0.000    0.000    0.000    0.000    0.000    0.000 
#
# Total GULP energy -198223.976316 kJ/mol
# GULP energy per Si atom -12388.998520 kJ/mol
# Density = 1.950671 g / cm^3
# Si number density = 19.551205 Si / 1000 Ang^3
#
#
#
# Elastic Constant Matrix: (Units=GPa)
#
#
# Indices 1 2 3 4 5 6 
#
# 1 116.3724 17.0063 39.5234 7.9385 -6.7690 -1.2202
# 2 17.0063 87.2779 10.0487 5.1507 4.1773 -10.4440
# 3 39.5234 10.0487 51.8322 17.6463 5.1317 -1.5193
# 4 7.9385 5.1507 17.6463 28.2195 0.1277 0.9869
# 5 -6.7690 4.1773 5.1317 0.1277 22.3564 5.3658
# 6 -1.2202 -10.4440 -1.5193 0.9869 5.3658 35.7834
#
#
#
# Elastic Compliance Matrix: (Units=1/GPa)
#
#
# Indices 1 2 3 4 5 6 
#
# 1 0.012989 -0.002002 -0.011683 0.004049 0.007412 -0.001861
# 2 -0.002002 0.012643 0.000308 -0.002069 -0.004060 0.004301
# 3 -0.011683 0.000308 0.036115 -0.019424 -0.012652 0.003658
# 4 0.004049 -0.002069 -0.019424 0.046916 0.006663 -0.003584
# 5 0.007412 -0.004060 -0.012652 0.006663 0.052899 -0.009586
# 6 -0.001861 0.004301 0.003658 -0.003584 -0.009586 0.030829
#
#
# Mechanical properties :
#
#
# Convention : Reuss Voigt Hill
#
# Bulk Modulus (GPa) = 28.57765 43.18214 35.87990
# Shear Modulus (GPa) = 21.66277 29.86547 25.76412
#
# Velocity S-wave (km/s) = 3.33228 3.91263 3.63406
# Velocity P-wave (km/s) = 5.42715 6.52275 6.00001
#
# Compressibility (1/GPa) = 0.03499238
#
# Stress axis : x y z
#
# Youngs Moduli (GPa) = 76.98799 79.09272 27.68969
#
# Poissons Ratio (x) = 0.15836 0.32350
# Poissons Ratio (y) = 0.15414 -0.00853
# Poissons Ratio (z) = 0.89946 -0.02436
#
# Static dielectric constant tensor:
#      x y z
#    x 3.219350 0.085860 -0.114450 
#    y 0.085860 3.732300 0.114190 
#    z -0.114450 0.114190 3.249260 
# 
# 
# High freq. dielectric constant tensor:
#      x y z
#    x 1.780440 -0.003330 0.002420 
#    y -0.003330 1.764380 0.003420 
#    z 0.002420 0.003420 1.719400 
# 
# From -- ./inp_files/272815.got.cif
#   From: 2010.06.25/outbox.cif.g09.slc.cpg/sg2_137_cif.got.tgz:272815.got - 2010.06.27 13:26:56.
