data_PCOD8017872
_publ_section_title
;
Structure prediction by ZEFSAII (Michael W. Deem and Ramdas Pophale) SiO2 
 PCOD8017872
Probable space group: P -1
;
_chemical_formula_sum "Si O2"
_cell_formula_units_Z 14
_cell_length_a 8.817762
_cell_length_b 11.659617
_cell_length_c 9.085375
_cell_angle_alpha 127.815718
_cell_angle_beta 124.081964
_cell_angle_gamma 65.081442
_cell_volume 606.836819
_symmetry_space_group_name_H-M "P -1"
_symmetry_group_IT_number 2
_symmetry_cell_setting 'triclinic'
loop_
_space_group_symop_operation_xyz
x,y,z
-x,-y,-z
loop_
_atom_site_type_symbol
_atom_site_label
_atom_site_fract_x
_atom_site_fract_y
_atom_site_fract_z
Si Si1 0.839681 0.355248 0.070308
Si Si2 0.440225 0.082026 0.242321
Si Si3 0.423117 0.219591 0.031867
Si Si4 0.264411 0.737046 0.341543
Si Si5 0.848010 0.719712 0.599121
Si Si6 0.589994 0.487458 0.269744
Si Si7 0.918414 0.656156 0.254418
O O1 0.642552 0.428686 0.086405
O O2 0.936153 0.480466 0.135139
O O3 0.958669 0.285819 0.217189
O O4 0.822846 0.226464 0.840022
O O5 0.636061 0.131137 0.436823
O O6 0.284068 0.133182 0.316664
O O7 0.465420 0.907347 0.106607
O O8 0.369734 0.155148 0.107507
O O9 0.239289 0.284757 0.899719
O O10 0.557915 0.344153 0.234979
O O11 0.402170 0.593576 0.261748
O O12 0.113442 0.703086 0.350123
O O13 0.756860 0.573872 0.486010
O O14 0.872338 0.726800 0.444047
#
# Coordination Sequence:
#
# PCOD8017872 Si02
#       7
#     2   2   2   2   2   2   2
#     4  11  22  41  63 101 129 158 203 273 307 374
#     4  10  26  44  64  91 124 175 210 259 303 383
#     4  11  24  44  66  88 132 164 217 253 317 366
#     4  11  23  39  68  95 126 164 215 252 319 365
#     4  10  24  42  66  96 130 158 213 258 316 370
#     4  10  22  39  67  94 124 167 207 259 311 372
#     4  11  23  39  66  99 127 162 205 266 312 370
#
# _framework density 23.070454000000002
#
# number of rings (size 3 to 8) (size 9 to 14) (size 15 to 20)
#    0.000    1.429    1.429    3.429   10.000    2.286 
#    0.000    0.714    0.000    0.000    0.000    0.000 
#    0.000    0.000    0.000    0.000    0.000    0.000 
#
# Total GULP energy -173574.053097 kJ/mol
# GULP energy per Si atom -12398.146650 kJ/mol
# Density = 2.301794 g / cm^3
# Si number density = 23.070454 Si / 1000 Ang^3
#
#
#
# Elastic Constant Matrix: (Units=GPa)
#
#
# Indices 1 2 3 4 5 6 
#
# 1 112.7527 8.9767 21.4204 -1.0389 -0.0961 -15.4410
# 2 8.9767 39.4564 21.7601 0.4152 7.9820 -3.3908
# 3 21.4204 21.7601 109.2630 -14.6910 -6.0177 -12.5406
# 4 -1.0389 0.4152 -14.6910 39.8526 -5.8521 -2.4906
# 5 -0.0961 7.9820 -6.0177 -5.8521 26.8632 0.2747
# 6 -15.4410 -3.3908 -12.5406 -2.4906 0.2747 14.7054
#
#
#
# Elastic Compliance Matrix: (Units=1/GPa)
#
#
# Indices 1 2 3 4 5 6 
#
# 1 0.010503 -0.001327 -0.000460 0.000831 0.000403 0.010463
# 2 -0.001327 0.032358 -0.007683 -0.005100 -0.012440 -0.001116
# 3 -0.000460 -0.007683 0.013146 0.006495 0.006540 0.009934
# 4 0.000831 -0.005100 0.006495 0.029558 0.009310 0.010068
# 5 0.000403 -0.012440 0.006540 0.009310 0.044377 0.003879
# 6 0.010463 -0.001116 0.009934 0.010068 0.003879 0.088837
#
#
# Mechanical properties :
#
#
# Convention : Reuss Voigt Hill
#
# Bulk Modulus (GPa) = 26.97794 40.64294 33.81044
# Shear Modulus (GPa) = 19.99410 30.23856 25.11633
#
# Velocity S-wave (km/s) = 2.94709 3.62429 3.30309
# Velocity P-wave (km/s) = 4.82696 5.93036 5.40688
#
# Compressibility (1/GPa) = 0.03706732
#
# Stress axis : x y z
#
# Youngs Moduli (GPa) = 95.21191 30.90435 76.06760
#
# Poissons Ratio (x) = 0.04101 0.03498
# Poissons Ratio (y) = 0.12634 0.58443
# Poissons Ratio (z) = 0.04379 0.23744
#
# Static dielectric constant tensor:
#      x y z
#    x 4.249190 -0.092320 -0.051680 
#    y -0.092320 3.804220 0.068770 
#    z -0.051680 0.068770 4.373220 
# 
# 
# High freq. dielectric constant tensor:
#      x y z
#    x 1.919560 -0.010390 -0.008560 
#    y -0.010390 1.878940 -0.005140 
#    z -0.008560 -0.005140 1.923740 
# 
# From -- ./inp_files/180661.got.cif
#   From: 2010.06.25/outbox.cif.g09.slc.cpg/sg2_91_cif.got.tgz:180661.got - 2010.06.27 13:26:56.
