data_PCOD8017735
_publ_section_title
;
Structure prediction by ZEFSAII (Michael W. Deem and Ramdas Pophale) SiO2 
 PCOD8017735
Probable space group: P -1
;
_chemical_formula_sum "Si O2"
_cell_formula_units_Z 14
_cell_length_a 14.274327
_cell_length_b 19.240730
_cell_length_c 8.865108
_cell_angle_alpha 47.531897
_cell_angle_beta 46.897035
_cell_angle_gamma 20.592682
_cell_volume 619.245048
_symmetry_space_group_name_H-M "P -1"
_symmetry_group_IT_number 2
_symmetry_cell_setting 'triclinic'
loop_
_space_group_symop_operation_xyz
x,y,z
-x,-y,-z
loop_
_atom_site_type_symbol
_atom_site_label
_atom_site_fract_x
_atom_site_fract_y
_atom_site_fract_z
Si Si1 0.855309 0.329193 0.850625
Si Si2 0.888015 0.703208 0.746578
Si Si3 0.154073 0.462186 0.506997
Si Si4 0.395993 0.972899 0.235875
Si Si5 0.653494 0.054369 0.973220
Si Si6 0.550585 0.620016 0.260793
Si Si7 0.489429 0.511931 0.739666
O O1 0.738180 0.512131 0.730006
O O2 0.785679 0.333210 0.755092
O O3 0.726551 0.344671 0.097114
O O4 0.179795 0.114092 0.839606
O O5 0.956375 0.636244 0.596219
O O6 0.152735 0.526309 0.821595
O O7 0.771861 0.885535 0.638295
O O8 0.660277 0.776181 0.940494
O O9 0.382196 0.248654 0.639476
O O10 0.000000 0.500000 0.500000
O O11 0.217459 0.040192 0.199987
O O12 0.500000 0.000000 0.000000
O O13 0.660766 0.158894 0.857047
O O14 0.447340 0.626421 0.506739
O O15 0.541272 0.566177 0.198078
#
# Coordination Sequence:
#
# PCOD8017735 Si02
#       7
#     2   2   2   2   2   2   2
#     4  11  24  46  65  98 141 179 231 282 342 403
#     4  11  23  42  69 103 142 169 223 285 345 414
#     4  12  25  42  66 101 143 180 221 283 352 405
#     4  10  22  39  64  99 134 181 218 261 343 419
#     4  11  23  39  71 103 135 176 227 283 354 410
#     4  11  22  44  71  98 132 184 235 280 341 399
#     4  10  24  45  68  90 136 190 231 287 326 401
#
# _framework density 22.608174000000002
#
# number of rings (size 3 to 8) (size 9 to 14) (size 15 to 20)
#    0.000    1.143    2.857    3.000    4.000    3.429 
#    0.000    5.714    0.000    0.000    0.000    0.000 
#    0.000    0.000    0.000    0.000    0.000    0.000 
#
# Total GULP energy -173445.786234 kJ/mol
# GULP energy per Si atom -12388.984731 kJ/mol
# Density = 2.255672 g / cm^3
# Si number density = 22.608174 Si / 1000 Ang^3
#
#
#
# Elastic Constant Matrix: (Units=GPa)
#
#
# Indices 1 2 3 4 5 6 
#
# 1 162.2336 47.6983 31.7279 -12.7988 12.3587 -1.8340
# 2 47.6983 90.0096 43.0174 -24.3929 -4.1015 18.3052
# 3 31.7279 43.0174 82.6449 -21.8780 -2.6630 7.2836
# 4 -12.7988 -24.3929 -21.8780 38.9968 5.8565 4.4719
# 5 12.3587 -4.1015 -2.6630 5.8565 37.1507 -1.1579
# 6 -1.8340 18.3052 7.2836 4.4719 -1.1579 40.0642
#
#
#
# Elastic Compliance Matrix: (Units=1/GPa)
#
#
# Indices 1 2 3 4 5 6 
#
# 1 0.007925 -0.004484 -0.001235 -0.000745 -0.003020 0.002632
# 2 -0.004484 0.020740 -0.005758 0.009127 0.001630 -0.009606
# 3 -0.001235 -0.005758 0.017207 0.005775 0.000061 -0.001197
# 4 -0.000745 0.009127 0.005775 0.036073 -0.004310 -0.009405
# 5 -0.003020 0.001630 0.000061 -0.004310 0.028799 0.000419
# 6 0.002632 -0.009606 -0.001197 -0.009405 0.000419 0.030749
#
#
# Mechanical properties :
#
#
# Convention : Reuss Voigt Hill
#
# Bulk Modulus (GPa) = 43.63541 64.41947 54.02744
# Shear Modulus (GPa) = 29.05505 37.40529 33.23017
#
# Velocity S-wave (km/s) = 3.58880 4.07197 3.83800
# Velocity P-wave (km/s) = 6.04278 7.11784 6.60223
#
# Compressibility (1/GPa) = 0.02291717
#
# Stress axis : x y z
#
# Youngs Moduli (GPa) = 126.18398 48.21688 58.11470
#
# Poissons Ratio (x) = 0.21622 0.07176
# Poissons Ratio (y) = 0.56584 0.33464
# Poissons Ratio (z) = 0.15581 0.27765
#
# Static dielectric constant tensor:
#      x y z
#    x 4.731930 0.165570 0.188160 
#    y 0.165570 4.147880 -0.012480 
#    z 0.188160 -0.012480 4.099720 
# 
# 
# High freq. dielectric constant tensor:
#      x y z
#    x 1.917620 0.005910 0.004230 
#    y 0.005910 1.869760 -0.011480 
#    z 0.004230 -0.011480 1.884440 
# 
# From -- ./inp_files/319233.got.cif
#   From: 2010.06.25/outbox.cif.g09.slc.cpg/sg2_160_cif.got.tgz:319233.got - 2010.06.27 13:26:56.
