data_PCOD8017159
_publ_section_title
;
Structure prediction by ZEFSAII (Michael W. Deem and Ramdas Pophale) SiO2 
 PCOD8017159
Probable space group: P -1
;
_chemical_formula_sum "Si O2"
_cell_formula_units_Z 16
_cell_length_a 16.988807
_cell_length_b 6.516470
_cell_length_c 18.882816
_cell_angle_alpha 81.067698
_cell_angle_beta 155.720378
_cell_angle_gamma 88.543532
_cell_volume 774.115798
_symmetry_space_group_name_H-M "P -1"
_symmetry_group_IT_number 2
_symmetry_cell_setting 'triclinic'
loop_
_space_group_symop_operation_xyz
x,y,z
-x,-y,-z
loop_
_atom_site_type_symbol
_atom_site_label
_atom_site_fract_x
_atom_site_fract_y
_atom_site_fract_z
Si Si1 0.030494 0.680427 0.816445
Si Si2 0.306955 0.511281 0.438424
Si Si3 0.756798 0.657967 0.103487
Si Si4 0.287367 0.826858 0.276600
Si Si5 0.996064 0.718593 0.945692
Si Si6 0.279472 0.890354 0.670098
Si Si7 0.930991 0.357749 0.395600
Si Si8 0.862639 0.184928 0.594140
O O1 0.220665 0.524378 0.930541
O O2 0.873445 0.562834 0.686131
O O3 0.094653 0.660592 0.952034
O O4 0.930286 0.936658 0.694794
O O5 0.255660 0.682668 0.322153
O O6 0.494297 0.280617 0.579389
O O7 0.323207 0.640056 0.516851
O O8 0.784315 0.527125 0.207146
O O9 0.925754 0.770048 0.236071
O O10 0.519927 0.848914 0.887098
O O11 0.129495 0.835691 0.085216
O O12 0.242327 0.080879 0.255964
O O13 0.000000 0.500000 0.000000
O O14 0.207816 0.760575 0.677641
O O15 0.245104 0.795175 0.571303
O O16 0.141003 0.162568 0.544347
O O17 0.000000 0.500000 0.500000
#
# Coordination Sequence:
#
# PCOD8017159 Si02
#       8
#     2   2   2   2   2   2   2   2
#     4  11  23  42  62  89 133 171 212 278 328 388
#     4  10  22  40  61  90 122 168 217 275 329 381
#     4  11  25  44  69 100 133 175 221 265 329 395
#     4  10  22  38  61  89 120 163 225 272 327 388
#     4  11  22  39  59  88 125 168 219 271 324 393
#     4  11  25  44  71 100 131 179 216 262 336 387
#     4  11  23  46  71 102 137 165 221 273 313 401
#     4  11  23  45  63  95 139 169 222 276 322 401
#
# _framework density 20.668742999999999
#
# number of rings (size 3 to 8) (size 9 to 14) (size 15 to 20)
#    0.000    1.250    5.000    0.375    1.750    3.000 
#    2.250    0.000    0.000    0.000    0.000    0.000 
#    0.000    0.000    0.000    0.000    0.000    0.000 
#
# Total GULP energy -198257.784924 kJ/mol
# GULP energy per Si atom -12391.111558 kJ/mol
# Density = 2.062170 g / cm^3
# Si number density = 20.668743 Si / 1000 Ang^3
#
#
#
# Elastic Constant Matrix: (Units=GPa)
#
#
# Indices 1 2 3 4 5 6 
#
# 1 118.3624 35.2208 39.0027 -3.1329 -20.1316 -17.6984
# 2 35.2208 107.7739 25.0659 -12.5649 -13.1838 -4.1496
# 3 39.0027 25.0659 97.9505 -5.4690 -9.1751 -13.0471
# 4 -3.1329 -12.5649 -5.4690 28.8678 -2.8741 -5.7502
# 5 -20.1316 -13.1838 -9.1751 -2.8741 32.7866 -3.2045
# 6 -17.6984 -4.1496 -13.0471 -5.7502 -3.2045 48.0569
#
#
#
# Elastic Compliance Matrix: (Units=1/GPa)
#
#
# Indices 1 2 3 4 5 6 
#
# 1 0.011677 -0.002113 -0.002974 0.001144 0.005964 0.003845
# 2 -0.002113 0.011293 -0.001378 0.004884 0.003347 0.000630
# 3 -0.002974 -0.001378 0.012331 0.002056 0.001493 0.002479
# 4 0.001144 0.004884 0.002056 0.039324 0.007333 0.006595
# 5 0.005964 0.003347 0.001493 0.007333 0.037179 0.006247
# 6 0.003845 0.000630 0.002479 0.006595 0.006247 0.024158
#
#
# Mechanical properties :
#
#
# Convention : Reuss Voigt Hill
#
# Bulk Modulus (GPa) = 44.70377 58.07395 51.38886
# Shear Modulus (GPa) = 31.97945 36.92876 34.45411
#
# Velocity S-wave (km/s) = 3.93776 4.23152 4.08728
# Velocity P-wave (km/s) = 6.50771 7.21338 6.86961
#
# Compressibility (1/GPa) = 0.02236948
#
# Stress axis : x y z
#
# Youngs Moduli (GPa) = 85.63731 88.55037 81.09612
#
# Poissons Ratio (x) = 0.18715 0.24120
# Poissons Ratio (y) = 0.18099 0.11177
# Poissons Ratio (z) = 0.25470 0.12204
#
# Static dielectric constant tensor:
#      x y z
#    x 4.414510 -0.783810 0.368060 
#    y -0.783810 4.658080 -0.713350 
#    z 0.368060 -0.713350 4.097300 
# 
# 
# High freq. dielectric constant tensor:
#      x y z
#    x 1.827880 -0.012640 -0.006540 
#    y -0.012640 1.823710 -0.008820 
#    z -0.006540 -0.008820 1.792860 
# 
# From -- ./inp_files/323025.got.cif
#   From: 2010.06.25/outbox.cif.g09.slc.cpg/sg2_162_cif.got.tgz:323025.got - 2010.06.27 13:26:56.
