data_PCOD8017439
_publ_section_title
;
Structure prediction by ZEFSAII (Michael W. Deem and Ramdas Pophale) SiO2 
 PCOD8017439
Probable space group: P -1
;
_chemical_formula_sum "Si O2"
_cell_formula_units_Z 14
_cell_length_a 6.475330
_cell_length_b 10.449680
_cell_length_c 14.480893
_cell_angle_alpha 133.932689
_cell_angle_beta 133.654998
_cell_angle_gamma 57.918260
_cell_volume 507.974547
_symmetry_space_group_name_H-M "P -1"
_symmetry_group_IT_number 2
_symmetry_cell_setting 'triclinic'
loop_
_space_group_symop_operation_xyz
x,y,z
-x,-y,-z
loop_
_atom_site_type_symbol
_atom_site_label
_atom_site_fract_x
_atom_site_fract_y
_atom_site_fract_z
Si Si1 0.714213 0.886555 0.895680
Si Si2 0.940753 0.469303 0.104029
Si Si3 0.209816 0.796038 0.811728
Si Si4 0.558722 0.560167 0.200936
Si Si5 0.669529 0.105670 0.377384
Si Si6 0.147258 0.826880 0.342761
Si Si7 0.839383 0.812680 0.544985
O O1 0.398291 0.904952 0.854760
O O2 0.641818 0.882306 0.761879
O O3 0.884161 0.707620 0.894207
O O4 0.872376 0.065211 0.058672
O O5 0.790916 0.565709 0.194809
O O6 0.136824 0.621357 0.201443
O O7 0.744610 0.417344 0.933759
O O8 0.398212 0.626957 0.826495
O O9 0.932789 0.742086 0.641682
O O10 0.583148 0.715533 0.365579
O O11 0.613714 0.166512 0.497303
O O12 0.882867 0.236631 0.460976
O O13 0.831071 0.902071 0.323751
O O14 0.228162 0.969960 0.361640
#
# Coordination Sequence:
#
# PCOD8017439 Si02
#       7
#     2   2   2   2   2   2   2
#     4  10  22  39  59  91 115 157 206 237 285 352
#     4  11  23  37  62  92 118 152 199 248 289 348
#     4  10  22  40  62  82 120 160 195 242 293 354
#     4  11  22  39  61  89 124 152 190 247 308 339
#     4   8  15  32  61  82 112 147 197 239 280 334
#     4   9  16  35  61  87 110 155 195 238 283 349
#     4   9  18  37  63  84 114 158 195 236 294 353
#
# _framework density 27.560437
#
# number of rings (size 3 to 8) (size 9 to 14) (size 15 to 20)
#    0.857    1.429    1.429    1.286    2.000    2.857 
#    0.000    0.714    0.000    0.000    0.000    0.000 
#    0.000    0.000    0.000    0.000    0.000    0.000 
#
# Total GULP energy -173559.254964 kJ/mol
# GULP energy per Si atom -12397.089640 kJ/mol
# Density = 2.749771 g / cm^3
# Si number density = 27.560437 Si / 1000 Ang^3
#
#
#
# Elastic Constant Matrix: (Units=GPa)
#
#
# Indices 1 2 3 4 5 6 
#
# 1 55.2149 10.6870 41.3429 -3.5250 -26.1518 -5.7627
# 2 10.6870 188.7177 104.1363 -13.5811 -20.6762 -11.6502
# 3 41.3429 104.1363 222.3885 -30.2459 -18.8525 -15.3421
# 4 -3.5250 -13.5811 -30.2459 64.1770 2.1215 -6.7866
# 5 -26.1518 -20.6762 -18.8525 2.1215 56.0459 0.8437
# 6 -5.7627 -11.6502 -15.3421 -6.7866 0.8437 30.4811
#
#
#
# Elastic Compliance Matrix: (Units=1/GPa)
#
#
# Indices 1 2 3 4 5 6 
#
# 1 0.027535 0.002834 -0.005257 -0.000425 0.012093 0.003214
# 2 0.002834 0.007610 -0.003736 0.000070 0.002848 0.001501
# 3 -0.005257 -0.003736 0.007626 0.002780 -0.001403 0.002074
# 4 -0.000425 0.000070 0.002780 0.017436 0.000024 0.005227
# 5 0.012093 0.002848 -0.001403 0.000024 0.024033 0.002009
# 6 0.003214 0.001501 0.002074 0.005227 0.002009 0.036141
#
#
# Mechanical properties :
#
#
# Convention : Reuss Voigt Hill
#
# Bulk Modulus (GPa) = 32.83750 86.51706 59.67728
# Shear Modulus (GPa) = 35.00252 50.81778 42.91015
#
# Velocity S-wave (km/s) = 3.56761 4.29869 3.95010
# Velocity P-wave (km/s) = 5.37690 7.48987 6.51956
#
# Compressibility (1/GPa) = 0.03045299
#
# Stress axis : x y z
#
# Youngs Moduli (GPa) = 36.31783 131.41461 131.13817
#
# Poissons Ratio (x) = -0.37247 0.68939
# Poissons Ratio (y) = -0.10294 0.48989
# Poissons Ratio (z) = 0.19092 0.49092
#
# Static dielectric constant tensor:
#      x y z
#    x 5.365080 0.050890 -0.040980 
#    y 0.050890 4.540410 -0.248350 
#    z -0.040980 -0.248350 5.024040 
# 
# 
# High freq. dielectric constant tensor:
#      x y z
#    x 2.157370 -0.006140 0.001070 
#    y -0.006140 2.095110 -0.019650 
#    z 0.001070 -0.019650 2.123120 
# 
# From -- ./inp_files/560084.got.cif
#   From: 2010.06.25/outbox.cif.g09.slc.cpg/sg2_281_cif.got.tgz:560084.got - 2010.06.27 13:26:56.
