data_PCOD8017800
_publ_section_title
;
Structure prediction by ZEFSAII (Michael W. Deem and Ramdas Pophale) SiO2 
 PCOD8017800
Probable space group: P -1
;
_chemical_formula_sum "Si O2"
_cell_formula_units_Z 12
_cell_length_a 9.519040
_cell_length_b 9.798771
_cell_length_c 12.778239
_cell_angle_alpha 44.219926
_cell_angle_beta 67.997516
_cell_angle_gamma 43.515787
_cell_volume 545.612046
_symmetry_space_group_name_H-M "P -1"
_symmetry_group_IT_number 2
_symmetry_cell_setting 'triclinic'
loop_
_space_group_symop_operation_xyz
x,y,z
-x,-y,-z
loop_
_atom_site_type_symbol
_atom_site_label
_atom_site_fract_x
_atom_site_fract_y
_atom_site_fract_z
Si Si1 0.885039 0.341714 0.735610
Si Si2 0.301454 0.739898 0.995039
Si Si3 0.562754 0.011426 0.088966
Si Si4 0.980430 0.398824 0.358754
Si Si5 0.735064 0.301081 0.596663
Si Si6 0.841030 0.774573 0.824465
O O1 0.797199 0.357605 0.865651
O O2 0.722284 0.427180 0.641749
O O3 0.891323 0.574718 0.610919
O O4 0.116486 0.025369 0.825094
O O5 0.500000 0.500000 0.000000
O O6 0.393424 0.797448 0.028594
O O7 0.386658 0.123564 0.163697
O O8 0.769947 0.708712 0.226996
O O9 0.500000 0.000000 0.000000
O O10 0.914210 0.250227 0.505851
O O11 0.103824 0.251015 0.297965
O O12 0.500000 0.500000 0.500000
O O13 0.827314 0.001031 0.755932
O O14 0.000000 0.500000 0.000000
#
# Coordination Sequence:
#
# PCOD8017800 Si02
#       6
#     2   2   2   2   2   2
#     4  10  24  43  68  95 137 180 225 276 336 405
#     4  10  22  39  66 101 133 172 228 279 332 392
#     4  11  21  38  65  99 134 172 222 278 326 394
#     4  11  24  45  66  97 138 177 222 279 340 398
#     4  12  26  47  69  99 142 181 220 282 349 399
#     4  12  25  41  72 100 133 179 233 275 330 402
#
# _framework density 21.993646999999999
#
# number of rings (size 3 to 8) (size 9 to 14) (size 15 to 20)
#    0.000    1.000    3.333    3.000    7.000    0.000 
#    3.000    0.833    0.000    0.000    0.000    0.000 
#    0.000    0.000    0.000    0.000    0.000    0.000 
#
# Total GULP energy -148758.721682 kJ/mol
# GULP energy per Si atom -12396.560140 kJ/mol
# Density = 2.194359 g / cm^3
# Si number density = 21.993647 Si / 1000 Ang^3
#
#
#
# Elastic Constant Matrix: (Units=GPa)
#
#
# Indices 1 2 3 4 5 6 
#
# 1 136.5941 19.0824 46.5557 -8.8742 6.8225 2.9559
# 2 19.0824 80.9874 37.3605 -8.1616 23.7131 -33.9665
# 3 46.5557 37.3605 42.4967 15.5138 -24.9458 32.2594
# 4 -8.8742 -8.1616 15.5138 25.2422 15.0345 -18.5117
# 5 6.8225 23.7131 -24.9458 15.0345 28.0663 27.4229
# 6 2.9559 -33.9665 32.2594 -18.5117 27.4229 20.1088
#
#
#
# Elastic Compliance Matrix: (Units=1/GPa)
#
#
# Indices 1 2 3 4 5 6 
#
# 1 0.008708 -0.002915 -0.002889 -0.000077 0.001735 -0.004007
# 2 -0.002915 0.007883 0.003780 -0.006048 0.004261 -0.003698
# 3 -0.002889 0.003780 0.008759 0.006778 -0.007953 0.009842
# 4 -0.000077 -0.006048 0.006778 0.023623 0.006477 -0.008164
# 5 0.001735 0.004261 -0.007953 0.006477 0.012044 0.009238
# 6 -0.004007 -0.003698 0.009842 -0.008164 0.009238 0.008169
#
#
# Mechanical properties :
#
#
# Convention : Reuss Voigt Hill
#
# Bulk Modulus (GPa) = 46.94606 51.78615 49.36611
# Shear Modulus (GPa) = 62.23914 25.15541 43.69727
#
# Velocity S-wave (km/s) = 5.32542 3.38562 4.46220
# Velocity P-wave (km/s) = 7.69449 6.23541 7.00305
#
# Compressibility (1/GPa) = 0.02130104
#
# Stress axis : x y z
#
# Youngs Moduli (GPa) = 114.83873 126.85538 114.16535
#
# Poissons Ratio (x) = 0.36981 0.32980
# Poissons Ratio (y) = 0.33478 -0.43149
# Poissons Ratio (z) = 0.33175 -0.47945
#
# Static dielectric constant tensor:
#      x y z
#    x 3.903010 -0.203180 -0.267860 
#    y -0.203180 4.023320 0.031000 
#    z -0.267860 0.031000 3.816700 
# 
# 
# High freq. dielectric constant tensor:
#      x y z
#    x 1.890810 0.000730 -0.014200 
#    y 0.000730 1.865540 0.005260 
#    z -0.014200 0.005260 1.849340 
# 
# From -- ./inp_files/158233.got.cif
#   From: 2010.06.25/outbox.cif.g09.slc.cpg/sg2_80_cif.got.tgz:158233.got - 2010.06.27 13:26:56.
