data_PCOD8017639
_publ_section_title
;
Structure prediction by ZEFSAII (Michael W. Deem and Ramdas Pophale) SiO2 
 PCOD8017639
Probable space group: P -1
;
_chemical_formula_sum "Si O2"
_cell_formula_units_Z 16
_cell_length_a 7.121529
_cell_length_b 7.879926
_cell_length_c 18.701315
_cell_angle_alpha 93.438537
_cell_angle_beta 136.747786
_cell_angle_gamma 81.397091
_cell_volume 709.153690
_symmetry_space_group_name_H-M "P -1"
_symmetry_group_IT_number 2
_symmetry_cell_setting 'triclinic'
loop_
_space_group_symop_operation_xyz
x,y,z
-x,-y,-z
loop_
_atom_site_type_symbol
_atom_site_label
_atom_site_fract_x
_atom_site_fract_y
_atom_site_fract_z
Si Si1 0.965076 0.672532 0.070884
Si Si2 0.997275 0.276333 0.619412
Si Si3 0.131775 0.650609 0.677154
Si Si4 0.378677 0.937396 0.675768
Si Si5 0.700964 0.943489 0.907008
Si Si6 0.567687 0.486297 0.894392
Si Si7 0.777522 0.782370 0.168369
Si Si8 0.547661 0.844083 0.564866
O O1 0.955923 0.778674 0.144728
O O2 0.282844 0.635576 0.132055
O O3 0.750607 0.759483 0.952805
O O4 0.808556 0.505362 0.020833
O O5 0.102990 0.457899 0.635814
O O6 0.018167 0.227225 0.707913
O O7 0.676530 0.285008 0.510300
O O8 0.173067 0.118892 0.620703
O O9 0.209641 0.777083 0.639144
O O10 0.373110 0.643699 0.803771
O O11 0.846266 0.732637 0.636110
O O12 0.617360 0.941877 0.801124
O O13 0.531831 0.917510 0.642332
O O14 0.460153 0.054169 0.889640
O O15 0.000000 0.000000 0.000000
O O16 0.361593 0.387651 0.878016
O O17 0.500000 0.000000 0.500000
#
# Coordination Sequence:
#
# PCOD8017639 Si02
#       8
#     2   2   2   2   2   2   2   2
#     4  11  21  38  64  91 132 175 214 261 327 395
#     4  10  24  47  68 102 137 176 232 279 343 407
#     4  11  24  46  71 102 136 174 231 281 340 409
#     4  11  25  48  70  98 143 178 221 291 336 402
#     4  11  22  41  64  98 133 174 224 265 334 400
#     4  10  22  40  60  96 131 168 218 266 324 399
#     4  10  22  39  63  93 130 169 217 274 318 391
#     4  12  26  47  74 101 133 180 229 284 351 407
#
# _framework density 22.562104999999999
#
# number of rings (size 3 to 8) (size 9 to 14) (size 15 to 20)
#    0.000    1.250    3.750    1.500    0.000    4.500 
#    2.250    0.000    0.000    0.000    0.000    0.000 
#    0.000    0.000    0.000    0.000    0.000    0.000 
#
# Total GULP energy -198282.415051 kJ/mol
# GULP energy per Si atom -12392.650941 kJ/mol
# Density = 2.251075 g / cm^3
# Si number density = 22.562105 Si / 1000 Ang^3
#
#
#
# Elastic Constant Matrix: (Units=GPa)
#
#
# Indices 1 2 3 4 5 6 
#
# 1 108.8194 43.0263 57.9825 -6.7297 -2.4471 -22.6355
# 2 43.0263 106.0108 30.8377 -13.0975 -1.1195 -11.6677
# 3 57.9825 30.8377 76.3909 -4.7260 -8.1937 -19.2458
# 4 -6.7297 -13.0975 -4.7260 36.7235 -1.9602 7.1862
# 5 -2.4471 -1.1195 -8.1937 -1.9602 20.5887 1.4795
# 6 -22.6355 -11.6677 -19.2458 7.1862 1.4795 34.4102
#
#
#
# Elastic Compliance Matrix: (Units=1/GPa)
#
#
# Indices 1 2 3 4 5 6 
#
# 1 0.017128 -0.003404 -0.010891 -0.000457 -0.002832 0.004239
# 2 -0.003404 0.011803 -0.002014 0.003323 -0.000244 -0.000046
# 3 -0.010891 -0.002014 0.024387 -0.000231 0.007884 0.005502
# 4 -0.000457 0.003323 -0.000231 0.029575 0.003254 -0.005620
# 5 -0.002832 -0.000244 0.007884 0.003254 0.051699 -0.000438
# 6 0.004239 -0.000046 0.005502 -0.005620 -0.000438 0.036104
#
#
# Mechanical properties :
#
#
# Convention : Reuss Voigt Hill
#
# Bulk Modulus (GPa) = 48.30302 61.65710 54.98006
# Shear Modulus (GPa) = 23.78535 28.96946 26.37740
#
# Velocity S-wave (km/s) = 3.25039 3.58716 3.42292
# Velocity P-wave (km/s) = 5.96172 6.67413 6.32796
#
# Compressibility (1/GPa) = 0.02070264
#
# Stress axis : x y z
#
# Youngs Moduli (GPa) = 58.38413 84.72444 41.00490
#
# Poissons Ratio (x) = 0.28836 0.44657
# Poissons Ratio (y) = 0.19871 0.08257
# Poissons Ratio (z) = 0.63584 0.17061
#
# Static dielectric constant tensor:
#      x y z
#    x 3.936090 0.147390 0.053850 
#    y 0.147390 4.480480 -0.140930 
#    z 0.053850 -0.140930 4.096760 
# 
# 
# High freq. dielectric constant tensor:
#      x y z
#    x 1.879620 0.003370 0.014390 
#    y 0.003370 1.897480 0.002000 
#    z 0.014390 0.002000 1.896810 
# 
# From -- ./inp_files/504446.got.cif
#   From: 2010.06.25/outbox.cif.g09.slc.cpg/sg2_253_cif.got.tgz:504446.got - 2010.06.27 13:26:56.
