data_PCOD8017480
_publ_section_title
;
Structure prediction by ZEFSAII (Michael W. Deem and Ramdas Pophale) SiO2 
 PCOD8017480
Probable space group: P -1
;
_chemical_formula_sum "Si O2"
_cell_formula_units_Z 14
_cell_length_a 8.806865
_cell_length_b 10.918516
_cell_length_c 8.859851
_cell_angle_alpha 54.621575
_cell_angle_beta 100.537052
_cell_angle_gamma 87.041064
_cell_volume 669.604335
_symmetry_space_group_name_H-M "P -1"
_symmetry_group_IT_number 2
_symmetry_cell_setting 'triclinic'
loop_
_space_group_symop_operation_xyz
x,y,z
-x,-y,-z
loop_
_atom_site_type_symbol
_atom_site_label
_atom_site_fract_x
_atom_site_fract_y
_atom_site_fract_z
Si Si1 0.162126 0.769857 0.063105
Si Si2 0.610758 0.519261 0.792411
Si Si3 0.684891 0.949036 0.086790
Si Si4 0.273395 0.553213 0.811252
Si Si5 0.105758 0.342802 0.745797
Si Si6 0.795325 0.722092 0.508298
Si Si7 0.960860 0.175015 0.320666
O O1 0.222146 0.916863 0.032292
O O2 0.045942 0.813495 0.868795
O O3 0.318621 0.649490 0.134660
O O4 0.063782 0.698494 0.221362
O O5 0.422217 0.543453 0.735273
O O6 0.656356 0.644344 0.599264
O O7 0.673358 0.538577 0.959015
O O8 0.754845 0.806793 0.090995
O O9 0.721661 0.891125 0.308040
O O10 0.500000 0.000000 0.000000
O O11 0.139909 0.478363 0.760700
O O12 0.203024 0.732674 0.703689
O O13 0.108766 0.381805 0.537441
O O14 0.904839 0.738114 0.658504
O O15 0.000000 0.000000 0.500000
#
# Coordination Sequence:
#
# PCOD8017480 Si02
#       7
#     2   2   2   2   2   2   2
#     4  11  21  40  69  86 125 166 200 251 304 363
#     4  10  22  41  63  92 118 167 206 248 306 356
#     4  10  22  41  60  90 130 162 198 249 309 362
#     4  10  22  40  64  87 127 159 205 252 305 366
#     4  10  22  39  60  94 118 163 203 247 307 357
#     4  10  23  40  61  92 126 154 211 249 300 361
#     4  11  21  41  62  91 121 157 206 253 299 360
#
# _framework density 20.907869999999999
#
# number of rings (size 3 to 8) (size 9 to 14) (size 15 to 20)
#    0.857    0.857    1.429    3.000    0.000    5.143 
#    5.143    0.714    0.000    0.000    0.000    0.000 
#    0.000    0.000    0.000    0.000    0.000    0.000 
#
# Total GULP energy -173582.016107 kJ/mol
# GULP energy per Si atom -12398.715436 kJ/mol
# Density = 2.086028 g / cm^3
# Si number density = 20.907870 Si / 1000 Ang^3
#
#
#
# Elastic Constant Matrix: (Units=GPa)
#
#
# Indices 1 2 3 4 5 6 
#
# 1 102.9772 26.6444 43.6858 -2.7218 -18.6082 -1.3582
# 2 26.6444 86.2517 19.2184 -3.6820 -9.3705 5.2172
# 3 43.6858 19.2184 75.0407 -9.2565 -16.6394 3.6517
# 4 -2.7218 -3.6820 -9.2565 27.3078 3.3421 1.5015
# 5 -18.6082 -9.3705 -16.6394 3.3421 41.1311 -2.3798
# 6 -1.3582 5.2172 3.6517 1.5015 -2.3798 35.9403
#
#
#
# Elastic Compliance Matrix: (Units=1/GPa)
#
#
# Indices 1 2 3 4 5 6 
#
# 1 0.013916 -0.002579 -0.007072 -0.001843 0.003107 0.001902
# 2 -0.002579 0.012963 -0.001376 0.000996 0.001044 -0.001812
# 3 -0.007072 -0.001376 0.019389 0.005330 0.003782 -0.002010
# 4 -0.001843 0.000996 0.005330 0.038727 -0.001741 -0.002489
# 5 0.003107 0.001044 0.003782 -0.001741 0.027714 0.001489
# 6 0.001902 -0.001812 -0.002010 -0.002489 0.001489 0.028566
#
#
# Mechanical properties :
#
#
# Convention : Reuss Voigt Hill
#
# Bulk Modulus (GPa) = 41.29758 49.26299 45.28028
# Shear Modulus (GPa) = 29.17169 32.52391 30.84780
#
# Velocity S-wave (km/s) = 3.73936 3.94837 3.84528
# Velocity P-wave (km/s) = 6.19990 6.66327 6.43576
#
# Compressibility (1/GPa) = 0.02421449
#
# Stress axis : x y z
#
# Youngs Moduli (GPa) = 71.85910 77.14359 51.57545
#
# Poissons Ratio (x) = 0.19898 0.36473
# Poissons Ratio (y) = 0.18535 0.07096
# Poissons Ratio (z) = 0.50817 0.10613
#
# Static dielectric constant tensor:
#      x y z
#    x 3.661830 -0.115190 0.017070 
#    y -0.115190 3.763210 -0.039520 
#    z 0.017070 -0.039520 3.761370 
# 
# 
# High freq. dielectric constant tensor:
#      x y z
#    x 1.816740 -0.004520 0.005610 
#    y -0.004520 1.818100 -0.008270 
#    z 0.005610 -0.008270 1.815570 
# 
# From -- ./inp_files/184325.got.cif
#   From: 2010.06.25/outbox.cif.g09.slc.cpg/sg2_93_cif.got.tgz:184325.got - 2010.06.27 13:26:56.
