data_PCOD8017947
_publ_section_title
;
Structure prediction by ZEFSAII (Michael W. Deem and Ramdas Pophale) SiO2 
 PCOD8017947
Probable space group: P -1
;
_chemical_formula_sum "Si O2"
_cell_formula_units_Z 16
_cell_length_a 8.847187
_cell_length_b 15.591775
_cell_length_c 9.899529
_cell_angle_alpha 63.597868
_cell_angle_beta 95.229216
_cell_angle_gamma 50.297526
_cell_volume 789.343069
_symmetry_space_group_name_H-M "P -1"
_symmetry_group_IT_number 2
_symmetry_cell_setting 'triclinic'
loop_
_space_group_symop_operation_xyz
x,y,z
-x,-y,-z
loop_
_atom_site_type_symbol
_atom_site_label
_atom_site_fract_x
_atom_site_fract_y
_atom_site_fract_z
Si Si1 0.815442 0.121670 0.289167
Si Si2 0.010738 0.391036 0.519451
Si Si3 0.485995 0.449936 0.669420
Si Si4 0.331747 0.614996 0.794152
Si Si5 0.320857 0.277654 0.080608
Si Si6 0.984403 0.616781 0.763693
Si Si7 0.054740 0.882256 0.993792
Si Si8 0.745588 0.849877 0.065827
O O1 0.701885 0.259328 0.269119
O O2 0.601577 0.153292 0.210105
O O3 0.946300 0.088308 0.184704
O O4 0.000000 0.000000 0.500000
O O5 0.149097 0.326632 0.432303
O O6 0.106371 0.266508 0.717869
O O7 0.000000 0.500000 0.500000
O O8 0.747116 0.498553 0.378422
O O9 0.500000 0.500000 0.500000
O O10 0.475426 0.536223 0.722265
O O11 0.692561 0.275906 0.830092
O O12 0.090893 0.671915 0.742103
O O13 0.500000 0.500000 0.000000
O O14 0.211679 0.296891 0.199364
O O15 0.278780 0.216407 0.007770
O O16 0.192894 0.437683 0.916135
O O17 0.870024 0.885531 0.996391
O O18 0.000000 0.000000 0.000000
O O19 0.500000 0.000000 0.000000
#
# Coordination Sequence:
#
# PCOD8017947 Si02
#       8
#     2   2   2   2   2   2   2   2
#     4  12  27  45  69  98 136 183 225 279 340 406
#     4  11  23  42  68 102 132 175 223 276 331 403
#     4  11  24  41  70 102 132 174 233 278 325 406
#     4  11  21  41  68  95 133 173 225 274 331 393
#     4  11  23  43  66 101 132 171 222 282 338 390
#     4  10  22  39  70 100 131 167 224 282 327 393
#     4  12  27  47  68 100 142 181 225 282 343 402
#     4  12  27  44  69  97 141 181 217 279 348 402
#
# _framework density 20.270019999999999
#
# number of rings (size 3 to 8) (size 9 to 14) (size 15 to 20)
#    0.000    0.750    5.000    2.250    3.500    4.000 
#    0.000    1.875    0.000    0.000    0.000    0.000 
#    0.000    0.000    0.000    0.000    0.000    0.000 
#
# Total GULP energy -198314.080757 kJ/mol
# GULP energy per Si atom -12394.630047 kJ/mol
# Density = 2.022388 g / cm^3
# Si number density = 20.270020 Si / 1000 Ang^3
#
#
#
# Elastic Constant Matrix: (Units=GPa)
#
#
# Indices 1 2 3 4 5 6 
#
# 1 84.6139 43.2360 49.0441 10.7763 5.4266 -5.5539
# 2 43.2360 144.1656 67.4453 18.4912 1.4197 2.1682
# 3 49.0441 67.4453 162.0044 20.2064 -6.2160 -10.9827
# 4 10.7763 18.4912 20.2064 46.0857 -5.8280 -0.6092
# 5 5.4266 1.4197 -6.2160 -5.8280 34.1856 7.1474
# 6 -5.5539 2.1682 -10.9827 -0.6092 7.1474 39.9415
#
#
#
# Elastic Compliance Matrix: (Units=1/GPa)
#
#
# Indices 1 2 3 4 5 6 
#
# 1 0.015861 -0.002983 -0.003377 -0.001471 -0.003693 0.002077
# 2 -0.002983 0.009478 -0.002937 -0.001893 -0.000424 -0.001690
# 3 -0.003377 -0.002937 0.008809 -0.001668 0.001599 0.001801
# 4 -0.001471 -0.001893 -0.001668 0.024066 0.004313 -0.000965
# 5 -0.003693 -0.000424 0.001599 0.004313 0.032079 -0.005725
# 6 0.002077 -0.001690 0.001801 -0.000965 -0.005725 0.026922
#
#
# Mechanical properties :
#
#
# Convention : Reuss Voigt Hill
#
# Bulk Modulus (GPa) = 64.29723 78.91495 71.60609
# Shear Modulus (GPa) = 35.46241 39.44647 37.45444
#
# Velocity S-wave (km/s) = 4.18724 4.41619 4.30324
# Velocity P-wave (km/s) = 7.42742 8.06350 7.75199
#
# Compressibility (1/GPa) = 0.01555277
#
# Stress axis : x y z
#
# Youngs Moduli (GPa) = 63.04954 105.51084 113.51507
#
# Poissons Ratio (x) = 0.31474 0.38335
# Poissons Ratio (y) = 0.18808 0.33344
# Poissons Ratio (z) = 0.21292 0.30992
#
# Static dielectric constant tensor:
#      x y z
#    x 4.238570 0.347010 1.808500 
#    y 0.347010 3.935510 1.013490 
#    z 1.808500 1.013490 8.810170 
# 
# 
# High freq. dielectric constant tensor:
#      x y z
#    x 1.799910 0.002780 -0.002660 
#    y 0.002780 1.804550 0.018500 
#    z -0.002660 0.018500 1.804870 
# 
# From -- ./inp_files/206398.got.cif
#   From: 2010.06.25/outbox.cif.g09.slc.cpg/sg2_104_cif.got.tgz:206398.got - 2010.06.27 13:26:56.
