data_PCOD8017829
_publ_section_title
;
Structure prediction by ZEFSAII (Michael W. Deem and Ramdas Pophale) SiO2 
 PCOD8017829
Probable space group: P -1
;
_chemical_formula_sum "Si O2"
_cell_formula_units_Z 16
_cell_length_a 10.724827
_cell_length_b 8.456165
_cell_length_c 13.868233
_cell_angle_alpha 122.237524
_cell_angle_beta 138.343601
_cell_angle_gamma 55.204607
_cell_volume 673.147740
_symmetry_space_group_name_H-M "P -1"
_symmetry_group_IT_number 2
_symmetry_cell_setting 'triclinic'
loop_
_space_group_symop_operation_xyz
x,y,z
-x,-y,-z
loop_
_atom_site_type_symbol
_atom_site_label
_atom_site_fract_x
_atom_site_fract_y
_atom_site_fract_z
Si Si1 0.101398 0.112291 0.021436
Si Si2 0.526564 0.577560 0.245538
Si Si3 0.935379 0.449140 0.325676
Si Si4 0.523464 0.993342 0.680202
Si Si5 0.081912 0.174165 0.483019
Si Si6 0.550501 0.353850 0.570010
Si Si7 0.156988 0.505134 0.928132
Si Si8 0.987892 0.849898 0.229442
O O1 0.328266 0.081522 0.169371
O O2 0.987239 0.345696 0.032713
O O3 0.094397 0.043869 0.884969
O O4 0.000000 0.000000 0.000000
O O5 0.733201 0.504015 0.287542
O O6 0.542163 0.517242 0.347415
O O7 0.432195 0.814942 0.274241
O O8 0.382807 0.484683 0.073386
O O9 0.011601 0.643536 0.438783
O O10 0.902679 0.400141 0.181385
O O11 0.091668 0.266634 0.410405
O O12 0.551535 0.818701 0.561487
O O13 0.298657 0.054812 0.607509
O O14 0.956192 0.021670 0.348575
O O15 0.500000 0.500000 0.500000
O O16 0.783885 0.267031 0.688654
O O17 0.136209 0.289709 0.853499
#
# Coordination Sequence:
#
# PCOD8017829 Si02
#       8
#     2   2   2   2   2   2   2   2
#     4  12  22  39  67 100 131 169 211 266 334 387
#     4  11  23  42  64  95 132 170 223 263 313 394
#     4  10  23  44  69  90 124 182 226 259 312 381
#     4  10  22  39  66  95 127 165 215 268 322 382
#     4   9  22  44  67  92 126 166 226 269 311 382
#     4  11  23  40  65  99 131 168 209 274 337 379
#     4  12  24  40  65  98 137 170 210 269 325 391
#     4  11  24  41  65  98 136 162 212 275 336 385
#
# _framework density 23.768930000000001
#
# number of rings (size 3 to 8) (size 9 to 14) (size 15 to 20)
#    0.000    1.250    2.500    2.625    1.750    9.500 
#    0.000    3.125    0.000    0.000    0.000    0.000 
#    0.000    0.000    0.000    0.000    0.000    0.000 
#
# Total GULP energy -198360.131576 kJ/mol
# GULP energy per Si atom -12397.508224 kJ/mol
# Density = 2.371483 g / cm^3
# Si number density = 23.768930 Si / 1000 Ang^3
#
#
#
# Elastic Constant Matrix: (Units=GPa)
#
#
# Indices 1 2 3 4 5 6 
#
# 1 48.6459 9.3954 25.9340 -2.4223 4.2247 8.8868
# 2 9.3954 74.2569 32.3013 3.2724 18.7165 8.4626
# 3 25.9340 32.3013 157.3655 -2.9720 14.4756 5.6331
# 4 -2.4223 3.2724 -2.9720 52.3325 11.4804 3.7139
# 5 4.2247 18.7165 14.4756 11.4804 32.4432 3.2971
# 6 8.8868 8.4626 5.6331 3.7139 3.2971 29.8414
#
#
#
# Elastic Compliance Matrix: (Units=1/GPa)
#
#
# Indices 1 2 3 4 5 6 
#
# 1 0.023852 -0.000569 -0.003446 0.001654 -0.001178 -0.006367
# 2 -0.000569 0.017158 -0.002491 0.000905 -0.008690 -0.003379
# 3 -0.003446 -0.002491 0.007603 0.000801 -0.001831 0.000400
# 4 0.001654 0.000905 0.000801 0.021186 -0.008326 -0.002617
# 5 -0.001178 -0.008690 -0.001831 -0.008326 0.039773 -0.000197
# 6 -0.006367 -0.003379 0.000400 -0.002617 -0.000197 0.036637
#
#
# Mechanical properties :
#
#
# Convention : Reuss Voigt Hill
#
# Bulk Modulus (GPa) = 28.08968 46.16995 37.12981
# Shear Modulus (GPa) = 29.22479 37.09926 33.16203
#
# Velocity S-wave (km/s) = 3.51028 3.95502 3.73927
# Velocity P-wave (km/s) = 5.31723 6.35003 5.85644
#
# Compressibility (1/GPa) = 0.03560027
#
# Stress axis : x y z
#
# Youngs Moduli (GPa) = 41.92554 58.28323 131.52558
#
# Poissons Ratio (x) = 0.03316 0.45330
# Poissons Ratio (y) = 0.02385 0.32758
# Poissons Ratio (z) = 0.14450 0.14516
#
# Static dielectric constant tensor:
#      x y z
#    x 3.683140 0.084630 -0.003710 
#    y 0.084630 4.398290 0.118740 
#    z -0.003710 0.118740 4.776430 
# 
# 
# High freq. dielectric constant tensor:
#      x y z
#    x 1.896610 0.006500 0.001450 
#    y 0.006500 1.942320 0.000290 
#    z 0.001450 0.000290 1.973620 
# 
# From -- ./inp_files/500242.got.cif
#   From: 2010.06.25/outbox.cif.g09.slc.cpg/sg2_251_cif.got.tgz:500242.got - 2010.06.27 13:26:56.
