data_PCOD8017185
_publ_section_title
;
Structure prediction by ZEFSAII (Michael W. Deem and Ramdas Pophale) SiO2 
 PCOD8017185
Probable space group: P -1
;
_chemical_formula_sum "Si O2"
_cell_formula_units_Z 14
_cell_length_a 16.999936
_cell_length_b 8.420661
_cell_length_c 14.052214
_cell_angle_alpha 125.648642
_cell_angle_beta 155.178721
_cell_angle_gamma 56.909103
_cell_volume 685.346164
_symmetry_space_group_name_H-M "P -1"
_symmetry_group_IT_number 2
_symmetry_cell_setting 'triclinic'
loop_
_space_group_symop_operation_xyz
x,y,z
-x,-y,-z
loop_
_atom_site_type_symbol
_atom_site_label
_atom_site_fract_x
_atom_site_fract_y
_atom_site_fract_z
Si Si1 0.110450 0.803834 0.083218
Si Si2 0.653364 0.260343 0.506173
Si Si3 0.464581 0.734531 0.824030
Si Si4 0.784919 0.015285 0.236322
Si Si5 0.695844 0.960659 0.908702
Si Si6 0.766440 0.680787 0.738761
Si Si7 0.430772 0.712320 0.254752
O O1 0.209367 0.853430 0.309379
O O2 0.249206 0.717142 0.124683
O O3 0.957521 0.636422 0.872889
O O4 0.000000 0.000000 0.000000
O O5 0.665902 0.198700 0.387168
O O6 0.445437 0.212202 0.291117
O O7 0.687178 0.490344 0.633691
O O8 0.516869 0.505479 0.800160
O O9 0.330430 0.787963 0.785417
O O10 0.663111 0.839303 0.080986
O O11 0.796211 0.019761 0.136048
O O12 0.000000 0.000000 0.500000
O O13 0.833493 0.846121 0.945175
O O14 0.599588 0.156175 0.825944
O O15 0.605748 0.787324 0.533340
#
# Coordination Sequence:
#
# PCOD8017185 Si02
#       7
#     2   2   2   2   2   2   2
#     4  12  23  35  57  92 129 163 195 239 304 365
#     4  10  22  38  62  88 126 158 203 250 301 367
#     4   9  23  42  62  89 117 160 206 252 305 349
#     4  10  23  42  65  87 115 157 213 258 292 355
#     4  11  21  39  65  87 124 166 195 253 310 350
#     4  11  22  38  61  93 124 162 201 246 305 366
#     4  11  23  41  61  91 132 157 197 250 304 378
#
# _framework density 20.427633
#
# number of rings (size 3 to 8) (size 9 to 14) (size 15 to 20)
#    0.000    1.429    2.857    2.143    6.000    2.857 
#    0.000    0.714    0.000    0.000    0.000    0.000 
#    0.000    0.000    0.000    0.000    0.000    0.000 
#
# Total GULP energy -173479.122662 kJ/mol
# GULP energy per Si atom -12391.365904 kJ/mol
# Density = 2.038114 g / cm^3
# Si number density = 20.427633 Si / 1000 Ang^3
#
#
#
# Elastic Constant Matrix: (Units=GPa)
#
#
# Indices 1 2 3 4 5 6 
#
# 1 104.6146 48.7529 72.1781 1.5465 -7.8261 -9.8105
# 2 48.7529 82.1341 43.8099 6.2401 -10.6306 -15.5002
# 3 72.1781 43.8099 130.8733 -10.6915 -11.9867 -6.9151
# 4 1.5465 6.2401 -10.6915 22.8477 1.7256 -2.2258
# 5 -7.8261 -10.6306 -11.9867 1.7256 39.1270 -5.2873
# 6 -9.8105 -15.5002 -6.9151 -2.2258 -5.2873 35.6586
#
#
#
# Elastic Compliance Matrix: (Units=1/GPa)
#
#
# Indices 1 2 3 4 5 6 
#
# 1 0.018158 -0.006063 -0.008263 -0.003366 -0.000331 0.000498
# 2 -0.006063 0.019617 -0.002970 -0.006028 0.004359 0.006553
# 3 -0.008263 -0.002970 0.013952 0.007774 0.001450 -0.000158
# 4 -0.003366 -0.006028 0.007774 0.049506 -0.002011 0.000753
# 5 -0.000331 0.004359 0.001450 -0.002011 0.028035 0.006116
# 6 0.000498 0.006553 -0.000158 0.000753 0.006116 0.031953
#
#
# Mechanical properties :
#
#
# Convention : Reuss Voigt Hill
#
# Bulk Modulus (GPa) = 58.36475 71.90042 65.13259
# Shear Modulus (GPa) = 24.81088 29.71871 27.26480
#
# Velocity S-wave (km/s) = 3.48886 3.81836 3.65732
# Velocity P-wave (km/s) = 6.69798 7.39688 7.05609
#
# Compressibility (1/GPa) = 0.01713363
#
# Stress axis : x y z
#
# Youngs Moduli (GPa) = 55.07364 50.97567 71.67405
#
# Poissons Ratio (x) = 0.30908 0.59227
# Poissons Ratio (y) = 0.33393 0.21286
# Poissons Ratio (z) = 0.45509 0.15139
#
# Static dielectric constant tensor:
#      x y z
#    x 4.077170 0.036290 -0.016860 
#    y 0.036290 3.498200 0.031430 
#    z -0.016860 0.031430 3.891000 
# 
# 
# High freq. dielectric constant tensor:
#      x y z
#    x 1.805350 0.003800 0.004680 
#    y 0.003800 1.785010 -0.001310 
#    z 0.004680 -0.001310 1.802160 
# 
# From -- ./inp_files/246119.got.cif
#   From: 2010.06.25/outbox.cif.g09.slc.cpg/sg2_124_cif.got.tgz:246119.got - 2010.06.27 13:26:56.
