data_PCOD8017306
_publ_section_title
;
Structure prediction by ZEFSAII (Michael W. Deem and Ramdas Pophale) SiO2 
 PCOD8017306
Probable space group: P -1
;
_chemical_formula_sum "Si O2"
_cell_formula_units_Z 16
_cell_length_a 11.603607
_cell_length_b 23.157399
_cell_length_c 8.865504
_cell_angle_alpha 140.899471
_cell_angle_beta 111.939036
_cell_angle_gamma 39.528072
_cell_volume 791.969907
_symmetry_space_group_name_H-M "P -1"
_symmetry_group_IT_number 2
_symmetry_cell_setting 'triclinic'
loop_
_space_group_symop_operation_xyz
x,y,z
-x,-y,-z
loop_
_atom_site_type_symbol
_atom_site_label
_atom_site_fract_x
_atom_site_fract_y
_atom_site_fract_z
Si Si1 0.562687 0.370874 0.687312
Si Si2 0.348080 0.796222 0.321253
Si Si3 0.029938 0.877773 0.807581
Si Si4 0.372645 0.308312 0.009539
Si Si5 0.055697 0.836897 0.082737
Si Si6 0.671792 0.006071 0.712529
Si Si7 0.825742 0.436702 0.333311
Si Si8 0.787314 0.769274 0.102296
O O1 0.597786 0.265642 0.607033
O O2 0.386481 0.444310 0.630994
O O3 0.779193 0.273213 0.511730
O O4 0.500000 0.500000 0.000000
O O5 0.244634 0.772367 0.137504
O O6 0.570086 0.691595 0.130654
O O7 0.182192 0.982143 0.619638
O O8 0.812311 0.950018 0.812952
O O9 0.102031 0.824512 0.905751
O O10 0.000000 0.000000 0.000000
O O11 0.241785 0.465827 0.354569
O O12 0.222852 0.306922 0.932326
O O13 0.605709 0.139734 0.861296
O O14 0.067673 0.722929 0.889580
O O15 0.815040 0.850698 0.362358
O O16 0.445016 0.092057 0.822987
O O17 0.013916 0.373511 0.201786
#
# Coordination Sequence:
#
# PCOD8017306 Si02
#       8
#     2   2   2   2   2   2   2   2
#     4  12  25  38  64  92 135 165 205 260 326 384
#     4  11  23  41  60  95 126 173 213 254 317 382
#     4  12  23  42  63 100 128 167 209 263 321 372
#     4  10  22  38  66  89 125 163 211 264 311 369
#     4  11  25  38  65  91 132 168 211 261 315 384
#     4   9  20  40  69  90 123 171 216 256 303 387
#     4  12  23  41  63  97 128 166 210 266 320 374
#     4   9  21  41  69  89 123 179 214 251 312 382
#
# _framework density 20.202788000000002
#
# number of rings (size 3 to 8) (size 9 to 14) (size 15 to 20)
#    0.750    0.500    2.500    4.125    3.500    1.000 
#    0.000    1.250    2.750    0.000    0.000    0.000 
#    0.000    0.000    0.000    0.000    0.000    0.000 
#
# Total GULP energy -198349.342722 kJ/mol
# GULP energy per Si atom -12396.833920 kJ/mol
# Density = 2.015681 g / cm^3
# Si number density = 20.202788 Si / 1000 Ang^3
#
#
#
# Elastic Constant Matrix: (Units=GPa)
#
#
# Indices 1 2 3 4 5 6 
#
# 1 87.9677 11.3330 33.0368 2.3530 -6.3677 3.9492
# 2 11.3330 59.9325 -1.3651 -1.6647 4.8749 -1.4857
# 3 33.0368 -1.3651 108.6076 -1.0112 6.1039 -3.0319
# 4 2.3530 -1.6647 -1.0112 22.6240 4.2843 -0.7631
# 5 -6.3677 4.8749 6.1039 4.2843 36.5739 -1.2361
# 6 3.9492 -1.4857 -3.0319 -0.7631 -1.2361 29.3649
#
#
#
# Elastic Compliance Matrix: (Units=1/GPa)
#
#
# Indices 1 2 3 4 5 6 
#
# 1 0.013967 -0.003195 -0.004598 -0.002706 0.003860 -0.002423
# 2 -0.003195 0.017699 0.001446 0.002388 -0.003389 0.001394
# 3 -0.004598 0.001446 0.010854 0.001686 -0.002944 0.001732
# 4 -0.002706 0.002388 0.001686 0.046000 -0.006406 0.001585
# 5 0.003860 -0.003389 -0.002944 -0.006406 0.029710 0.000090
# 6 -0.002423 0.001394 0.001732 0.001585 0.000090 0.034674
#
#
# Mechanical properties :
#
#
# Convention : Reuss Voigt Hill
#
# Bulk Modulus (GPa) = 33.52900 38.05746 35.79323
# Shear Modulus (GPa) = 28.48333 31.94611 30.21472
#
# Velocity S-wave (km/s) = 3.75890 3.98084 3.87146
# Velocity P-wave (km/s) = 5.95578 6.32519 6.14326
#
# Compressibility (1/GPa) = 0.02982493
#
# Stress axis : x y z
#
# Youngs Moduli (GPa) = 71.59744 56.49998 92.13280
#
# Poissons Ratio (x) = 0.18052 0.42367
# Poissons Ratio (y) = 0.22876 -0.13322
# Poissons Ratio (z) = 0.32924 -0.08170
#
# Static dielectric constant tensor:
#      x y z
#    x 3.507990 -0.067650 0.203060 
#    y -0.067650 3.867110 -0.256840 
#    z 0.203060 -0.256840 4.102900 
# 
# 
# High freq. dielectric constant tensor:
#      x y z
#    x 1.785420 0.000710 0.001400 
#    y 0.000710 1.761520 0.005350 
#    z 0.001400 0.005350 1.809050 
# 
# From -- ./inp_files/285053.got.cif
#   From: 2010.06.25/outbox.cif.g09.slc.cpg/sg2_143_cif.got.tgz:285053.got - 2010.06.27 13:26:56.
