data_PCOD8017588
_publ_section_title
;
Structure prediction by ZEFSAII (Michael W. Deem and Ramdas Pophale) SiO2 
 PCOD8017588
Probable space group: P -1
;
_chemical_formula_sum "Si O2"
_cell_formula_units_Z 16
_cell_length_a 11.483987
_cell_length_b 5.059064
_cell_length_c 13.198023
_cell_angle_alpha 101.512897
_cell_angle_beta 94.663213
_cell_angle_gamma 66.555414
_cell_volume 689.324592
_symmetry_space_group_name_H-M "P -1"
_symmetry_group_IT_number 2
_symmetry_cell_setting 'triclinic'
loop_
_space_group_symop_operation_xyz
x,y,z
-x,-y,-z
loop_
_atom_site_type_symbol
_atom_site_label
_atom_site_fract_x
_atom_site_fract_y
_atom_site_fract_z
Si Si1 0.869431 0.306899 0.915611
Si Si2 0.189386 0.921526 0.585976
Si Si3 0.402049 0.757001 0.447525
Si Si4 0.657979 0.249934 0.231833
Si Si5 0.500496 0.905388 0.277058
Si Si6 0.844528 0.899278 0.047463
Si Si7 0.054693 0.611413 0.419529
Si Si8 0.732579 0.568224 0.723516
O O1 0.827410 0.597487 0.003944
O O2 0.795448 0.376886 0.810787
O O3 0.834398 0.064091 0.952713
O O4 0.020250 0.172346 0.894885
O O5 0.298063 0.983157 0.533569
O O6 0.248499 0.713308 0.671578
O O7 0.129375 0.792215 0.485438
O O8 0.072224 0.206331 0.640982
O O9 0.500000 0.500000 0.500000
O O10 0.472422 0.926951 0.399054
O O11 0.341227 0.603458 0.351400
O O12 0.549616 0.564888 0.220287
O O13 0.605712 0.027071 0.263606
O O14 0.731749 0.106580 0.125441
O O15 0.367959 0.106184 0.228336
O O16 0.157077 0.384932 0.333442
O O17 0.000000 0.500000 0.500000
#
# Coordination Sequence:
#
# PCOD8017588 Si02
#       8
#     2   2   2   2   2   2   2   2
#     4  10  23  46  74 101 131 175 219 281 341 406
#     4  10  22  39  62  95 131 172 225 269 338 395
#     4  11  22  43  65  97 136 186 223 273 321 406
#     4  12  25  43  69  97 134 174 226 279 335 393
#     4  12  25  43  65  99 133 180 225 268 329 399
#     4  10  23  47  72 103 132 168 227 280 343 398
#     4  10  22  40  60  99 133 171 218 278 335 400
#     4  11  24  42  69  98 139 179 228 272 341 396
#
# _framework density 23.211126
#
# number of rings (size 3 to 8) (size 9 to 14) (size 15 to 20)
#    0.000    1.250    2.500    2.250    3.500    2.000 
#    6.750    3.750    0.000    0.000    0.000    0.000 
#    0.000    0.000    0.000    0.000    0.000    0.000 
#
# Total GULP energy -198285.826645 kJ/mol
# GULP energy per Si atom -12392.864165 kJ/mol
# Density = 2.315830 g / cm^3
# Si number density = 23.211126 Si / 1000 Ang^3
#
#
#
# Elastic Constant Matrix: (Units=GPa)
#
#
# Indices 1 2 3 4 5 6 
#
# 1 88.5984 37.2308 43.4534 -7.3669 -16.2446 -22.2169
# 2 37.2308 117.2619 35.6714 -9.8285 -8.6500 -22.4470
# 3 43.4534 35.6714 98.3968 -17.5563 -3.9845 -25.9977
# 4 -7.3669 -9.8285 -17.5563 44.2071 -13.2950 -7.1167
# 5 -16.2446 -8.6500 -3.9845 -13.2950 32.2170 -1.4878
# 6 -22.2169 -22.4470 -25.9977 -7.1167 -1.4878 42.1009
#
#
#
# Elastic Compliance Matrix: (Units=1/GPa)
#
#
# Indices 1 2 3 4 5 6 
#
# 1 0.018411 -0.001912 -0.004015 0.005544 0.010909 0.007540
# 2 -0.001912 0.010953 -0.001053 0.003553 0.003540 0.004907
# 3 -0.004015 -0.001053 0.016198 0.007963 0.003388 0.008788
# 4 0.005544 0.003553 0.007963 0.036333 0.020494 0.016603
# 5 0.010909 0.003540 0.003388 0.020494 0.047054 0.014864
# 6 0.007540 0.004907 0.008788 0.016603 0.014864 0.039106
#
#
# Mechanical properties :
#
#
# Convention : Reuss Voigt Hill
#
# Bulk Modulus (GPa) = 31.64195 59.66316 45.65255
# Shear Modulus (GPa) = 25.96757 36.23175 31.09966
#
# Velocity S-wave (km/s) = 3.34841 3.95519 3.66438
# Velocity P-wave (km/s) = 5.34892 6.82777 6.13308
#
# Compressibility (1/GPa) = 0.03160362
#
# Stress axis : x y z
#
# Youngs Moduli (GPa) = 54.31525 91.29642 61.73784
#
# Poissons Ratio (x) = 0.17452 0.24785
# Poissons Ratio (y) = 0.10383 0.06501
# Poissons Ratio (z) = 0.21805 0.09614
#
# Static dielectric constant tensor:
#      x y z
#    x 4.118050 -0.549320 -0.160570 
#    y -0.549320 4.453110 -0.075380 
#    z -0.160570 -0.075380 3.955490 
# 
# 
# High freq. dielectric constant tensor:
#      x y z
#    x 1.929340 -0.020860 -0.014600 
#    y -0.020860 1.919480 -0.012370 
#    z -0.014600 -0.012370 1.898650 
# 
# From -- ./inp_files/410535.got.cif
#   From: 2010.06.25/outbox.cif.g09.slc.cpg/sg2_206_cif.got.tgz:410535.got - 2010.06.27 13:26:56.
