data_PCOD8017187
_publ_section_title
;
Structure prediction by ZEFSAII (Michael W. Deem and Ramdas Pophale) SiO2 
 PCOD8017187
Probable space group: P -1
;
_chemical_formula_sum "Si O2"
_cell_formula_units_Z 16
_cell_length_a 8.705282
_cell_length_b 17.301282
_cell_length_c 8.565075
_cell_angle_alpha 88.264399
_cell_angle_beta 129.939661
_cell_angle_gamma 62.656660
_cell_volume 771.965201
_symmetry_space_group_name_H-M "P -1"
_symmetry_group_IT_number 2
_symmetry_cell_setting 'triclinic'
loop_
_space_group_symop_operation_xyz
x,y,z
-x,-y,-z
loop_
_atom_site_type_symbol
_atom_site_label
_atom_site_fract_x
_atom_site_fract_y
_atom_site_fract_z
Si Si1 0.522669 0.064450 0.891902
Si Si2 0.386608 0.418777 0.537637
Si Si3 0.912775 0.282014 0.039313
Si Si4 0.768634 0.943726 0.759479
Si Si5 0.410635 0.574260 0.659988
Si Si6 0.883969 0.083081 0.287772
Si Si7 0.045486 0.556686 0.904747
Si Si8 0.951121 0.232915 0.411327
O O1 0.253427 0.150939 0.635730
O O2 0.731521 0.995468 0.897425
O O3 0.616091 0.114704 0.049856
O O4 0.500000 0.000000 0.000000
O O5 0.295746 0.515450 0.572389
O O6 0.469485 0.426553 0.422050
O O7 0.152975 0.412281 0.370783
O O8 0.637154 0.321817 0.789253
O O9 0.896006 0.291656 0.213977
O O10 0.115900 0.169064 0.122839
O O11 0.000723 0.348259 0.046316
O O12 0.937703 0.951252 0.746828
O O13 0.500000 0.000000 0.500000
O O14 0.179611 0.687315 0.542058
O O15 0.651673 0.517563 0.944238
O O16 0.824954 0.178680 0.325025
O O17 0.000000 0.000000 0.500000
O O18 0.000000 0.500000 0.000000
#
# Coordination Sequence:
#
# PCOD8017187 Si02
#       8
#     2   2   2   2   2   2   2   2
#     4  12  24  44  65  94 136 178 220 274 333 391
#     4   9  19  38  62  89 119 156 213 256 321 388
#     4  10  22  38  62  89 127 161 208 263 321 381
#     4  11  22  45  66  95 135 176 216 275 329 388
#     4   9  20  39  61  87 123 160 201 269 315 382
#     4  11  23  44  64  92 131 173 225 270 323 393
#     4   9  19  40  60  91 123 157 211 261 318 388
#     4  11  24  42  59  94 131 163 220 265 334 386
#
# _framework density 20.726320999999999
#
# number of rings (size 3 to 8) (size 9 to 14) (size 15 to 20)
#    0.000    1.750    3.750    1.125    1.750    5.000 
#   11.250    1.250    0.000    0.000    0.000    0.000 
#    0.000    0.000    0.000    0.000    0.000    0.000 
#
# Total GULP energy -198287.848535 kJ/mol
# GULP energy per Si atom -12392.990533 kJ/mol
# Density = 2.067915 g / cm^3
# Si number density = 20.726321 Si / 1000 Ang^3
#
#
#
# Elastic Constant Matrix: (Units=GPa)
#
#
# Indices 1 2 3 4 5 6 
#
# 1 57.3712 37.3365 31.6466 -2.6212 7.8800 6.3729
# 2 37.3365 154.7573 53.2763 -6.8156 14.0260 -3.1611
# 3 31.6466 53.2763 142.8885 3.8265 14.7273 14.5621
# 4 -2.6212 -6.8156 3.8265 35.8839 9.4507 1.9468
# 5 7.8800 14.0260 14.7273 9.4507 27.4767 0.8382
# 6 6.3729 -3.1611 14.5621 1.9468 0.8382 27.8508
#
#
#
# Elastic Compliance Matrix: (Units=1/GPa)
#
#
# Indices 1 2 3 4 5 6 
#
# 1 0.022751 -0.004213 -0.002721 0.002331 -0.003586 -0.004316
# 2 -0.004213 0.008721 -0.002409 0.002171 -0.002795 0.003146
# 3 -0.002721 -0.002409 0.009225 -0.000733 -0.002550 -0.004346
# 4 0.002331 0.002171 -0.000733 0.031860 -0.012288 -0.001761
# 5 -0.003586 -0.002795 -0.002550 -0.012288 0.044401 0.001359
# 6 -0.004316 0.003146 -0.004346 -0.001761 0.001359 0.039605
#
#
# Mechanical properties :
#
#
# Convention : Reuss Voigt Hill
#
# Bulk Modulus (GPa) = 45.43239 66.61509 56.02374
# Shear Modulus (GPa) = 27.38433 33.75946 30.57190
#
# Velocity S-wave (km/s) = 3.63882 4.04024 3.84478
# Velocity P-wave (km/s) = 6.29464 7.34676 6.84095
#
# Compressibility (1/GPa) = 0.02201073
#
# Stress axis : x y z
#
# Youngs Moduli (GPa) = 43.95325 114.67073 108.40448
#
# Poissons Ratio (x) = 0.48308 0.29498
# Poissons Ratio (y) = 0.18516 0.26116
# Poissons Ratio (z) = 0.11960 0.27626
#
# Static dielectric constant tensor:
#      x y z
#    x 3.245510 0.267790 -0.104630 
#    y 0.267790 4.034050 0.482360 
#    z -0.104630 0.482360 4.404150 
# 
# 
# High freq. dielectric constant tensor:
#      x y z
#    x 1.790090 0.015190 0.000940 
#    y 0.015190 1.809570 0.003570 
#    z 0.000940 0.003570 1.832250 
# 
# From -- ./inp_files/215201.got.cif
#   From: 2010.06.25/outbox.cif.g09.slc.cpg/sg2_108_cif.got.tgz:215201.got - 2010.06.27 13:26:56.
