data_PCOD8017968
_publ_section_title
;
Structure prediction by ZEFSAII (Michael W. Deem and Ramdas Pophale) SiO2 
 PCOD8017968
Probable space group: P -1
;
_chemical_formula_sum "Si O2"
_cell_formula_units_Z 16
_cell_length_a 12.667711
_cell_length_b 10.276371
_cell_length_c 12.897477
_cell_angle_alpha 89.278586
_cell_angle_beta 95.129484
_cell_angle_gamma 24.372143
_cell_volume 671.769620
_symmetry_space_group_name_H-M "P -1"
_symmetry_group_IT_number 2
_symmetry_cell_setting 'triclinic'
loop_
_space_group_symop_operation_xyz
x,y,z
-x,-y,-z
loop_
_atom_site_type_symbol
_atom_site_label
_atom_site_fract_x
_atom_site_fract_y
_atom_site_fract_z
Si Si1 0.732097 0.342691 0.032084
Si Si2 0.226660 0.357922 0.433080
Si Si3 0.175641 0.826817 0.734133
Si Si4 0.028058 0.268395 0.782859
Si Si5 0.009286 0.651909 0.614183
Si Si6 0.241630 0.408947 0.036555
Si Si7 0.642027 0.291735 0.616599
Si Si8 0.270902 0.266752 0.831069
O O1 0.794897 0.292123 0.159030
O O2 0.500000 0.500000 0.000000
O O3 0.621593 0.606361 0.979241
O O4 0.000000 0.000000 0.000000
O O5 0.226994 0.432351 0.321201
O O6 0.041503 0.442772 0.400544
O O7 0.121461 0.572971 0.513115
O O8 0.500000 0.000000 0.500000
O O9 0.426220 0.522841 0.685597
O O10 0.191675 0.960746 0.762603
O O11 0.891916 0.105976 0.659237
O O12 0.968794 0.316716 0.897941
O O13 0.198675 0.204952 0.786850
O O14 0.220803 0.424965 0.730556
O O15 0.748515 0.025955 0.612932
O O16 0.424228 0.089568 0.105049
O O17 0.113848 0.492505 0.918756
O O18 0.500000 0.500000 0.500000
#
# Coordination Sequence:
#
# PCOD8017968 Si02
#       8
#     2   2   2   2   2   2   2   2
#     4  12  25  46  73 106 146 192 245 301 360 435
#     4  10  22  39  70  98 130 183 228 294 358 415
#     4  12  27  46  73 105 142 196 239 300 367 430
#     4  11  23  41  68  98 140 177 245 290 357 435
#     4  10  23  44  66 100 141 176 241 296 356 436
#     4  11  23  42  70  99 142 185 240 298 358 436
#     4  12  28  48  74 106 145 190 243 301 369 435
#     4  10  23  43  65 102 136 189 235 299 367 419
#
# _framework density 23.817689000000001
#
# number of rings (size 3 to 8) (size 9 to 14) (size 15 to 20)
#    0.000    1.000    1.250    4.500    5.250    0.000 
#    9.000    0.000    0.000    0.000    0.000    0.000 
#    0.000    0.000    0.000    0.000    0.000    0.000 
#
# Total GULP energy -198247.228399 kJ/mol
# GULP energy per Si atom -12390.451775 kJ/mol
# Density = 2.376348 g / cm^3
# Si number density = 23.817689 Si / 1000 Ang^3
#
#
#
# Elastic Constant Matrix: (Units=GPa)
#
#
# Indices 1 2 3 4 5 6 
#
# 1 56.9400 28.5994 30.2705 10.4026 2.0834 0.0507
# 2 28.5994 123.6486 54.2038 22.2942 3.2144 4.8119
# 3 30.2705 54.2038 148.0712 18.4366 4.0940 12.5242
# 4 10.4026 22.2942 18.4366 50.6746 1.1869 -1.1081
# 5 2.0834 3.2144 4.0940 1.1869 31.2123 -4.4467
# 6 0.0507 4.8119 12.5242 -1.1081 -4.4467 42.2586
#
#
#
# Elastic Compliance Matrix: (Units=1/GPa)
#
#
# Indices 1 2 3 4 5 6 
#
# 1 0.021141 -0.003298 -0.002978 -0.001770 -0.000451 0.001139
# 2 -0.003298 0.010646 -0.002795 -0.002990 -0.000468 -0.000508
# 3 -0.002978 -0.002795 0.008789 -0.001387 -0.000958 -0.002420
# 4 -0.001770 -0.002990 -0.001387 0.021947 -0.000038 0.001325
# 5 -0.000451 -0.000468 -0.000958 -0.000038 0.032784 0.003787
# 6 0.001139 -0.000508 -0.002420 0.001325 0.003787 0.024871
#
#
# Mechanical properties :
#
#
# Convention : Reuss Voigt Hill
#
# Bulk Modulus (GPa) = 44.57300 61.64525 53.10912
# Shear Modulus (GPa) = 34.29396 39.20152 36.74774
#
# Velocity S-wave (km/s) = 3.79866 4.06137 3.93221
# Velocity P-wave (km/s) = 6.16397 6.92324 6.55461
#
# Compressibility (1/GPa) = 0.02243511
#
# Stress axis : x y z
#
# Youngs Moduli (GPa) = 47.30188 93.92786 113.77322
#
# Poissons Ratio (x) = 0.30975 0.33883
# Poissons Ratio (y) = 0.15599 0.31799
# Poissons Ratio (z) = 0.14087 0.26252
#
# Static dielectric constant tensor:
#      x y z
#    x 4.156090 0.212200 -0.112610 
#    y 0.212200 4.246960 -0.031780 
#    z -0.112610 -0.031780 5.169470 
# 
# 
# High freq. dielectric constant tensor:
#      x y z
#    x 1.929580 0.021460 0.002910 
#    y 0.021460 1.934820 -0.002760 
#    z 0.002910 -0.002760 1.978990 
# 
# From -- ./inp_files/452486.got.cif
#   From: 2010.06.25/outbox.cif.g09.slc.cpg/sg2_227_cif.got.tgz:452486.got - 2010.06.27 13:26:56.
