data_PCOD8017541
_publ_section_title
;
Structure prediction by ZEFSAII (Michael W. Deem and Ramdas Pophale) SiO2 
 PCOD8017541
Probable space group: P -1
;
_chemical_formula_sum "Si O2"
_cell_formula_units_Z 16
_cell_length_a 30.420657
_cell_length_b 5.612247
_cell_length_c 27.900910
_cell_angle_alpha 112.388899
_cell_angle_beta 8.127900
_cell_angle_gamma 110.563279
_cell_volume 610.438381
_symmetry_space_group_name_H-M "P -1"
_symmetry_group_IT_number 2
_symmetry_cell_setting 'triclinic'
loop_
_space_group_symop_operation_xyz
x,y,z
-x,-y,-z
loop_
_atom_site_type_symbol
_atom_site_label
_atom_site_fract_x
_atom_site_fract_y
_atom_site_fract_z
Si Si1 0.048231 0.921062 0.691669
Si Si2 0.789875 0.626861 0.780046
Si Si3 0.762461 0.871575 0.169145
Si Si4 0.133445 0.581880 0.910553
Si Si5 0.231625 0.330125 0.950145
Si Si6 0.867092 0.047583 0.503153
Si Si7 0.425140 0.343733 0.333439
Si Si8 0.510599 0.375070 0.138050
O O1 0.937400 0.013956 0.763684
O O2 0.278866 0.648624 0.414735
O O3 0.743422 0.883092 0.049611
O O4 0.246384 0.107661 0.519637
O O5 0.000000 0.500000 0.500000
O O6 0.905876 0.890497 0.693934
O O7 0.420314 0.697675 0.170045
O O8 0.811936 0.414679 0.783639
O O9 0.963036 0.596467 0.954652
O O10 0.500000 0.000000 0.500000
O O11 0.964360 0.097054 0.953373
O O12 0.595795 0.793869 0.294158
O O13 0.500000 0.500000 0.500000
O O14 0.000000 0.500000 0.000000
O O15 0.856333 0.401028 0.348781
O O16 0.358652 0.589678 0.850429
O O17 0.689630 0.810437 0.687512
O O18 0.623787 0.283673 0.063632
#
# Coordination Sequence:
#
# PCOD8017541 Si02
#       8
#     2   2   2   2   2   2   2   2
#     4   9  21  41  64  91 121 164 210 262 322 386
#     4  11  23  38  59  90 124 164 209 257 313 376
#     4  10  24  45  67 101 133 179 220 277 338 407
#     4  10  22  42  67  91 127 170 219 262 319 393
#     4  11  24  40  64  93 129 161 213 265 325 390
#     4  10  22  39  62  86 123 162 209 259 313 378
#     4  10  23  41  63  93 124 164 211 265 326 386
#     4   9  21  40  62  89 122 164 208 260 320 378
#
# _framework density 26.210668999999999
#
# number of rings (size 3 to 8) (size 9 to 14) (size 15 to 20)
#    0.000    2.000    0.000    1.500    1.750   18.000 
#    0.000    0.000    0.000    0.000    0.000    0.000 
#    0.000    0.000    0.000    0.000    0.000    0.000 
#
# Total GULP energy -198277.267934 kJ/mol
# GULP energy per Si atom -12392.329246 kJ/mol
# Density = 2.615101 g / cm^3
# Si number density = 26.210669 Si / 1000 Ang^3
#
#
#
# Elastic Constant Matrix: (Units=GPa)
#
#
# Indices 1 2 3 4 5 6 
#
# 1 150.8379 69.7179 41.8312 -14.5887 12.0322 22.7966
# 2 69.7179 177.0115 9.2956 -31.5574 17.7035 9.4338
# 3 41.8312 9.2956 60.6379 -11.9230 16.0589 19.5595
# 4 -14.5887 -31.5574 -11.9230 32.9759 9.0563 1.3487
# 5 12.0322 17.7035 16.0589 9.0563 42.9410 -2.6289
# 6 22.7966 9.4338 19.5595 1.3487 -2.6289 59.9755
#
#
#
# Elastic Compliance Matrix: (Units=1/GPa)
#
#
# Indices 1 2 3 4 5 6 
#
# 1 0.010363 -0.004402 -0.007434 -0.002911 0.002265 -0.000657
# 2 -0.004402 0.010381 0.007327 0.013163 -0.008748 -0.003029
# 3 -0.007434 0.007327 0.032783 0.021012 -0.018259 -0.010291
# 4 -0.002911 0.013163 0.021012 0.056517 -0.025012 -0.010184
# 5 0.002265 -0.008748 -0.018259 -0.025012 0.038899 0.008738
# 6 -0.000657 -0.003029 -0.010291 -0.010184 0.008738 0.021368
#
#
# Mechanical properties :
#
#
# Convention : Reuss Voigt Hill
#
# Bulk Modulus (GPa) = 22.46673 70.01965 46.24319
# Shear Modulus (GPa) = 25.75124 45.02132 35.38628
#
# Velocity S-wave (km/s) = 3.13784 4.14898 3.67832
# Velocity P-wave (km/s) = 4.66029 7.05154 5.97672
#
# Compressibility (1/GPa) = 0.04451027
#
# Stress axis : x y z
#
# Youngs Moduli (GPa) = 96.49800 96.32764 30.50327
#
# Poissons Ratio (x) = 0.42399 0.22677
# Poissons Ratio (y) = 0.42474 -0.22350
# Poissons Ratio (z) = 0.71738 -0.70580
#
# Static dielectric constant tensor:
#      x y z
#    x 6.161550 -0.072980 -0.114920 
#    y -0.072980 -2.845730 4.974980 
#    z -0.114920 4.974980 1.173020 
# 
# 
# High freq. dielectric constant tensor:
#      x y z
#    x 2.048440 -0.008950 -0.003750 
#    y -0.008950 2.074900 -0.000350 
#    z -0.003750 -0.000350 2.028480 
# 
# From -- ./inp_files/14648.got.cif
#   From: 2010.06.25/outbox.cif.g09.slc.cpg/sg2_8_cif.got.tgz:14648.got - 2010.06.27 13:26:56.
