data_PCOD8017207
_publ_section_title
;
Structure prediction by ZEFSAII (Michael W. Deem and Ramdas Pophale) SiO2 
 PCOD8017207
Probable space group: P -1
;
_chemical_formula_sum "Si O2"
_cell_formula_units_Z 16
_cell_length_a 6.118136
_cell_length_b 13.246014
_cell_length_c 11.371502
_cell_angle_alpha 92.616032
_cell_angle_beta 74.935218
_cell_angle_gamma 55.278647
_cell_volume 709.312117
_symmetry_space_group_name_H-M "P -1"
_symmetry_group_IT_number 2
_symmetry_cell_setting 'triclinic'
loop_
_space_group_symop_operation_xyz
x,y,z
-x,-y,-z
loop_
_atom_site_type_symbol
_atom_site_label
_atom_site_fract_x
_atom_site_fract_y
_atom_site_fract_z
Si Si1 0.862473 0.888715 0.508426
Si Si2 0.632448 0.869292 0.314199
Si Si3 0.507878 0.703202 0.428002
Si Si4 0.651390 0.285155 0.147460
Si Si5 0.725354 0.726014 0.628185
Si Si6 0.189893 0.383855 0.054607
Si Si7 0.765274 0.439662 0.302860
Si Si8 0.269698 0.129302 0.969268
O O1 0.850040 0.872263 0.368422
O O2 0.672241 0.851714 0.593219
O O3 0.180532 0.815961 0.503096
O O4 0.690859 0.031599 0.587123
O O5 0.663325 0.738857 0.316785
O O6 0.684950 0.896517 0.177504
O O7 0.668423 0.661346 0.528617
O O8 0.517851 0.585731 0.373477
O O9 0.491587 0.234255 0.230342
O O10 0.483083 0.359158 0.053779
O O11 0.637132 0.381905 0.244751
O O12 0.967877 0.168689 0.059639
O O13 0.061194 0.638515 0.609125
O O14 0.002018 0.434921 0.198478
O O15 0.275603 0.248081 0.995018
O O16 0.000000 0.500000 0.000000
O O17 0.500000 0.000000 0.000000
#
# Coordination Sequence:
#
# PCOD8017207 Si02
#       8
#     2   2   2   2   2   2   2   2
#     4  10  23  42  66  93 130 172 216 272 325 393
#     4  10  24  43  62  94 131 166 220 273 322 392
#     4  11  22  39  67  94 126 175 213 270 333 383
#     4  10  24  43  65  98 133 181 212 277 338 391
#     4  10  22  39  64  96 134 164 217 269 329 394
#     4  10  23  44  65  95 133 177 225 275 330 398
#     4  10  22  38  62  96 131 165 218 268 327 397
#     4  11  26  43  69 101 136 175 229 277 328 404
#
# _framework density 22.557064
#
# number of rings (size 3 to 8) (size 9 to 14) (size 15 to 20)
#    0.000    1.750    0.000    2.250    7.000   11.500 
#    0.000    0.000    0.000    0.000    0.000    0.000 
#    0.000    0.000    0.000    0.000    0.000    0.000 
#
# Total GULP energy -198255.672030 kJ/mol
# GULP energy per Si atom -12390.979502 kJ/mol
# Density = 2.250572 g / cm^3
# Si number density = 22.557064 Si / 1000 Ang^3
#
#
#
# Elastic Constant Matrix: (Units=GPa)
#
#
# Indices 1 2 3 4 5 6 
#
# 1 102.0294 47.9716 37.5894 -2.3826 24.6635 -9.4278
# 2 47.9716 119.8686 47.4402 -7.5269 15.3337 -13.4990
# 3 37.5894 47.4402 118.8600 -15.4263 14.1671 1.4534
# 4 -2.3826 -7.5269 -15.4263 32.2527 -3.1139 2.8200
# 5 24.6635 15.3337 14.1671 -3.1139 37.5460 -10.5583
# 6 -9.4278 -13.4990 1.4534 2.8200 -10.5583 22.8528
#
#
#
# Elastic Compliance Matrix: (Units=1/GPa)
#
#
# Indices 1 2 3 4 5 6 
#
# 1 0.014161 -0.003892 -0.002352 -0.001707 -0.006745 0.000787
# 2 -0.003892 0.011946 -0.003664 0.000298 0.000774 0.006005
# 3 -0.002352 -0.003664 0.011609 0.004772 -0.002526 -0.005629
# 4 -0.001707 0.000298 0.004772 0.033705 0.000679 -0.004677
# 5 -0.006745 0.000774 -0.002526 0.000679 0.035774 0.014279
# 6 0.000787 0.006005 -0.005629 -0.004677 0.014279 0.055162
#
#
# Mechanical properties :
#
#
# Convention : Reuss Voigt Hill
#
# Bulk Modulus (GPa) = 55.86862 67.41783 61.64323
# Shear Modulus (GPa) = 26.57588 32.38078 29.47833
#
# Velocity S-wave (km/s) = 3.43616 3.79292 3.61894
# Velocity P-wave (km/s) = 6.36902 7.00958 6.69696
#
# Compressibility (1/GPa) = 0.01789914
#
# Stress axis : x y z
#
# Youngs Moduli (GPa) = 70.61624 83.70885 86.14129
#
# Poissons Ratio (x) = 0.32580 0.20262
# Poissons Ratio (y) = 0.27484 0.31564
# Poissons Ratio (z) = 0.16610 0.30673
#
# Static dielectric constant tensor:
#      x y z
#    x 4.395940 -0.693540 0.454230 
#    y -0.693540 5.126670 -0.690850 
#    z 0.454230 -0.690850 4.359090 
# 
# 
# High freq. dielectric constant tensor:
#      x y z
#    x 1.892150 -0.003540 0.007290 
#    y -0.003540 1.891520 -0.009120 
#    z 0.007290 -0.009120 1.888140 
# 
# From -- ./inp_files/364488.got.cif
#   From: 2010.06.25/outbox.cif.g09.slc.cpg/sg2_183_cif.got.tgz:364488.got - 2010.06.27 13:26:56.
