data_PCOD8017454
_publ_section_title
;
Structure prediction by ZEFSAII (Michael W. Deem and Ramdas Pophale) SiO2 
 PCOD8017454
Probable space group: P -1
;
_chemical_formula_sum "Si O2"
_cell_formula_units_Z 16
_cell_length_a 8.268539
_cell_length_b 18.866588
_cell_length_c 23.834479
_cell_angle_alpha 23.152266
_cell_angle_beta 31.582550
_cell_angle_gamma 43.451252
_cell_volume 735.371079
_symmetry_space_group_name_H-M "P -1"
_symmetry_group_IT_number 2
_symmetry_cell_setting 'triclinic'
loop_
_space_group_symop_operation_xyz
x,y,z
-x,-y,-z
loop_
_atom_site_type_symbol
_atom_site_label
_atom_site_fract_x
_atom_site_fract_y
_atom_site_fract_z
Si Si1 0.656984 0.958301 0.062752
Si Si2 0.221368 0.189447 0.180217
Si Si3 0.305940 0.847788 0.711792
Si Si4 0.328317 0.627309 0.609040
Si Si5 0.329685 0.672388 0.273619
Si Si6 0.267559 0.908513 0.512137
Si Si7 0.405827 0.470650 0.114660
Si Si8 0.616320 0.926952 0.226714
O O1 0.416608 0.795808 0.215226
O O2 0.536719 0.916054 0.192489
O O3 0.665274 0.173097 0.888319
O O4 0.023041 0.945002 0.960514
O O5 0.080406 0.202817 0.149070
O O6 0.914041 0.195386 0.304067
O O7 0.352513 0.007368 0.278041
O O8 0.518587 0.350538 0.997561
O O9 0.413634 0.660434 0.812392
O O10 0.500000 0.000000 0.500000
O O11 0.405167 0.932359 0.683423
O O12 0.391135 0.427867 0.749735
O O13 0.395426 0.762907 0.544275
O O14 0.564084 0.721506 0.419246
O O15 0.970088 0.610917 0.708556
O O16 0.000000 0.500000 0.500000
O O17 0.000000 0.000000 0.500000
O O18 0.500000 0.500000 0.000000
#
# Coordination Sequence:
#
# PCOD8017454 Si02
#       8
#     2   2   2   2   2   2   2   2
#     4  10  25  49  72  99 140 174 227 303 349 406
#     4  11  22  39  62  97 137 174 220 280 335 403
#     4  10  22  39  60  86 132 181 218 274 325 388
#     4  12  23  40  73 101 131 185 233 275 344 414
#     4  11  24  48  74 103 135 176 234 292 350 413
#     4  11  19  40  65  92 134 179 224 263 326 412
#     4  12  23  40  63  94 137 185 230 271 329 410
#     4  11  23  45  72  99 132 183 230 282 354 408
#
# _framework density 21.757722999999999
#
# number of rings (size 3 to 8) (size 9 to 14) (size 15 to 20)
#    0.000    1.000    5.000    1.875    0.000    2.500 
#    6.750    0.000    0.000    0.000    0.000    0.000 
#    0.000    0.000    0.000    0.000    0.000    0.000 
#
# Total GULP energy -198230.016857 kJ/mol
# GULP energy per Si atom -12389.376054 kJ/mol
# Density = 2.170820 g / cm^3
# Si number density = 21.757723 Si / 1000 Ang^3
#
#
#
# Elastic Constant Matrix: (Units=GPa)
#
#
# Indices 1 2 3 4 5 6 
#
# 1 119.7494 35.2840 43.4166 -12.8883 -14.5340 3.2339
# 2 35.2840 100.6326 35.6528 -21.2117 11.5208 -2.8906
# 3 43.4166 35.6528 90.5241 -6.9484 -8.5096 14.6603
# 4 -12.8883 -21.2117 -6.9484 34.9511 0.3939 2.3645
# 5 -14.5340 11.5208 -8.5096 0.3939 45.0622 -5.2042
# 6 3.2339 -2.8906 14.6603 2.3645 -5.2042 31.8956
#
#
#
# Elastic Compliance Matrix: (Units=1/GPa)
#
#
# Indices 1 2 3 4 5 6 
#
# 1 0.011144 -0.002497 -0.004053 0.001683 0.003564 0.000964
# 2 -0.002497 0.014702 -0.004962 0.006906 -0.005273 0.002494
# 3 -0.004053 -0.004962 0.016237 -0.000824 0.002217 -0.007079
# 4 0.001683 0.006906 -0.000824 0.033413 -0.001896 -0.001952
# 5 0.003564 -0.005273 0.002217 -0.001896 0.025405 0.002427
# 6 0.000964 0.002494 -0.007079 -0.001952 0.002427 0.035275
#
#
# Mechanical properties :
#
#
# Convention : Reuss Voigt Hill
#
# Bulk Modulus (GPa) = 52.47283 59.95700 56.21492
# Shear Modulus (GPa) = 30.20214 35.48529 32.84372
#
# Velocity S-wave (km/s) = 3.72978 4.04286 3.88947
# Velocity P-wave (km/s) = 6.53587 7.02918 6.78701
#
# Compressibility (1/GPa) = 0.01905748
#
# Stress axis : x y z
#
# Youngs Moduli (GPa) = 89.73775 68.01974 61.58899
#
# Poissons Ratio (x) = 0.16983 0.24963
# Poissons Ratio (y) = 0.22406 0.30562
# Poissons Ratio (z) = 0.36372 0.33753
#
# Static dielectric constant tensor:
#      x y z
#    x 4.851500 -0.119640 -0.274290 
#    y -0.119640 4.185760 -0.248270 
#    z -0.274290 -0.248270 4.011570 
# 
# 
# High freq. dielectric constant tensor:
#      x y z
#    x 1.874670 -0.012240 -0.011880 
#    y -0.012240 1.842590 -0.013240 
#    z -0.011880 -0.013240 1.850260 
# 
# From -- ./inp_files/617499.got.cif
#   From: 2010.06.25/outbox.cif.g09.slc.cpg/sg2_309_cif.got.tgz:617499.got - 2010.06.27 13:26:56.
