data_PCOD8017108
_publ_section_title
;
Structure prediction by ZEFSAII (Michael W. Deem and Ramdas Pophale) SiO2 
 PCOD8017108
Probable space group: P -1
;
_chemical_formula_sum "Si O2"
_cell_formula_units_Z 16
_cell_length_a 22.618517
_cell_length_b 6.352883
_cell_length_c 9.787382
_cell_angle_alpha 133.620815
_cell_angle_beta 53.652880
_cell_angle_gamma 116.418894
_cell_volume 818.455059
_symmetry_space_group_name_H-M "P -1"
_symmetry_group_IT_number 2
_symmetry_cell_setting 'triclinic'
loop_
_space_group_symop_operation_xyz
x,y,z
-x,-y,-z
loop_
_atom_site_type_symbol
_atom_site_label
_atom_site_fract_x
_atom_site_fract_y
_atom_site_fract_z
Si Si1 0.914401 0.459601 0.074038
Si Si2 0.409921 0.910526 0.980746
Si Si3 0.299133 0.696514 0.811310
Si Si4 0.173251 0.113355 0.111855
Si Si5 0.546361 0.235230 0.859168
Si Si6 0.819075 0.785529 0.162697
Si Si7 0.815987 0.458691 0.470369
Si Si8 0.347648 0.527927 0.388093
O O1 0.893428 0.677882 0.079913
O O2 0.870999 0.532887 0.303780
O O3 0.000000 0.500000 0.000000
O O4 0.894296 0.128815 0.906064
O O5 0.416943 0.715835 0.019569
O O6 0.387875 0.229602 0.198299
O O7 0.349768 0.747731 0.895989
O O8 0.489863 0.947066 0.811663
O O9 0.250520 0.397267 0.761294
O O10 0.350940 0.665680 0.595756
O O11 0.248746 0.966581 0.978689
O O12 0.155882 0.356475 0.354712
O O13 0.179758 0.267093 0.024666
O O14 0.612115 0.225033 0.654411
O O15 0.500000 0.500000 0.000000
O O16 0.813257 0.119948 0.360392
O O17 0.735628 0.544846 0.576849
#
# Coordination Sequence:
#
# PCOD8017108 Si02
#       8
#     2   2   2   2   2   2   2   2
#     4  10  23  44  62  87 129 160 195 247 296 357
#     4  10  22  40  62  84 122 162 198 245 308 357
#     4  11  22  37  61  93 120 156 201 250 302 355
#     4  10  22  39  60  94 121 154 202 243 299 360
#     4   9  22  41  57  86 121 160 200 248 300 356
#     4  10  22  38  59  92 123 155 200 247 301 346
#     4  11  22  39  63  93 122 155 202 249 294 358
#     4  11  21  37  62  89 121 152 201 253 298 353
#
# _framework density 19.549028
#
# number of rings (size 3 to 8) (size 9 to 14) (size 15 to 20)
#    0.000    1.750    5.000    0.000    3.500    5.000 
#    0.000    6.875    0.000    0.000    0.000    0.000 
#    0.000    0.000    0.000    0.000    0.000    0.000 
#
# Total GULP energy -198399.542716 kJ/mol
# GULP energy per Si atom -12399.971420 kJ/mol
# Density = 1.950453 g / cm^3
# Si number density = 19.549028 Si / 1000 Ang^3
#
#
#
# Elastic Constant Matrix: (Units=GPa)
#
#
# Indices 1 2 3 4 5 6 
#
# 1 155.9074 61.2882 59.5115 -16.3284 8.8097 -5.3043
# 2 61.2882 101.8125 51.2185 -17.1918 3.8977 -19.9289
# 3 59.5115 51.2185 99.5710 -4.1708 19.2861 -0.7327
# 4 -16.3284 -17.1918 -4.1708 25.0857 8.1674 2.4577
# 5 8.8097 3.8977 19.2861 8.1674 31.0045 -7.9429
# 6 -5.3043 -19.9289 -0.7327 2.4577 -7.9429 31.2923
#
#
#
# Elastic Compliance Matrix: (Units=1/GPa)
#
#
# Indices 1 2 3 4 5 6 
#
# 1 0.009581 -0.003632 -0.003415 0.003817 -0.001520 -0.001454
# 2 -0.003632 0.019771 -0.008668 0.006754 0.005389 0.012610
# 3 -0.003415 -0.008668 0.018726 -0.000404 -0.011684 -0.008595
# 4 0.003817 0.006754 -0.000404 0.052575 -0.016391 -0.003350
# 5 -0.001520 0.005389 -0.011684 -0.016391 0.047773 0.016315
# 6 -0.001454 0.012610 -0.008595 -0.003350 0.016315 0.043944
#
#
# Mechanical properties :
#
#
# Convention : Reuss Voigt Hill
#
# Bulk Modulus (GPa) = 60.06178 77.92525 68.99351
# Shear Modulus (GPa) = 21.80089 29.82801 25.81445
#
# Velocity S-wave (km/s) = 3.34307 3.91039 3.63781
# Velocity P-wave (km/s) = 6.75957 7.76764 7.28107
#
# Compressibility (1/GPa) = 0.01664952
#
# Stress axis : x y z
#
# Youngs Moduli (GPa) = 104.36876 50.57857 53.40291
#
# Poissons Ratio (x) = 0.18369 0.18237
# Poissons Ratio (y) = 0.37904 0.46288
# Poissons Ratio (z) = 0.35641 0.43840
#
# Static dielectric constant tensor:
#      x y z
#    x 3.693460 -0.093260 -0.042490 
#    y -0.093260 3.783170 -0.232640 
#    z -0.042490 -0.232640 3.553870 
# 
# 
# High freq. dielectric constant tensor:
#      x y z
#    x 1.768870 -0.010120 0.003160 
#    y -0.010120 1.768550 -0.011250 
#    z 0.003160 -0.011250 1.746380 
# 
# From -- ./inp_files/47670.got.cif
#   From: 2010.06.25/outbox.cif.g09.slc.cpg/sg2_24_cif.got.tgz:47670.got - 2010.06.27 13:26:56.
