data_PCOD8017251
_publ_section_title
;
Structure prediction by ZEFSAII (Michael W. Deem and Ramdas Pophale) SiO2 
 PCOD8017251
Probable space group: P -1
;
_chemical_formula_sum "Si O2"
_cell_formula_units_Z 14
_cell_length_a 21.677393
_cell_length_b 9.299052
_cell_length_c 19.218535
_cell_angle_alpha 129.857631
_cell_angle_beta 19.379935
_cell_angle_gamma 140.978799
_cell_volume 726.662744
_symmetry_space_group_name_H-M "P -1"
_symmetry_group_IT_number 2
_symmetry_cell_setting 'triclinic'
loop_
_space_group_symop_operation_xyz
x,y,z
-x,-y,-z
loop_
_atom_site_type_symbol
_atom_site_label
_atom_site_fract_x
_atom_site_fract_y
_atom_site_fract_z
Si Si1 0.432936 0.277882 0.809584
Si Si2 0.821525 0.256611 0.066759
Si Si3 0.125088 0.549632 0.522050
Si Si4 0.908565 0.041219 0.541895
Si Si5 0.561681 0.889565 0.675309
Si Si6 0.627569 0.369803 0.062340
Si Si7 0.985695 0.041242 0.745115
O O1 0.724180 0.450534 0.575634
O O2 0.403819 0.425129 0.830251
O O3 0.271476 0.227940 0.034982
O O4 0.316400 0.000333 0.819588
O O5 0.977681 0.259042 0.839017
O O6 0.611192 0.246267 0.251722
O O7 0.000000 0.500000 0.000000
O O8 0.026840 0.329631 0.503251
O O9 0.892422 0.503914 0.787557
O O10 0.311547 0.817725 0.366230
O O11 0.997093 0.985335 0.363117
O O12 0.000000 0.000000 0.500000
O O13 0.605138 0.854687 0.808391
O O14 0.387488 0.744315 0.883259
O O15 0.775642 0.878023 0.441929
#
# Coordination Sequence:
#
# PCOD8017251 Si02
#       7
#     2   2   2   2   2   2   2
#     4   9  20  39  60  85 120 157 194 254 300 341
#     4   9  20  40  65  89 114 156 201 245 310 361
#     4  11  21  39  57  85 124 161 203 234 290 356
#     4  11  23  36  59  89 122 169 196 240 294 346
#     4  10  22  38  64  90 116 163 193 251 301 344
#     4  11  22  39  58  89 126 155 205 243 289 352
#     4   9  21  39  57  88 124 149 202 246 291 351
#
# _framework density 19.266159999999999
#
# number of rings (size 3 to 8) (size 9 to 14) (size 15 to 20)
#    0.857    1.143    2.857    0.429    2.000    3.429 
#    2.571    0.714    0.000   10.286    0.000    0.000 
#    0.000    0.000    0.000    0.000    0.000    0.000 
#
# Total GULP energy -173480.932114 kJ/mol
# GULP energy per Si atom -12391.495151 kJ/mol
# Density = 1.922231 g / cm^3
# Si number density = 19.266160 Si / 1000 Ang^3
#
#
#
# Elastic Constant Matrix: (Units=GPa)
#
#
# Indices 1 2 3 4 5 6 
#
# 1 89.3059 56.2713 39.8516 -10.3366 -14.8659 -9.9188
# 2 56.2713 116.8854 39.1676 -15.5468 -11.8562 4.4564
# 3 39.8516 39.1676 93.5968 -1.8217 -19.4998 4.5430
# 4 -10.3366 -15.5468 -1.8217 28.9297 1.3143 -4.2109
# 5 -14.8659 -11.8562 -19.4998 1.3143 28.3008 -4.7244
# 6 -9.9188 4.4564 4.5430 -4.2109 -4.7244 30.6841
#
#
#
# Elastic Compliance Matrix: (Units=1/GPa)
#
#
# Indices 1 2 3 4 5 6 
#
# 1 0.020689 -0.007572 -0.004826 0.004207 0.005841 0.009979
# 2 -0.007572 0.013581 -0.002352 0.003948 -0.000698 -0.003638
# 3 -0.004826 -0.002352 0.015181 -0.002743 0.006595 -0.002827
# 4 0.004207 0.003948 -0.002743 0.038940 0.001289 0.006735
# 5 0.005841 -0.000698 0.006595 0.001289 0.043922 0.007953
# 6 0.009979 -0.003638 -0.002827 0.006735 0.007953 0.038912
#
#
# Mechanical properties :
#
#
# Convention : Reuss Voigt Hill
#
# Bulk Modulus (GPa) = 50.11834 63.37434 56.74634
# Shear Modulus (GPa) = 24.11082 28.54942 26.33012
#
# Velocity S-wave (km/s) = 3.54144 3.85365 3.70084
# Velocity P-wave (km/s) = 6.54160 7.26404 6.91226
#
# Compressibility (1/GPa) = 0.01995278
#
# Stress axis : x y z
#
# Youngs Moduli (GPa) = 48.33392 73.62976 65.87169
#
# Poissons Ratio (x) = 0.55749 0.31791
# Poissons Ratio (y) = 0.36596 0.15491
# Poissons Ratio (z) = 0.23327 0.17316
#
# Static dielectric constant tensor:
#      x y z
#    x 3.191060 -0.282000 -0.187840 
#    y -0.282000 3.495380 -0.012070 
#    z -0.187840 -0.012070 3.689060 
# 
# 
# High freq. dielectric constant tensor:
#      x y z
#    x 1.717300 -0.028620 -0.016990 
#    y -0.028620 1.740490 -0.002580 
#    z -0.016990 -0.002580 1.765420 
# 
# From -- ./inp_files/601177.got.cif
#   From: 2010.06.25/outbox.cif.g09.slc.cpg/sg2_301_cif.got.tgz:601177.got - 2010.06.27 13:26:56.
