data_PCOD8017777
_publ_section_title
;
Structure prediction by ZEFSAII (Michael W. Deem and Ramdas Pophale) SiO2 
 PCOD8017777
Probable space group: P -1
;
_chemical_formula_sum "Si O2"
_cell_formula_units_Z 16
_cell_length_a 19.050384
_cell_length_b 7.954199
_cell_length_c 10.012773
_cell_angle_alpha 73.548364
_cell_angle_beta 34.818854
_cell_angle_gamma 57.627330
_cell_volume 692.153519
_symmetry_space_group_name_H-M "P -1"
_symmetry_group_IT_number 2
_symmetry_cell_setting 'triclinic'
loop_
_space_group_symop_operation_xyz
x,y,z
-x,-y,-z
loop_
_atom_site_type_symbol
_atom_site_label
_atom_site_fract_x
_atom_site_fract_y
_atom_site_fract_z
Si Si1 0.544701 0.463558 0.589613
Si Si2 0.240786 0.047773 0.992991
Si Si3 0.623929 0.656120 0.939981
Si Si4 0.020036 0.694962 0.070901
Si Si5 0.473549 0.915778 0.866708
Si Si6 0.956378 0.457467 0.435228
Si Si7 0.687871 0.707134 0.364951
Si Si8 0.179254 0.906179 0.861880
O O1 0.500000 0.500000 0.500000
O O2 0.570085 0.644378 0.546851
O O3 0.694217 0.230367 0.414353
O O4 0.424137 0.475308 0.872068
O O5 0.314423 0.164287 0.787792
O O6 0.346687 0.914476 0.980778
O O7 0.238895 0.891353 0.922702
O O8 0.074682 0.216884 0.262744
O O9 0.525697 0.742869 0.940189
O O10 0.796738 0.492652 0.677785
O O11 0.602311 0.849521 0.013981
O O12 0.947773 0.619777 0.304493
O O13 0.148447 0.501159 0.826651
O O14 0.073552 0.819863 0.046243
O O15 0.901996 0.850443 0.109977
O O16 0.621891 0.855334 0.565646
O O17 0.000000 0.500000 0.500000
#
# Coordination Sequence:
#
# PCOD8017777 Si02
#       8
#     2   2   2   2   2   2   2   2
#     4  11  23  41  67  91 125 166 215 267 319 381
#     4  11  22  40  70  98 127 171 215 263 317 380
#     4  11  26  41  66  93 131 177 207 263 331 373
#     4   9  23  42  65  97 128 170 217 259 321 381
#     4  11  23  41  62  99 128 166 218 264 315 381
#     4  11  24  43  65  91 136 171 213 262 319 390
#     4  10  22  39  65  95 127 165 216 267 309 378
#     4  10  22  41  69  96 127 166 218 269 313 371
#
# _framework density 23.116258999999999
#
# number of rings (size 3 to 8) (size 9 to 14) (size 15 to 20)
#    0.000    1.500    1.250    2.625   10.500    1.500 
#    0.000    1.875    0.000    0.000    0.000    0.000 
#    0.000    0.000    0.000    0.000    0.000    0.000 
#
# Total GULP energy -198436.962784 kJ/mol
# GULP energy per Si atom -12402.310174 kJ/mol
# Density = 2.306365 g / cm^3
# Si number density = 23.116259 Si / 1000 Ang^3
#
#
#
# Elastic Constant Matrix: (Units=GPa)
#
#
# Indices 1 2 3 4 5 6 
#
# 1 105.8572 20.3540 38.5416 0.1709 -0.0123 -21.1815
# 2 20.3540 62.8469 43.2814 1.8613 -4.5722 -8.7285
# 3 38.5416 43.2814 159.9856 -4.1328 -5.2713 -3.8344
# 4 0.1709 1.8613 -4.1328 37.3274 5.4166 6.0418
# 5 -0.0123 -4.5722 -5.2713 5.4166 33.0166 0.2120
# 6 -21.1815 -8.7285 -3.8344 6.0418 0.2120 30.5320
#
#
#
# Elastic Compliance Matrix: (Units=1/GPa)
#
#
# Indices 1 2 3 4 5 6 
#
# 1 0.012198 -0.001073 -0.002504 -0.001549 -0.000342 0.008150
# 2 -0.001073 0.020844 -0.005249 -0.002799 0.002475 0.005092
# 3 -0.002504 -0.005249 0.008265 0.001543 0.000355 -0.002508
# 4 -0.001549 -0.002799 0.001543 0.029008 -0.004853 -0.007388
# 5 -0.000342 0.002475 0.000355 -0.004853 0.031475 0.001257
# 6 0.008150 0.005092 -0.002508 -0.007388 0.001257 0.041001
#
#
# Mechanical properties :
#
#
# Convention : Reuss Voigt Hill
#
# Bulk Modulus (GPa) = 42.27487 59.22705 50.75096
# Shear Modulus (GPa) = 29.70369 35.27604 32.48987
#
# Velocity S-wave (km/s) = 3.58854 3.91068 3.75306
# Velocity P-wave (km/s) = 5.95800 6.78736 6.38616
#
# Compressibility (1/GPa) = 0.02365471
#
# Stress axis : x y z
#
# Youngs Moduli (GPa) = 81.98052 47.97444 120.98609
#
# Poissons Ratio (x) = 0.05148 0.30298
# Poissons Ratio (y) = 0.08796 0.63510
# Poissons Ratio (z) = 0.20530 0.25183
#
# Static dielectric constant tensor:
#      x y z
#    x 4.099690 -0.053630 0.055160 
#    y -0.053630 4.190020 0.387950 
#    z 0.055160 0.387950 4.555010 
# 
# 
# High freq. dielectric constant tensor:
#      x y z
#    x 1.914790 -0.004470 -0.002990 
#    y -0.004470 1.912630 0.021590 
#    z -0.002990 0.021590 1.920970 
# 
# From -- ./inp_files/274619.got.cif
#   From: 2010.06.25/outbox.cif.g09.slc.cpg/sg2_138_cif.got.tgz:274619.got - 2010.06.27 13:26:56.
