data_PCOD8017949
_publ_section_title
;
Structure prediction by ZEFSAII (Michael W. Deem and Ramdas Pophale) SiO2 
 PCOD8017949
Probable space group: P -1
;
_chemical_formula_sum "Si O2"
_cell_formula_units_Z 12
_cell_length_a 9.413386
_cell_length_b 12.359108
_cell_length_c 8.761746
_cell_angle_alpha 84.027774
_cell_angle_beta 70.765372
_cell_angle_gamma 35.787152
_cell_volume 537.670936
_symmetry_space_group_name_H-M "P -1"
_symmetry_group_IT_number 2
_symmetry_cell_setting 'triclinic'
loop_
_space_group_symop_operation_xyz
x,y,z
-x,-y,-z
loop_
_atom_site_type_symbol
_atom_site_label
_atom_site_fract_x
_atom_site_fract_y
_atom_site_fract_z
Si Si1 0.366384 0.005392 0.170844
Si Si2 0.526573 0.592389 0.571633
Si Si3 0.962744 0.001111 0.832309
Si Si4 0.935024 0.661936 0.124524
Si Si5 0.248926 0.644689 0.178487
Si Si6 0.961532 0.419902 0.246327
O O1 0.234242 0.980608 0.139533
O O2 0.148692 0.217013 0.294682
O O3 0.615010 0.825679 0.218736
O O4 0.500000 0.000000 0.000000
O O5 0.500000 0.500000 0.500000
O O6 0.243301 0.813320 0.679860
O O7 0.686117 0.468781 0.685193
O O8 0.683422 0.585308 0.412489
O O9 0.836994 0.182576 0.770409
O O10 0.000000 0.000000 0.000000
O O11 0.072953 0.477737 0.194108
O O12 0.996207 0.738884 0.172320
O O13 0.067958 0.594935 0.919590
O O14 0.500000 0.500000 0.000000
#
# Coordination Sequence:
#
# PCOD8017949 Si02
#       6
#     2   2   2   2   2   2
#     4  10  22  39  70 100 137 181 234 279 348 411
#     4  12  26  45  70 105 146 179 238 293 347 413
#     4  12  25  44  74 105 141 186 238 290 345 419
#     4  10  24  44  72 100 137 188 234 281 351 428
#     4  12  27  44  71 102 140 186 237 285 353 416
#     4  10  22  43  71  99 139 187 226 285 351 409
#
# _framework density 22.318481999999999
#
# number of rings (size 3 to 8) (size 9 to 14) (size 15 to 20)
#    0.000    1.000    3.333    3.000    9.333    4.000 
#    0.000    1.667    0.000    0.000    0.000    0.000 
#    0.000    0.000    0.000    0.000    0.000    0.000 
#
# Total GULP energy -148721.280903 kJ/mol
# GULP energy per Si atom -12393.440075 kJ/mol
# Density = 2.226768 g / cm^3
# Si number density = 22.318482 Si / 1000 Ang^3
#
#
#
# Elastic Constant Matrix: (Units=GPa)
#
#
# Indices 1 2 3 4 5 6 
#
# 1 153.3286 66.4097 44.0107 10.8693 -12.6879 1.7360
# 2 66.4097 130.6869 46.4991 17.5543 -3.7239 14.3349
# 3 44.0107 46.4991 128.5844 18.9308 -18.3902 -3.5122
# 4 10.8693 17.5543 18.9308 41.5465 3.4934 -0.0616
# 5 -12.6879 -3.7239 -18.3902 3.4934 24.1312 1.2202
# 6 1.7360 14.3349 -3.5122 -0.0616 1.2202 39.5105
#
#
#
# Elastic Compliance Matrix: (Units=1/GPa)
#
#
# Indices 1 2 3 4 5 6 
#
# 1 0.008878 -0.004108 -0.000999 -0.000407 0.003286 0.000909
# 2 -0.004108 0.011444 -0.002784 -0.002333 -0.001967 -0.004162
# 3 -0.000999 -0.002784 0.010920 -0.004199 0.007885 0.001775
# 4 -0.000407 -0.002333 -0.004199 0.027734 -0.007828 0.000776
# 5 0.003286 -0.001967 0.007885 -0.007828 0.050021 -0.000287
# 6 0.000909 -0.004162 0.001775 0.000776 -0.000287 0.026947
#
#
# Mechanical properties :
#
#
# Convention : Reuss Voigt Hill
#
# Bulk Modulus (GPa) = 64.67755 80.71543 72.69649
# Shear Modulus (GPa) = 31.87183 38.08301 34.97742
#
# Velocity S-wave (km/s) = 3.78305 4.13527 3.96308
# Velocity P-wave (km/s) = 6.93716 7.68404 7.32013
#
# Compressibility (1/GPa) = 0.01546132
#
# Stress axis : x y z
#
# Youngs Moduli (GPa) = 112.63597 87.38572 91.57626
#
# Poissons Ratio (x) = 0.35895 0.09144
# Poissons Ratio (y) = 0.46267 0.25494
# Poissons Ratio (z) = 0.11247 0.24327
#
# Static dielectric constant tensor:
#      x y z
#    x 4.150390 -0.351180 -0.506310 
#    y -0.351180 5.686290 0.167780 
#    z -0.506310 0.167780 2.862600 
# 
# 
# High freq. dielectric constant tensor:
#      x y z
#    x 1.879300 0.013320 -0.014420 
#    y 0.013320 1.894170 0.007040 
#    z -0.014420 0.007040 1.866970 
# 
# From -- ./inp_files/151892.got.cif
#   From: 2010.06.25/outbox.cif.g09.slc.cpg/sg2_76_cif.got.tgz:151892.got - 2010.06.27 13:26:56.
