data_PCOD8017414
_publ_section_title
;
Structure prediction by ZEFSAII (Michael W. Deem and Ramdas Pophale) SiO2 
 PCOD8017414
Probable space group: P -1
;
_chemical_formula_sum "Si O2"
_cell_formula_units_Z 16
_cell_length_a 14.516957
_cell_length_b 22.820127
_cell_length_c 18.009771
_cell_angle_alpha 160.796845
_cell_angle_beta 148.373629
_cell_angle_gamma 21.877572
_cell_volume 716.040438
_symmetry_space_group_name_H-M "P -1"
_symmetry_group_IT_number 2
_symmetry_cell_setting 'triclinic'
loop_
_space_group_symop_operation_xyz
x,y,z
-x,-y,-z
loop_
_atom_site_type_symbol
_atom_site_label
_atom_site_fract_x
_atom_site_fract_y
_atom_site_fract_z
Si Si1 0.907450 0.763913 0.772120
Si Si2 0.211169 0.050776 0.920920
Si Si3 0.770857 0.650272 0.826158
Si Si4 0.280857 0.073129 0.485955
Si Si5 0.660011 0.291779 0.001640
Si Si6 0.538472 0.825400 0.147839
Si Si7 0.018753 0.269642 0.814524
Si Si8 0.839343 0.148673 0.678458
O O1 0.000000 0.500000 0.500000
O O2 0.642236 0.994497 0.827446
O O3 0.881502 0.811706 0.898972
O O4 0.106196 0.761491 0.873654
O O5 0.021000 0.040779 0.745500
O O6 0.494176 0.759490 0.767259
O O7 0.210203 0.223826 0.076233
O O8 0.998575 0.349101 0.605936
O O9 0.793104 0.727392 0.014372
O O10 0.360658 0.063138 0.612813
O O11 0.500000 0.000000 0.500000
O O12 0.272806 0.868938 0.219122
O O13 0.591591 0.206465 0.918422
O O14 0.442254 0.585780 0.178376
O O15 0.778817 0.545788 0.944697
O O16 0.932104 0.199603 0.735199
O O17 0.158261 0.060846 0.594788
#
# Coordination Sequence:
#
# PCOD8017414 Si02
#       8
#     2   2   2   2   2   2   2   2
#     4  12  28  40  57  93 137 166 203 264 314 372
#     4  10  22  39  57  90 129 161 208 255 313 371
#     4   9  19  38  66  91 116 168 205 253 313 364
#     4   9  18  37  70  92 120 158 217 257 296 380
#     4  10  22  40  65  90 120 168 215 253 312 372
#     4   9  20  42  64  90 121 166 210 253 308 373
#     4   8  16  35  64  89 115 154 212 253 297 370
#     4   9  18  35  61  93 118 157 207 261 302 364
#
# _framework density 22.345106999999999
#
# number of rings (size 3 to 8) (size 9 to 14) (size 15 to 20)
#    0.000    2.500    0.000    2.625    7.000    1.500 
#    2.250    5.000    0.000    0.000    0.000    0.000 
#    0.000    0.000    0.000    0.000    0.000    0.000 
#
# Total GULP energy -198329.600957 kJ/mol
# GULP energy per Si atom -12395.600060 kJ/mol
# Density = 2.229425 g / cm^3
# Si number density = 22.345107 Si / 1000 Ang^3
#
#
#
# Elastic Constant Matrix: (Units=GPa)
#
#
# Indices 1 2 3 4 5 6 
#
# 1 45.3510 27.1916 25.1732 3.1154 -17.9091 10.8500
# 2 27.1916 160.0005 70.4359 15.2577 -20.1628 23.5303
# 3 25.1732 70.4359 177.4384 13.6498 -28.2050 15.0545
# 4 3.1154 15.2577 13.6498 35.1491 -3.6571 -5.7128
# 5 -17.9091 -20.1628 -28.2050 -3.6571 21.3184 0.9797
# 6 10.8500 23.5303 15.0545 -5.7128 0.9797 26.0277
#
#
#
# Elastic Compliance Matrix: (Units=1/GPa)
#
#
# Indices 1 2 3 4 5 6 
#
# 1 0.040827 0.000321 0.002160 -0.004064 0.037721 -0.020871
# 2 0.000321 0.009497 -0.001657 -0.004261 0.006740 -0.008950
# 3 0.002160 -0.001657 0.008391 -0.002414 0.011173 -0.005206
# 4 -0.004064 -0.004261 -0.002414 0.033370 -0.005579 0.014477
# 5 0.037721 0.006740 0.011173 -0.005579 0.100326 -0.033281
# 6 -0.020871 -0.008950 -0.005206 0.014477 -0.033281 0.062653
#
#
# Mechanical properties :
#
#
# Convention : Reuss Voigt Hill
#
# Bulk Modulus (GPa) = 16.56658 69.82126 43.19392
# Shear Modulus (GPa) = 18.27910 33.83166 26.05538
#
# Velocity S-wave (km/s) = 2.86324 3.89530 3.41844
# Velocity P-wave (km/s) = 4.28496 7.17954 5.91214
#
# Compressibility (1/GPa) = 0.06036247
#
# Stress axis : x y z
#
# Youngs Moduli (GPa) = 24.49343 105.30034 119.18161
#
# Poissons Ratio (x) = -0.03382 -0.25740
# Poissons Ratio (y) = -0.00787 0.19747
# Poissons Ratio (z) = -0.05290 0.17447
#
# Static dielectric constant tensor:
#      x y z
#    x 3.685500 -0.048340 -0.177370 
#    y -0.048340 4.287950 -0.091990 
#    z -0.177370 -0.091990 4.411290 
# 
# 
# High freq. dielectric constant tensor:
#      x y z
#    x 1.869430 -0.004430 -0.011310 
#    y -0.004430 1.889990 0.001680 
#    z -0.011310 0.001680 1.881930 
# 
# From -- ./inp_files/574439.got.cif
#   From: 2010.06.25/outbox.cif.g09.slc.cpg/sg2_288_cif.got.tgz:574439.got - 2010.06.27 13:26:56.
