data_PCOD8017767
_publ_section_title
;
Structure prediction by ZEFSAII (Michael W. Deem and Ramdas Pophale) SiO2 
 PCOD8017767
Probable space group: P -1
;
_chemical_formula_sum "Si O2"
_cell_formula_units_Z 16
_cell_length_a 12.715799
_cell_length_b 11.025397
_cell_length_c 11.879519
_cell_angle_alpha 110.589000
_cell_angle_beta 70.418428
_cell_angle_gamma 50.395270
_cell_volume 758.386247
_symmetry_space_group_name_H-M "P -1"
_symmetry_group_IT_number 2
_symmetry_cell_setting 'triclinic'
loop_
_space_group_symop_operation_xyz
x,y,z
-x,-y,-z
loop_
_atom_site_type_symbol
_atom_site_label
_atom_site_fract_x
_atom_site_fract_y
_atom_site_fract_z
Si Si1 0.783015 0.251935 0.099400
Si Si2 0.014139 0.236243 0.363387
Si Si3 0.630567 0.503593 0.935822
Si Si4 0.615508 0.159700 0.070955
Si Si5 0.562179 0.214499 0.518519
Si Si6 0.035343 0.008230 0.707032
Si Si7 0.373761 0.946984 0.315741
Si Si8 0.425270 0.193345 0.343856
O O1 0.623945 0.287292 0.175911
O O2 0.664817 0.490160 0.277327
O O3 0.850988 0.212897 0.935116
O O4 0.000000 0.000000 0.000000
O O5 0.821573 0.526530 0.504001
O O6 0.149898 0.139292 0.393804
O O7 0.913526 0.192623 0.400309
O O8 0.159674 0.096016 0.153898
O O9 0.571480 0.639957 0.888673
O O10 0.887858 0.219774 0.731228
O O11 0.500000 0.500000 0.000000
O O12 0.565407 0.661500 0.114439
O O13 0.569648 0.091258 0.152525
O O14 0.654459 0.044968 0.537445
O O15 0.518656 0.162784 0.414088
O O16 0.742466 0.140694 0.394604
O O17 0.448356 0.017934 0.289253
#
# Coordination Sequence:
#
# PCOD8017767 Si02
#       8
#     2   2   2   2   2   2   2   2
#     4  11  21  39  65  94 132 165 209 272 324 381
#     4  10  23  42  69  96 126 164 215 276 323 372
#     4  11  19  43  69  97 125 161 215 277 329 369
#     4  10  22  39  65  94 126 168 213 265 323 381
#     4  12  25  41  65  98 131 175 215 261 326 385
#     4  11  22  39  69 100 124 158 217 277 329 372
#     4  11  24  45  66  92 131 173 218 268 311 384
#     4  12  26  44  60  94 137 177 215 252 318 395
#
# _framework density 21.097429000000002
#
# number of rings (size 3 to 8) (size 9 to 14) (size 15 to 20)
#    0.000    1.000    5.000    3.750    1.750    4.000 
#    2.250    0.625    0.000    0.000    0.000    0.000 
#    0.000    0.000    0.000    0.000    0.000    0.000 
#
# Total GULP energy -198382.098818 kJ/mol
# GULP energy per Si atom -12398.881176 kJ/mol
# Density = 2.104941 g / cm^3
# Si number density = 21.097429 Si / 1000 Ang^3
#
#
#
# Elastic Constant Matrix: (Units=GPa)
#
#
# Indices 1 2 3 4 5 6 
#
# 1 122.3739 55.0294 38.0698 -12.0948 5.4648 12.7593
# 2 55.0294 98.5138 37.5495 -6.8082 -1.6517 1.2394
# 3 38.0698 37.5495 66.0186 2.4167 0.2704 6.7668
# 4 -12.0948 -6.8082 2.4167 31.7470 0.5175 1.5924
# 5 5.4648 -1.6517 0.2704 0.5175 23.4520 0.7171
# 6 12.7593 1.2394 6.7668 1.5924 0.7171 39.8440
#
#
#
# Elastic Compliance Matrix: (Units=1/GPa)
#
#
# Indices 1 2 3 4 5 6 
#
# 1 0.012742 -0.005249 -0.004165 0.004266 -0.003283 -0.003321
# 2 -0.005249 0.015532 -0.006095 0.001651 0.002286 0.002126
# 3 -0.004165 -0.006095 0.021374 -0.004431 0.000452 -0.001938
# 4 0.004266 0.001651 -0.004431 0.033940 -0.001515 -0.001994
# 5 -0.003283 0.002286 0.000452 -0.001515 0.043589 0.000180
# 6 -0.003321 0.002126 -0.001938 -0.001994 0.000180 0.026501
#
#
# Mechanical properties :
#
#
# Convention : Reuss Voigt Hill
#
# Bulk Modulus (GPa) = 53.67283 60.91151 57.29217
# Shear Modulus (GPa) = 26.19096 29.42579 27.80838
#
# Velocity S-wave (km/s) = 3.52721 3.73870 3.63449
# Velocity P-wave (km/s) = 6.48722 6.89720 6.69535
#
# Compressibility (1/GPa) = 0.01863140
#
# Stress axis : x y z
#
# Youngs Moduli (GPa) = 78.48016 64.38492 46.78477
#
# Poissons Ratio (x) = 0.33794 0.19485
# Poissons Ratio (y) = 0.41192 0.28515
# Poissons Ratio (z) = 0.32685 0.39242
#
# Static dielectric constant tensor:
#      x y z
#    x 3.787300 -0.251460 0.107480 
#    y -0.251460 4.263110 -0.245660 
#    z 0.107480 -0.245660 3.783350 
# 
# 
# High freq. dielectric constant tensor:
#      x y z
#    x 1.818800 -0.011750 0.001450 
#    y -0.011750 1.843510 0.001210 
#    z 0.001450 0.001210 1.821470 
# 
# From -- ./inp_files/279471.got.cif
#   From: 2010.06.25/outbox.cif.g09.slc.cpg/sg2_140_cif.got.tgz:279471.got - 2010.06.27 13:26:56.
