data_PCOD8017802
_publ_section_title
;
Structure prediction by ZEFSAII (Michael W. Deem and Ramdas Pophale) SiO2 
 PCOD8017802
Probable space group: P -1
;
_chemical_formula_sum "Si O2"
_cell_formula_units_Z 16
_cell_length_a 11.963205
_cell_length_b 13.511282
_cell_length_c 14.496176
_cell_angle_alpha 30.650805
_cell_angle_beta 41.289809
_cell_angle_gamma 61.788524
_cell_volume 675.063385
_symmetry_space_group_name_H-M "P -1"
_symmetry_group_IT_number 2
_symmetry_cell_setting 'triclinic'
loop_
_space_group_symop_operation_xyz
x,y,z
-x,-y,-z
loop_
_atom_site_type_symbol
_atom_site_label
_atom_site_fract_x
_atom_site_fract_y
_atom_site_fract_z
Si Si1 0.342923 0.972342 0.196592
Si Si2 0.428373 0.845004 0.922136
Si Si3 0.015146 0.447021 0.327584
Si Si4 0.400301 0.431698 0.758461
Si Si5 0.639720 0.629059 0.614586
Si Si6 0.538350 0.220969 0.247284
Si Si7 0.792532 0.655994 0.229053
Si Si8 0.932233 0.151817 0.795755
O O1 0.129462 0.750520 0.493781
O O2 0.427245 0.954137 0.258932
O O3 0.500000 0.000000 0.000000
O O4 0.302978 0.178179 0.060846
O O5 0.531137 0.866392 0.743348
O O6 0.379178 0.611965 0.186134
O O7 0.223096 0.845255 0.038111
O O8 0.963706 0.644372 0.187623
O O9 0.989986 0.349791 0.524774
O O10 0.240697 0.562661 0.062681
O O11 0.486189 0.620460 0.637836
O O12 0.590625 0.477676 0.546197
O O13 0.238480 0.430994 0.789698
O O14 0.594101 0.690692 0.694043
O O15 0.871021 0.805684 0.306437
O O16 0.500000 0.000000 0.500000
O O17 0.832941 0.910273 0.000078
#
# Coordination Sequence:
#
# PCOD8017802 Si02
#       8
#     2   2   2   2   2   2   2   2
#     4  11  19  42  69 108 141 173 229 297 358 411
#     4  11  24  42  74 105 137 179 234 294 355 416
#     4  12  24  44  72 104 144 183 235 289 352 421
#     4  10  22  39  66 101 143 178 224 283 363 410
#     4  11  25  47  70  95 143 189 235 287 348 418
#     4  12  29  49  65 100 146 194 238 281 347 425
#     4  11  23  39  67 109 143 172 222 301 351 412
#     4  12  24  42  76 111 134 179 239 296 359 411
#
# _framework density 23.701478000000002
#
# number of rings (size 3 to 8) (size 9 to 14) (size 15 to 20)
#    0.000    0.750    5.000    2.250    5.250    0.500 
#    0.000    6.250    0.000    0.000    0.000    0.000 
#    0.000    0.000    0.000    0.000    0.000    0.000 
#
# Total GULP energy -198296.942614 kJ/mol
# GULP energy per Si atom -12393.558913 kJ/mol
# Density = 2.364753 g / cm^3
# Si number density = 23.701478 Si / 1000 Ang^3
#
#
#
# Elastic Constant Matrix: (Units=GPa)
#
#
# Indices 1 2 3 4 5 6 
#
# 1 90.5107 30.0924 9.5557 -5.2378 1.1724 26.5278
# 2 30.0924 91.1114 11.2552 4.3217 -2.4716 19.8558
# 3 9.5557 11.2552 68.0131 -9.7286 1.4617 10.0021
# 4 -5.2378 4.3217 -9.7286 27.9735 3.5037 2.9499
# 5 1.1724 -2.4716 1.4617 3.5037 25.2181 -3.0371
# 6 26.5278 19.8558 10.0021 2.9499 -3.0371 45.2105
#
#
#
# Elastic Compliance Matrix: (Units=1/GPa)
#
#
# Indices 1 2 3 4 5 6 
#
# 1 0.014720 -0.003527 0.000346 0.004552 -0.002602 -0.007636
# 2 -0.003527 0.013211 -0.001737 -0.003191 0.001638 -0.003030
# 3 0.000346 -0.001737 0.016512 0.006783 -0.002532 -0.003706
# 4 0.004552 -0.003191 0.006783 0.040997 -0.007329 -0.005938
# 5 -0.002602 0.001638 -0.002532 -0.007329 0.041660 0.004645
# 6 -0.007636 -0.003030 -0.003706 -0.005938 0.004645 0.029450
#
#
# Mechanical properties :
#
#
# Convention : Reuss Voigt Hill
#
# Bulk Modulus (GPa) = 28.89600 39.04908 33.97254
# Shear Modulus (GPa) = 28.10256 32.92922 30.51589
#
# Velocity S-wave (km/s) = 3.44712 3.73142 3.59208
# Velocity P-wave (km/s) = 5.29732 5.92248 5.61860
#
# Compressibility (1/GPa) = 0.03460687
#
# Stress axis : x y z
#
# Youngs Moduli (GPa) = 67.93590 75.69390 60.56367
#
# Poissons Ratio (x) = 0.26695 -0.02093
# Poissons Ratio (y) = 0.23959 0.10518
# Poissons Ratio (z) = -0.02348 0.13146
#
# Static dielectric constant tensor:
#      x y z
#    x 4.946350 0.271150 -0.014970 
#    y 0.271150 4.154200 -0.211250 
#    z -0.014970 -0.211250 4.174220 
# 
# 
# High freq. dielectric constant tensor:
#      x y z
#    x 1.957240 0.012500 0.000160 
#    y 0.012500 1.915240 -0.034220 
#    z 0.000160 -0.034220 1.926200 
# 
# From -- ./inp_files/522104.got.cif
#   From: 2010.06.25/outbox.cif.g09.slc.cpg/sg2_262_cif.got.tgz:522104.got - 2010.06.27 13:26:56.
