data_PCOD8017305
_publ_section_title
;
Structure prediction by ZEFSAII (Michael W. Deem and Ramdas Pophale) SiO2 
 PCOD8017305
Probable space group: P -1
;
_chemical_formula_sum "Si O2"
_cell_formula_units_Z 14
_cell_length_a 24.079964
_cell_length_b 12.940242
_cell_length_c 8.742107
_cell_angle_alpha 135.142148
_cell_angle_beta 29.510562
_cell_angle_gamma 147.030365
_cell_volume 727.912007
_symmetry_space_group_name_H-M "P -1"
_symmetry_group_IT_number 2
_symmetry_cell_setting 'triclinic'
loop_
_space_group_symop_operation_xyz
x,y,z
-x,-y,-z
loop_
_atom_site_type_symbol
_atom_site_label
_atom_site_fract_x
_atom_site_fract_y
_atom_site_fract_z
Si Si1 0.338599 0.975567 0.953422
Si Si2 0.771680 0.532739 0.761153
Si Si3 0.618413 0.691226 0.327588
Si Si4 0.510097 0.663031 0.223056
Si Si5 0.248777 0.610284 0.674957
Si Si6 0.519244 0.870003 0.912259
Si Si7 0.958002 0.389961 0.643757
O O1 0.178898 0.837809 0.276232
O O2 0.457234 0.071017 0.905469
O O3 0.347623 0.842720 0.677104
O O4 0.367215 0.142727 0.959491
O O5 0.783274 0.492164 0.515738
O O6 0.909956 0.593123 0.587010
O O7 0.759742 0.701436 0.977172
O O8 0.630585 0.342450 0.974745
O O9 0.500000 0.500000 0.500000
O O10 0.556551 0.691135 0.314502
O O11 0.647869 0.867424 0.536088
O O12 0.345122 0.588135 0.531177
O O13 0.500000 0.500000 0.000000
O O14 0.090461 0.515409 0.029730
O O15 0.500000 0.000000 0.000000
O O16 0.000000 0.500000 0.500000
#
# Coordination Sequence:
#
# PCOD8017305 Si02
#       7
#     2   2   2   2   2   2   2
#     4  10  23  39  62  94 120 162 215 253 311 367
#     4  11  21  42  59  91 124 165 205 257 314 375
#     4  10  23  36  60  93 126 159 204 259 318 368
#     4  12  20  39  65  96 124 158 210 267 315 364
#     4  10  22  38  66  89 125 158 218 252 313 370
#     4  11  21  36  63  92 124 159 211 261 307 361
#     4  10  24  41  63  91 129 167 209 253 317 377
#
# _framework density 19.233094000000001
#
# number of rings (size 3 to 8) (size 9 to 14) (size 15 to 20)
#    0.857    0.571    2.857    3.429    6.000    0.000 
#    0.000    1.429    3.143    0.000    0.000    0.000 
#    0.000    0.000    0.000    0.000    0.000    0.000 
#
# Total GULP energy -173443.280231 kJ/mol
# GULP energy per Si atom -12388.805731 kJ/mol
# Density = 1.918932 g / cm^3
# Si number density = 19.233094 Si / 1000 Ang^3
#
#
#
# Elastic Constant Matrix: (Units=GPa)
#
#
# Indices 1 2 3 4 5 6 
#
# 1 130.3605 39.5712 51.7672 3.5673 -9.0273 -27.0535
# 2 39.5712 79.5885 44.1988 15.0872 0.7559 -18.1449
# 3 51.7672 44.1988 125.7778 30.3628 -6.8452 -13.0005
# 4 3.5673 15.0872 30.3628 31.8697 -1.5415 2.9522
# 5 -9.0273 0.7559 -6.8452 -1.5415 42.2514 -2.0153
# 6 -27.0535 -18.1449 -13.0005 2.9522 -2.0153 32.1479
#
#
#
# Elastic Compliance Matrix: (Units=1/GPa)
#
#
# Indices 1 2 3 4 5 6 
#
# 1 0.011362 -0.002760 -0.003653 0.003035 0.002301 0.006392
# 2 -0.002760 0.018580 -0.003217 -0.006166 -0.001318 0.007347
# 3 -0.003653 -0.003217 0.013471 -0.010999 0.001136 0.001639
# 4 0.003035 -0.006166 -0.010999 0.045327 0.000176 -0.009526
# 5 0.002301 -0.001318 0.001136 0.000176 0.024525 0.003173
# 6 0.006392 0.007347 0.001639 -0.009526 0.003173 0.042369
#
#
# Mechanical properties :
#
#
# Convention : Reuss Voigt Hill
#
# Bulk Modulus (GPa) = 41.40318 67.42235 54.41276
# Shear Modulus (GPa) = 27.33053 34.59976 30.96515
#
# Velocity S-wave (km/s) = 3.77373 4.24603 4.01682
# Velocity P-wave (km/s) = 6.36881 7.69219 7.06157
#
# Compressibility (1/GPa) = 0.02415274
#
# Stress axis : x y z
#
# Youngs Moduli (GPa) = 88.00887 53.82168 74.23424
#
# Poissons Ratio (x) = 0.14857 0.27119
# Poissons Ratio (y) = 0.24295 0.23879
# Poissons Ratio (z) = 0.32151 0.17313
#
# Static dielectric constant tensor:
#      x y z
#    x 3.530480 -0.062240 0.078700 
#    y -0.062240 3.529670 0.294100 
#    z 0.078700 0.294100 3.997830 
# 
# 
# High freq. dielectric constant tensor:
#      x y z
#    x 1.752100 -0.011930 0.007430 
#    y -0.011930 1.730360 0.017400 
#    z 0.007430 0.017400 1.758700 
# 
# From -- ./inp_files/244710.got.cif
#   From: 2010.06.25/outbox.cif.g09.slc.cpg/sg2_123_cif.got.tgz:244710.got - 2010.06.27 13:26:56.
