data_PCOD8017980
_publ_section_title
;
Structure prediction by ZEFSAII (Michael W. Deem and Ramdas Pophale) SiO2 
 PCOD8017980
Probable space group: P -1
;
_chemical_formula_sum "Si O2"
_cell_formula_units_Z 14
_cell_length_a 11.674406
_cell_length_b 14.613055
_cell_length_c 20.811302
_cell_angle_alpha 160.412603
_cell_angle_beta 144.929773
_cell_angle_gamma 29.293969
_cell_volume 582.264869
_symmetry_space_group_name_H-M "P -1"
_symmetry_group_IT_number 2
_symmetry_cell_setting 'triclinic'
loop_
_space_group_symop_operation_xyz
x,y,z
-x,-y,-z
loop_
_atom_site_type_symbol
_atom_site_label
_atom_site_fract_x
_atom_site_fract_y
_atom_site_fract_z
Si Si1 0.663086 0.437540 0.734915
Si Si2 0.766767 0.267004 0.534492
Si Si3 0.514446 0.908109 0.147090
Si Si4 0.998146 0.320303 0.950772
Si Si5 0.005492 0.201095 0.478464
Si Si6 0.801371 0.046002 0.077231
Si Si7 0.906017 0.845400 0.806375
O O1 0.625466 0.511505 0.689512
O O2 0.407366 0.635371 0.776303
O O3 0.757479 0.070575 0.556231
O O4 0.857059 0.520801 0.908072
O O5 0.821041 0.401164 0.583787
O O6 0.627362 0.119667 0.342267
O O7 0.000000 0.000000 0.500000
O O8 0.378978 0.952564 0.182845
O O9 0.305587 0.054122 0.095898
O O10 0.716197 0.550011 0.981301
O O11 0.091075 0.248058 0.018777
O O12 0.072108 0.986577 0.729355
O O13 0.028694 0.462778 0.622373
O O14 0.005426 0.114928 0.196315
O O15 0.000000 0.000000 0.000000
#
# Coordination Sequence:
#
# PCOD8017980 Si02
#       7
#     2   2   2   2   2   2   2
#     4  11  23  44  72 113 143 178 238 309 358 421
#     4  10  22  39  72 108 140 174 238 292 361 416
#     4  11  23  48  72 103 146 189 233 299 361 413
#     4  12  24  45  75 109 142 187 236 305 361 420
#     4  11  23  45  74 102 145 187 237 293 365 419
#     4  11  26  46  70 104 150 188 245 283 353 436
#     4  10  27  47  70 103 144 198 241 288 348 434
#
# _framework density 24.044039000000001
#
# number of rings (size 3 to 8) (size 9 to 14) (size 15 to 20)
#    0.000    1.143    4.286    1.714    6.000    2.286 
#    0.000    1.429    0.000    0.000    0.000    0.000 
#    0.000    0.000    0.000    0.000    0.000    0.000 
#
# Total GULP energy -173455.547328 kJ/mol
# GULP energy per Si atom -12389.681952 kJ/mol
# Density = 2.398931 g / cm^3
# Si number density = 24.044039 Si / 1000 Ang^3
#
#
#
# Elastic Constant Matrix: (Units=GPa)
#
#
# Indices 1 2 3 4 5 6 
#
# 1 136.2189 34.0345 22.1573 11.7914 1.9611 -32.7276
# 2 34.0345 81.3287 12.6903 4.5097 8.2965 -14.1800
# 3 22.1573 12.6903 98.6980 15.6593 -0.8012 3.4149
# 4 11.7914 4.5097 15.6593 34.4786 6.2772 -7.1295
# 5 1.9611 8.2965 -0.8012 6.2772 38.5152 1.9353
# 6 -32.7276 -14.1800 3.4149 -7.1295 1.9353 33.4895
#
#
#
# Elastic Compliance Matrix: (Units=1/GPa)
#
#
# Indices 1 2 3 4 5 6 
#
# 1 0.010662 -0.002334 -0.002410 -0.000145 -0.000553 0.009678
# 2 -0.002334 0.014627 -0.001742 0.001257 -0.003502 0.004560
# 3 -0.002410 -0.001742 0.012058 -0.005971 0.002009 -0.005710
# 4 -0.000145 0.001257 -0.005971 0.034583 -0.006463 0.008736
# 5 -0.000553 -0.003502 0.002009 -0.006463 0.028104 -0.005228
# 6 0.009678 0.004560 -0.005710 0.008736 -0.005228 0.043993
#
#
# Mechanical properties :
#
#
# Convention : Reuss Voigt Hill
#
# Bulk Modulus (GPa) = 41.02612 50.44556 45.73584
# Shear Modulus (GPa) = 30.28012 37.78756 34.03384
#
# Velocity S-wave (km/s) = 3.55260 3.96864 3.76637
# Velocity P-wave (km/s) = 5.82476 6.48276 6.16255
#
# Compressibility (1/GPa) = 0.02437472
#
# Stress axis : x y z
#
# Youngs Moduli (GPa) = 93.79126 68.36662 82.93158
#
# Poissons Ratio (x) = 0.15956 0.19986
# Poissons Ratio (y) = 0.21890 0.14450
# Poissons Ratio (z) = 0.22603 0.11912
#
# Static dielectric constant tensor:
#      x y z
#    x 5.607390 -0.103560 -0.240870 
#    y -0.103560 4.013710 -0.138640 
#    z -0.240870 -0.138640 4.263030 
# 
# 
# High freq. dielectric constant tensor:
#      x y z
#    x 1.966490 -0.002860 -0.021230 
#    y -0.002860 1.947760 0.001050 
#    z -0.021230 0.001050 1.949020 
# 
# From -- ./inp_files/519427.got.cif
#   From: 2010.06.25/outbox.cif.g09.slc.cpg/sg2_260_cif.got.tgz:519427.got - 2010.06.27 13:26:56.
