data_PCOD8017354
_publ_section_title
;
Structure prediction by ZEFSAII (Michael W. Deem and Ramdas Pophale) SiO2 
 PCOD8017354
Probable space group: P -1
;
_chemical_formula_sum "Si O2"
_cell_formula_units_Z 16
_cell_length_a 15.337474
_cell_length_b 9.715576
_cell_length_c 5.246224
_cell_angle_alpha 83.195800
_cell_angle_beta 102.405330
_cell_angle_gamma 68.243367
_cell_volume 691.995370
_symmetry_space_group_name_H-M "P -1"
_symmetry_group_IT_number 2
_symmetry_cell_setting 'triclinic'
loop_
_space_group_symop_operation_xyz
x,y,z
-x,-y,-z
loop_
_atom_site_type_symbol
_atom_site_label
_atom_site_fract_x
_atom_site_fract_y
_atom_site_fract_z
Si Si1 0.762430 0.670878 0.876362
Si Si2 0.146962 0.671728 0.841807
Si Si3 0.199444 0.799444 0.330290
Si Si4 0.054500 0.089694 0.380315
Si Si5 0.218518 0.172428 0.633378
Si Si6 0.437628 0.337821 0.389154
Si Si7 0.361459 0.851308 0.669896
Si Si8 0.440369 0.623693 0.140540
O O1 0.810866 0.703518 0.642744
O O2 0.654357 0.700939 0.705596
O O3 0.823660 0.505857 0.066511
O O4 0.760326 0.778603 0.086862
O O5 0.176033 0.709330 0.571233
O O6 0.029896 0.753276 0.805793
O O7 0.202295 0.721016 0.083157
O O8 0.306054 0.803256 0.421005
O O9 0.120125 0.975571 0.227435
O O10 0.128048 0.122723 0.612111
O O11 0.000000 0.000000 0.500000
O O12 0.318049 0.031391 0.641250
O O13 0.521788 0.224189 0.280784
O O14 0.402153 0.522103 0.315180
O O15 0.487122 0.306089 0.705837
O O16 0.348112 0.766422 0.935529
O O17 0.500000 0.500000 0.000000
#
# Coordination Sequence:
#
# PCOD8017354 Si02
#       8
#     2   2   2   2   2   2   2   2
#     4  12  28  44  62  96 139 181 219 256 317 397
#     4  11  23  41  69  96 132 173 207 270 335 390
#     4  10  22  38  68 104 129 158 220 276 332 378
#     4   9  22  46  74 102 126 161 215 279 336 386
#     4  11  28  46  65  96 134 173 223 265 314 401
#     4  10  23  39  64  94 133 174 219 271 322 382
#     4  10  23  39  65  91 130 175 217 277 321 369
#     4   9  20  37  63  97 122 165 225 278 323 368
#
# _framework density 23.12154
#
# number of rings (size 3 to 8) (size 9 to 14) (size 15 to 20)
#    0.000    1.750    0.000    1.875   12.250    9.000 
#    0.000    0.000    0.000    0.000    0.000    0.000 
#    0.000    0.000    0.000    0.000    0.000    0.000 
#
# Total GULP energy -198215.496684 kJ/mol
# GULP energy per Si atom -12388.468543 kJ/mol
# Density = 2.306891 g / cm^3
# Si number density = 23.121540 Si / 1000 Ang^3
#
#
#
# Elastic Constant Matrix: (Units=GPa)
#
#
# Indices 1 2 3 4 5 6 
#
# 1 94.6669 30.6827 24.7673 -2.3982 18.7114 12.4927
# 2 30.6827 95.3229 26.0710 3.7064 22.8915 2.6459
# 3 24.7673 26.0710 108.9315 20.2809 11.6557 9.7717
# 4 -2.3982 3.7064 20.2809 43.7511 0.8620 16.2627
# 5 18.7114 22.8915 11.6557 0.8620 29.1271 1.8206
# 6 12.4927 2.6459 9.7717 16.2627 1.8206 25.8458
#
#
#
# Elastic Compliance Matrix: (Units=1/GPa)
#
#
# Indices 1 2 3 4 5 6 
#
# 1 0.014488 -0.002574 -0.002260 0.005494 -0.005985 -0.008920
# 2 -0.002574 0.013865 -0.001788 -0.000951 -0.008606 0.001706
# 3 -0.002260 -0.001788 0.011232 -0.005332 -0.001510 0.000490
# 4 0.005494 -0.000951 -0.005332 0.033819 -0.000286 -0.021802
# 5 -0.005985 -0.008606 -0.001510 -0.000286 0.045471 0.001322
# 6 -0.008920 0.001706 0.000490 -0.021802 0.001322 0.056268
#
#
# Mechanical properties :
#
#
# Convention : Reuss Voigt Hill
#
# Bulk Modulus (GPa) = 37.96506 51.32927 44.64716
# Shear Modulus (GPa) = 25.35914 34.23815 29.79864
#
# Velocity S-wave (km/s) = 3.31535 3.85228 3.59386
# Velocity P-wave (km/s) = 5.57771 6.48342 6.04754
#
# Compressibility (1/GPa) = 0.02634001
#
# Stress axis : x y z
#
# Youngs Moduli (GPa) = 69.02168 72.12650 89.02963
#
# Poissons Ratio (x) = 0.18566 0.20124
# Poissons Ratio (y) = 0.17767 0.15919
# Poissons Ratio (z) = 0.15601 0.12897
#
# Static dielectric constant tensor:
#      x y z
#    x 4.263830 -0.106880 0.110750 
#    y -0.106880 4.571340 -0.413760 
#    z 0.110750 -0.413760 4.585600 
# 
# 
# High freq. dielectric constant tensor:
#      x y z
#    x 1.901210 -0.012770 0.013750 
#    y -0.012770 1.916770 -0.000890 
#    z 0.013750 -0.000890 1.922480 
# 
# From -- ./inp_files/107013.got.cif
#   From: 2010.06.25/outbox.cif.g09.slc.cpg/sg2_54_cif.got.tgz:107013.got - 2010.06.27 13:26:56.
