data_PCOD8017616
_publ_section_title
;
Structure prediction by ZEFSAII (Michael W. Deem and Ramdas Pophale) SiO2 
 PCOD8017616
Probable space group: P -1
;
_chemical_formula_sum "Si O2"
_cell_formula_units_Z 16
_cell_length_a 9.398399
_cell_length_b 15.192920
_cell_length_c 15.175735
_cell_angle_alpha 47.942203
_cell_angle_beta 148.846602
_cell_angle_gamma 135.694752
_cell_volume 773.049704
_symmetry_space_group_name_H-M "P -1"
_symmetry_group_IT_number 2
_symmetry_cell_setting 'triclinic'
loop_
_space_group_symop_operation_xyz
x,y,z
-x,-y,-z
loop_
_atom_site_type_symbol
_atom_site_label
_atom_site_fract_x
_atom_site_fract_y
_atom_site_fract_z
Si Si1 0.708089 0.131554 0.630762
Si Si2 0.527722 0.254501 0.599833
Si Si3 0.126719 0.332615 0.951650
Si Si4 0.522506 0.842061 0.694345
Si Si5 0.060606 0.545529 0.879758
Si Si6 0.912879 0.692564 0.555368
Si Si7 0.693832 0.645295 0.161011
Si Si8 0.556023 0.503967 0.350020
O O1 0.496716 0.139614 0.593506
O O2 0.584481 0.179034 0.448357
O O3 0.047723 0.219908 0.772238
O O4 0.700301 0.989771 0.711054
O O5 0.228237 0.225794 0.514614
O O6 0.616558 0.383938 0.501192
O O7 0.778433 0.263609 0.797245
O O8 0.164466 0.428797 0.988550
O O9 0.278606 0.399362 0.894812
O O10 0.258100 0.229669 0.121913
O O11 0.235571 0.789721 0.638277
O O12 0.921621 0.575033 0.696530
O O13 0.798633 0.519732 0.830798
O O14 0.371918 0.659455 0.994201
O O15 0.708625 0.630222 0.405507
O O16 0.700443 0.537000 0.307041
#
# Coordination Sequence:
#
# PCOD8017616 Si02
#       8
#     2   2   2   2   2   2   2   2
#     4  10  25  43  61  86 116 158 208 251 292 352
#     4  10  22  39  63  91 123 156 199 238 300 358
#     4  11  22  38  61  92 122 153 199 248 295 353
#     4  11  24  43  65  82 118 160 206 251 298 339
#     4  11  21  38  58  95 125 156 191 240 307 361
#     4  11  20  41  64  87 122 166 189 240 303 361
#     4  11  23  35  60  91 122 155 200 240 298 350
#     4  11  21  38  61  90 130 159 188 240 301 366
#
# _framework density 20.697244999999999
#
# number of rings (size 3 to 8) (size 9 to 14) (size 15 to 20)
#    0.000    1.250    5.000    1.500    1.750    4.500 
#    0.000    0.000    0.000    2.250    0.000    0.000 
#    0.000    0.000    0.000    0.000    0.000    0.000 
#
# Total GULP energy -198362.337846 kJ/mol
# GULP energy per Si atom -12397.646115 kJ/mol
# Density = 2.065014 g / cm^3
# Si number density = 20.697245 Si / 1000 Ang^3
#
#
#
# Elastic Constant Matrix: (Units=GPa)
#
#
# Indices 1 2 3 4 5 6 
#
# 1 64.2764 33.9842 19.9538 -18.2871 12.3795 -10.3732
# 2 33.9842 66.2596 40.3646 4.9199 8.6754 -6.2244
# 3 19.9538 40.3646 111.3312 -15.9104 23.2400 -4.4469
# 4 -18.2871 4.9199 -15.9104 19.9947 7.0700 -0.7365
# 5 12.3795 8.6754 23.2400 7.0700 27.7625 4.0510
# 6 -10.3732 -6.2244 -4.4469 -0.7365 4.0510 26.6149
#
#
#
# Elastic Compliance Matrix: (Units=1/GPa)
#
#
# Indices 1 2 3 4 5 6 
#
# 1 -0.047093 0.045070 -0.040928 -0.114144 0.074497 -0.029150
# 2 0.045070 -0.019825 0.026519 0.090749 -0.063521 0.029540
# 3 -0.040928 0.026519 -0.012536 -0.069162 0.040988 -0.019997
# 4 -0.114144 0.090749 -0.069162 -0.181918 0.135589 -0.060492
# 5 0.074497 -0.063521 0.040988 0.135589 -0.050937 0.032533
# 6 -0.029150 0.029540 -0.019997 -0.060492 0.032533 0.023153
#
#
# Mechanical properties :
#
#
# Convention : Reuss Voigt Hill
#
# Bulk Modulus (GPa) = -55.14764 47.83028 -3.65868
# Shear Modulus (GPa) = -14.02442 24.71208 5.34383
#
# Velocity S-wave (km/s) = -2.60590 3.45915 1.60857
# Velocity P-wave (km/s) = 5.97972 6.25411 1.29555
#
# Compressibility (1/GPa) = -0.01813314
#
# Stress axis : x y z
#
# Youngs Moduli (GPa) = -21.23460 -50.44100 -79.77140
#
# Poissons Ratio (x) = 2.27335 -3.26487
# Poissons Ratio (y) = 0.95703 2.11544
# Poissons Ratio (z) = -0.86909 1.33763
#
# Static dielectric constant tensor:
#      x y z
#    x 3.952030 0.030160 -0.018810 
#    y 0.030160 3.396950 0.177550 
#    z -0.018810 0.177550 3.940300 
# 
# 
# High freq. dielectric constant tensor:
#      x y z
#    x 1.820140 -0.001700 -0.002450 
#    y -0.001700 1.772420 0.018470 
#    z -0.002450 0.018470 1.828120 
# 
# From -- ./inp_files/180739.got.cif
#   From: 2010.06.25/outbox.cif.g09.slc.cpg/sg2_91_cif.got.tgz:180739.got - 2010.06.27 13:26:56.
