data_PCOD8017465
_publ_section_title
;
Structure prediction by ZEFSAII (Michael W. Deem and Ramdas Pophale) SiO2 
 PCOD8017465
Probable space group: P -1
;
_chemical_formula_sum "Si O2"
_cell_formula_units_Z 14
_cell_length_a 12.832676
_cell_length_b 9.353223
_cell_length_c 10.552420
_cell_angle_alpha 58.181567
_cell_angle_beta 42.248891
_cell_angle_gamma 76.518903
_cell_volume 695.698470
_symmetry_space_group_name_H-M "P -1"
_symmetry_group_IT_number 2
_symmetry_cell_setting 'triclinic'
loop_
_space_group_symop_operation_xyz
x,y,z
-x,-y,-z
loop_
_atom_site_type_symbol
_atom_site_label
_atom_site_fract_x
_atom_site_fract_y
_atom_site_fract_z
Si Si1 0.092033 0.032411 0.722013
Si Si2 0.742470 0.625333 0.711850
Si Si3 0.259355 0.021126 0.830869
Si Si4 0.865025 0.323042 0.183070
Si Si5 0.500724 0.440288 0.830962
Si Si6 0.522019 0.316794 0.602192
Si Si7 0.273023 0.658231 0.958420
O O1 0.130879 0.188592 0.511319
O O2 0.234813 0.067905 0.683596
O O3 0.078637 0.847862 0.749835
O O4 0.918421 0.029279 0.929503
O O5 0.679820 0.537419 0.673555
O O6 0.597129 0.662224 0.910935
O O7 0.814082 0.484272 0.789386
O O8 0.335788 0.857324 0.859724
O O9 0.381125 0.175631 0.724318
O O10 0.699347 0.306849 0.412792
O O11 0.854197 0.326794 0.039624
O O12 0.000000 0.500000 0.000000
O O13 0.502745 0.305349 0.778524
O O14 0.417621 0.594058 0.792426
O O15 0.500000 0.500000 0.500000
#
# Coordination Sequence:
#
# PCOD8017465 Si02
#       7
#     2   2   2   2   2   2   2
#     4  10  22  39  60  89 124 160 194 257 290 355
#     4   9  19  39  63  83 125 156 198 240 307 352
#     4  10  23  38  62  92 119 154 213 239 299 351
#     4  11  24  39  61  90 125 153 201 248 305 344
#     4   9  20  36  62  89 121 152 200 246 297 350
#     4  12  21  37  63  89 117 159 199 252 293 353
#     4   9  20  40  62  85 119 163 194 246 290 368
#
# _framework density 20.123660000000001
#
# number of rings (size 3 to 8) (size 9 to 14) (size 15 to 20)
#    0.857    1.143    1.429    1.714    2.000    4.000 
#    0.000    5.714    0.000    0.000    0.000    0.000 
#    0.000    0.000    0.000    0.000    0.000    0.000 
#
# Total GULP energy -173440.802895 kJ/mol
# GULP energy per Si atom -12388.628778 kJ/mol
# Density = 2.007786 g / cm^3
# Si number density = 20.123660 Si / 1000 Ang^3
#
#
#
# Elastic Constant Matrix: (Units=GPa)
#
#
# Indices 1 2 3 4 5 6 
#
# 1 59.2444 39.2511 33.1119 -12.6112 -0.2335 11.5307
# 2 39.2511 124.5546 45.4176 -19.1624 2.0841 12.8382
# 3 33.1119 45.4176 91.6819 -20.7922 2.9251 9.5800
# 4 -12.6112 -19.1624 -20.7922 38.9555 -4.3466 -0.9100
# 5 -0.2335 2.0841 2.9251 -4.3466 28.1268 -6.9071
# 6 11.5307 12.8382 9.5800 -0.9100 -6.9071 37.9127
#
#
#
# Elastic Compliance Matrix: (Units=1/GPa)
#
#
# Indices 1 2 3 4 5 6 
#
# 1 0.024557 -0.004936 -0.005404 0.002591 0.000481 -0.004282
# 2 -0.004936 0.011220 -0.003102 0.002162 -0.000602 -0.001572
# 3 -0.005404 -0.003102 0.015691 0.004956 -0.001009 -0.001336
# 4 0.002591 0.002162 0.004956 0.030604 0.003742 -0.001356
# 5 0.000481 -0.000602 -0.001009 0.003742 0.038088 0.007341
# 6 -0.004282 -0.001572 -0.001336 -0.001356 0.007341 0.029854
#
#
# Mechanical properties :
#
#
# Convention : Reuss Voigt Hill
#
# Bulk Modulus (GPa) = 40.67642 56.78245 48.72944
# Shear Modulus (GPa) = 27.01373 31.51234 29.26304
#
# Velocity S-wave (km/s) = 3.66783 3.96148 3.81748
# Velocity P-wave (km/s) = 6.18017 7.01445 6.61048
#
# Compressibility (1/GPa) = 0.02458427
#
# Stress axis : x y z
#
# Youngs Moduli (GPa) = 40.72216 89.12809 63.72986
#
# Poissons Ratio (x) = 0.43995 0.34439
# Poissons Ratio (y) = 0.20101 0.19767
# Poissons Ratio (z) = 0.22006 0.27644
#
# Static dielectric constant tensor:
#      x y z
#    x 3.642660 0.221680 0.142900 
#    y 0.221680 4.147920 0.004880 
#    z 0.142900 0.004880 3.502940 
# 
# 
# High freq. dielectric constant tensor:
#      x y z
#    x 1.771370 0.001380 0.004670 
#    y 0.001380 1.788730 -0.004160 
#    z 0.004670 -0.004160 1.775790 
# 
# From -- ./inp_files/351837.got.cif
#   From: 2010.06.25/outbox.cif.g09.slc.cpg/sg2_176_cif.got.tgz:351837.got - 2010.06.27 13:26:56.
