data_PCOD8017382
_publ_section_title
;
Structure prediction by ZEFSAII (Michael W. Deem and Ramdas Pophale) SiO2 
 PCOD8017382
Probable space group: P -1
;
_chemical_formula_sum "Si O2"
_cell_formula_units_Z 16
_cell_length_a 9.431728
_cell_length_b 14.193217
_cell_length_c 9.081704
_cell_angle_alpha 141.473107
_cell_angle_beta 79.024794
_cell_angle_gamma 92.752077
_cell_volume 733.214008
_symmetry_space_group_name_H-M "P -1"
_symmetry_group_IT_number 2
_symmetry_cell_setting 'triclinic'
loop_
_space_group_symop_operation_xyz
x,y,z
-x,-y,-z
loop_
_atom_site_type_symbol
_atom_site_label
_atom_site_fract_x
_atom_site_fract_y
_atom_site_fract_z
Si Si1 0.484981 0.626405 0.281576
Si Si2 0.755894 0.737396 0.487166
Si Si3 0.991835 0.663548 0.130331
Si Si4 0.600807 0.036296 0.394628
Si Si5 0.626014 0.381717 0.403884
Si Si6 0.910269 0.482309 0.351623
Si Si7 0.383702 0.931253 0.113401
Si Si8 0.161508 0.913572 0.399013
O O1 0.639049 0.629225 0.336250
O O2 0.428860 0.783931 0.405993
O O3 0.372239 0.589809 0.385672
O O4 0.500000 0.500000 0.000000
O O5 0.846205 0.764939 0.352692
O O6 0.856876 0.648646 0.487752
O O7 0.681302 0.908509 0.760304
O O8 0.134418 0.741531 0.236128
O O9 0.000000 0.500000 0.000000
O O10 0.987185 0.635659 0.921283
O O11 0.771380 0.002179 0.372262
O O12 0.500000 0.000000 0.500000
O O13 0.549671 0.943134 0.152154
O O14 0.500000 0.500000 0.500000
O O15 0.777279 0.400119 0.324339
O O16 0.597178 0.207296 0.174724
O O17 0.000000 0.500000 0.500000
O O18 0.275654 0.898036 0.223964
O O19 0.000000 0.000000 0.500000
#
# Coordination Sequence:
#
# PCOD8017382 Si02
#       8
#     2   2   2   2   2   2   2   2
#     4  11  26  42  70 100 133 179 242 282 340 411
#     4  10  22  44  68 104 135 185 224 289 341 406
#     4  10  22  38  70  95 139 179 225 279 338 406
#     4   9  23  40  67 102 133 172 225 283 340 409
#     4  12  26  47  71  97 139 191 226 293 353 407
#     4  11  25  45  65 103 143 182 230 283 347 410
#     4  10  22  45  68  96 141 176 230 281 349 410
#     4  11  20  40  66  99 135 177 223 273 348 405
#
# _framework density 21.821733999999999
#
# number of rings (size 3 to 8) (size 9 to 14) (size 15 to 20)
#    0.000    1.500    3.750    0.000    8.750    3.000 
#    2.250    0.625    0.000    0.000    0.000    0.000 
#    0.000    0.000    0.000    0.000    0.000    0.000 
#
# Total GULP energy -198265.446116 kJ/mol
# GULP energy per Si atom -12391.590382 kJ/mol
# Density = 2.177207 g / cm^3
# Si number density = 21.821734 Si / 1000 Ang^3
#
#
#
# Elastic Constant Matrix: (Units=GPa)
#
#
# Indices 1 2 3 4 5 6 
#
# 1 125.0991 41.7848 42.1839 0.8863 17.8555 -10.5817
# 2 41.7848 119.8986 50.4033 -3.1438 5.1413 2.3819
# 3 42.1839 50.4033 134.1574 -2.2857 16.7010 -5.3112
# 4 0.8863 -3.1438 -2.2857 37.2160 5.5129 -0.3220
# 5 17.8555 5.1413 16.7010 5.5129 25.9702 0.4980
# 6 -10.5817 2.3819 -5.3112 -0.3220 0.4980 40.0088
#
#
#
# Elastic Compliance Matrix: (Units=1/GPa)
#
#
# Indices 1 2 3 4 5 6 
#
# 1 0.010495 -0.002878 -0.001368 0.000320 -0.005889 0.002841
# 2 -0.002878 0.010758 -0.003454 0.000451 0.002011 -0.001882
# 3 -0.001368 -0.003454 0.009869 0.001095 -0.004978 0.001225
# 4 0.000320 0.000451 0.001095 0.028005 -0.006968 0.000515
# 5 -0.005889 0.002011 -0.004978 -0.006968 0.046894 -0.002978
# 6 0.002841 -0.001882 0.001225 0.000515 -0.002978 0.026062
#
#
# Mechanical properties :
#
#
# Convention : Reuss Voigt Hill
#
# Bulk Modulus (GPa) = 63.60467 71.98879 67.79673
# Shear Modulus (GPa) = 32.73923 36.95789 34.84856
#
# Velocity S-wave (km/s) = 3.87758 4.11984 4.00054
# Velocity P-wave (km/s) = 7.01841 7.46270 7.24396
#
# Compressibility (1/GPa) = 0.01572212
#
# Stress axis : x y z
#
# Youngs Moduli (GPa) = 95.28628 92.95049 101.33226
#
# Poissons Ratio (x) = 0.26752 0.13858
# Poissons Ratio (y) = 0.27424 0.35001
# Poissons Ratio (z) = 0.13032 0.32106
#
# Static dielectric constant tensor:
#      x y z
#    x 4.200350 0.142640 0.041930 
#    y 0.142640 4.150720 0.008760 
#    z 0.041930 0.008760 4.212860 
# 
# 
# High freq. dielectric constant tensor:
#      x y z
#    x 1.854160 0.019710 0.003340 
#    y 0.019710 1.875140 0.005560 
#    z 0.003340 0.005560 1.847390 
# 
# From -- ./inp_files/209275.got.cif
#   From: 2010.06.25/outbox.cif.g09.slc.cpg/sg2_105_cif.got.tgz:209275.got - 2010.06.27 13:26:56.
