data_PCOD8017520
_publ_section_title
;
Structure prediction by ZEFSAII (Michael W. Deem and Ramdas Pophale) SiO2 
 PCOD8017520
Probable space group: P -1
;
_chemical_formula_sum "Si O2"
_cell_formula_units_Z 16
_cell_length_a 19.241299
_cell_length_b 6.701705
_cell_length_c 8.853573
_cell_angle_alpha 99.375930
_cell_angle_beta 45.385277
_cell_angle_gamma 84.385646
_cell_volume 764.339673
_symmetry_space_group_name_H-M "P -1"
_symmetry_group_IT_number 2
_symmetry_cell_setting 'triclinic'
loop_
_space_group_symop_operation_xyz
x,y,z
-x,-y,-z
loop_
_atom_site_type_symbol
_atom_site_label
_atom_site_fract_x
_atom_site_fract_y
_atom_site_fract_z
Si Si1 0.670726 0.704011 0.157784
Si Si2 0.778253 0.699047 0.423084
Si Si3 0.819006 0.359503 0.083910
Si Si4 0.448539 0.246496 0.139444
Si Si5 0.841703 0.609437 0.649918
Si Si6 0.500508 0.610706 0.229474
Si Si7 0.711269 0.054799 0.342281
Si Si8 0.969381 0.246629 0.577368
O O1 0.723108 0.502190 0.154403
O O2 0.559499 0.677420 0.287456
O O3 0.662205 0.918137 0.289115
O O4 0.733110 0.708954 0.909299
O O5 0.838103 0.485556 0.216893
O O6 0.661252 0.712030 0.617236
O O7 0.832889 0.678456 0.498243
O O8 0.777921 0.910850 0.357719
O O9 0.792145 0.146037 0.142774
O O10 0.921420 0.318086 0.824249
O O11 0.505885 0.360124 0.187052
O O12 0.439172 0.363139 0.009262
O O13 0.500000 0.000000 0.000000
O O14 0.885872 0.355159 0.586545
O O15 0.926295 0.699138 0.608089
O O16 0.382313 0.756297 0.423705
O O17 0.000000 0.000000 0.500000
#
# Coordination Sequence:
#
# PCOD8017520 Si02
#       8
#     2   2   2   2   2   2   2   2
#     4  10  22  39  61  92 121 168 207 251 307 358
#     4  11  22  41  62  90 125 164 204 250 312 359
#     4  10  23  41  60  89 129 159 203 258 305 373
#     4  11  22  39  59  89 128 167 206 254 298 353
#     4  10  22  42  67  89 120 156 204 257 306 371
#     4  11  22  37  61  89 126 165 212 254 292 360
#     4  11  22  38  60  90 130 167 202 251 304 361
#     4  10  22  44  67  92 117 155 203 258 314 370
#
# _framework density 20.933104
#
# number of rings (size 3 to 8) (size 9 to 14) (size 15 to 20)
#    0.000    1.500    3.750    1.125    0.000    4.000 
#    4.500    1.250    0.000    0.000    0.000    0.000 
#    0.000    0.000    0.000    0.000    0.000    0.000 
#
# Total GULP energy -198326.641102 kJ/mol
# GULP energy per Si atom -12395.415069 kJ/mol
# Density = 2.088546 g / cm^3
# Si number density = 20.933104 Si / 1000 Ang^3
#
#
#
# Elastic Constant Matrix: (Units=GPa)
#
#
# Indices 1 2 3 4 5 6 
#
# 1 75.8267 30.6092 15.4282 4.5277 15.3521 -5.1749
# 2 30.6092 136.1243 29.4049 9.0945 5.2817 0.7878
# 3 15.4282 29.4049 69.8897 5.0199 1.8603 -4.7572
# 4 4.5277 9.0945 5.0199 40.5020 3.0419 3.7216
# 5 15.3521 5.2817 1.8603 3.0419 30.6385 -4.2635
# 6 -5.1749 0.7878 -4.7572 3.7216 -4.2635 23.3748
#
#
#
# Elastic Compliance Matrix: (Units=1/GPa)
#
#
# Indices 1 2 3 4 5 6 
#
# 1 0.016435 -0.002954 -0.002008 -0.000573 -0.007255 0.002097
# 2 -0.002954 0.008749 -0.003043 -0.001137 0.000079 -0.001373
# 3 -0.002008 -0.003043 0.016344 -0.001522 0.001168 0.003440
# 4 -0.000573 -0.001137 -0.001522 0.025860 -0.002689 -0.005006
# 5 -0.007255 0.000079 0.001168 -0.002689 0.037271 0.005855
# 6 0.002097 -0.001373 0.003440 -0.005006 0.005855 0.045857
#
#
# Mechanical properties :
#
#
# Convention : Reuss Voigt Hill
#
# Bulk Modulus (GPa) = 39.18788 48.08058 43.63423
# Shear Modulus (GPa) = 28.56619 32.66295 30.61457
#
# Velocity S-wave (km/s) = 3.69811 3.95441 3.82841
# Velocity P-wave (km/s) = 6.08243 6.62332 6.35863
#
# Compressibility (1/GPa) = 0.02551810
#
# Stress axis : x y z
#
# Youngs Moduli (GPa) = 60.84422 114.30387 61.18450
#
# Poissons Ratio (x) = 0.33768 0.12287
# Poissons Ratio (y) = 0.17975 0.18616
# Poissons Ratio (z) = 0.12218 0.34778
#
# Static dielectric constant tensor:
#      x y z
#    x 3.727420 -0.302000 0.322490 
#    y -0.302000 4.404400 -0.219480 
#    z 0.322490 -0.219480 3.472580 
# 
# 
# High freq. dielectric constant tensor:
#      x y z
#    x 1.794310 -0.000750 0.005930 
#    y -0.000750 1.828620 -0.007830 
#    z 0.005930 -0.007830 1.831740 
# 
# From -- ./inp_files/38144.got.cif
#   From: 2010.06.25/outbox.cif.g09.slc.cpg/sg2_20_cif.got.tgz:38144.got - 2010.06.27 13:26:56.
