data_PCOD8017841
_publ_section_title
;
Structure prediction by ZEFSAII (Michael W. Deem and Ramdas Pophale) SiO2 
 PCOD8017841
Probable space group: P -1
;
_chemical_formula_sum "Si O2"
_cell_formula_units_Z 14
_cell_length_a 9.294648
_cell_length_b 23.280368
_cell_length_c 12.223951
_cell_angle_alpha 32.933112
_cell_angle_beta 135.064726
_cell_angle_gamma 150.789495
_cell_volume 698.736533
_symmetry_space_group_name_H-M "P -1"
_symmetry_group_IT_number 2
_symmetry_cell_setting 'triclinic'
loop_
_space_group_symop_operation_xyz
x,y,z
-x,-y,-z
loop_
_atom_site_type_symbol
_atom_site_label
_atom_site_fract_x
_atom_site_fract_y
_atom_site_fract_z
Si Si1 0.434333 0.370847 0.386960
Si Si2 0.320493 0.527049 0.410183
Si Si3 0.773005 0.130435 0.362312
Si Si4 0.391091 0.323111 0.063978
Si Si5 0.656583 0.296753 0.452854
Si Si6 0.270588 0.644130 0.987857
Si Si7 0.177672 0.963133 0.685739
O O1 0.514038 0.376456 0.545322
O O2 0.633773 0.367757 0.427999
O O3 0.091450 0.207989 0.449655
O O4 0.495377 0.514747 0.152717
O O5 0.500000 0.500000 0.500000
O O6 0.982738 0.370590 0.504498
O O7 0.316398 0.616219 0.176660
O O8 0.795409 0.262715 0.166300
O O9 0.711674 0.061906 0.318617
O O10 0.500000 0.000000 0.500000
O O11 0.572649 0.333932 0.241082
O O12 0.437063 0.270224 0.063700
O O13 0.038296 0.191551 0.109649
O O14 0.463569 0.117481 0.654578
O O15 0.000000 0.500000 0.000000
O O16 0.000000 0.000000 0.500000
#
# Coordination Sequence:
#
# PCOD8017841 Si02
#       7
#     2   2   2   2   2   2   2
#     4  12  24  41  67  98 130 172 211 274 324 387
#     4  12  25  43  66  95 135 171 217 270 329 378
#     4  12  24  40  70 101 130 166 221 271 325 379
#     4  11  21  40  68  97 124 164 224 265 317 382
#     4  11  23  42  67  93 130 170 220 263 324 388
#     4  12  23  41  69  97 125 173 223 270 314 388
#     4  10  22  39  66  97 127 166 215 273 317 378
#
# _framework density 20.036165
#
# number of rings (size 3 to 8) (size 9 to 14) (size 15 to 20)
#    0.000    0.571    7.143    2.571    4.000    0.000 
#    0.000    1.429    0.000    0.000    0.000    0.000 
#    0.000    0.000    0.000    0.000    0.000    0.000 
#
# Total GULP energy -173523.679412 kJ/mol
# GULP energy per Si atom -12394.548529 kJ/mol
# Density = 1.999056 g / cm^3
# Si number density = 20.036165 Si / 1000 Ang^3
#
#
#
# Elastic Constant Matrix: (Units=GPa)
#
#
# Indices 1 2 3 4 5 6 
#
# 1 165.4714 47.9663 29.4639 -9.6176 6.1799 3.3045
# 2 47.9663 80.8209 33.3755 6.2539 -3.9328 6.8798
# 3 29.4639 33.3755 68.6162 0.4500 -5.8495 -6.9256
# 4 -9.6176 6.2539 0.4500 19.2370 -0.8167 -1.6493
# 5 6.1799 -3.9328 -5.8495 -0.8167 38.2758 -4.8505
# 6 3.3045 6.8798 -6.9256 -1.6493 -4.8505 46.2057
#
#
#
# Elastic Compliance Matrix: (Units=1/GPa)
#
#
# Indices 1 2 3 4 5 6 
#
# 1 0.008047 -0.004725 -0.001362 0.005504 -0.001885 -0.000078
# 2 -0.004725 0.019402 -0.007670 -0.008788 0.000900 -0.003920
# 3 -0.001362 -0.007670 0.019597 0.001875 0.003045 0.004563
# 4 0.005504 -0.008788 0.001875 0.057835 0.000144 0.003275
# 5 -0.001885 0.000900 0.003045 0.000144 0.027415 0.003340
# 6 -0.000078 -0.003920 0.004563 0.003275 0.003340 0.023383
#
#
# Mechanical properties :
#
#
# Convention : Reuss Voigt Hill
#
# Bulk Modulus (GPa) = 51.19414 59.61332 55.40373
# Shear Modulus (GPa) = 26.35697 34.35056 30.35377
#
# Velocity S-wave (km/s) = 3.63088 4.14506 3.89646
# Velocity P-wave (km/s) = 6.57145 7.26127 6.92496
#
# Compressibility (1/GPa) = 0.01953348
#
# Stress axis : x y z
#
# Youngs Moduli (GPa) = 124.26523 51.54179 51.02762
#
# Poissons Ratio (x) = 0.24351 0.06951
# Poissons Ratio (y) = 0.58710 0.39137
# Poissons Ratio (z) = 0.16926 0.39531
#
# Static dielectric constant tensor:
#      x y z
#    x 4.080690 0.269700 -0.207220 
#    y 0.269700 4.073070 -0.254740 
#    z -0.207220 -0.254740 3.603320 
# 
# 
# High freq. dielectric constant tensor:
#      x y z
#    x 1.814300 0.007180 -0.000700 
#    y 0.007180 1.777730 -0.012640 
#    z -0.000700 -0.012640 1.761950 
# 
# From -- ./inp_files/154599.got.cif
#   From: 2010.06.25/outbox.cif.g09.slc.cpg/sg2_78_cif.got.tgz:154599.got - 2010.06.27 13:26:56.
