data_PCOD8017721
_publ_section_title
;
Structure prediction by ZEFSAII (Michael W. Deem and Ramdas Pophale) SiO2 
 PCOD8017721
Probable space group: P -1
;
_chemical_formula_sum "Si O2"
_cell_formula_units_Z 14
_cell_length_a 11.172497
_cell_length_b 11.554887
_cell_length_c 14.398631
_cell_angle_alpha 137.909174
_cell_angle_beta 38.423592
_cell_angle_gamma 110.139999
_cell_volume 636.732255
_symmetry_space_group_name_H-M "P -1"
_symmetry_group_IT_number 2
_symmetry_cell_setting 'triclinic'
loop_
_space_group_symop_operation_xyz
x,y,z
-x,-y,-z
loop_
_atom_site_type_symbol
_atom_site_label
_atom_site_fract_x
_atom_site_fract_y
_atom_site_fract_z
Si Si1 0.923727 0.720291 0.639755
Si Si2 0.299547 0.795108 0.411370
Si Si3 0.095238 0.111527 0.565822
Si Si4 0.810792 0.951590 0.193355
Si Si5 0.728939 0.087331 0.119702
Si Si6 0.722417 0.739659 0.592753
Si Si7 0.185299 0.438113 0.044896
O O1 0.709666 0.804412 0.746504
O O2 0.000000 0.500000 0.500000
O O3 0.142410 0.703257 0.445275
O O4 0.833330 0.874965 0.872858
O O5 0.560370 0.625098 0.112397
O O6 0.184932 0.007436 0.548690
O O7 0.313242 0.854753 0.544434
O O8 0.299151 0.085563 0.360347
O O9 0.000000 0.000000 0.500000
O O10 0.904997 0.362825 0.850553
O O11 0.780187 0.771522 0.142753
O O12 0.682489 0.047824 0.229796
O O13 0.088613 0.847819 0.953400
O O14 0.492679 0.271409 0.318149
O O15 0.983149 0.519535 0.295439
#
# Coordination Sequence:
#
# PCOD8017721 Si02
#       7
#     2   2   2   2   2   2   2
#     4  11  23  40  66  93 126 171 215 257 329 380
#     4  11  22  44  65  95 131 169 209 268 319 381
#     4  10  22  39  64  95 130 160 209 263 324 375
#     4  10  22  42  65  90 132 173 218 256 320 376
#     4  10  22  41  64  91 130 174 211 269 308 381
#     4  10  22  40  62  99 122 165 213 262 323 375
#     4  10  23  39  65  96 126 169 211 260 322 377
#
# _framework density 21.987264
#
# number of rings (size 3 to 8) (size 9 to 14) (size 15 to 20)
#    0.857    0.857    1.429    2.571    0.000    4.571 
#    7.714    0.000    0.000    0.000    0.000    0.000 
#    0.000    0.000    0.000    0.000    0.000    0.000 
#
# Total GULP energy -173449.030195 kJ/mol
# GULP energy per Si atom -12389.216443 kJ/mol
# Density = 2.193722 g / cm^3
# Si number density = 21.987264 Si / 1000 Ang^3
#
#
#
# Elastic Constant Matrix: (Units=GPa)
#
#
# Indices 1 2 3 4 5 6 
#
# 1 147.1877 37.5718 32.3519 -2.6800 -15.1703 -12.1767
# 2 37.5718 95.8199 17.3786 13.1257 -13.5754 -10.7312
# 3 32.3519 17.3786 69.6005 3.4876 -23.8218 -3.4555
# 4 -2.6800 13.1257 3.4876 26.9831 -0.0843 -0.4476
# 5 -15.1703 -13.5754 -23.8218 -0.0843 34.8593 -4.9817
# 6 -12.1767 -10.7312 -3.4555 -0.4476 -4.9817 30.1790
#
#
#
# Elastic Compliance Matrix: (Units=1/GPa)
#
#
# Indices 1 2 3 4 5 6 
#
# 1 0.008480 -0.002757 -0.002950 0.002606 0.000935 0.002296
# 2 -0.002757 0.013607 0.000076 -0.006815 0.004767 0.004421
# 3 -0.002950 0.000076 0.020575 -0.002893 0.013277 0.003342
# 4 0.002606 -0.006815 -0.002893 0.040968 -0.003640 -0.001696
# 5 0.000935 0.004767 0.013277 -0.003640 0.041499 0.010389
# 6 0.002296 0.004421 0.003342 -0.001696 0.010389 0.037706
#
#
# Mechanical properties :
#
#
# Convention : Reuss Voigt Hill
#
# Bulk Modulus (GPa) = 31.84595 54.13476 42.99036
# Shear Modulus (GPa) = 27.09079 33.42465 30.25772
#
# Velocity S-wave (km/s) = 3.51395 3.90318 3.71367
# Velocity P-wave (km/s) = 5.56589 6.70727 6.16306
#
# Compressibility (1/GPa) = 0.03140117
#
# Stress axis : x y z
#
# Youngs Moduli (GPa) = 117.92341 73.48891 48.60326
#
# Poissons Ratio (x) = 0.20264 0.14336
# Poissons Ratio (y) = 0.32516 -0.00372
# Poissons Ratio (z) = 0.34783 -0.00562
#
# Static dielectric constant tensor:
#      x y z
#    x 4.053110 0.146960 -0.162480 
#    y 0.146960 3.999080 -0.184980 
#    z -0.162480 -0.184980 3.751680 
# 
# 
# High freq. dielectric constant tensor:
#      x y z
#    x 1.870890 0.010870 -0.005060 
#    y 0.010870 1.859330 -0.007270 
#    z -0.005060 -0.007270 1.847140 
# 
# From -- ./inp_files/519224.got.cif
#   From: 2010.06.25/outbox.cif.g09.slc.cpg/sg2_260_cif.got.tgz:519224.got - 2010.06.27 13:26:56.
