data_PCOD8017552
_publ_section_title
;
Structure prediction by ZEFSAII (Michael W. Deem and Ramdas Pophale) SiO2 
 PCOD8017552
Probable space group: P -1
;
_chemical_formula_sum "Si O2"
_cell_formula_units_Z 16
_cell_length_a 13.702150
_cell_length_b 5.102357
_cell_length_c 15.406329
_cell_angle_alpha 102.980076
_cell_angle_beta 132.069960
_cell_angle_gamma 79.260688
_cell_volume 778.178289
_symmetry_space_group_name_H-M "P -1"
_symmetry_group_IT_number 2
_symmetry_cell_setting 'triclinic'
loop_
_space_group_symop_operation_xyz
x,y,z
-x,-y,-z
loop_
_atom_site_type_symbol
_atom_site_label
_atom_site_fract_x
_atom_site_fract_y
_atom_site_fract_z
Si Si1 0.754170 0.984409 0.948330
Si Si2 0.582412 0.760388 0.077344
Si Si3 0.181204 0.440838 0.907618
Si Si4 0.802751 0.029007 0.785121
Si Si5 0.357177 0.718127 0.520081
Si Si6 0.113292 0.567592 0.264361
Si Si7 0.493351 0.800330 0.391701
Si Si8 0.542249 0.956727 0.253186
O O1 0.824861 0.023626 0.901135
O O2 0.601953 0.912191 0.845435
O O3 0.767271 0.260554 0.029429
O O4 0.821005 0.725396 0.016373
O O5 0.725592 0.720032 0.117100
O O6 0.609964 0.824090 0.199308
O O7 0.500000 0.500000 0.000000
O O8 0.500000 0.000000 0.000000
O O9 0.031789 0.461522 0.784439
O O10 0.823934 0.724492 0.743195
O O11 0.900693 0.230498 0.811987
O O12 0.661556 0.160134 0.683469
O O13 0.205152 0.696532 0.401969
O O14 0.442594 0.444646 0.534442
O O15 0.366235 0.816742 0.633462
O O16 0.430453 0.929398 0.516598
O O17 0.520475 0.738309 0.300145
#
# Coordination Sequence:
#
# PCOD8017552 Si02
#       8
#     2   2   2   2   2   2   2   2
#     4  11  23  41  64  91 126 156 209 249 317 344
#     4  12  23  39  68  96 118 153 202 257 315 359
#     4  12  25  42  62  91 129 163 194 261 296 384
#     4  11  24  39  64  92 119 173 203 256 293 365
#     4  10  22  39  62  89 127 163 193 267 292 358
#     4  12  26  41  58  90 131 166 212 231 309 363
#     4   9  21  37  62  90 120 155 209 252 298 340
#     4   9  22  38  65  94 120 149 200 263 313 347
#
# _framework density 20.560842999999998
#
# number of rings (size 3 to 8) (size 9 to 14) (size 15 to 20)
#    0.750    0.500    2.500    3.000    5.250    6.000 
#    0.000    0.625    0.000    0.750    0.000    0.000 
#    0.000    0.000    0.000    0.000    0.000    0.000 
#
# Total GULP energy -198350.475495 kJ/mol
# GULP energy per Si atom -12396.904718 kJ/mol
# Density = 2.051405 g / cm^3
# Si number density = 20.560843 Si / 1000 Ang^3
#
#
#
# Elastic Constant Matrix: (Units=GPa)
#
#
# Indices 1 2 3 4 5 6 
#
# 1 95.9969 24.1063 45.8886 8.4765 5.9267 -10.4856
# 2 24.1063 112.9592 28.7136 9.4392 -0.0975 11.0307
# 3 45.8886 28.7136 91.5571 3.8366 13.1125 -8.8629
# 4 8.4765 9.4392 3.8366 21.3513 -2.9436 -6.5371
# 5 5.9267 -0.0975 13.1125 -2.9436 26.4590 -2.3371
# 6 -10.4856 11.0307 -8.8629 -6.5371 -2.3371 25.7110
#
#
#
# Elastic Compliance Matrix: (Units=1/GPa)
#
#
# Indices 1 2 3 4 5 6 
#
# 1 0.014474 -0.001634 -0.006245 -0.002777 -0.000132 0.003733
# 2 -0.001634 0.011385 -0.003384 -0.006206 0.000667 -0.008234
# 3 -0.006245 -0.003384 0.016355 0.001525 -0.006163 0.004370
# 4 -0.002777 -0.006206 0.001525 0.056723 0.007671 0.017175
# 5 -0.000132 0.000667 -0.006163 0.007671 0.042026 0.003306
# 6 0.003733 -0.008234 0.004370 0.017175 0.003306 0.050123
#
#
# Mechanical properties :
#
#
# Convention : Reuss Voigt Hill
#
# Bulk Modulus (GPa) = 50.79366 55.32560 53.05963
# Shear Modulus (GPa) = 22.70915 28.15793 25.43354
#
# Velocity S-wave (km/s) = 3.32699 3.70468 3.52090
# Velocity P-wave (km/s) = 6.28619 6.72802 6.51085
#
# Compressibility (1/GPa) = 0.01968750
#
# Stress axis : x y z
#
# Youngs Moduli (GPa) = 69.09062 87.83540 61.14180
#
# Poissons Ratio (x) = 0.14351 0.38184
# Poissons Ratio (y) = 0.11289 0.20692
# Poissons Ratio (z) = 0.43148 0.29725
#
# Static dielectric constant tensor:
#      x y z
#    x 3.666490 0.071870 -0.141000 
#    y 0.071870 3.722660 0.041390 
#    z -0.141000 0.041390 3.743490 
# 
# 
# High freq. dielectric constant tensor:
#      x y z
#    x 1.785890 0.010030 -0.005710 
#    y 0.010030 1.814650 0.000430 
#    z -0.005710 0.000430 1.803220 
# 
# From -- ./inp_files/571461.got.cif
#   From: 2010.06.25/outbox.cif.g09.slc.cpg/sg2_286_cif.got.tgz:571461.got - 2010.06.27 13:26:56.
