data_PCOD8017625
_publ_section_title
;
Structure prediction by ZEFSAII (Michael W. Deem and Ramdas Pophale) SiO2 
 PCOD8017625
Probable space group: P -1
;
_chemical_formula_sum "Si O2"
_cell_formula_units_Z 16
_cell_length_a 15.796408
_cell_length_b 9.416517
_cell_length_c 8.756156
_cell_angle_alpha 47.069993
_cell_angle_beta 76.998820
_cell_angle_gamma 107.588620
_cell_volume 715.242647
_symmetry_space_group_name_H-M "P -1"
_symmetry_group_IT_number 2
_symmetry_cell_setting 'triclinic'
loop_
_space_group_symop_operation_xyz
x,y,z
-x,-y,-z
loop_
_atom_site_type_symbol
_atom_site_label
_atom_site_fract_x
_atom_site_fract_y
_atom_site_fract_z
Si Si1 0.458231 0.248619 0.886728
Si Si2 0.736672 0.474851 0.091885
Si Si3 0.856343 0.673252 0.406800
Si Si4 0.218906 0.846234 0.198312
Si Si5 0.301006 0.961810 0.737144
Si Si6 0.897940 0.927187 0.890494
Si Si7 0.331275 0.417415 0.253172
Si Si8 0.543128 0.306217 0.496457
O O1 0.536546 0.353584 0.928583
O O2 0.526861 0.235018 0.734402
O O3 0.431024 0.429663 0.717681
O O4 0.334140 0.978865 0.153176
O O5 0.760679 0.300797 0.133900
O O6 0.647535 0.330665 0.372681
O O7 0.855890 0.721079 0.926884
O O8 0.683981 0.558526 0.935909
O O9 0.860054 0.452159 0.523190
O O10 0.746193 0.545477 0.647942
O O11 0.849537 0.794219 0.171172
O O12 0.966860 0.884882 0.304955
O O13 0.148689 0.925938 0.233709
O O14 0.245113 0.918334 0.955805
O O15 0.292382 0.143906 0.506544
O O16 0.431209 0.086599 0.610861
#
# Coordination Sequence:
#
# PCOD8017625 Si02
#       8
#     2   2   2   2   2   2   2   2
#     4   9  19  37  66  93 127 169 201 259 309 376
#     4  12  23  41  62  96 128 170 207 258 319 372
#     4  11  24  44  69  93 118 171 220 259 315 369
#     4  11  20  44  68  95 123 167 215 257 314 374
#     4  10  22  39  63  92 133 167 203 255 316 376
#     4  11  25  44  69  91 125 161 222 272 299 370
#     4  11  23  41  62  95 136 166 202 259 320 377
#     4   9  18  37  60  89 130 166 205 249 306 367
#
# _framework density 22.370031000000001
#
# number of rings (size 3 to 8) (size 9 to 14) (size 15 to 20)
#    0.000    1.500    3.750    2.250    0.000    4.000 
#    4.500    0.625    0.000    0.000    0.000    0.000 
#    0.000    0.000    0.000    0.000    0.000    0.000 
#
# Total GULP energy -198454.191971 kJ/mol
# GULP energy per Si atom -12403.386998 kJ/mol
# Density = 2.231912 g / cm^3
# Si number density = 22.370031 Si / 1000 Ang^3
#
#
#
# Elastic Constant Matrix: (Units=GPa)
#
#
# Indices 1 2 3 4 5 6 
#
# 1 69.6252 40.5742 13.5836 -8.1231 10.7725 11.0999
# 2 40.5742 121.8978 17.0435 -34.6704 1.2155 14.0675
# 3 13.5836 17.0435 43.4480 -16.3404 10.1414 9.3988
# 4 -8.1231 -34.6704 -16.3404 31.7249 -4.5510 -2.5236
# 5 10.7725 1.2155 10.1414 -4.5510 21.8333 -2.0597
# 6 11.0999 14.0675 9.3988 -2.5236 -2.0597 39.8291
#
#
#
# Elastic Compliance Matrix: (Units=1/GPa)
#
#
# Indices 1 2 3 4 5 6 
#
# 1 0.020868 -0.007912 -0.002738 -0.006446 -0.010240 -0.003313
# 2 -0.007912 0.015467 0.001832 0.016405 0.005388 -0.002372
# 3 -0.002738 0.001832 0.033624 0.016360 -0.011656 -0.007385
# 4 -0.006446 0.016405 0.016360 0.056791 0.006134 -0.003943
# 5 -0.010240 0.005388 -0.011656 0.006134 0.057915 0.007085
# 6 -0.003313 -0.002372 -0.007385 -0.003943 0.007085 0.028728
#
#
# Mechanical properties :
#
#
# Convention : Reuss Voigt Hill
#
# Bulk Modulus (GPa) = 19.11229 41.93041 30.52135
# Shear Modulus (GPa) = 20.12302 29.59545 24.85924
#
# Velocity S-wave (km/s) = 3.00251 3.64125 3.33719
# Velocity P-wave (km/s) = 4.53677 6.03845 5.34066
#
# Compressibility (1/GPa) = 0.05232236
#
# Stress axis : x y z
#
# Youngs Moduli (GPa) = 47.91987 64.65363 29.74024
#
# Poissons Ratio (x) = 0.51156 0.08143
# Poissons Ratio (y) = 0.37916 -0.05447
# Poissons Ratio (z) = 0.13120 -0.11842
#
# Static dielectric constant tensor:
#      x y z
#    x 3.775110 0.112130 0.043280 
#    y 0.112130 4.040650 -0.185610 
#    z 0.043280 -0.185610 3.893890 
# 
# 
# High freq. dielectric constant tensor:
#      x y z
#    x 1.868530 0.001790 0.006990 
#    y 0.001790 1.881410 -0.016170 
#    z 0.006990 -0.016170 1.869910 
# 
# From -- ./inp_files/187935.got.cif
#   From: 2010.06.25/outbox.cif.g09.slc.cpg/sg2_94_cif.got.tgz:187935.got - 2010.06.27 13:26:56.
