data_PCOD8017000
_publ_section_title
;
Structure prediction by ZEFSAII (Michael W. Deem and Ramdas Pophale) SiO2 
 PCOD8017000
Probable space group: P -1
;
_chemical_formula_sum "Si O2"
_cell_formula_units_Z 16
_cell_length_a 9.226312
_cell_length_b 9.293685
_cell_length_c 12.092770
_cell_angle_alpha 66.959734
_cell_angle_beta 106.243677
_cell_angle_gamma 68.088511
_cell_volume 767.322817
_symmetry_space_group_name_H-M "P -1"
_symmetry_group_IT_number 2
_symmetry_cell_setting 'triclinic'
loop_
_space_group_symop_operation_xyz
x,y,z
-x,-y,-z
loop_
_atom_site_type_symbol
_atom_site_label
_atom_site_fract_x
_atom_site_fract_y
_atom_site_fract_z
Si Si1 0.164870 0.847553 0.938421
Si Si2 0.626640 0.065351 0.225150
Si Si3 0.167550 0.476025 0.749060
Si Si4 0.218042 0.827267 0.208999
Si Si5 0.962168 0.852675 0.488759
Si Si6 0.349962 0.459272 0.013277
Si Si7 0.110243 0.603086 0.378401
Si Si8 0.598305 0.728576 0.327051
O O1 0.271971 0.901043 0.862461
O O2 0.203721 0.640383 0.995812
O O3 0.221069 0.862452 0.069185
O O4 0.951928 0.987563 0.829105
O O5 0.574358 0.920046 0.223705
O O6 0.448433 0.265278 0.160824
O O7 0.748176 0.977557 0.386530
O O8 0.024128 0.698124 0.643455
O O9 0.246958 0.427478 0.902649
O O10 0.339388 0.406177 0.726419
O O11 0.069651 0.371858 0.719491
O O12 0.202344 0.652230 0.286739
O O13 0.405894 0.779138 0.315837
O O14 0.057945 0.747484 0.425451
O O15 0.000000 0.000000 0.500000
O O16 0.500000 0.500000 0.000000
O O17 0.246856 0.388326 0.511511
#
# Coordination Sequence:
#
# PCOD8017000 Si02
#       8
#     2   2   2   2   2   2   2   2
#     4  10  22  41  58  90 124 167 213 247 321 384
#     4  11  20  40  64  94 123 154 216 272 299 370
#     4  11  21  39  66  93 126 162 206 273 307 362
#     4  11  23  38  64  84 131 174 202 254 313 390
#     4  11  20  36  67  92 121 161 207 264 313 359
#     4  10  22  37  63  95 127 156 210 266 314 361
#     4  11  22  42  61  94 127 166 216 252 315 385
#     4  11  21  38  62  96 122 158 219 259 312 367
#
# _framework density 20.85172
#
# number of rings (size 3 to 8) (size 9 to 14) (size 15 to 20)
#    0.000    1.250    3.750    4.125    0.000    5.000 
#    0.000    2.500    0.000    2.250    0.000    0.000 
#    0.000    0.000    0.000    0.000    0.000    0.000 
#
# Total GULP energy -198286.255624 kJ/mol
# GULP energy per Si atom -12392.890977 kJ/mol
# Density = 2.080426 g / cm^3
# Si number density = 20.851720 Si / 1000 Ang^3
#
#
#
# Elastic Constant Matrix: (Units=GPa)
#
#
# Indices 1 2 3 4 5 6 
#
# 1 93.5270 40.3969 30.0736 -8.9304 13.3448 4.5128
# 2 40.3969 120.8812 42.0081 -27.0237 9.2436 12.1248
# 3 30.0736 42.0081 85.6187 -32.6718 17.8633 1.0898
# 4 -8.9304 -27.0237 -32.6718 43.0239 5.3031 5.5835
# 5 13.3448 9.2436 17.8633 5.3031 30.7595 -2.1149
# 6 4.5128 12.1248 1.0898 5.5835 -2.1149 23.3721
#
#
#
# Elastic Compliance Matrix: (Units=1/GPa)
#
#
# Indices 1 2 3 4 5 6 
#
# 1 0.013448 -0.003452 -0.002765 -0.001006 -0.003067 -0.000714
# 2 -0.003452 0.012658 -0.001179 0.007815 -0.003521 -0.008030
# 3 -0.002765 -0.001179 0.024419 0.020082 -0.016522 -0.006286
# 4 -0.001006 0.007815 0.020082 0.048449 -0.023197 -0.018469
# 5 -0.003067 -0.003521 -0.016522 -0.023197 0.049401 0.013201
# 6 -0.000714 -0.008030 -0.006286 -0.018469 0.013201 0.052990
#
#
# Mechanical properties :
#
#
# Convention : Reuss Voigt Hill
#
# Bulk Modulus (GPa) = 27.98464 58.33157 43.15810
# Shear Modulus (GPa) = 21.92337 31.93432 26.92884
#
# Velocity S-wave (km/s) = 3.24604 3.91768 3.59757
# Velocity P-wave (km/s) = 5.24394 6.96416 6.16435
#
# Compressibility (1/GPa) = 0.03573389
#
# Stress axis : x y z
#
# Youngs Moduli (GPa) = 74.35945 79.00352 40.95107
#
# Poissons Ratio (x) = 0.27272 0.11321
# Poissons Ratio (y) = 0.25669 0.04828
# Poissons Ratio (z) = 0.20558 0.09314
#
# Static dielectric constant tensor:
#      x y z
#    x 3.619230 -0.070540 0.224050 
#    y -0.070540 4.043580 -0.486530 
#    z 0.224050 -0.486530 4.034780 
# 
# 
# High freq. dielectric constant tensor:
#      x y z
#    x 1.789650 0.008520 0.019630 
#    y 0.008520 1.813750 -0.028350 
#    z 0.019630 -0.028350 1.825980 
# 
# From -- ./inp_files/207343.got.cif
#   From: 2010.06.25/outbox.cif.g09.slc.cpg/sg2_104_cif.got.tgz:207343.got - 2010.06.27 13:26:56.
