data_PCOD8017544
_publ_section_title
;
Structure prediction by ZEFSAII (Michael W. Deem and Ramdas Pophale) SiO2 
 PCOD8017544
Probable space group: P -1
;
_chemical_formula_sum "Si O2"
_cell_formula_units_Z 16
_cell_length_a 16.304537
_cell_length_b 8.180507
_cell_length_c 15.786974
_cell_angle_alpha 101.356233
_cell_angle_beta 28.352380
_cell_angle_gamma 82.121970
_cell_volume 730.818443
_symmetry_space_group_name_H-M "P -1"
_symmetry_group_IT_number 2
_symmetry_cell_setting 'triclinic'
loop_
_space_group_symop_operation_xyz
x,y,z
-x,-y,-z
loop_
_atom_site_type_symbol
_atom_site_label
_atom_site_fract_x
_atom_site_fract_y
_atom_site_fract_z
Si Si1 0.370341 0.409188 0.513832
Si Si2 0.294903 0.624785 0.434698
Si Si3 0.522278 0.223409 0.065115
Si Si4 0.479807 0.882467 0.127929
Si Si5 0.997800 0.933940 0.345395
Si Si6 0.840740 0.220893 0.114637
Si Si7 0.034454 0.387133 0.869571
Si Si8 0.267995 0.450544 0.985157
O O1 0.247199 0.546511 0.553151
O O2 0.648263 0.238974 0.239783
O O3 0.280846 0.573078 0.690870
O O4 0.289505 0.269393 0.589187
O O5 0.359314 0.468678 0.279486
O O6 0.074751 0.881097 0.639478
O O7 0.506599 0.608243 0.263986
O O8 0.489735 0.076606 0.135231
O O9 0.432113 0.249093 0.054721
O O10 0.787268 0.118520 0.806381
O O11 0.224144 0.970584 0.385442
O O12 0.665200 0.709158 0.012842
O O13 0.076597 0.710729 0.210219
O O14 0.999568 0.212284 0.899238
O O15 0.000000 0.000000 0.000000
O O16 0.845667 0.577872 0.992369
O O17 0.000000 0.500000 0.000000
#
# Coordination Sequence:
#
# PCOD8017544 Si02
#       8
#     2   2   2   2   2   2   2   2
#     4  10  22  39  62  87 123 156 202 250 308 367
#     4  10  22  40  63  93 125 162 203 256 304 371
#     4  10  23  41  62  92 127 157 212 250 308 366
#     4  10  23  42  63  91 123 166 202 260 303 367
#     4  10  23  38  64  91 121 168 203 248 313 361
#     4  10  22  41  63  89 120 158 201 254 306 364
#     4  10  22  41  61  90 122 159 204 254 303 364
#     4  10  22  42  63  90 130 157 211 258 303 365
#
# _framework density 21.893262
#
# number of rings (size 3 to 8) (size 9 to 14) (size 15 to 20)
#    0.000    2.000    1.250    0.375    5.250    6.000 
#    2.250    2.500    0.000    0.000    0.000    0.000 
#    0.000    0.000    0.000    0.000    0.000    0.000 
#
# Total GULP energy -198310.526669 kJ/mol
# GULP energy per Si atom -12394.407917 kJ/mol
# Density = 2.184343 g / cm^3
# Si number density = 21.893262 Si / 1000 Ang^3
#
#
#
# Elastic Constant Matrix: (Units=GPa)
#
#
# Indices 1 2 3 4 5 6 
#
# 1 111.3515 39.9174 21.4644 -3.6600 -12.9553 -19.2182
# 2 39.9174 130.2472 60.4104 -19.9375 -17.2097 -24.2522
# 3 21.4644 60.4104 67.9451 -15.3676 -12.1261 -4.3930
# 4 -3.6600 -19.9375 -15.3676 44.4263 0.3443 -3.4505
# 5 -12.9553 -17.2097 -12.1261 0.3443 23.0813 -5.0372
# 6 -19.2182 -24.2522 -4.3930 -3.4505 -5.0372 36.2184
#
#
#
# Elastic Compliance Matrix: (Units=1/GPa)
#
#
# Indices 1 2 3 4 5 6 
#
# 1 0.011365 -0.000817 -0.001152 0.000611 0.006532 0.006310
# 2 -0.000817 0.017414 -0.011934 0.004438 0.008679 0.011409
# 3 -0.001152 -0.011934 0.026801 0.003440 0.003494 -0.004538
# 4 0.000611 0.004438 0.003440 0.026244 0.006625 0.007135
# 5 0.006532 0.008679 0.003494 0.006625 0.059253 0.018574
# 6 0.006310 0.011409 -0.004538 0.007135 0.018574 0.041311
#
#
# Mechanical properties :
#
#
# Convention : Reuss Voigt Hill
#
# Bulk Modulus (GPa) = 36.00602 61.45868 48.73235
# Shear Modulus (GPa) = 22.78401 33.26197 28.02299
#
# Velocity S-wave (km/s) = 3.22947 3.90202 3.58157
# Velocity P-wave (km/s) = 5.51251 6.95945 6.27781
#
# Compressibility (1/GPa) = 0.02777313
#
# Stress axis : x y z
#
# Youngs Moduli (GPa) = 87.99176 57.42461 37.31249
#
# Poissons Ratio (x) = 0.04693 0.04297
# Poissons Ratio (y) = 0.07192 0.44530
# Poissons Ratio (z) = 0.10133 0.68532
#
# Static dielectric constant tensor:
#      x y z
#    x 3.959270 -0.168140 -0.317770 
#    y -0.168140 3.635470 -0.836330 
#    z -0.317770 -0.836330 3.960540 
# 
# 
# High freq. dielectric constant tensor:
#      x y z
#    x 1.867850 -0.007450 -0.009090 
#    y -0.007450 1.861320 -0.025270 
#    z -0.009090 -0.025270 1.850080 
# 
# From -- ./inp_files/47755.got.cif
#   From: 2010.06.25/outbox.cif.g09.slc.cpg/sg2_24_cif.got.tgz:47755.got - 2010.06.27 13:26:56.
