data_PCOD8017141
_publ_section_title
;
Structure prediction by ZEFSAII (Michael W. Deem and Ramdas Pophale) SiO2 
 PCOD8017141
Probable space group: P -1
;
_chemical_formula_sum "Si O2"
_cell_formula_units_Z 16
_cell_length_a 18.875366
_cell_length_b 18.746142
_cell_length_c 7.189874
_cell_angle_alpha 67.128769
_cell_angle_beta 54.813113
_cell_angle_gamma 22.399786
_cell_volume 702.397178
_symmetry_space_group_name_H-M "P -1"
_symmetry_group_IT_number 2
_symmetry_cell_setting 'triclinic'
loop_
_space_group_symop_operation_xyz
x,y,z
-x,-y,-z
loop_
_atom_site_type_symbol
_atom_site_label
_atom_site_fract_x
_atom_site_fract_y
_atom_site_fract_z
Si Si1 0.360319 0.165021 0.213748
Si Si2 0.167563 0.734808 0.232436
Si Si3 0.381151 0.716383 0.871527
Si Si4 0.049960 0.420574 0.794064
Si Si5 0.466381 0.141380 0.661910
Si Si6 0.344339 0.862653 0.463235
Si Si7 0.848488 0.992326 0.768274
Si Si8 0.229456 0.111532 0.911527
O O1 0.191891 0.304731 0.504986
O O2 0.217924 0.324467 0.095794
O O3 0.435605 0.013107 0.206277
O O4 0.592252 0.021941 0.052312
O O5 0.374776 0.499295 0.167406
O O6 0.257720 0.737145 0.990535
O O7 0.938948 0.888877 0.316031
O O8 0.088120 0.823387 0.475689
O O9 0.432938 0.716491 0.599477
O O10 0.210007 0.909222 0.063746
O O11 0.189386 0.359701 0.794668
O O12 0.041458 0.338131 0.956434
O O13 0.497996 0.194362 0.671382
O O14 0.620821 0.017077 0.371138
O O15 0.365061 0.827220 0.246126
O O16 0.902143 0.859539 0.884013
#
# Coordination Sequence:
#
# PCOD8017141 Si02
#       8
#     2   2   2   2   2   2   2   2
#     4   8  15  28  50  80 110 158 210 234 291 365
#     4   9  24  41  65  96 117 160 211 239 305 384
#     4  11  20  47  65  85 131 159 194 261 303 356
#     4   8  15  28  51  78 114 161 201 242 296 350
#     4   9  16  31  54  79 118 160 195 250 299 342
#     4  10  22  38  60  94 121 160 203 250 305 367
#     4  10  22  40  62  95 125 158 203 252 303 365
#     4   9  16  33  51  81 121 157 194 250 302 339
#
# _framework density 22.779133999999999
#
# number of rings (size 3 to 8) (size 9 to 14) (size 15 to 20)
#    0.750    2.000    1.250    2.250    0.000    1.000 
#    9.000    3.750    0.000    1.500    0.000    0.000 
#    0.000    0.000    0.000    0.000    0.000    0.000 
#
# Total GULP energy -198358.185642 kJ/mol
# GULP energy per Si atom -12397.386603 kJ/mol
# Density = 2.272729 g / cm^3
# Si number density = 22.779134 Si / 1000 Ang^3
#
#
#
# Elastic Constant Matrix: (Units=GPa)
#
#
# Indices 1 2 3 4 5 6 
#
# 1 53.3411 30.3952 18.4240 -5.6923 -2.4337 -4.0610
# 2 30.3952 135.8623 42.2526 -15.3704 -9.8710 -0.1446
# 3 18.4240 42.2526 74.7862 -19.1475 -9.3052 1.6989
# 4 -5.6923 -15.3704 -19.1475 48.1815 -0.1792 -1.0042
# 5 -2.4337 -9.8710 -9.3052 -0.1792 35.6283 -1.7347
# 6 -4.0610 -0.1446 1.6989 -1.0042 -1.7347 25.9577
#
#
#
# Elastic Compliance Matrix: (Units=1/GPa)
#
#
# Indices 1 2 3 4 5 6 
#
# 1 0.022461 -0.003978 -0.003372 0.000120 -0.000268 0.003699
# 2 -0.003978 0.009735 -0.004088 0.001012 0.001354 -0.000171
# 3 -0.003372 -0.004088 0.018398 0.005594 0.003406 -0.001310
# 4 0.000120 0.001012 0.005594 0.023337 0.001901 0.000688
# 5 -0.000268 0.001354 0.003406 0.001901 0.029410 0.001782
# 6 0.003699 -0.000171 -0.001310 0.000688 0.001782 0.039333
#
#
# Mechanical properties :
#
#
# Convention : Reuss Voigt Hill
#
# Bulk Modulus (GPa) = 36.08011 49.57035 42.82523
# Shear Modulus (GPa) = 28.60571 33.48136 31.04354
#
# Velocity S-wave (km/s) = 3.54755 3.83799 3.69562
# Velocity P-wave (km/s) = 5.71434 6.43807 6.08697
#
# Compressibility (1/GPa) = 0.02771610
#
# Stress axis : x y z
#
# Youngs Moduli (GPa) = 44.52116 102.72715 54.35408
#
# Poissons Ratio (x) = 0.40866 0.18331
# Poissons Ratio (y) = 0.17711 0.22221
# Poissons Ratio (z) = 0.15014 0.41997
#
# Static dielectric constant tensor:
#      x y z
#    x 3.889950 -0.052340 0.044050 
#    y -0.052340 4.291690 -0.181090 
#    z 0.044050 -0.181090 4.384540 
# 
# 
# High freq. dielectric constant tensor:
#      x y z
#    x 1.881180 -0.002450 0.015030 
#    y -0.002450 1.902460 -0.015010 
#    z 0.015030 -0.015010 1.925830 
# 
# From -- ./inp_files/349509.got.cif
#   From: 2010.06.25/outbox.cif.g09.slc.cpg/sg2_175_cif.got.tgz:349509.got - 2010.06.27 13:26:56.
