data_PCOD8017599
_publ_section_title
;
Structure prediction by ZEFSAII (Michael W. Deem and Ramdas Pophale) SiO2 
 PCOD8017599
Probable space group: P -1
;
_chemical_formula_sum "Si O2"
_cell_formula_units_Z 16
_cell_length_a 15.380248
_cell_length_b 12.036901
_cell_length_c 11.457331
_cell_angle_alpha 61.757172
_cell_angle_beta 152.293827
_cell_angle_gamma 129.836754
_cell_volume 730.573102
_symmetry_space_group_name_H-M "P -1"
_symmetry_group_IT_number 2
_symmetry_cell_setting 'triclinic'
loop_
_space_group_symop_operation_xyz
x,y,z
-x,-y,-z
loop_
_atom_site_type_symbol
_atom_site_label
_atom_site_fract_x
_atom_site_fract_y
_atom_site_fract_z
Si Si1 0.647985 0.893550 0.556662
Si Si2 0.898974 0.512511 0.565194
Si Si3 0.797435 0.749364 0.390325
Si Si4 0.875624 0.994667 0.199372
Si Si5 0.538533 0.039659 0.160768
Si Si6 0.836488 0.351055 0.804609
Si Si7 0.063692 0.885826 0.024719
Si Si8 0.689232 0.368808 0.153669
O O1 0.404639 0.752810 0.370677
O O2 0.649140 0.959703 0.396913
O O3 0.745772 0.037173 0.688027
O O4 0.816882 0.837090 0.795581
O O5 0.912933 0.656505 0.565331
O O6 0.804470 0.389474 0.615921
O O7 0.743557 0.460888 0.292422
O O8 0.137341 0.548026 0.787018
O O9 0.888214 0.862933 0.550386
O O10 0.847305 0.840910 0.283478
O O11 0.534587 0.649089 0.150402
O O12 0.856887 0.985925 0.042788
O O13 0.696241 0.023408 0.026477
O O14 0.685069 0.219319 0.256101
O O15 0.500000 0.000000 0.000000
O O16 0.953830 0.258501 0.980214
O O17 0.000000 0.500000 0.000000
#
# Coordination Sequence:
#
# PCOD8017599 Si02
#       8
#     2   2   2   2   2   2   2   2
#     4  11  27  45  72 103 135 185 232 291 339 409
#     4  11  24  42  63  93 136 177 222 265 337 411
#     4  10  22  39  62  99 131 169 214 278 333 391
#     4  10  22  39  68 101 129 167 222 286 336 391
#     4  11  23  41  71 100 132 168 225 290 338 386
#     4  12  27  45  69  97 142 187 224 279 344 422
#     4  11  25  47  71 103 135 182 239 281 343 408
#     4  10  24  40  63  98 127 176 217 276 334 394
#
# _framework density 21.900614999999998
#
# number of rings (size 3 to 8) (size 9 to 14) (size 15 to 20)
#    0.000    1.250    1.250    3.000   12.250    1.500 
#    2.250    0.000    0.000    0.000    0.000    0.000 
#    0.000    0.000    0.000    0.000    0.000    0.000 
#
# Total GULP energy -198402.618934 kJ/mol
# GULP energy per Si atom -12400.163683 kJ/mol
# Density = 2.185077 g / cm^3
# Si number density = 21.900615 Si / 1000 Ang^3
#
#
#
# Elastic Constant Matrix: (Units=GPa)
#
#
# Indices 1 2 3 4 5 6 
#
# 1 101.1116 30.5857 34.1323 4.7012 -6.6570 10.4406
# 2 30.5857 85.0314 20.6797 1.2473 0.2108 -0.4441
# 3 34.1323 20.6797 88.4334 12.8446 -2.3864 4.5935
# 4 4.7012 1.2473 12.8446 38.7758 5.1309 -5.0914
# 5 -6.6570 0.2108 -2.3864 5.1309 31.6087 -7.9807
# 6 10.4406 -0.4441 4.5935 -5.0914 -7.9807 32.7809
#
#
#
# Elastic Compliance Matrix: (Units=1/GPa)
#
#
# Indices 1 2 3 4 5 6 
#
# 1 0.012758 -0.003694 -0.003717 -0.000860 0.001736 -0.003303
# 2 -0.003694 0.013570 -0.001995 0.000985 -0.000774 0.001604
# 3 -0.003717 -0.001995 0.013928 -0.004358 0.000658 -0.001312
# 4 -0.000860 0.000985 -0.004358 0.028408 -0.004035 0.004328
# 5 0.001736 -0.000774 0.000658 -0.004035 0.034510 0.007119
# 6 -0.003303 0.001604 -0.001312 0.004328 0.007119 0.034169
#
#
# Mechanical properties :
#
#
# Convention : Reuss Voigt Hill
#
# Bulk Modulus (GPa) = 46.63238 49.48575 48.05906
# Shear Modulus (GPa) = 30.61831 33.24501 31.93166
#
# Velocity S-wave (km/s) = 3.74312 3.90037 3.82255
# Velocity P-wave (km/s) = 6.32615 6.55199 6.44006
#
# Compressibility (1/GPa) = 0.02144433
#
# Stress axis : x y z
#
# Youngs Moduli (GPa) = 78.38505 73.69164 71.79834
#
# Poissons Ratio (x) = 0.27221 0.26686
# Poissons Ratio (y) = 0.28955 0.14323
# Poissons Ratio (z) = 0.29134 0.14701
#
# Static dielectric constant tensor:
#      x y z
#    x -0.891510 -4.754810 -3.100590 
#    y -4.754810 -0.766350 -3.027790 
#    z -3.100590 -3.027790 2.166530 
# 
# 
# High freq. dielectric constant tensor:
#      x y z
#    x 1.868830 -0.000420 -0.000110 
#    y -0.000420 1.853600 0.001840 
#    z -0.000110 0.001840 1.867840 
# 
# From -- ./inp_files/451305.got.cif
#   From: 2010.06.25/outbox.cif.g09.slc.cpg/sg2_226_cif.got.tgz:451305.got - 2010.06.27 13:26:56.
