data_PCOD8017952
_publ_section_title
;
Structure prediction by ZEFSAII (Michael W. Deem and Ramdas Pophale) SiO2 
 PCOD8017952
Probable space group: P -1
;
_chemical_formula_sum "Si O2"
_cell_formula_units_Z 16
_cell_length_a 17.168824
_cell_length_b 12.787714
_cell_length_c 9.622772
_cell_angle_alpha 135.161225
_cell_angle_beta 53.010896
_cell_angle_gamma 151.203817
_cell_volume 716.358804
_symmetry_space_group_name_H-M "P -1"
_symmetry_group_IT_number 2
_symmetry_cell_setting 'triclinic'
loop_
_space_group_symop_operation_xyz
x,y,z
-x,-y,-z
loop_
_atom_site_type_symbol
_atom_site_label
_atom_site_fract_x
_atom_site_fract_y
_atom_site_fract_z
Si Si1 0.324562 0.884488 0.684458
Si Si2 0.760262 0.084584 0.697167
Si Si3 0.876921 0.762139 0.004779
Si Si4 0.355585 0.844073 0.903831
Si Si5 0.977248 0.546143 0.714654
Si Si6 0.612016 0.429300 0.457535
Si Si7 0.856764 0.881725 0.443608
Si Si8 0.380374 0.628357 0.297136
O O1 0.424459 0.984515 0.814750
O O2 0.152013 0.739647 0.782036
O O3 0.304434 0.701865 0.456670
O O4 0.426903 0.123156 0.705478
O O5 0.578414 0.817204 0.599316
O O6 0.872194 0.076402 0.587242
O O7 0.832473 0.279360 0.687287
O O8 0.769944 0.191104 0.929987
O O9 0.706482 0.561208 0.915450
O O10 0.937363 0.669465 0.871080
O O11 0.857530 0.808073 0.221602
O O12 0.000000 0.000000 0.000000
O O13 0.285006 0.593228 0.717735
O O14 0.500000 0.000000 0.000000
O O15 0.000000 0.500000 0.500000
O O16 0.687710 0.650575 0.490100
O O17 0.641133 0.490745 0.649148
O O18 0.000000 0.000000 0.500000
#
# Coordination Sequence:
#
# PCOD8017952 Si02
#       8
#     2   2   2   2   2   2   2   2
#     4  10  22  39  70 102 133 169 227 285 338 396
#     4  11  25  43  68  99 136 180 235 281 337 405
#     4  12  27  46  68 101 142 181 224 279 349 411
#     4   9  21  38  69  97 130 167 231 279 338 397
#     4  12  24  42  69 100 134 173 231 285 338 401
#     4  10  22  45  70  97 134 178 228 286 348 399
#     4  12  28  45  67  96 142 188 228 281 345 406
#     4  10  22  43  71 100 134 175 223 281 343 406
#
# _framework density 22.335176000000001
#
# number of rings (size 3 to 8) (size 9 to 14) (size 15 to 20)
#    0.000    1.250    1.250    3.375   14.000    0.500 
#    0.000    1.250    0.000    0.000    0.000    0.000 
#    0.000    0.000    0.000    0.000    0.000    0.000 
#
# Total GULP energy -198328.362096 kJ/mol
# GULP energy per Si atom -12395.522631 kJ/mol
# Density = 2.228434 g / cm^3
# Si number density = 22.335176 Si / 1000 Ang^3
#
#
#
# Elastic Constant Matrix: (Units=GPa)
#
#
# Indices 1 2 3 4 5 6 
#
# 1 99.4094 38.4095 51.8824 2.2958 -2.2584 -7.4620
# 2 38.4095 145.3030 25.1190 -0.9768 5.1033 -16.7689
# 3 51.8824 25.1190 128.4588 -18.5665 10.2049 -10.9260
# 4 2.2958 -0.9768 -18.5665 30.4091 -3.6037 4.5187
# 5 -2.2584 5.1033 10.2049 -3.6037 48.4636 1.8344
# 6 -7.4620 -16.7689 -10.9260 4.5187 1.8344 43.3270
#
#
#
# Elastic Compliance Matrix: (Units=1/GPa)
#
#
# Indices 1 2 3 4 5 6 
#
# 1 0.014530 -0.002850 -0.006125 -0.004743 0.001904 0.000269
# 2 -0.002850 0.007997 -0.000122 -0.000119 -0.001058 0.002630
# 3 -0.006125 -0.000122 0.011584 0.007093 -0.002229 0.001174
# 4 -0.004743 -0.000119 0.007093 0.038181 0.001255 -0.003109
# 5 0.001904 -0.001058 -0.002229 0.001255 0.021460 -0.001683
# 6 0.000269 0.002630 0.001174 -0.003109 -0.001683 0.024836
#
#
# Mechanical properties :
#
#
# Convention : Reuss Voigt Hill
#
# Bulk Modulus (GPa) = 62.82548 67.11034 64.96791
# Shear Modulus (GPa) = 35.18948 41.62395 38.40671
#
# Velocity S-wave (km/s) = 3.97359 4.32163 4.15126
# Velocity P-wave (km/s) = 7.01727 7.41715 7.21998
#
# Compressibility (1/GPa) = 0.01591711
#
# Stress axis : x y z
#
# Youngs Moduli (GPa) = 68.82208 125.05462 86.32320
#
# Poissons Ratio (x) = 0.35638 0.52874
# Poissons Ratio (y) = 0.19613 0.01054
# Poissons Ratio (z) = 0.42154 0.01527
#
# Static dielectric constant tensor:
#      x y z
#    x 4.475240 0.287630 -0.237880 
#    y 0.287630 4.401180 -0.380230 
#    z -0.237880 -0.380230 4.627740 
# 
# 
# High freq. dielectric constant tensor:
#      x y z
#    x 1.880850 -0.007970 0.012150 
#    y -0.007970 1.882090 -0.009410 
#    z 0.012150 -0.009410 1.883350 
# 
# From -- ./inp_files/333738.got.cif
#   From: 2010.06.25/outbox.cif.g09.slc.cpg/sg2_167_cif.got.tgz:333738.got - 2010.06.27 13:26:56.
