data_PCOD8017910
_publ_section_title
;
Structure prediction by ZEFSAII (Michael W. Deem and Ramdas Pophale) SiO2 
 PCOD8017910
Probable space group: P -1
;
_chemical_formula_sum "Si O2"
_cell_formula_units_Z 14
_cell_length_a 10.071232
_cell_length_b 12.248482
_cell_length_c 19.056332
_cell_angle_alpha 153.044390
_cell_angle_beta 143.562491
_cell_angle_gamma 50.663436
_cell_volume 601.903623
_symmetry_space_group_name_H-M "P -1"
_symmetry_group_IT_number 2
_symmetry_cell_setting 'triclinic'
loop_
_space_group_symop_operation_xyz
x,y,z
-x,-y,-z
loop_
_atom_site_type_symbol
_atom_site_label
_atom_site_fract_x
_atom_site_fract_y
_atom_site_fract_z
Si Si1 0.474286 0.883577 0.622090
Si Si2 0.758531 0.117470 0.008998
Si Si3 0.739434 0.570210 0.480922
Si Si4 0.556540 0.665427 0.908585
Si Si5 0.576795 0.840280 0.381371
Si Si6 0.227584 0.407378 0.306207
Si Si7 0.047507 0.837318 0.645156
O O1 0.672278 0.749257 0.611440
O O2 0.227482 0.657554 0.404144
O O3 0.581841 0.070072 0.839621
O O4 0.431332 0.050253 0.635892
O O5 0.804198 0.853902 0.900157
O O6 0.640850 0.215460 0.079783
O O7 0.007989 0.336768 0.227004
O O8 0.524023 0.460097 0.273016
O O9 0.795529 0.339436 0.414289
O O10 0.966064 0.747125 0.637745
O O11 0.593383 0.449727 0.852874
O O12 0.805437 0.871058 0.123218
O O13 0.834541 0.816604 0.490359
O O14 0.500000 0.000000 0.500000
O O15 0.500000 0.500000 0.500000
#
# Coordination Sequence:
#
# PCOD8017910 Si02
#       7
#     2   2   2   2   2   2   2
#     4  11  22  42  65  92 135 170 209 260 327 377
#     4  10  23  40  63 100 126 163 217 269 310 385
#     4  10  22  40  64  98 127 162 217 270 318 380
#     4  11  23  41  65  92 129 166 219 264 322 376
#     4  11  24  45  58  94 135 171 212 268 315 386
#     4   9  21  40  66  94 133 167 208 263 328 377
#     4  10  22  39  68  93 126 170 214 268 320 375
#
# _framework density 23.259540000000001
#
# number of rings (size 3 to 8) (size 9 to 14) (size 15 to 20)
#    0.000    1.714    2.857    1.286    0.000   18.286 
#    0.000    1.429    0.000    0.000    0.000    0.000 
#    0.000    0.000    0.000    0.000    0.000    0.000 
#
# Total GULP energy -173493.185010 kJ/mol
# GULP energy per Si atom -12392.370358 kJ/mol
# Density = 2.320660 g / cm^3
# Si number density = 23.259540 Si / 1000 Ang^3
#
#
#
# Elastic Constant Matrix: (Units=GPa)
#
#
# Indices 1 2 3 4 5 6 
#
# 1 39.9766 -2.4500 26.7068 -0.2250 14.4224 6.2345
# 2 -2.4500 101.2127 31.8104 10.7191 17.1421 24.3702
# 3 26.7068 31.8104 141.9665 18.3423 36.9441 21.9824
# 4 -0.2250 10.7191 18.3423 32.4702 9.0153 3.6784
# 5 14.4224 17.1421 36.9441 9.0153 45.9952 10.3381
# 6 6.2345 24.3702 21.9824 3.6784 10.3381 39.2665
#
#
#
# Elastic Compliance Matrix: (Units=1/GPa)
#
#
# Indices 1 2 3 4 5 6 
#
# 1 0.031800 0.003913 -0.004946 0.004178 -0.007578 -0.003105
# 2 0.003913 0.012764 -0.001585 -0.001735 -0.002856 -0.006741
# 3 -0.004946 -0.001585 0.010496 -0.003776 -0.005001 -0.002437
# 4 0.004178 -0.001735 -0.003776 0.034741 -0.004546 0.000469
# 5 -0.007578 -0.002856 -0.005001 -0.004546 0.030501 -0.001829
# 6 -0.003105 -0.006741 -0.002437 0.000469 -0.001829 0.031945
#
#
# Mechanical properties :
#
#
# Convention : Reuss Voigt Hill
#
# Bulk Modulus (GPa) = 20.07081 43.92112 31.99597
# Shear Modulus (GPa) = 28.72045 38.68562 33.70303
#
# Velocity S-wave (km/s) = 3.51776 4.08268 3.81070
# Velocity P-wave (km/s) = 5.01471 6.41470 5.75742
#
# Compressibility (1/GPa) = 0.04982359
#
# Stress axis : x y z
#
# Youngs Moduli (GPa) = 31.44614 78.34825 95.27326
#
# Poissons Ratio (x) = -0.30656 0.47123
# Poissons Ratio (y) = -0.12304 0.15101
# Poissons Ratio (z) = 0.15554 0.12418
#
# Static dielectric constant tensor:
#      x y z
#    x 4.454210 0.278650 0.515200 
#    y 0.278650 4.256920 0.499920 
#    z 0.515200 0.499920 4.649980 
# 
# 
# High freq. dielectric constant tensor:
#      x y z
#    x 1.920570 0.004340 0.009290 
#    y 0.004340 1.899060 0.016290 
#    z 0.009290 0.016290 1.936240 
# 
# From -- ./inp_files/610590.got.cif
#   From: 2010.06.25/outbox.cif.g09.slc.cpg/sg2_306_cif.got.tgz:610590.got - 2010.06.27 13:26:56.
