data_PCOD8017124
_publ_section_title
;
Structure prediction by ZEFSAII (Michael W. Deem and Ramdas Pophale) SiO2 
 PCOD8017124
Probable space group: P -1
;
_chemical_formula_sum "Si O2"
_cell_formula_units_Z 16
_cell_length_a 19.797877
_cell_length_b 8.744051
_cell_length_c 14.515846
_cell_angle_alpha 28.585522
_cell_angle_beta 40.637976
_cell_angle_gamma 42.568237
_cell_volume 762.969494
_symmetry_space_group_name_H-M "P -1"
_symmetry_group_IT_number 2
_symmetry_cell_setting 'triclinic'
loop_
_space_group_symop_operation_xyz
x,y,z
-x,-y,-z
loop_
_atom_site_type_symbol
_atom_site_label
_atom_site_fract_x
_atom_site_fract_y
_atom_site_fract_z
Si Si1 0.731401 0.029421 0.070084
Si Si2 0.757916 0.790366 0.966473
Si Si3 0.076295 0.480385 0.202102
Si Si4 0.529750 0.850403 0.448542
Si Si5 0.851873 0.844637 0.222679
Si Si6 0.700250 0.107018 0.393720
Si Si7 0.237485 0.266567 0.295625
Si Si8 0.393278 0.888752 0.188829
O O1 0.771665 0.859895 0.022004
O O2 0.608269 0.033194 0.216183
O O3 0.804999 0.818819 0.183498
O O4 0.745568 0.397866 0.856023
O O5 0.708029 0.474990 0.169909
O O6 0.872303 0.732000 0.827552
O O7 0.675626 0.094534 0.842718
O O8 0.123288 0.309956 0.339679
O O9 0.948401 0.526707 0.307695
O O10 0.105039 0.830879 0.980700
O O11 0.423643 0.901561 0.469737
O O12 0.586739 0.470242 0.599037
O O13 0.500000 0.000000 0.500000
O O14 0.758310 0.855720 0.387835
O O15 0.756745 0.998459 0.489889
O O16 0.329157 0.152052 0.186957
O O17 0.500000 0.000000 0.000000
#
# Coordination Sequence:
#
# PCOD8017124 Si02
#       8
#     2   2   2   2   2   2   2   2
#     4  11  23  37  58  91 123 152 200 241 292 343
#     4  10  22  38  60  89 118 154 196 245 291 351
#     4   8  18  39  62  83 115 156 196 242 299 343
#     4  12  24  38  60  88 122 158 194 244 288 345
#     4   9  18  38  62  83 116 156 196 246 291 349
#     4  11  22  39  59  86 121 159 199 233 295 353
#     4  10  23  39  59  89 119 155 201 239 288 359
#     4  11  22  40  60  80 120 161 195 235 290 349
#
# _framework density 20.970696
#
# number of rings (size 3 to 8) (size 9 to 14) (size 15 to 20)
#    0.000    1.750    2.500    2.250    3.500    2.500 
#    0.000    0.000    0.000   10.500    0.000    0.000 
#    0.000    0.000    0.000    0.000    0.000    0.000 
#
# Total GULP energy -198435.449183 kJ/mol
# GULP energy per Si atom -12402.215574 kJ/mol
# Density = 2.092297 g / cm^3
# Si number density = 20.970696 Si / 1000 Ang^3
#
#
#
# Elastic Constant Matrix: (Units=GPa)
#
#
# Indices 1 2 3 4 5 6 
#
# 1 125.1647 71.3009 21.7552 9.5865 24.8370 -8.9899
# 2 71.3009 113.5450 13.3541 10.2884 6.5425 -7.7110
# 3 21.7552 13.3541 42.2913 3.6109 13.6253 -6.9932
# 4 9.5865 10.2884 3.6109 18.7833 1.7891 3.2696
# 5 24.8370 6.5425 13.6253 1.7891 35.5285 -0.4847
# 6 -8.9899 -7.7110 -6.9932 3.2696 -0.4847 45.5889
#
#
#
# Elastic Compliance Matrix: (Units=1/GPa)
#
#
# Indices 1 2 3 4 5 6 
#
# 1 0.014998 -0.008435 -0.002081 -0.002093 -0.008010 0.001277
# 2 -0.008435 0.014417 -0.000949 -0.003939 0.003817 0.000953
# 3 -0.002081 -0.000949 0.028988 -0.003816 -0.009240 0.004051
# 4 -0.002093 -0.003939 -0.003816 0.058151 0.000644 -0.005828
# 5 -0.008010 0.003817 -0.009240 0.000644 0.036527 -0.002009
# 6 0.001277 0.000953 0.004051 -0.005828 -0.002009 0.023366
#
#
# Mechanical properties :
#
#
# Convention : Reuss Voigt Hill
#
# Bulk Modulus (GPa) = 28.19087 54.86905 41.52996
# Shear Modulus (GPa) = 23.67383 31.61953 27.64668
#
# Velocity S-wave (km/s) = 3.36356 3.88725 3.63485
# Velocity P-wave (km/s) = 5.34386 6.80948 6.12070
#
# Compressibility (1/GPa) = 0.03547248
#
# Stress axis : x y z
#
# Youngs Moduli (GPa) = 66.67552 69.36091 34.49657
#
# Poissons Ratio (x) = 0.58508 0.07179
# Poissons Ratio (y) = 0.56243 0.03275
# Poissons Ratio (z) = 0.13875 0.06584
#
# Static dielectric constant tensor:
#      x y z
#    x 3.867980 -0.218370 0.122840 
#    y -0.218370 4.063140 -0.017290 
#    z 0.122840 -0.017290 3.609150 
# 
# 
# High freq. dielectric constant tensor:
#      x y z
#    x 1.823880 -0.005190 0.011380 
#    y -0.005190 1.829030 0.000680 
#    z 0.011380 0.000680 1.802850 
# 
# From -- ./inp_files/200145.got.cif
#   From: 2010.06.25/outbox.cif.g09.slc.cpg/sg2_101_cif.got.tgz:200145.got - 2010.06.27 13:26:56.
