data_PCOD8017550
_publ_section_title
;
Structure prediction by ZEFSAII (Michael W. Deem and Ramdas Pophale) SiO2 
 PCOD8017550
Probable space group: P -1
;
_chemical_formula_sum "Si O2"
_cell_formula_units_Z 16
_cell_length_a 11.620305
_cell_length_b 15.853944
_cell_length_c 8.240646
_cell_angle_alpha 109.064081
_cell_angle_beta 119.230591
_cell_angle_gamma 118.514417
_cell_volume 795.661741
_symmetry_space_group_name_H-M "P -1"
_symmetry_group_IT_number 2
_symmetry_cell_setting 'triclinic'
loop_
_space_group_symop_operation_xyz
x,y,z
-x,-y,-z
loop_
_atom_site_type_symbol
_atom_site_label
_atom_site_fract_x
_atom_site_fract_y
_atom_site_fract_z
Si Si1 0.501858 0.751790 0.290266
Si Si2 0.852111 0.485703 0.298340
Si Si3 0.312769 0.969700 0.887812
Si Si4 0.630103 0.484966 0.748614
Si Si5 0.554214 0.421064 0.295022
Si Si6 0.056533 0.719275 0.344826
Si Si7 0.486123 0.918961 0.579911
Si Si8 0.755237 0.882137 0.244720
O O1 0.463270 0.634418 0.265152
O O2 0.509490 0.832013 0.477323
O O3 0.705950 0.861614 0.389410
O O4 0.313598 0.669953 0.985927
O O5 0.741912 0.500201 0.349227
O O6 0.000000 0.500000 0.500000
O O7 0.991318 0.598799 0.323331
O O8 0.099611 0.819346 0.570786
O O9 0.333129 0.078277 0.889982
O O10 0.500000 0.000000 0.000000
O O11 0.320651 0.975511 0.093510
O O12 0.621630 0.434419 0.534213
O O13 0.485025 0.494202 0.679729
O O14 0.865153 0.640900 0.044718
O O15 0.349851 0.258447 0.001821
O O16 0.262705 0.810626 0.440975
O O17 0.500000 0.000000 0.500000
O O18 0.000000 0.000000 0.500000
#
# Coordination Sequence:
#
# PCOD8017550 Si02
#       8
#     2   2   2   2   2   2   2   2
#     4  10  23  39  62  90 127 157 212 261 316 366
#     4  10  24  36  63  93 121 161 206 258 315 376
#     4  10  22  39  62  88 126 165 209 256 316 371
#     4  10  22  42  62  94 123 169 204 270 315 372
#     4  10  23  40  64  89 132 160 213 261 317 373
#     4  10  23  38  62  90 124 165 210 253 317 380
#     4  11  24  39  62  93 132 168 210 269 314 377
#     4  11  23  42  66  90 125 174 212 261 315 391
#
# _framework density 20.109048999999999
#
# number of rings (size 3 to 8) (size 9 to 14) (size 15 to 20)
#    0.000    1.750    0.000    3.000   12.250    6.500 
#    0.000    5.000    0.000    0.000    0.000    0.000 
#    0.000    0.000    0.000    0.000    0.000    0.000 
#
# Total GULP energy -198266.151465 kJ/mol
# GULP energy per Si atom -12391.634467 kJ/mol
# Density = 2.006328 g / cm^3
# Si number density = 20.109049 Si / 1000 Ang^3
#
#
#
# Elastic Constant Matrix: (Units=GPa)
#
#
# Indices 1 2 3 4 5 6 
#
# 1 99.1697 47.3500 64.1921 -1.4544 -7.9860 10.0271
# 2 47.3500 102.7053 44.5377 -4.1937 11.0092 9.9991
# 3 64.1921 44.5377 122.9706 -12.0284 -8.2485 15.3289
# 4 -1.4544 -4.1937 -12.0284 34.5888 4.1650 -1.0561
# 5 -7.9860 11.0092 -8.2485 4.1650 37.8417 2.8260
# 6 10.0271 9.9991 15.3289 -1.0561 2.8260 36.9581
#
#
#
# Elastic Compliance Matrix: (Units=1/GPa)
#
#
# Indices 1 2 3 4 5 6 
#
# 1 0.017750 -0.005574 -0.007162 -0.002947 0.004186 -0.000741
# 2 -0.005574 0.014093 -0.002353 0.001338 -0.005874 -0.000837
# 3 -0.007162 -0.002353 0.013615 0.003818 0.001953 -0.003107
# 4 -0.002947 0.001338 0.003818 0.030706 -0.003559 0.000003
# 5 0.004186 -0.005874 0.001953 -0.003559 0.030041 -0.002755
# 6 -0.000741 -0.000837 -0.003107 0.000003 -0.002755 0.028985
#
#
# Mechanical properties :
#
#
# Convention : Reuss Voigt Hill
#
# Bulk Modulus (GPa) = 65.45000 70.77835 68.11418
# Shear Modulus (GPa) = 29.33232 33.12877 31.23054
#
# Velocity S-wave (km/s) = 3.82339 4.06329 3.94516
# Velocity P-wave (km/s) = 7.21867 7.56885 7.39583
#
# Compressibility (1/GPa) = 0.01527884
#
# Stress axis : x y z
#
# Youngs Moduli (GPa) = 56.33822 70.95871 73.45095
#
# Poissons Ratio (x) = 0.39556 0.52604
# Poissons Ratio (y) = 0.31405 0.17283
# Poissons Ratio (z) = 0.40348 0.16697
#
# Static dielectric constant tensor:
#      x y z
#    x 3.120350 0.444570 -0.032320 
#    y 0.444570 3.589470 -0.345940 
#    z -0.032320 -0.345940 4.100100 
# 
# 
# High freq. dielectric constant tensor:
#      x y z
#    x 1.780730 -0.000090 -0.012590 
#    y -0.000090 1.793450 -0.007050 
#    z -0.012590 -0.007050 1.799460 
# 
# From -- ./inp_files/273885.got.cif
#   From: 2010.06.25/outbox.cif.g09.slc.cpg/sg2_137_cif.got.tgz:273885.got - 2010.06.27 13:26:56.
