data_PCOD8017891
_publ_section_title
;
Structure prediction by ZEFSAII (Michael W. Deem and Ramdas Pophale) SiO2 
 PCOD8017891
Probable space group: P -1
;
_chemical_formula_sum "Si O2"
_cell_formula_units_Z 12
_cell_length_a 11.711899
_cell_length_b 6.399453
_cell_length_c 11.067348
_cell_angle_alpha 93.140460
_cell_angle_beta 70.279973
_cell_angle_gamma 47.845905
_cell_volume 529.787040
_symmetry_space_group_name_H-M "P -1"
_symmetry_group_IT_number 2
_symmetry_cell_setting 'triclinic'
loop_
_space_group_symop_operation_xyz
x,y,z
-x,-y,-z
loop_
_atom_site_type_symbol
_atom_site_label
_atom_site_fract_x
_atom_site_fract_y
_atom_site_fract_z
Si Si1 0.735550 0.725376 0.080840
Si Si2 0.527689 0.290032 0.582981
Si Si3 0.751266 0.624684 0.432044
Si Si4 0.042863 0.240164 0.138090
Si Si5 0.336212 0.551201 0.057606
Si Si6 0.589194 0.598410 0.710677
O O1 0.889333 0.431513 0.098494
O O2 0.601339 0.040736 0.215966
O O3 0.619756 0.689986 0.058868
O O4 0.822502 0.742148 0.938795
O O5 0.500000 0.500000 0.500000
O O6 0.361761 0.336805 0.638590
O O7 0.549739 0.397541 0.701223
O O8 0.701333 0.929483 0.483842
O O9 0.956023 0.373147 0.307145
O O10 0.721712 0.522271 0.558835
O O11 0.152490 0.886361 0.088285
O O12 0.313165 0.491814 0.199684
O O13 0.500000 0.500000 0.000000
#
# Coordination Sequence:
#
# PCOD8017891 Si02
#       6
#     2   2   2   2   2   2
#     4  11  25  45  69  98 133 176 227 269 328 397
#     4   9  19  38  65  99 132 173 219 262 331 393
#     4  10  22  39  67  98 136 171 217 279 325 393
#     4  11  25  43  68 101 132 174 218 283 326 392
#     4  12  27  44  69  97 135 180 222 273 333 396
#     4  11  24  41  70  98 132 178 221 270 332 399
#
# _framework density 22.650611000000001
#
# number of rings (size 3 to 8) (size 9 to 14) (size 15 to 20)
#    0.000    1.333    1.667    4.000    4.667    6.000 
#    0.000    1.667    0.000    0.000    0.000    0.000 
#    0.000    0.000    0.000    0.000    0.000    0.000 
#
# Total GULP energy -148753.952597 kJ/mol
# GULP energy per Si atom -12396.162716 kJ/mol
# Density = 2.259906 g / cm^3
# Si number density = 22.650611 Si / 1000 Ang^3
#
#
#
# Elastic Constant Matrix: (Units=GPa)
#
#
# Indices 1 2 3 4 5 6 
#
# 1 89.2303 30.2957 40.0237 10.6969 18.3961 21.6785
# 2 30.2957 113.8799 34.2737 9.5169 10.5072 4.2662
# 3 40.0237 34.2737 122.5407 8.2444 -14.9115 18.4235
# 4 10.6969 9.5169 8.2444 41.6503 12.8327 5.5593
# 5 18.3961 10.5072 -14.9115 12.8327 45.5594 3.2535
# 6 21.6785 4.2662 18.4235 5.5593 3.2535 32.2204
#
#
#
# Elastic Compliance Matrix: (Units=1/GPa)
#
#
# Indices 1 2 3 4 5 6 
#
# 1 0.017685 -0.002243 -0.004907 0.000414 -0.007769 -0.008083
# 2 -0.002243 0.010396 -0.002707 -0.000832 -0.002290 0.002055
# 3 -0.004907 -0.002707 0.012137 -0.002349 0.007499 -0.003632
# 4 0.000414 -0.000832 -0.002349 0.027476 -0.008289 -0.002729
# 5 -0.007769 -0.002290 0.007499 -0.008289 0.030432 -0.000400
# 6 -0.008083 0.002055 -0.003632 -0.002729 -0.000400 0.038791
#
#
# Mechanical properties :
#
#
# Convention : Reuss Voigt Hill
#
# Bulk Modulus (GPa) = 48.76854 59.42637 54.09746
# Shear Modulus (GPa) = 30.58722 38.62321 34.60522
#
# Velocity S-wave (km/s) = 3.67876 4.13385 3.91293
# Velocity P-wave (km/s) = 6.29459 7.00557 6.65958
#
# Compressibility (1/GPa) = 0.02050502
#
# Stress axis : x y z
#
# Youngs Moduli (GPa) = 56.54379 96.18664 82.39280
#
# Poissons Ratio (x) = 0.21575 0.40430
# Poissons Ratio (y) = 0.12683 0.22303
# Poissons Ratio (z) = 0.27746 0.26037
#
# Static dielectric constant tensor:
#      x y z
#    x 4.289370 0.218550 0.321890 
#    y 0.218550 4.245870 -0.047520 
#    z 0.321890 -0.047520 4.361520 
# 
# 
# High freq. dielectric constant tensor:
#      x y z
#    x 1.872530 0.017510 0.004320 
#    y 0.017510 1.902120 -0.006840 
#    z 0.004320 -0.006840 1.900410 
# 
# From -- ./inp_files/22140.got.cif
#   From: 2010.06.25/outbox.cif.g09.slc.cpg/sg2_12_cif.got.tgz:22140.got - 2010.06.27 13:26:56.
