data_PCOD8017870
_publ_section_title
;
Structure prediction by ZEFSAII (Michael W. Deem and Ramdas Pophale) SiO2 
 PCOD8017870
Probable space group: P -1
;
_chemical_formula_sum "Si O2"
_cell_formula_units_Z 14
_cell_length_a 8.848784
_cell_length_b 17.274079
_cell_length_c 16.327359
_cell_angle_alpha 147.256247
_cell_angle_beta 30.701913
_cell_angle_gamma 149.772733
_cell_volume 592.861715
_symmetry_space_group_name_H-M "P -1"
_symmetry_group_IT_number 2
_symmetry_cell_setting 'triclinic'
loop_
_space_group_symop_operation_xyz
x,y,z
-x,-y,-z
loop_
_atom_site_type_symbol
_atom_site_label
_atom_site_fract_x
_atom_site_fract_y
_atom_site_fract_z
Si Si1 0.070327 0.524815 0.585769
Si Si2 0.323340 0.028048 0.684170
Si Si3 0.475666 0.857274 0.774997
Si Si4 0.458611 0.167674 0.093178
Si Si5 0.740794 0.525548 0.278740
Si Si6 0.353490 0.615223 0.193624
Si Si7 0.944905 0.118394 0.572700
O O1 0.182673 0.714679 0.727078
O O2 0.366020 0.489872 0.448217
O O3 0.000000 0.500000 0.500000
O O4 0.724318 0.398144 0.684248
O O5 0.343771 0.202484 0.811832
O O6 0.543676 0.037945 0.670019
O O7 0.500000 0.000000 0.500000
O O8 0.938931 0.887286 0.758577
O O9 0.374480 0.812989 0.877599
O O10 0.841549 0.869820 0.598856
O O11 0.500831 0.034232 0.900770
O O12 0.666238 0.351145 0.116566
O O13 0.995526 0.567052 0.273323
O O14 0.905885 0.692271 0.292801
O O15 0.500000 0.500000 0.000000
O O16 0.000000 0.000000 0.500000
#
# Coordination Sequence:
#
# PCOD8017870 Si02
#       7
#     2   2   2   2   2   2   2
#     4  11  23  43  67  98 136 184 229 277 340 411
#     4  11  22  36  64 100 124 171 222 278 319 397
#     4  10  22  39  67  93 134 176 211 280 335 392
#     4  11  21  40  67 100 128 166 232 272 329 394
#     4  10  23  42  70  95 130 186 226 272 330 420
#     4  11  23  41  68 100 135 171 232 282 331 397
#     4  10  23  43  62  92 136 173 220 276 334 397
#
# _framework density 23.614274000000002
#
# number of rings (size 3 to 8) (size 9 to 14) (size 15 to 20)
#    0.000    1.429    2.857    2.143    4.000    4.571 
#    0.000    7.143    0.000    0.000    0.000    0.000 
#    0.000    0.000    0.000    0.000    0.000    0.000 
#
# Total GULP energy -173480.196488 kJ/mol
# GULP energy per Si atom -12391.442606 kJ/mol
# Density = 2.356053 g / cm^3
# Si number density = 23.614274 Si / 1000 Ang^3
#
#
#
# Elastic Constant Matrix: (Units=GPa)
#
#
# Indices 1 2 3 4 5 6 
#
# 1 99.6634 51.3108 40.9550 10.6543 -6.6923 -3.3375
# 2 51.3108 125.9509 34.4567 43.8557 -13.2747 2.2332
# 3 40.9550 34.4567 94.7259 32.2634 -15.9848 4.0706
# 4 10.6543 43.8557 32.2634 57.8658 -2.1681 -7.4116
# 5 -6.6923 -13.2747 -15.9848 -2.1681 28.5900 8.1273
# 6 -3.3375 2.2332 4.0706 -7.4116 8.1273 30.9381
#
#
#
# Elastic Compliance Matrix: (Units=1/GPa)
#
#
# Indices 1 2 3 4 5 6 
#
# 1 0.016655 -0.008214 -0.008450 0.008558 -0.006018 0.007133
# 2 -0.008214 0.016018 0.004336 -0.013767 0.009267 -0.008345
# 3 -0.008450 0.004336 0.019996 -0.013745 0.013190 -0.010613
# 4 0.008558 -0.013767 -0.013745 0.035310 -0.013897 0.015835
# 5 -0.006018 0.009267 0.013190 -0.013897 0.049720 -0.019444
# 6 0.007133 -0.008345 -0.010613 0.015835 -0.019444 0.043992
#
#
# Mechanical properties :
#
#
# Convention : Reuss Voigt Hill
#
# Bulk Modulus (GPa) = 35.69715 63.75389 49.72552
# Shear Modulus (GPa) = 23.18205 36.38662 29.78433
#
# Velocity S-wave (km/s) = 3.13660 3.92966 3.55531
# Velocity P-wave (km/s) = 5.31670 6.90262 6.16091
#
# Compressibility (1/GPa) = 0.02801344
#
# Stress axis : x y z
#
# Youngs Moduli (GPa) = 60.04249 62.43026 50.00981
#
# Poissons Ratio (x) = 0.51280 0.42258
# Poissons Ratio (y) = 0.49319 -0.21685
# Poissons Ratio (z) = 0.50735 -0.27071
#
# Static dielectric constant tensor:
#      x y z
#    x 3.896840 0.200010 -0.285220 
#    y 0.200010 3.824270 0.351300 
#    z -0.285220 0.351300 4.523390 
# 
# 
# High freq. dielectric constant tensor:
#      x y z
#    x 1.898910 0.010240 -0.022790 
#    y 0.010240 1.947740 0.020610 
#    z -0.022790 0.020610 1.937680 
# 
# From -- ./inp_files/216703.got.cif
#   From: 2010.06.25/outbox.cif.g09.slc.cpg/sg2_109_cif.got.tgz:216703.got - 2010.06.27 13:26:56.
