data_PCOD8017747
_publ_section_title
;
Structure prediction by ZEFSAII (Michael W. Deem and Ramdas Pophale) SiO2 
 PCOD8017747
Probable space group: P -1
;
_chemical_formula_sum "Si O2"
_cell_formula_units_Z 14
_cell_length_a 12.008198
_cell_length_b 23.684769
_cell_length_c 14.913205
_cell_angle_alpha 159.369529
_cell_angle_beta 27.772298
_cell_angle_gamma 151.071066
_cell_volume 667.007793
_symmetry_space_group_name_H-M "P -1"
_symmetry_group_IT_number 2
_symmetry_cell_setting 'triclinic'
loop_
_space_group_symop_operation_xyz
x,y,z
-x,-y,-z
loop_
_atom_site_type_symbol
_atom_site_label
_atom_site_fract_x
_atom_site_fract_y
_atom_site_fract_z
Si Si1 0.903959 0.569210 0.837937
Si Si2 0.429757 0.734616 0.178805
Si Si3 0.091977 0.444309 0.687566
Si Si4 0.290635 0.021777 0.809431
Si Si5 0.408358 0.807781 0.804691
Si Si6 0.527985 0.754948 0.838471
Si Si7 0.434888 0.554755 0.257523
O O1 0.814483 0.467140 0.657356
O O2 0.015191 0.452586 0.649842
O O3 0.110075 0.746228 0.937069
O O4 0.674928 0.618984 0.118990
O O5 0.596688 0.828922 0.119247
O O6 0.161534 0.608980 0.151028
O O7 0.351186 0.856068 0.486604
O O8 0.587972 0.627338 0.955175
O O9 0.265219 0.626077 0.863970
O O10 0.241291 0.309279 0.389952
O O11 0.437659 0.073639 0.876051
O O12 0.000000 0.000000 0.000000
O O13 0.546740 0.785490 0.764636
O O14 0.475452 0.693424 0.510880
O O15 0.500000 0.000000 0.000000
#
# Coordination Sequence:
#
# PCOD8017747 Si02
#       7
#     2   2   2   2   2   2   2
#     4   9  21  42  65  92 120 167 211 257 307 359
#     4  10  23  39  63  96 121 164 218 248 318 367
#     4   9  19  40  62  94 120 160 214 245 313 370
#     4  11  23  41  60  93 132 161 203 266 307 371
#     4  11  25  42  60  96 126 167 207 250 320 371
#     4  10  22  39  65  89 127 166 201 263 313 364
#     4  10  22  42  67  90 121 165 215 259 299 374
#
# _framework density 20.989260999999999
#
# number of rings (size 3 to 8) (size 9 to 14) (size 15 to 20)
#    0.000    2.000    1.429    0.429    6.000    5.714 
#    5.143    0.000    0.000    0.000    0.000    0.000 
#    0.000    0.000    0.000    0.000    0.000    0.000 
#
# Total GULP energy -173541.116889 kJ/mol
# GULP energy per Si atom -12395.794063 kJ/mol
# Density = 2.094149 g / cm^3
# Si number density = 20.989261 Si / 1000 Ang^3
#
#
#
# Elastic Constant Matrix: (Units=GPa)
#
#
# Indices 1 2 3 4 5 6 
#
# 1 149.6115 59.8165 70.2237 2.9551 10.4537 15.0930
# 2 59.8165 154.1326 45.9967 3.3306 -0.0277 -4.9116
# 3 70.2237 45.9967 95.6738 13.8433 12.6449 -3.4637
# 4 2.9551 3.3306 13.8433 27.8529 -0.6285 0.4667
# 5 10.4537 -0.0277 12.6449 -0.6285 38.8112 -0.9249
# 6 15.0930 -4.9116 -3.4637 0.4667 -0.9249 27.5692
#
#
#
# Elastic Compliance Matrix: (Units=1/GPa)
#
#
# Indices 1 2 3 4 5 6 
#
# 1 0.012719 -0.002669 -0.008770 0.003457 -0.000720 -0.008623
# 2 -0.002669 0.008246 -0.002158 0.000358 0.001498 0.002703
# 3 -0.008770 -0.002158 0.020024 -0.008974 -0.004143 0.006946
# 4 0.003457 0.000358 -0.008974 0.040071 0.002557 -0.003549
# 5 -0.000720 0.001498 -0.004143 0.002557 0.027376 0.001016
# 6 -0.008623 0.002703 0.006946 -0.003549 0.001016 0.042442
#
#
# Mechanical properties :
#
#
# Convention : Reuss Voigt Hill
#
# Bulk Modulus (GPa) = 72.47987 83.49908 77.98948
# Shear Modulus (GPa) = 27.37184 33.73870 30.55527
#
# Velocity S-wave (km/s) = 3.61513 4.01362 3.81958
# Velocity P-wave (km/s) = 7.21335 7.83244 7.52926
#
# Compressibility (1/GPa) = 0.01379693
#
# Stress axis : x y z
#
# Youngs Moduli (GPa) = 78.62064 121.26914 49.93981
#
# Poissons Ratio (x) = 0.32362 0.43798
# Poissons Ratio (y) = 0.20981 0.10775
# Poissons Ratio (z) = 0.68951 0.26165
#
# Static dielectric constant tensor:
#      x y z
#    x 3.964780 0.136630 0.082720 
#    y 0.136630 4.196700 -0.061930 
#    z 0.082720 -0.061930 3.647720 
# 
# 
# High freq. dielectric constant tensor:
#      x y z
#    x 1.827410 0.006740 0.006410 
#    y 0.006740 1.841650 -0.000240 
#    z 0.006410 -0.000240 1.800220 
# 
# From -- ./inp_files/337560.got.cif
#   From: 2010.06.25/outbox.cif.g09.slc.cpg/sg2_169_cif.got.tgz:337560.got - 2010.06.27 13:26:56.
