data_PCOD8017262
_publ_section_title
;
Structure prediction by ZEFSAII (Michael W. Deem and Ramdas Pophale) SiO2 
 PCOD8017262
Probable space group: P -1
;
_chemical_formula_sum "Si O2"
_cell_formula_units_Z 16
_cell_length_a 11.574437
_cell_length_b 11.024499
_cell_length_c 11.237330
_cell_angle_alpha 112.798553
_cell_angle_beta 32.195977
_cell_angle_gamma 114.142610
_cell_volume 694.654462
_symmetry_space_group_name_H-M "P -1"
_symmetry_group_IT_number 2
_symmetry_cell_setting 'triclinic'
loop_
_space_group_symop_operation_xyz
x,y,z
-x,-y,-z
loop_
_atom_site_type_symbol
_atom_site_label
_atom_site_fract_x
_atom_site_fract_y
_atom_site_fract_z
Si Si1 0.835363 0.651309 0.183956
Si Si2 0.723104 0.480429 0.857947
Si Si3 0.017651 0.979239 0.613798
Si Si4 0.761184 0.246456 0.586305
Si Si5 0.974493 0.746754 0.850142
Si Si6 0.552793 0.830610 0.606900
Si Si7 0.751681 0.368595 0.047545
Si Si8 0.314982 0.061303 0.915422
O O1 0.626607 0.728329 0.407319
O O2 0.729159 0.499350 0.193979
O O3 0.990334 0.709522 0.959661
O O4 0.999783 0.663619 0.159255
O O5 0.829487 0.397114 0.632665
O O6 0.846516 0.626232 0.836938
O O7 0.500000 0.500000 0.000000
O O8 0.702623 0.389395 0.960248
O O9 0.057282 0.829668 0.543385
O O10 0.795660 0.994938 0.884774
O O11 0.000000 0.000000 0.500000
O O12 0.219118 0.085303 0.521536
O O13 0.515935 0.180344 0.812056
O O14 0.785863 0.234055 0.415116
O O15 0.861783 0.879861 0.989823
O O16 0.432983 0.750320 0.791818
O O17 0.398958 0.934449 0.729592
#
# Coordination Sequence:
#
# PCOD8017262 Si02
#       8
#     2   2   2   2   2   2   2   2
#     4  10  23  45  65  95 132 172 217 268 315 381
#     4  11  22  41  68  96 130 167 213 272 327 388
#     4  10  24  39  63  93 134 173 211 265 320 389
#     4  10  22  38  64  96 127 169 211 264 328 380
#     4  10  22  43  64  94 134 168 219 266 319 383
#     4  11  23  40  67  94 130 173 216 262 325 375
#     4  10  24  43  66  97 131 167 220 267 319 388
#     4  10  22  41  61  96 129 161 217 262 319 382
#
# _framework density 23.033031999999999
#
# number of rings (size 3 to 8) (size 9 to 14) (size 15 to 20)
#    0.000    1.750    1.250    1.500    5.250    2.500 
#    6.750    8.750    0.000    0.000    0.000    0.000 
#    0.000    0.000    0.000    0.000    0.000    0.000 
#
# Total GULP energy -198286.480390 kJ/mol
# GULP energy per Si atom -12392.905024 kJ/mol
# Density = 2.298061 g / cm^3
# Si number density = 23.033032 Si / 1000 Ang^3
#
#
#
# Elastic Constant Matrix: (Units=GPa)
#
#
# Indices 1 2 3 4 5 6 
#
# 1 91.0419 11.1103 26.6765 5.3591 2.6195 -19.2368
# 2 11.1103 96.9735 45.2504 12.9617 -8.1101 -18.5492
# 3 26.6765 45.2504 114.2667 14.0949 -6.4170 -10.6531
# 4 5.3591 12.9617 14.0949 51.0361 -5.5937 -0.8926
# 5 2.6195 -8.1101 -6.4170 -5.5937 21.5148 -6.6666
# 6 -19.2368 -18.5492 -10.6531 -0.8926 -6.6666 25.9278
#
#
#
# Elastic Compliance Matrix: (Units=1/GPa)
#
#
# Indices 1 2 3 4 5 6 
#
# 1 0.013891 0.002066 -0.002857 -0.000849 0.001405 0.010942
# 2 0.002066 0.015630 -0.004845 -0.001790 0.007643 0.012627
# 3 -0.002857 -0.004845 0.011554 -0.001515 0.001410 -0.000528
# 4 -0.000849 -0.001790 -0.001515 0.021005 0.004213 -0.000727
# 5 0.001405 0.007643 0.001410 0.004213 0.057531 0.022027
# 6 0.010942 0.012627 -0.000528 -0.000727 0.022027 0.061142
#
#
# Mechanical properties :
#
#
# Convention : Reuss Voigt Hill
#
# Bulk Modulus (GPa) = 33.55463 52.03961 42.79712
# Shear Modulus (GPa) = 24.75762 34.31207 29.53484
#
# Velocity S-wave (km/s) = 3.28208 3.86384 3.58478
# Velocity P-wave (km/s) = 5.38168 6.52290 5.97957
#
# Compressibility (1/GPa) = 0.02980214
#
# Stress axis : x y z
#
# Youngs Moduli (GPa) = 71.99143 63.98033 86.55158
#
# Poissons Ratio (x) = -0.13216 0.24729
# Poissons Ratio (y) = -0.14871 0.41930
# Poissons Ratio (z) = 0.20569 0.30995
#
# Static dielectric constant tensor:
#      x y z
#    x 3.875200 -0.439300 -0.055090 
#    y -0.439300 4.256110 0.307400 
#    z -0.055090 0.307400 4.635930 
# 
# 
# High freq. dielectric constant tensor:
#      x y z
#    x 1.881080 -0.013510 -0.000910 
#    y -0.013510 1.933240 0.005320 
#    z -0.000910 0.005320 1.917230 
# 
# From -- ./inp_files/69771.got.cif
#   From: 2010.06.25/outbox.cif.g09.slc.cpg/sg2_35_cif.got.tgz:69771.got - 2010.06.27 13:26:56.
