data_PCOD8017309
_publ_section_title
;
Structure prediction by ZEFSAII (Michael W. Deem and Ramdas Pophale) SiO2 
 PCOD8017309
Probable space group: P -1
;
_chemical_formula_sum "Si O2"
_cell_formula_units_Z 14
_cell_length_a 6.400779
_cell_length_b 12.666937
_cell_length_c 15.154502
_cell_angle_alpha 46.437246
_cell_angle_beta 55.644366
_cell_angle_gamma 48.641788
_cell_volume 654.735735
_symmetry_space_group_name_H-M "P -1"
_symmetry_group_IT_number 2
_symmetry_cell_setting 'triclinic'
loop_
_space_group_symop_operation_xyz
x,y,z
-x,-y,-z
loop_
_atom_site_type_symbol
_atom_site_label
_atom_site_fract_x
_atom_site_fract_y
_atom_site_fract_z
Si Si1 0.400517 0.798477 0.845432
Si Si2 0.508815 0.961109 0.894764
Si Si3 0.841940 0.666532 0.492164
Si Si4 0.057987 0.906377 0.307477
Si Si5 0.188395 0.822291 0.520909
Si Si6 0.099981 0.241452 0.935693
Si Si7 0.924530 0.596559 0.719383
O O1 0.660297 0.656461 0.814902
O O2 0.499104 0.893194 0.839496
O O3 0.218026 0.922239 0.740995
O O4 0.217006 0.720621 0.981015
O O5 0.198746 0.086218 0.934159
O O6 0.665023 0.077534 0.795801
O O7 0.679713 0.806668 0.007071
O O8 0.006235 0.764059 0.355825
O O9 0.517583 0.769140 0.481912
O O10 0.839659 0.640394 0.612757
O O11 0.000000 0.500000 0.500000
O O12 0.085989 0.843431 0.434646
O O13 0.116165 0.681816 0.659260
O O14 0.000000 0.000000 0.500000
O O15 0.096161 0.400714 0.799815
#
# Coordination Sequence:
#
# PCOD8017309 Si02
#       7
#     2   2   2   2   2   2   2
#     4  11  22  42  66  95 126 176 211 268 319 386
#     4  10  22  41  67  91 129 172 215 263 324 381
#     4  11  26  41  64  99 130 171 213 270 329 379
#     4  10  22  38  66  90 127 164 219 254 318 389
#     4  11  23  42  65  94 131 172 214 260 328 387
#     4  10  24  41  62  96 130 167 220 265 314 388
#     4  11  25  40  66  96 134 164 220 268 318 383
#
# _framework density 21.382670999999998
#
# number of rings (size 3 to 8) (size 9 to 14) (size 15 to 20)
#    0.000    1.429    0.000    4.286    6.000    6.286 
#    0.000    0.000    0.000    0.000    0.000    0.000 
#    0.000    0.000    0.000    0.000    0.000    0.000 
#
# Total GULP energy -173501.354084 kJ/mol
# GULP energy per Si atom -12392.953863 kJ/mol
# Density = 2.133400 g / cm^3
# Si number density = 21.382671 Si / 1000 Ang^3
#
#
#
# Elastic Constant Matrix: (Units=GPa)
#
#
# Indices 1 2 3 4 5 6 
#
# 1 97.8501 38.9714 39.5150 -9.1814 -5.4912 -1.3607
# 2 38.9714 106.3986 27.5687 0.4074 2.3008 0.9853
# 3 39.5150 27.5687 88.6381 -18.9872 -4.1741 2.0162
# 4 -9.1814 0.4074 -18.9872 42.6170 4.6275 -1.4893
# 5 -5.4912 2.3008 -4.1741 4.6275 28.3528 -4.4098
# 6 -1.3607 0.9853 2.0162 -1.4893 -4.4098 23.0361
#
#
#
# Elastic Compliance Matrix: (Units=1/GPa)
#
#
# Indices 1 2 3 4 5 6 
#
# 1 0.013952 -0.003951 -0.004763 0.000717 0.002506 0.001936
# 2 -0.003951 0.011489 -0.002264 -0.001799 -0.001894 -0.001005
# 3 -0.004763 -0.002264 0.015389 0.005769 0.000417 -0.001079
# 4 0.000717 -0.001799 0.005769 0.026568 -0.003087 0.000741
# 5 0.002506 -0.001894 0.000417 -0.003087 0.037592 0.007189
# 6 0.001936 -0.001005 -0.001079 0.000741 0.007189 0.045086
#
#
# Mechanical properties :
#
#
# Convention : Reuss Voigt Hill
#
# Bulk Modulus (GPa) = 52.98199 56.11077 54.54638
# Shear Modulus (GPa) = 28.03885 31.25663 29.64774
#
# Velocity S-wave (km/s) = 3.62510 3.82746 3.72765
# Velocity P-wave (km/s) = 6.50796 6.76985 6.64020
#
# Compressibility (1/GPa) = 0.01887434
#
# Stress axis : x y z
#
# Youngs Moduli (GPa) = 71.67638 87.03626 64.97977
#
# Poissons Ratio (x) = 0.34386 0.30952
# Poissons Ratio (y) = 0.28318 0.14711
# Poissons Ratio (z) = 0.34142 0.19705
#
# Static dielectric constant tensor:
#      x y z
#    x 3.972310 -0.032010 -0.054060 
#    y -0.032010 3.608080 -0.051250 
#    z -0.054060 -0.051250 4.067900 
# 
# 
# High freq. dielectric constant tensor:
#      x y z
#    x 1.844170 -0.000450 -0.005130 
#    y -0.000450 1.835820 -0.005080 
#    z -0.005130 -0.005080 1.851700 
# 
# From -- ./inp_files/27176.got.cif
#   From: 2010.06.25/outbox.cif.g09.slc.cpg/sg2_14_cif.got.tgz:27176.got - 2010.06.27 13:26:56.
