data_PCOD8017250
_publ_section_title
;
Structure prediction by ZEFSAII (Michael W. Deem and Ramdas Pophale) SiO2 
 PCOD8017250
Probable space group: P -1
;
_chemical_formula_sum "Si O2"
_cell_formula_units_Z 14
_cell_length_a 15.010969
_cell_length_b 8.955227
_cell_length_c 12.834261
_cell_angle_alpha 115.504267
_cell_angle_beta 152.107111
_cell_angle_gamma 54.380103
_cell_volume 639.831832
_symmetry_space_group_name_H-M "P -1"
_symmetry_group_IT_number 2
_symmetry_cell_setting 'triclinic'
loop_
_space_group_symop_operation_xyz
x,y,z
-x,-y,-z
loop_
_atom_site_type_symbol
_atom_site_label
_atom_site_fract_x
_atom_site_fract_y
_atom_site_fract_z
Si Si1 0.515649 0.244782 0.021618
Si Si2 0.029427 0.539994 0.307341
Si Si3 0.929961 0.224903 0.158584
Si Si4 0.163727 0.629599 0.676018
Si Si5 0.489043 0.252949 0.637814
Si Si6 0.382350 0.929207 0.497514
Si Si7 0.395938 0.150543 0.087166
O O1 0.737672 0.255372 0.249637
O O2 0.458411 0.241162 0.081857
O O3 0.338669 0.425441 0.833529
O O4 0.538512 0.064829 0.928947
O O5 0.005683 0.601516 0.423395
O O6 0.278085 0.455279 0.500419
O O7 0.949331 0.385618 0.161564
O O8 0.865069 0.725006 0.128007
O O9 0.973802 0.243221 0.331373
O O10 0.692832 0.246780 0.906088
O O11 0.120506 0.022522 0.257449
O O12 0.531982 0.227084 0.551086
O O13 0.454678 0.087025 0.600256
O O14 0.484199 0.827878 0.681018
#
# Coordination Sequence:
#
# PCOD8017250 Si02
#       7
#     2   2   2   2   2   2   2
#     4  10  22  38  64  89 135 163 210 249 315 372
#     4  11  24  37  65  93 130 162 208 255 317 368
#     4  11  21  40  67  93 119 169 213 259 299 383
#     4  11  21  40  64  93 121 175 208 248 303 392
#     4  10  22  44  67  90 119 172 220 250 302 384
#     4  10  23  42  66  91 126 164 213 263 308 363
#     4  11  23  40  58 101 133 159 199 270 316 364
#
# _framework density 21.880752000000001
#
# number of rings (size 3 to 8) (size 9 to 14) (size 15 to 20)
#    0.000    1.429    1.429    5.143    4.000    1.143 
#    2.571    0.714    0.000    0.000    0.000    0.000 
#    0.000    0.000    0.000    0.000    0.000    0.000 
#
# Total GULP energy -173640.890466 kJ/mol
# GULP energy per Si atom -12402.920748 kJ/mol
# Density = 2.183095 g / cm^3
# Si number density = 21.880752 Si / 1000 Ang^3
#
#
#
# Elastic Constant Matrix: (Units=GPa)
#
#
# Indices 1 2 3 4 5 6 
#
# 1 85.2342 43.5566 41.8414 -12.2957 4.2588 -19.3579
# 2 43.5566 54.0367 22.2787 -4.2276 -6.2559 -15.4563
# 3 41.8414 22.2787 96.9538 -7.3932 1.0568 -11.4972
# 4 -12.2957 -4.2276 -7.3932 27.7911 0.5552 4.6555
# 5 4.2588 -6.2559 1.0568 0.5552 41.0653 3.2002
# 6 -19.3579 -15.4563 -11.4972 4.6555 3.2002 42.2167
#
#
#
# Elastic Compliance Matrix: (Units=1/GPa)
#
#
# Indices 1 2 3 4 5 6 
#
# 1 0.025506 -0.017183 -0.006090 0.006584 -0.005463 0.003434
# 2 -0.017183 0.034249 -0.000254 -0.003340 0.006704 0.004451
# 3 -0.006090 -0.000254 0.013120 0.000653 0.000200 0.000600
# 4 0.006584 -0.003340 0.000653 0.038962 -0.001563 -0.002204
# 5 -0.005463 0.006704 0.000200 -0.001563 0.026096 -0.001802
# 6 0.003434 0.004451 0.000600 -0.002204 -0.001802 0.027434
#
#
# Mechanical properties :
#
#
# Convention : Reuss Voigt Hill
#
# Bulk Modulus (GPa) = 38.73031 50.17534 44.45282
# Shear Modulus (GPa) = 22.62155 30.78449 26.70302
#
# Velocity S-wave (km/s) = 3.21885 3.75496 3.49720
# Velocity P-wave (km/s) = 5.61727 6.46380 6.05535
#
# Compressibility (1/GPa) = 0.02581957
#
# Stress axis : x y z
#
# Youngs Moduli (GPa) = 39.20718 29.19755 76.22206
#
# Poissons Ratio (x) = 0.50171 0.46418
# Poissons Ratio (y) = 0.67371 0.01939
# Poissons Ratio (z) = 0.23877 0.00743
#
# Static dielectric constant tensor:
#      x y z
#    x 4.108900 -0.170600 0.129850 
#    y -0.170600 3.914960 0.000400 
#    z 0.129850 0.000400 3.896720 
# 
# 
# High freq. dielectric constant tensor:
#      x y z
#    x 1.857950 -0.013130 0.010460 
#    y -0.013130 1.852200 0.000040 
#    z 0.010460 0.000040 1.859680 
# 
# From -- ./inp_files/180796.got.cif
#   From: 2010.06.25/outbox.cif.g09.slc.cpg/sg2_91_cif.got.tgz:180796.got - 2010.06.27 13:26:56.
