data_PCOD8017716
_publ_section_title
;
Structure prediction by ZEFSAII (Michael W. Deem and Ramdas Pophale) SiO2 
 PCOD8017716
Probable space group: P -1
;
_chemical_formula_sum "Si O2"
_cell_formula_units_Z 16
_cell_length_a 9.570450
_cell_length_b 27.462179
_cell_length_c 14.248844
_cell_angle_alpha 19.670733
_cell_angle_beta 44.806240
_cell_angle_gamma 36.511357
_cell_volume 728.783883
_symmetry_space_group_name_H-M "P -1"
_symmetry_group_IT_number 2
_symmetry_cell_setting 'triclinic'
loop_
_space_group_symop_operation_xyz
x,y,z
-x,-y,-z
loop_
_atom_site_type_symbol
_atom_site_label
_atom_site_fract_x
_atom_site_fract_y
_atom_site_fract_z
Si Si1 0.779205 0.479836 0.477584
Si Si2 0.247487 0.526510 0.075017
Si Si3 0.429154 0.100407 0.447523
Si Si4 0.162618 0.222819 0.051261
Si Si5 0.200459 0.136977 0.985666
Si Si6 0.649296 0.547500 0.208854
Si Si7 0.881535 0.318233 0.336226
Si Si8 0.441390 0.803377 0.366634
O O1 0.787263 0.522055 0.286923
O O2 0.548893 0.488764 0.606094
O O3 0.008246 0.284162 0.739472
O O4 0.780186 0.631241 0.257735
O O5 0.312916 0.351838 0.414838
O O6 0.500000 0.500000 0.000000
O O7 0.150653 0.549590 0.972384
O O8 0.056052 0.701795 0.907393
O O9 0.161363 0.158255 0.497118
O O10 0.500000 0.000000 0.500000
O O11 0.606452 0.966529 0.685102
O O12 0.459630 0.260380 0.131409
O O13 0.085244 0.187103 0.053298
O O14 0.454487 0.120748 0.892839
O O15 0.257514 0.950436 0.262798
O O16 0.826611 0.409046 0.297960
O O17 0.705899 0.256224 0.511888
#
# Coordination Sequence:
#
# PCOD8017716 Si02
#       8
#     2   2   2   2   2   2   2   2
#     4  11  24  44  70  99 141 170 231 276 332 406
#     4  10  22  39  64  94 135 172 219 271 328 397
#     4  12  25  45  67  98 140 172 228 280 329 396
#     4  12  24  44  71 100 134 186 219 277 338 398
#     4  11  25  41  72  97 139 174 225 277 336 398
#     4  11  26  43  71 101 131 184 222 276 342 401
#     4  11  24  44  70  93 138 178 221 275 343 397
#     4  10  24  44  63 104 134 174 225 279 328 402
#
# _framework density 21.954381999999999
#
# number of rings (size 3 to 8) (size 9 to 14) (size 15 to 20)
#    0.000    1.000    3.750    1.500    7.000    2.000 
#    0.000    5.000    0.000    0.000    0.000    0.000 
#    0.000    0.000    0.000    0.000    0.000    0.000 
#
# Total GULP energy -198370.249784 kJ/mol
# GULP energy per Si atom -12398.140611 kJ/mol
# Density = 2.190441 g / cm^3
# Si number density = 21.954382 Si / 1000 Ang^3
#
#
#
# Elastic Constant Matrix: (Units=GPa)
#
#
# Indices 1 2 3 4 5 6 
#
# 1 50.8762 26.5488 18.6973 -18.2841 13.7629 13.9253
# 2 26.5488 123.6629 19.0941 -19.2159 6.3907 14.8912
# 3 18.6973 19.0941 88.0967 -25.7791 16.4788 3.0868
# 4 -18.2841 -19.2159 -25.7791 38.4260 -3.8305 -3.7350
# 5 13.7629 6.3907 16.4788 -3.8305 36.2411 -10.8116
# 6 13.9253 14.8912 3.0868 -3.7350 -10.8116 34.8953
#
#
#
# Elastic Compliance Matrix: (Units=1/GPa)
#
#
# Indices 1 2 3 4 5 6 
#
# 1 0.034026 -0.002731 0.000469 0.011947 -0.016224 -0.016202
# 2 -0.002731 0.009589 -0.000354 0.002858 -0.001086 -0.003001
# 3 0.000469 -0.000354 0.015490 0.009504 -0.006909 -0.002530
# 4 0.011947 0.002858 0.009504 0.038374 -0.006741 -0.004809
# 5 -0.016224 -0.001086 -0.006909 -0.006741 0.042324 0.019940
# 6 -0.016202 -0.003001 -0.002530 -0.004809 0.019940 0.042291
#
#
# Mechanical properties :
#
#
# Convention : Reuss Voigt Hill
#
# Bulk Modulus (GPa) = 18.56245 43.47958 31.02101
# Shear Modulus (GPa) = 24.35649 35.13221 29.74435
#
# Velocity S-wave (km/s) = 3.33440 4.00464 3.68479
# Velocity P-wave (km/s) = 4.82676 6.42108 5.68014
#
# Compressibility (1/GPa) = 0.05387221
#
# Stress axis : x y z
#
# Youngs Moduli (GPa) = 29.38968 104.28370 64.55613
#
# Poissons Ratio (x) = 0.28484 -0.03027
# Poissons Ratio (y) = 0.08027 0.02285
# Poissons Ratio (z) = -0.01378 0.03692
#
# Static dielectric constant tensor:
#      x y z
#    x 3.996150 0.080970 0.169640 
#    y 0.080970 3.999820 0.599250 
#    z 0.169640 0.599250 4.042750 
# 
# 
# High freq. dielectric constant tensor:
#      x y z
#    x 1.859370 -0.004320 0.003270 
#    y -0.004320 1.880910 0.000910 
#    z 0.003270 0.000910 1.865450 
# 
# From -- ./inp_files/508962.got.cif
#   From: 2010.06.25/outbox.cif.g09.slc.cpg/sg2_255_cif.got.tgz:508962.got - 2010.06.27 13:26:56.
