data_PCOD8017807
_publ_section_title
;
Structure prediction by ZEFSAII (Michael W. Deem and Ramdas Pophale) SiO2 
 PCOD8017807
Probable space group: P -1
;
_chemical_formula_sum "Si O2"
_cell_formula_units_Z 16
_cell_length_a 10.190526
_cell_length_b 15.678946
_cell_length_c 7.648359
_cell_angle_alpha 58.849969
_cell_angle_beta 56.147594
_cell_angle_gamma 43.446478
_cell_volume 684.138610
_symmetry_space_group_name_H-M "P -1"
_symmetry_group_IT_number 2
_symmetry_cell_setting 'triclinic'
loop_
_space_group_symop_operation_xyz
x,y,z
-x,-y,-z
loop_
_atom_site_type_symbol
_atom_site_label
_atom_site_fract_x
_atom_site_fract_y
_atom_site_fract_z
Si Si1 0.897801 0.811216 0.969338
Si Si2 0.665472 0.359639 0.087595
Si Si3 0.000224 0.215148 0.469089
Si Si4 0.050145 0.429611 0.220318
Si Si5 0.479414 0.245149 0.240059
Si Si6 0.830353 0.980624 0.146938
Si Si7 0.426227 0.638189 0.453027
Si Si8 0.708848 0.683023 0.319229
O O1 0.819231 0.932290 0.017669
O O2 0.747125 0.776882 0.109745
O O3 0.106006 0.690102 0.032724
O O4 0.920706 0.843848 0.720923
O O5 0.638306 0.273896 0.076388
O O6 0.621286 0.340650 0.332134
O O7 0.500000 0.500000 0.000000
O O8 0.774702 0.260353 0.614296
O O9 0.989765 0.337799 0.367575
O O10 0.133421 0.114362 0.626618
O O11 0.286388 0.348750 0.160155
O O12 0.916728 0.540758 0.345811
O O13 0.000000 0.500000 0.000000
O O14 0.405788 0.253503 0.482646
O O15 0.603416 0.104874 0.219571
O O16 0.000000 0.000000 0.000000
O O17 0.500000 0.500000 0.500000
O O18 0.584990 0.666598 0.282337
#
# Coordination Sequence:
#
# PCOD8017807 Si02
#       8
#     2   2   2   2   2   2   2   2
#     4  11  24  48  73 107 149 193 249 311 368 434
#     4  10  22  39  69 103 142 188 241 307 376 441
#     4  11  26  47  76 110 152 194 253 305 368 453
#     4  12  24  44  75 115 154 185 235 317 392 442
#     4  11  26  47  71 106 145 197 253 301 367 455
#     4  12  28  53  77 102 148 211 257 304 362 438
#     4  10  22  39  66 108 146 187 237 298 378 446
#     4  11  23  44  74 109 152 188 238 316 384 436
#
# _framework density 23.387072
#
# number of rings (size 3 to 8) (size 9 to 14) (size 15 to 20)
#    0.000    1.000    3.750    1.875    3.500    4.500 
#    2.250    1.250    0.000    0.000    0.000    0.000 
#    0.000    0.000    0.000    0.000    0.000    0.000 
#
# Total GULP energy -198337.564509 kJ/mol
# GULP energy per Si atom -12396.097782 kJ/mol
# Density = 2.333384 g / cm^3
# Si number density = 23.387072 Si / 1000 Ang^3
#
#
#
# Elastic Constant Matrix: (Units=GPa)
#
#
# Indices 1 2 3 4 5 6 
#
# 1 108.1089 15.7629 25.5900 3.6514 -22.6749 20.8668
# 2 15.7629 112.4722 33.6461 22.0372 1.2774 22.5147
# 3 25.5900 33.6461 82.6880 4.2052 -7.3830 10.8163
# 4 3.6514 22.0372 4.2052 40.9043 5.4232 2.7348
# 5 -22.6749 1.2774 -7.3830 5.4232 37.5128 -1.3561
# 6 20.8668 22.5147 10.8163 2.7348 -1.3561 42.0638
#
#
#
# Elastic Compliance Matrix: (Units=1/GPa)
#
#
# Indices 1 2 3 4 5 6 
#
# 1 0.012353 0.000330 -0.002557 -0.001589 0.006990 -0.005319
# 2 0.000330 0.012294 -0.004148 -0.005820 -0.000386 -0.005311
# 3 -0.002557 -0.004148 0.014693 0.000792 0.001362 -0.000297
# 4 -0.001589 -0.005820 0.000792 0.028140 -0.004612 0.001722
# 5 0.006990 -0.000386 0.001362 -0.004612 0.031748 -0.002288
# 6 -0.005319 -0.005311 -0.000297 0.001722 -0.002288 0.029146
#
#
# Mechanical properties :
#
#
# Convention : Reuss Voigt Hill
#
# Bulk Modulus (GPa) = 37.60738 50.36301 43.98520
# Shear Modulus (GPa) = 33.33626 39.31418 36.32522
#
# Velocity S-wave (km/s) = 3.77956 4.10447 3.94536
# Velocity P-wave (km/s) = 5.92976 6.63653 6.29308
#
# Compressibility (1/GPa) = 0.02659053
#
# Stress axis : x y z
#
# Youngs Moduli (GPa) = 80.94936 81.34243 68.05924
#
# Poissons Ratio (x) = -0.02686 0.17401
# Poissons Ratio (y) = -0.02673 0.28233
# Poissons Ratio (z) = 0.20697 0.33743
#
# Static dielectric constant tensor:
#      x y z
#    x 4.832850 -0.053330 -0.203610 
#    y -0.053330 4.373310 0.261830 
#    z -0.203610 0.261830 4.209590 
# 
# 
# High freq. dielectric constant tensor:
#      x y z
#    x 1.938360 0.007690 -0.005330 
#    y 0.007690 1.920280 0.016320 
#    z -0.005330 0.016320 1.926400 
# 
# From -- ./inp_files/276326.got.cif
#   From: 2010.06.25/outbox.cif.g09.slc.cpg/sg2_139_cif.got.tgz:276326.got - 2010.06.27 13:26:56.
