data_PCOD8017440
_publ_section_title
;
Structure prediction by ZEFSAII (Michael W. Deem and Ramdas Pophale) SiO2 
 PCOD8017440
Probable space group: P -1
;
_chemical_formula_sum "Si O2"
_cell_formula_units_Z 16
_cell_length_a 12.550435
_cell_length_b 12.143495
_cell_length_c 14.561626
_cell_angle_alpha 68.101151
_cell_angle_beta 152.436328
_cell_angle_gamma 94.340617
_cell_volume 766.655839
_symmetry_space_group_name_H-M "P -1"
_symmetry_group_IT_number 2
_symmetry_cell_setting 'triclinic'
loop_
_space_group_symop_operation_xyz
x,y,z
-x,-y,-z
loop_
_atom_site_type_symbol
_atom_site_label
_atom_site_fract_x
_atom_site_fract_y
_atom_site_fract_z
Si Si1 0.364458 0.054690 0.133287
Si Si2 0.656155 0.180631 0.397405
Si Si3 0.521695 0.740049 0.380692
Si Si4 0.932397 0.590746 0.509936
Si Si5 0.224631 0.131413 0.797283
Si Si6 0.257535 0.758648 0.360802
Si Si7 0.831695 0.478426 0.103335
Si Si8 0.482938 0.565151 0.271061
O O1 0.606473 0.061406 0.363361
O O2 0.480509 0.884813 0.263079
O O3 0.289661 0.135460 0.952421
O O4 0.079067 0.149865 0.948284
O O5 0.725767 0.157910 0.565641
O O6 0.929494 0.146908 0.559878
O O7 0.369683 0.345377 0.114158
O O8 0.420000 0.771490 0.397749
O O9 0.337480 0.697582 0.194913
O O10 0.851390 0.596631 0.671923
O O11 0.794748 0.749038 0.317495
O O12 0.738443 0.564546 0.429027
O O13 0.000000 0.500000 0.500000
O O14 0.175057 0.551993 0.783091
O O15 0.500000 0.000000 0.000000
O O16 0.401633 0.588523 0.544720
O O17 0.716622 0.404174 0.977342
#
# Coordination Sequence:
#
# PCOD8017440 Si02
#       8
#     2   2   2   2   2   2   2   2
#     4  11  23  41  61  88 126 158 199 250 294 356
#     4  10  23  41  61  87 122 159 198 249 298 355
#     4  11  23  38  63  92 120 160 201 245 299 353
#     4  11  21  37  62  89 118 157 200 247 300 353
#     4  11  24  41  60  86 121 160 200 242 299 359
#     4  10  22  41  63  89 121 161 200 241 302 358
#     4  10  22  39  59  91 122 154 204 249 294 354
#     4  10  22  39  60  87 123 155 197 254 294 351
#
# _framework density 20.869859000000002
#
# number of rings (size 3 to 8) (size 9 to 14) (size 15 to 20)
#    0.000    1.500    0.000    6.750    0.000   10.000 
#    0.000    0.000    0.000    0.000    0.000    0.000 
#    0.000    0.000    0.000    0.000    0.000    0.000 
#
# Total GULP energy -198232.829741 kJ/mol
# GULP energy per Si atom -12389.551859 kJ/mol
# Density = 2.082236 g / cm^3
# Si number density = 20.869859 Si / 1000 Ang^3
#
#
#
# Elastic Constant Matrix: (Units=GPa)
#
#
# Indices 1 2 3 4 5 6 
#
# 1 105.0445 31.9529 47.7834 7.1766 3.7812 -5.4131
# 2 31.9529 141.8738 46.2508 16.8800 -10.5259 -11.1652
# 3 47.7834 46.2508 96.1404 8.4218 9.6093 -4.4009
# 4 7.1766 16.8800 8.4218 30.0781 -1.1579 -2.5396
# 5 3.7812 -10.5259 9.6093 -1.1579 39.4836 -2.8368
# 6 -5.4131 -11.1652 -4.4009 -2.5396 -2.8368 30.7459
#
#
#
# Elastic Compliance Matrix: (Units=1/GPa)
#
#
# Indices 1 2 3 4 5 6 
#
# 1 0.012458 -0.000758 -0.005709 -0.000860 0.000043 0.001034
# 2 -0.000758 0.009480 -0.004110 -0.003613 0.003693 0.002763
# 3 -0.005709 -0.004110 0.015712 -0.000964 -0.004454 -0.000739
# 4 -0.000860 -0.003613 -0.000964 0.035888 0.000508 0.001410
# 5 0.000043 0.003693 -0.004454 0.000508 0.027644 0.003304
# 6 0.001034 0.002763 -0.000739 0.001410 0.003304 0.034026
#
#
# Mechanical properties :
#
#
# Convention : Reuss Voigt Hill
#
# Bulk Modulus (GPa) = 60.61925 66.11477 63.36701
# Shear Modulus (GPa) = 30.89086 34.53296 32.71191
#
# Velocity S-wave (km/s) = 3.85147 4.07219 3.96337
# Velocity P-wave (km/s) = 6.99198 7.33884 7.16751
#
# Compressibility (1/GPa) = 0.01649641
#
# Stress axis : x y z
#
# Youngs Moduli (GPa) = 80.27243 105.47973 63.64548
#
# Poissons Ratio (x) = 0.07993 0.36334
# Poissons Ratio (y) = 0.06083 0.26160
# Poissons Ratio (z) = 0.45826 0.43355
#
# Static dielectric constant tensor:
#      x y z
#    x 4.482890 -0.862520 -0.221740 
#    y -0.862520 4.462270 0.352450 
#    z -0.221740 0.352450 3.913200 
# 
# 
# High freq. dielectric constant tensor:
#      x y z
#    x 1.823300 -0.011930 -0.005590 
#    y -0.011930 1.823120 0.000400 
#    z -0.005590 0.000400 1.815330 
# 
# From -- ./inp_files/519654.got.cif
#   From: 2010.06.25/outbox.cif.g09.slc.cpg/sg2_260_cif.got.tgz:519654.got - 2010.06.27 13:26:56.
