data_PCOD8017186
_publ_section_title
;
Structure prediction by ZEFSAII (Michael W. Deem and Ramdas Pophale) SiO2 
 PCOD8017186
Probable space group: P -1
;
_chemical_formula_sum "Si O2"
_cell_formula_units_Z 16
_cell_length_a 11.188580
_cell_length_b 17.385304
_cell_length_c 23.724438
_cell_angle_alpha 22.402980
_cell_angle_beta 30.290898
_cell_angle_gamma 32.141083
_cell_volume 858.494993
_symmetry_space_group_name_H-M "P -1"
_symmetry_group_IT_number 2
_symmetry_cell_setting 'triclinic'
loop_
_space_group_symop_operation_xyz
x,y,z
-x,-y,-z
loop_
_atom_site_type_symbol
_atom_site_label
_atom_site_fract_x
_atom_site_fract_y
_atom_site_fract_z
Si Si1 0.294708 0.622416 0.458235
Si Si2 0.027865 0.817534 0.535458
Si Si3 0.525299 0.629258 0.978776
Si Si4 0.097196 0.601950 0.095073
Si Si5 0.163425 0.231596 0.729518
Si Si6 0.624709 0.039109 0.618832
Si Si7 0.665937 0.136255 0.000643
Si Si8 0.577518 0.898453 0.096666
O O1 0.500000 0.500000 0.500000
O O2 0.095535 0.799218 0.454162
O O3 0.151591 0.465413 0.595580
O O4 0.419681 0.731512 0.285457
O O5 0.252787 0.861293 0.448609
O O6 0.005219 0.595816 0.716949
O O7 0.784888 0.010573 0.514838
O O8 0.723948 0.420374 0.018243
O O9 0.631975 0.803554 0.788722
O O10 0.250973 0.641237 0.060425
O O11 0.506686 0.667609 0.027763
O O12 0.868772 0.797890 0.046272
O O13 0.343647 0.176853 0.638140
O O14 0.898916 0.210887 0.832697
O O15 0.265914 0.065837 0.849726
O O16 0.520586 0.078892 0.045363
O O17 0.500000 0.000000 0.000000
#
# Coordination Sequence:
#
# PCOD8017186 Si02
#       8
#     2   2   2   2   2   2   2   2
#     4  12  18  32  53  77 100 136 181 219 258 304
#     4  10  17  26  47  71 103 124 164 218 250 306
#     4   9  18  29  54  79 105 130 169 229 259 303
#     4  10  18  33  50  81 106 131 172 217 270 302
#     4  10  17  29  55  79 103 129 170 232 255 305
#     4   9  16  25  39  76 104 126 149 207 279 287
#     4  10  18  32  51  80 105 135 177 215 271 304
#     4  12  24  36  51  75 113 146 174 214 266 323
#
# _framework density 18.637267000000001
#
# number of rings (size 3 to 8) (size 9 to 14) (size 15 to 20)
#    0.000    1.750    3.750    3.750    0.000    0.000 
#    0.000    1.250    0.000    0.000    0.000   16.625 
#    0.000    0.000    0.000    0.000    0.000    0.000 
#
# Total GULP energy -198251.528207 kJ/mol
# GULP energy per Si atom -12390.720513 kJ/mol
# Density = 1.859485 g / cm^3
# Si number density = 18.637267 Si / 1000 Ang^3
#
#
#
# Elastic Constant Matrix: (Units=GPa)
#
#
# Indices 1 2 3 4 5 6 
#
# 1 65.8679 26.5251 36.3281 -2.3868 -5.3933 13.8403
# 2 26.5251 125.2490 19.6398 19.1233 1.6812 25.7647
# 3 36.3281 19.6398 84.3916 8.8151 -15.4744 -0.1022
# 4 -2.3868 19.1233 8.8151 22.6425 3.4663 -6.0795
# 5 -5.3933 1.6812 -15.4744 3.4663 30.9000 0.0225
# 6 13.8403 25.7647 -0.1022 -6.0795 0.0225 24.8976
#
#
#
# Elastic Compliance Matrix: (Units=1/GPa)
#
#
# Indices 1 2 3 4 5 6 
#
# 1 0.024253 -0.002519 -0.010904 0.006720 -0.001837 -0.009277
# 2 -0.002519 0.015187 -0.000497 -0.018002 0.000518 -0.018713
# 3 -0.010904 -0.000497 0.019105 -0.008242 0.008613 0.004634
# 4 0.006720 -0.018002 -0.008242 0.073680 -0.010264 0.032860
# 5 -0.001837 0.000518 0.008613 -0.010264 0.037480 -0.002020
# 6 -0.009277 -0.018713 0.004634 0.032860 -0.002020 0.072731
#
#
# Mechanical properties :
#
#
# Convention : Reuss Voigt Hill
#
# Bulk Modulus (GPa) = 32.56941 48.94382 40.75662
# Shear Modulus (GPa) = 17.82468 28.55571 23.19019
#
# Velocity S-wave (km/s) = 3.09593 3.91856 3.53128
# Velocity P-wave (km/s) = 5.50391 6.84045 6.20825
#
# Compressibility (1/GPa) = 0.03070366
#
# Stress axis : x y z
#
# Youngs Moduli (GPa) = 41.23272 65.84689 52.34320
#
# Poissons Ratio (x) = 0.16590 0.57074
# Poissons Ratio (y) = 0.10388 0.02601
# Poissons Ratio (z) = 0.44959 0.03272
#
# Static dielectric constant tensor:
#      x y z
#    x 3.023530 0.360630 -0.442770 
#    y 0.360630 3.995630 0.345630 
#    z -0.442770 0.345630 3.399650 
# 
# 
# High freq. dielectric constant tensor:
#      x y z
#    x 1.670010 0.038030 -0.061590 
#    y 0.038030 1.743990 0.028370 
#    z -0.061590 0.028370 1.708160 
# 
# From -- ./inp_files/284675.got.cif
#   From: 2010.06.25/outbox.cif.g09.slc.cpg/sg2_143_cif.got.tgz:284675.got - 2010.06.27 13:26:56.
