data_PCOD8017299
_publ_section_title
;
Structure prediction by ZEFSAII (Michael W. Deem and Ramdas Pophale) SiO2 
 PCOD8017299
Probable space group: P -1
;
_chemical_formula_sum "Si O2"
_cell_formula_units_Z 16
_cell_length_a 13.026609
_cell_length_b 9.142622
_cell_length_c 19.696958
_cell_angle_alpha 43.930511
_cell_angle_beta 153.028618
_cell_angle_gamma 126.851547
_cell_volume 731.515914
_symmetry_space_group_name_H-M "P -1"
_symmetry_group_IT_number 2
_symmetry_cell_setting 'triclinic'
loop_
_space_group_symop_operation_xyz
x,y,z
-x,-y,-z
loop_
_atom_site_type_symbol
_atom_site_label
_atom_site_fract_x
_atom_site_fract_y
_atom_site_fract_z
Si Si1 0.524351 0.640223 0.811911
Si Si2 0.654017 0.148929 0.081921
Si Si3 0.605942 0.304311 0.715960
Si Si4 0.560387 0.871395 0.897279
Si Si5 0.947624 0.693714 0.954932
Si Si6 0.488532 0.758644 0.469761
Si Si7 0.842385 0.078549 0.574476
Si Si8 0.966221 0.124435 0.773209
O O1 0.535176 0.730667 0.863653
O O2 0.698240 0.725896 0.832045
O O3 0.268504 0.738606 0.604161
O O4 0.582769 0.385343 0.930821
O O5 0.615879 0.159523 0.136790
O O6 0.921930 0.059867 0.264303
O O7 0.500000 0.000000 0.000000
O O8 0.523976 0.547707 0.608741
O O9 0.481584 0.280453 0.579359
O O10 0.526691 0.124204 0.777781
O O11 0.880963 0.295197 0.883281
O O12 0.809776 0.780781 0.103116
O O13 0.005404 0.869844 0.876324
O O14 0.000000 0.500000 0.000000
O O15 0.224142 0.842424 0.292483
O O16 0.662074 0.918193 0.541493
O O17 0.890194 0.212691 0.624797
#
# Coordination Sequence:
#
# PCOD8017299 Si02
#       8
#     2   2   2   2   2   2   2   2
#     4  12  26  46  74 102 138 185 237 286 347 409
#     4  12  28  51  71  97 139 185 246 291 340 407
#     4  10  22  38  66 101 140 181 215 281 351 415
#     4  11  24  49  68 100 138 189 230 281 349 410
#     4  11  22  38  67 102 140 184 223 274 357 417
#     4  11  21  39  64 107 140 167 227 285 350 419
#     4  12  25  45  71 105 136 182 233 290 341 414
#     4  11  22  39  69  98 143 173 217 284 352 420
#
# _framework density 21.872388999999998
#
# number of rings (size 3 to 8) (size 9 to 14) (size 15 to 20)
#    0.000    0.750    3.750    3.750    3.500    4.000 
#    2.250    0.000    0.000    0.000    0.000    0.000 
#    0.000    0.000    0.000    0.000    0.000    0.000 
#
# Total GULP energy -198216.248506 kJ/mol
# GULP energy per Si atom -12388.515532 kJ/mol
# Density = 2.182261 g / cm^3
# Si number density = 21.872389 Si / 1000 Ang^3
#
#
#
# Elastic Constant Matrix: (Units=GPa)
#
#
# Indices 1 2 3 4 5 6 
#
# 1 93.9630 13.6170 31.3597 7.1911 2.0249 -8.2394
# 2 13.6170 69.0094 49.4452 -8.9268 -10.4538 0.2606
# 3 31.3597 49.4452 149.0994 0.1751 -2.6370 -0.1524
# 4 7.1911 -8.9268 0.1751 32.0125 -5.9744 -3.8498
# 5 2.0249 -10.4538 -2.6370 -5.9744 38.8092 6.1682
# 6 -8.2394 0.2606 -0.1524 -3.8498 6.1682 27.9828
#
#
#
# Elastic Compliance Matrix: (Units=1/GPa)
#
#
# Indices 1 2 3 4 5 6 
#
# 1 0.012184 -0.001735 -0.002021 -0.003201 -0.002315 0.003663
# 2 -0.001735 0.021661 -0.006708 0.007596 0.006831 -0.001210
# 3 -0.002021 -0.006708 0.009336 -0.001758 -0.001267 -0.000444
# 4 -0.003201 0.007596 -0.001758 0.035710 0.007226 0.002297
# 5 -0.002315 0.006831 -0.001267 0.007226 0.029758 -0.006318
# 6 0.003663 -0.001210 -0.000444 0.002297 -0.006318 0.038532
#
#
# Mechanical properties :
#
#
# Convention : Reuss Voigt Hill
#
# Bulk Modulus (GPa) = 44.93573 55.65728 50.29650
# Shear Modulus (GPa) = 28.48564 34.27088 31.37826
#
# Velocity S-wave (km/s) = 3.61273 3.96265 3.79173
# Velocity P-wave (km/s) = 6.16373 6.81457 6.49730
#
# Compressibility (1/GPa) = 0.02225401
#
# Stress axis : x y z
#
# Youngs Moduli (GPa) = 82.07186 46.16525 107.11620
#
# Poissons Ratio (x) = 0.08010 0.21646
# Poissons Ratio (y) = 0.14240 0.71852
# Poissons Ratio (z) = 0.16585 0.30967
#
# Static dielectric constant tensor:
#      x y z
#    x 3.844320 0.021140 -0.095390 
#    y 0.021140 4.015460 -0.110880 
#    z -0.095390 -0.110880 4.318130 
# 
# 
# High freq. dielectric constant tensor:
#      x y z
#    x 1.847520 -0.008460 -0.008760 
#    y -0.008460 1.860490 -0.002000 
#    z -0.008760 -0.002000 1.878500 
# 
# From -- ./inp_files/343466.got.cif
#   From: 2010.06.25/outbox.cif.g09.slc.cpg/sg2_172_cif.got.tgz:343466.got - 2010.06.27 13:26:56.
