data_PCOD8017456
_publ_section_title
;
Structure prediction by ZEFSAII (Michael W. Deem and Ramdas Pophale) SiO2 
 PCOD8017456
Probable space group: P -1
;
_chemical_formula_sum "Si O2"
_cell_formula_units_Z 14
_cell_length_a 9.562502
_cell_length_b 9.643206
_cell_length_c 17.257748
_cell_angle_alpha 53.956091
_cell_angle_beta 69.510221
_cell_angle_gamma 30.550893
_cell_volume 604.665210
_symmetry_space_group_name_H-M "P -1"
_symmetry_group_IT_number 2
_symmetry_cell_setting 'triclinic'
loop_
_space_group_symop_operation_xyz
x,y,z
-x,-y,-z
loop_
_atom_site_type_symbol
_atom_site_label
_atom_site_fract_x
_atom_site_fract_y
_atom_site_fract_z
Si Si1 0.443066 0.991009 0.828589
Si Si2 0.500550 0.163985 0.892858
Si Si3 0.987201 0.839454 0.212078
Si Si4 0.650249 0.096717 0.344031
Si Si5 0.156987 0.644300 0.933245
Si Si6 0.520998 0.076827 0.626819
Si Si7 0.037417 0.150057 0.478715
O O1 0.361773 0.241570 0.812110
O O2 0.140925 0.186732 0.806939
O O3 0.593876 0.900839 0.749118
O O4 0.676935 0.636303 0.943645
O O5 0.309024 0.495808 0.866870
O O6 0.829245 0.900605 0.899317
O O7 0.500000 0.000000 0.000000
O O8 0.341328 0.492924 0.249464
O O9 0.902794 0.896331 0.299409
O O10 0.854144 0.149356 0.102933
O O11 0.607992 0.931689 0.407878
O O12 0.742171 0.075927 0.416622
O O13 0.281790 0.463668 0.560006
O O14 0.824856 0.858452 0.608918
O O15 0.000000 0.000000 0.500000
#
# Coordination Sequence:
#
# PCOD8017456 Si02
#       7
#     2   2   2   2   2   2   2
#     4  10  23  42  65  96 130 169 219 256 306 387
#     4  10  22  39  60  87 125 172 213 257 311 366
#     4  11  24  41  66  97 129 172 212 262 314 365
#     4  11  24  45  66  94 130 168 214 258 317 387
#     4  11  23  41  64  95 133 172 211 263 313 364
#     4  11  24  43  69  95 126 172 209 257 322 384
#     4  12  26  45  68  98 126 161 211 271 325 377
#
# _framework density 23.153309
#
# number of rings (size 3 to 8) (size 9 to 14) (size 15 to 20)
#    0.000    1.143    0.000    6.857    0.000   13.714 
#    0.000    7.143    0.000    0.000    0.000    0.000 
#    0.000    0.000    0.000    0.000    0.000    0.000 
#
# Total GULP energy -173638.486174 kJ/mol
# GULP energy per Si atom -12402.749012 kJ/mol
# Density = 2.310061 g / cm^3
# Si number density = 23.153309 Si / 1000 Ang^3
#
#
#
# Elastic Constant Matrix: (Units=GPa)
#
#
# Indices 1 2 3 4 5 6 
#
# 1 121.7548 16.9781 50.7030 6.9370 22.3779 18.6374
# 2 16.9781 96.3194 19.4215 -6.5967 17.6180 3.5539
# 3 50.7030 19.4215 74.4392 1.6766 13.9385 9.5933
# 4 6.9370 -6.5967 1.6766 31.3828 8.4637 -8.7557
# 5 22.3779 17.6180 13.9385 8.4637 36.0888 1.0786
# 6 18.6374 3.5539 9.5933 -8.7557 1.0786 37.7177
#
#
#
# Elastic Compliance Matrix: (Units=1/GPa)
#
#
# Indices 1 2 3 4 5 6 
#
# 1 0.013006 -0.000001 -0.007310 -0.002696 -0.004457 -0.005065
# 2 -0.000001 0.012253 -0.002219 0.004549 -0.006210 0.000644
# 3 -0.007310 -0.002219 0.019479 0.000361 -0.001962 -0.000993
# 4 -0.002696 0.004549 0.000361 0.038960 -0.010129 0.010145
# 5 -0.004457 -0.006210 -0.001962 -0.010129 0.036642 -0.000112
# 6 -0.005065 0.000644 -0.000993 0.010145 -0.000112 0.031566
#
#
# Mechanical properties :
#
#
# Convention : Reuss Voigt Hill
#
# Bulk Modulus (GPa) = 38.94350 51.85761 45.40056
# Shear Modulus (GPa) = 27.85119 34.73190 31.29155
#
# Velocity S-wave (km/s) = 3.47205 3.87729 3.68025
# Velocity P-wave (km/s) = 5.73846 6.51849 6.14087
#
# Compressibility (1/GPa) = 0.02567823
#
# Stress axis : x y z
#
# Youngs Moduli (GPa) = 76.88871 81.60965 51.33653
#
# Poissons Ratio (x) = 0.00008 0.37529
# Poissons Ratio (y) = 0.00007 0.11391
# Poissons Ratio (z) = 0.56208 0.18108
#
# Static dielectric constant tensor:
#      x y z
#    x 4.489680 0.434280 0.149300 
#    y 0.434280 4.704340 0.420150 
#    z 0.149300 0.420150 4.112360 
# 
# 
# High freq. dielectric constant tensor:
#      x y z
#    x 1.926020 0.005180 -0.002600 
#    y 0.005180 1.928090 0.006010 
#    z -0.002600 0.006010 1.901940 
# 
# From -- ./inp_files/216878.got.cif
#   From: 2010.06.25/outbox.cif.g09.slc.cpg/sg2_109_cif.got.tgz:216878.got - 2010.06.27 13:26:56.
