data_PCOD8017088
_publ_section_title
;
Structure prediction by ZEFSAII (Michael W. Deem and Ramdas Pophale) SiO2 
 PCOD8017088
Probable space group: P -1
;
_chemical_formula_sum "Si O2"
_cell_formula_units_Z 16
_cell_length_a 16.720740
_cell_length_b 16.484641
_cell_length_c 16.487502
_cell_angle_alpha 34.069648
_cell_angle_beta 18.415944
_cell_angle_gamma 33.836722
_cell_volume 778.199824
_symmetry_space_group_name_H-M "P -1"
_symmetry_group_IT_number 2
_symmetry_cell_setting 'triclinic'
loop_
_space_group_symop_operation_xyz
x,y,z
-x,-y,-z
loop_
_atom_site_type_symbol
_atom_site_label
_atom_site_fract_x
_atom_site_fract_y
_atom_site_fract_z
Si Si1 0.813316 0.812644 0.814782
Si Si2 0.668871 0.147342 0.636748
Si Si3 0.956553 0.559577 0.356458
Si Si4 0.072565 0.495827 0.127270
Si Si5 0.264943 0.900635 0.864278
Si Si6 0.527973 0.831645 0.509773
Si Si7 0.250868 0.610959 0.184486
Si Si8 0.466081 0.677544 0.543403
O O1 0.875924 0.675487 0.806369
O O2 0.072629 0.803407 0.625922
O O3 0.738713 0.967610 0.707710
O O4 0.568275 0.799813 0.115886
O O5 0.570295 0.228204 0.581149
O O6 0.152159 0.490198 0.152044
O O7 0.034590 0.606456 0.329830
O O8 0.802743 0.713050 0.336788
O O9 0.798401 0.436867 0.636460
O O10 0.764783 0.576989 0.343627
O O11 0.262233 0.573839 0.829383
O O12 0.391413 0.796660 0.752630
O O13 0.444628 0.999265 0.648803
O O14 0.249623 0.786028 0.046044
O O15 0.000000 0.000000 0.000000
O O16 0.381083 0.802066 0.594097
O O17 0.500000 0.500000 0.000000
#
# Coordination Sequence:
#
# PCOD8017088 Si02
#       8
#     2   2   2   2   2   2   2   2
#     4  10  22  43  66  93 130 165 200 252 312 370
#     4  10  22  43  66  93 130 165 200 252 312 370
#     4  10  22  38  58  86 123 160 203 258 311 356
#     4  11  24  41  65  94 125 164 207 258 309 366
#     4  11  21  38  61  84 118 164 209 254 303 367
#     4  10  22  38  58  86 123 160 203 258 311 356
#     4  11  21  38  61  84 118 164 209 254 303 367
#     4  11  24  41  65  94 125 164 207 258 309 366
#
# _framework density 20.560271
#
# number of rings (size 3 to 8) (size 9 to 14) (size 15 to 20)
#    0.000    1.500    2.500    2.250    3.500    3.000 
#    4.500    1.250    0.000    0.000    0.000    0.000 
#    0.000    0.000    0.000    0.000    0.000    0.000 
#
# Total GULP energy -198218.401777 kJ/mol
# GULP energy per Si atom -12388.650111 kJ/mol
# Density = 2.051348 g / cm^3
# Si number density = 20.560271 Si / 1000 Ang^3
#
#
#
# Elastic Constant Matrix: (Units=GPa)
#
#
# Indices 1 2 3 4 5 6 
#
# 1 65.5671 41.3711 10.8814 -5.0658 14.0436 6.0856
# 2 41.3711 113.7991 30.4562 -7.6230 10.2320 11.1861
# 3 10.8814 30.4562 91.2516 3.1168 3.9775 -4.8666
# 4 -5.0658 -7.6230 3.1168 30.7041 -6.4041 1.8676
# 5 14.0436 10.2320 3.9775 -6.4041 31.4940 -3.3364
# 6 6.0856 11.1861 -4.8666 1.8676 -3.3364 31.8364
#
#
#
# Elastic Compliance Matrix: (Units=1/GPa)
#
#
# Indices 1 2 3 4 5 6 
#
# 1 0.021448 -0.006814 -0.000106 0.000444 -0.007515 -0.002535
# 2 -0.006814 0.012892 -0.003768 0.002583 -0.000574 -0.004015
# 3 -0.000106 -0.003768 0.012514 -0.002525 -0.000467 0.003356
# 4 0.000444 0.002583 -0.002525 0.034982 0.006099 -0.002792
# 5 -0.007515 -0.000574 -0.000467 0.006099 0.037129 0.005100
# 6 -0.002535 -0.004015 0.003356 -0.002792 0.005100 0.034517
#
#
# Mechanical properties :
#
#
# Convention : Reuss Voigt Hill
#
# Bulk Modulus (GPa) = 39.24841 48.44833 43.84837
# Shear Modulus (GPa) = 27.26991 31.33416 29.30204
#
# Velocity S-wave (km/s) = 3.64585 3.90810 3.77925
# Velocity P-wave (km/s) = 6.07073 6.63171 6.35741
#
# Compressibility (1/GPa) = 0.02547874
#
# Stress axis : x y z
#
# Youngs Moduli (GPa) = 46.62435 77.56494 79.90742
#
# Poissons Ratio (x) = 0.52855 0.00848
# Poissons Ratio (y) = 0.31771 0.30107
# Poissons Ratio (z) = 0.00495 0.29225
#
# Static dielectric constant tensor:
#      x y z
#    x 3.710840 0.079320 -0.057750 
#    y 0.079320 3.985760 -0.110030 
#    z -0.057750 -0.110030 4.415330 
# 
# 
# High freq. dielectric constant tensor:
#      x y z
#    x 1.789070 -0.002540 0.004470 
#    y -0.002540 1.810210 -0.005810 
#    z 0.004470 -0.005810 1.816500 
# 
# From -- ./inp_files/50891.got.cif
#   From: 2010.06.25/outbox.cif.g09.slc.cpg/sg2_26_cif.got.tgz:50891.got - 2010.06.27 13:26:56.
