data_PCOD8017671
_publ_section_title
;
Structure prediction by ZEFSAII (Michael W. Deem and Ramdas Pophale) SiO2 
 PCOD8017671
Probable space group: P -1
;
_chemical_formula_sum "Si O2"
_cell_formula_units_Z 14
_cell_length_a 5.018409
_cell_length_b 10.894516
_cell_length_c 11.543651
_cell_angle_alpha 66.406384
_cell_angle_beta 83.211054
_cell_angle_gamma 75.590391
_cell_volume 560.052140
_symmetry_space_group_name_H-M "P -1"
_symmetry_group_IT_number 2
_symmetry_cell_setting 'triclinic'
loop_
_space_group_symop_operation_xyz
x,y,z
-x,-y,-z
loop_
_atom_site_type_symbol
_atom_site_label
_atom_site_fract_x
_atom_site_fract_y
_atom_site_fract_z
Si Si1 0.054659 0.313810 0.390672
Si Si2 0.426077 0.712555 0.003100
Si Si3 0.811810 0.544124 0.882131
Si Si4 0.438425 0.154999 0.837169
Si Si5 0.818407 0.960429 0.621250
Si Si6 0.518721 0.245580 0.557994
Si Si7 0.016838 0.978545 0.852683
O O1 0.015820 0.432915 0.250351
O O2 0.234596 0.186172 0.355907
O O3 0.243766 0.336503 0.480866
O O4 0.769270 0.297496 0.466134
O O5 0.592928 0.682273 0.884354
O O6 0.156314 0.833772 0.956840
O O7 0.342229 0.574151 0.101051
O O8 0.621418 0.754343 0.077366
O O9 0.000000 0.500000 0.000000
O O10 0.509668 0.257576 0.693694
O O11 0.177228 0.096821 0.832899
O O12 0.701866 0.027623 0.895982
O O13 0.541542 0.080655 0.599484
O O14 0.000000 0.000000 0.500000
O O15 0.007525 0.954507 0.726614
#
# Coordination Sequence:
#
# PCOD8017671 Si02
#       7
#     2   2   2   2   2   2   2
#     4  11  23  41  67  93 137 174 227 273 331 395
#     4  11  27  45  69  98 135 182 230 279 332 399
#     4  11  28  46  70  96 133 185 234 280 325 394
#     4  11  24  45  70 104 140 171 220 279 346 410
#     4   9  19  34  62  96 135 168 209 270 333 395
#     4  10  22  39  64 100 132 175 215 275 341 401
#     4  11  24  40  70 105 136 176 219 277 348 404
#
# _framework density 24.997674
#
# number of rings (size 3 to 8) (size 9 to 14) (size 15 to 20)
#    0.000    1.429    0.000    4.714   16.000    0.000 
#    0.000    1.429    0.000    0.000    0.000    0.000 
#    0.000    0.000    0.000    0.000    0.000    0.000 
#
# Total GULP energy -173500.143334 kJ/mol
# GULP energy per Si atom -12392.867381 kJ/mol
# Density = 2.494078 g / cm^3
# Si number density = 24.997674 Si / 1000 Ang^3
#
#
#
# Elastic Constant Matrix: (Units=GPa)
#
#
# Indices 1 2 3 4 5 6 
#
# 1 97.1252 12.9583 -3.2960 -1.2936 8.8183 1.6169
# 2 12.9583 57.4616 38.1245 11.8493 3.3947 15.0890
# 3 -3.2960 38.1245 82.1188 2.6904 13.2545 -6.7895
# 4 -1.2936 11.8493 2.6904 28.8454 2.7862 7.5184
# 5 8.8183 3.3947 13.2545 2.7862 41.5155 -2.5361
# 6 1.6169 15.0890 -6.7895 7.5184 -2.5361 13.6461
#
#
#
# Elastic Compliance Matrix: (Units=1/GPa)
#
#
# Indices 1 2 3 4 5 6 
#
# 1 0.012073 -0.010778 0.007013 0.001333 -0.003239 0.012640
# 2 -0.010778 0.079468 -0.046968 -0.000811 0.004199 -0.108735
# 3 0.007013 -0.046968 0.041290 -0.002341 -0.006290 0.071767
# 4 0.001333 -0.000811 -0.002341 0.041962 -0.003767 -0.024245
# 5 -0.003239 0.004199 -0.006290 -0.003767 0.026671 -0.000356
# 6 0.012640 -0.108735 0.071767 -0.024245 -0.000356 0.241015
#
#
# Mechanical properties :
#
#
# Convention : Reuss Voigt Hill
#
# Bulk Modulus (GPa) = 31.88277 36.91994 34.40135
# Shear Modulus (GPa) = 9.01874 29.39598 19.20736
#
# Velocity S-wave (km/s) = 1.90149 3.43293 2.77495
# Velocity P-wave (km/s) = 4.19558 5.52402 4.90498
#
# Compressibility (1/GPa) = 0.03136491
#
# Stress axis : x y z
#
# Youngs Moduli (GPa) = 82.82649 12.58372 24.21904
#
# Poissons Ratio (x) = 0.13563 -0.16984
# Poissons Ratio (y) = 0.89272 1.13751
# Poissons Ratio (z) = -0.58084 0.59103
#
# Static dielectric constant tensor:
#      x y z
#    x 4.077750 0.273660 0.151680 
#    y 0.273660 2.899260 -0.116320 
#    z 0.151680 -0.116320 4.793170 
# 
# 
# High freq. dielectric constant tensor:
#      x y z
#    x 1.989220 0.005340 0.002130 
#    y 0.005340 1.973600 0.009080 
#    z 0.002130 0.009080 2.019140 
# 
# From -- ./inp_files/361906.got.cif
#   From: 2010.06.25/outbox.cif.g09.slc.cpg/sg2_181_cif.got.tgz:361906.got - 2010.06.27 13:26:56.
