data_PCOD8017905
_publ_section_title
;
Structure prediction by ZEFSAII (Michael W. Deem and Ramdas Pophale) SiO2 
 PCOD8017905
Probable space group: P -1
;
_chemical_formula_sum "Si O2"
_cell_formula_units_Z 16
_cell_length_a 9.379390
_cell_length_b 9.505118
_cell_length_c 14.247789
_cell_angle_alpha 125.611503
_cell_angle_beta 73.383793
_cell_angle_gamma 68.370135
_cell_volume 719.155259
_symmetry_space_group_name_H-M "P -1"
_symmetry_group_IT_number 2
_symmetry_cell_setting 'triclinic'
loop_
_space_group_symop_operation_xyz
x,y,z
-x,-y,-z
loop_
_atom_site_type_symbol
_atom_site_label
_atom_site_fract_x
_atom_site_fract_y
_atom_site_fract_z
Si Si1 0.459167 0.637700 0.706460
Si Si2 0.412214 0.361164 0.736056
Si Si3 0.203281 0.660487 0.611061
Si Si4 0.330497 0.096901 0.991951
Si Si5 0.200846 0.881986 0.205140
Si Si6 0.352819 0.406371 0.987362
Si Si7 0.862485 0.939757 0.517457
Si Si8 0.095311 0.474387 0.699293
O O1 0.400058 0.566393 0.778523
O O2 0.330263 0.693861 0.661234
O O3 0.698407 0.433525 0.548844
O O4 0.405738 0.873959 0.833855
O O5 0.360304 0.397200 0.869490
O O6 0.251613 0.365686 0.714917
O O7 0.644196 0.117748 0.574518
O O8 0.202406 0.471333 0.585742
O O9 0.978157 0.923801 0.755772
O O10 0.284566 0.281207 0.995067
O O11 0.109344 0.248268 0.139713
O O12 0.500000 0.000000 0.000000
O O13 0.426544 0.727513 0.058371
O O14 0.184583 0.026568 0.350738
O O15 0.190658 0.685223 0.158025
O O16 0.968092 0.675025 0.364590
O O17 0.000000 0.000000 0.500000
#
# Coordination Sequence:
#
# PCOD8017905 Si02
#       8
#     2   2   2   2   2   2   2   2
#     4  10  25  44  69  98 136 181 230 275 345 400
#     4  10  24  45  72  98 138 183 226 286 332 413
#     4  10  23  45  69  99 134 179 228 285 333 408
#     4  12  28  43  67 102 140 178 225 289 336 413
#     4  10  22  39  68  91 131 179 220 276 338 404
#     4  10  24  43  66 101 134 176 226 277 345 402
#     4  11  23  41  67  99 135 179 228 281 339 403
#     4  11  26  43  70 103 136 182 231 279 347 400
#
# _framework density 22.248324
#
# number of rings (size 3 to 8) (size 9 to 14) (size 15 to 20)
#    0.000    1.500    0.000    2.625   15.750    2.000 
#    4.500    0.000    0.000    0.000    0.000    0.000 
#    0.000    0.000    0.000    0.000    0.000    0.000 
#
# Total GULP energy -198351.957898 kJ/mol
# GULP energy per Si atom -12396.997369 kJ/mol
# Density = 2.219769 g / cm^3
# Si number density = 22.248324 Si / 1000 Ang^3
#
#
#
# Elastic Constant Matrix: (Units=GPa)
#
#
# Indices 1 2 3 4 5 6 
#
# 1 110.4958 38.8055 48.9638 8.4550 2.8467 -1.4643
# 2 38.8055 97.1161 39.5471 -0.9278 11.8982 2.1526
# 3 48.9638 39.5471 115.9515 14.9271 14.4695 -3.1725
# 4 8.4550 -0.9278 14.9271 35.7076 3.2609 -5.4026
# 5 2.8467 11.8982 14.4695 3.2609 35.7763 16.8834
# 6 -1.4643 2.1526 -3.1725 -5.4026 16.8834 37.2141
#
#
#
# Elastic Compliance Matrix: (Units=1/GPa)
#
#
# Indices 1 2 3 4 5 6 
#
# 1 0.012120 -0.003488 -0.004052 -0.001647 0.002469 -0.001026
# 2 -0.003488 0.013357 -0.002973 0.002888 -0.003657 0.000915
# 3 -0.004052 -0.002973 0.012456 -0.003491 -0.004678 0.002690
# 4 -0.001647 0.002888 -0.003491 0.031390 -0.005318 0.006440
# 5 0.002469 -0.003657 -0.004678 -0.005318 0.040406 -0.019193
# 6 -0.001026 0.000915 0.002690 0.006440 -0.019193 0.036650
#
#
# Mechanical properties :
#
#
# Convention : Reuss Voigt Hill
#
# Bulk Modulus (GPa) = 59.15117 64.24403 61.69760
# Shear Modulus (GPa) = 28.89505 34.82276 31.85890
#
# Velocity S-wave (km/s) = 3.60773 3.96053 3.78824
# Velocity P-wave (km/s) = 6.63316 7.06067 6.85025
#
# Compressibility (1/GPa) = 0.01690584
#
# Stress axis : x y z
#
# Youngs Moduli (GPa) = 82.51076 74.86859 80.28116
#
# Poissons Ratio (x) = 0.26115 0.32533
# Poissons Ratio (y) = 0.28780 0.23868
# Poissons Ratio (z) = 0.33436 0.22258
#
# Static dielectric constant tensor:
#      x y z
#    x 4.043090 -0.048250 -0.145330 
#    y -0.048250 3.963560 0.068950 
#    z -0.145330 0.068950 4.143810 
# 
# 
# High freq. dielectric constant tensor:
#      x y z
#    x 1.877300 -0.003480 -0.005850 
#    y -0.003480 1.878040 0.004200 
#    z -0.005850 0.004200 1.877880 
# 
# From -- ./inp_files/299152.got.cif
#   From: 2010.06.25/outbox.cif.g09.slc.cpg/sg2_150_cif.got.tgz:299152.got - 2010.06.27 13:26:56.
