data_PCOD8017238
_publ_section_title
;
Structure prediction by ZEFSAII (Michael W. Deem and Ramdas Pophale) SiO2 
 PCOD8017238
Probable space group: P -1
;
_chemical_formula_sum "Si O2"
_cell_formula_units_Z 14
_cell_length_a 8.375359
_cell_length_b 6.827728
_cell_length_c 19.335681
_cell_angle_alpha 125.089429
_cell_angle_beta 109.427158
_cell_angle_gamma 108.244237
_cell_volume 645.853124
_symmetry_space_group_name_H-M "P -1"
_symmetry_group_IT_number 2
_symmetry_cell_setting 'triclinic'
loop_
_space_group_symop_operation_xyz
x,y,z
-x,-y,-z
loop_
_atom_site_type_symbol
_atom_site_label
_atom_site_fract_x
_atom_site_fract_y
_atom_site_fract_z
Si Si1 0.033252 0.701236 0.609775
Si Si2 0.347015 0.990004 0.920964
Si Si3 0.735459 0.851859 0.607693
Si Si4 0.244528 0.129211 0.229006
Si Si5 0.504571 0.072239 0.809978
Si Si6 0.131849 0.235278 0.003044
Si Si7 0.871835 0.449989 0.686506
O O1 0.000000 0.500000 0.500000
O O2 0.928501 0.860035 0.606238
O O3 0.912593 0.489635 0.618227
O O4 0.295470 0.972923 0.716083
O O5 0.106097 0.644163 0.801348
O O6 0.484647 0.126943 0.897860
O O7 0.500000 0.000000 0.000000
O O8 0.309146 0.217817 0.991592
O O9 0.500000 0.500000 0.500000
O O10 0.802275 0.983169 0.721558
O O11 0.720722 0.080241 0.606956
O O12 0.263102 0.435113 0.286230
O O13 0.466127 0.189893 0.247904
O O14 0.040539 0.840999 0.095879
O O15 0.725577 0.404321 0.877981
O O16 0.000000 0.000000 0.000000
#
# Coordination Sequence:
#
# PCOD8017238 Si02
#       7
#     2   2   2   2   2   2   2
#     4  10  23  45  64  98 130 170 219 272 329 381
#     4  10  22  38  63  94 132 172 213 267 333 375
#     4  11  24  44  68  96 129 173 217 271 328 389
#     4  10  23  41  64  93 134 169 218 264 323 381
#     4  11  23  41  66  97 134 171 219 271 322 387
#     4  11  24  40  62 100 132 177 220 261 324 395
#     4   9  23  42  65  96 129 168 222 264 322 397
#
# _framework density 21.676753999999999
#
# number of rings (size 3 to 8) (size 9 to 14) (size 15 to 20)
#    0.000    1.714    0.000    3.429    8.000    2.857 
#    2.571    0.000    0.000    0.000    0.000    0.000 
#    0.000    0.000    0.000    0.000    0.000    0.000 
#
# Total GULP energy -173605.704656 kJ/mol
# GULP energy per Si atom -12400.407475 kJ/mol
# Density = 2.162742 g / cm^3
# Si number density = 21.676754 Si / 1000 Ang^3
#
#
#
# Elastic Constant Matrix: (Units=GPa)
#
#
# Indices 1 2 3 4 5 6 
#
# 1 165.4355 45.7526 43.5154 4.3711 -14.0239 -18.9191
# 2 45.7526 116.3752 50.7225 17.9034 -3.6492 -3.7262
# 3 43.5154 50.7225 113.0923 -2.8261 -3.8462 3.1659
# 4 4.3711 17.9034 -2.8261 39.9911 3.7371 -1.5740
# 5 -14.0239 -3.6492 -3.8462 3.7371 38.7966 -4.3190
# 6 -18.9191 -3.7262 3.1659 -1.5740 -4.3190 31.7191
#
#
#
# Elastic Compliance Matrix: (Units=1/GPa)
#
#
# Indices 1 2 3 4 5 6 
#
# 1 0.008029 -0.001837 -0.002313 -0.000304 0.003110 0.005212
# 2 -0.001837 0.012422 -0.005005 -0.005747 0.000636 0.000664
# 3 -0.002313 -0.005005 0.012121 0.003299 -0.000770 -0.003119
# 4 -0.000304 -0.005747 0.003299 0.028122 -0.003055 -0.000206
# 5 0.003110 0.000636 -0.000770 -0.003055 0.027805 0.005641
# 6 0.005212 0.000664 -0.003119 -0.000206 0.005641 0.035783
#
#
# Mechanical properties :
#
#
# Convention : Reuss Voigt Hill
#
# Bulk Modulus (GPa) = 70.12150 74.98710 72.55430
# Shear Modulus (GPa) = 33.93366 39.09551 36.51459
#
# Velocity S-wave (km/s) = 3.96086 4.25145 4.10872
# Velocity P-wave (km/s) = 7.30320 7.66604 7.48682
#
# Compressibility (1/GPa) = 0.01426096
#
# Stress axis : x y z
#
# Youngs Moduli (GPa) = 124.55033 80.50212 82.50352
#
# Poissons Ratio (x) = 0.14790 0.19084
# Poissons Ratio (y) = 0.22882 0.41293
# Poissons Ratio (z) = 0.28810 0.40292
#
# Static dielectric constant tensor:
#      x y z
#    x 4.270610 -0.265350 -0.042730 
#    y -0.265350 3.716960 -0.169070 
#    z -0.042730 -0.169070 3.876840 
# 
# 
# High freq. dielectric constant tensor:
#      x y z
#    x 1.868490 -0.013010 -0.005160 
#    y -0.013010 1.832450 -0.016200 
#    z -0.005160 -0.016200 1.856420 
# 
# From -- ./inp_files/51575.got.cif
#   From: 2010.06.25/outbox.cif.g09.slc.cpg/sg2_26_cif.got.tgz:51575.got - 2010.06.27 13:26:56.
