data_PCOD8017236
_publ_section_title
;
Structure prediction by ZEFSAII (Michael W. Deem and Ramdas Pophale) SiO2 
 PCOD8017236
Probable space group: P -1
;
_chemical_formula_sum "Si O2"
_cell_formula_units_Z 14
_cell_length_a 14.860845
_cell_length_b 8.775162
_cell_length_c 15.022345
_cell_angle_alpha 56.973450
_cell_angle_beta 151.652002
_cell_angle_gamma 104.296038
_cell_volume 632.731212
_symmetry_space_group_name_H-M "P -1"
_symmetry_group_IT_number 2
_symmetry_cell_setting 'triclinic'
loop_
_space_group_symop_operation_xyz
x,y,z
-x,-y,-z
loop_
_atom_site_type_symbol
_atom_site_label
_atom_site_fract_x
_atom_site_fract_y
_atom_site_fract_z
Si Si1 0.442631 0.396893 0.063231
Si Si2 0.865058 0.181666 0.902419
Si Si3 0.995689 0.824498 0.610952
Si Si4 0.832722 0.951313 0.617053
Si Si5 0.735969 0.708249 0.210685
Si Si6 0.560924 0.806926 0.204812
Si Si7 0.613450 0.681712 0.483871
O O1 0.650361 0.221301 0.365114
O O2 0.500000 0.500000 0.000000
O O3 0.380836 0.251581 0.999628
O O4 0.227130 0.578239 0.876792
O O5 0.814421 0.420071 0.758911
O O6 0.618631 0.220521 0.691818
O O7 0.025143 0.091084 0.157197
O O8 0.000000 0.000000 0.000000
O O9 0.003744 0.870893 0.707091
O O10 0.769051 0.836177 0.386274
O O11 0.000000 0.000000 0.500000
O O12 0.708452 0.824465 0.550242
O O13 0.619323 0.663817 0.208696
O O14 0.000000 0.500000 0.500000
O O15 0.686745 0.950740 0.106275
O O16 0.549755 0.693652 0.319674
#
# Coordination Sequence:
#
# PCOD8017236 Si02
#       7
#     2   2   2   2   2   2   2
#     4  12  23  38  61  97 136 178 226 263 329 408
#     4  11  27  47  75 101 129 176 236 299 349 410
#     4  11  21  40  61  92 139 180 215 269 330 401
#     4  11  25  46  70 101 141 182 224 284 350 406
#     4  11  21  36  61  95 133 177 219 263 320 402
#     4  10  22  38  63  93 135 178 217 277 335 397
#     4  10  24  48  70 101 136 172 237 286 352 411
#
# _framework density 22.126301000000002
#
# number of rings (size 3 to 8) (size 9 to 14) (size 15 to 20)
#    0.000    1.143    5.714    0.429    0.000   12.000 
#    0.000    0.000    0.000    0.000    0.000    0.000 
#    0.000    0.000    0.000    0.000    0.000    0.000 
#
# Total GULP energy -173500.847575 kJ/mol
# GULP energy per Si atom -12392.917684 kJ/mol
# Density = 2.207594 g / cm^3
# Si number density = 22.126301 Si / 1000 Ang^3
#
#
#
# Elastic Constant Matrix: (Units=GPa)
#
#
# Indices 1 2 3 4 5 6 
#
# 1 135.2451 49.5072 59.7049 -20.1333 -4.3985 -24.4816
# 2 49.5072 71.8244 55.1597 -21.3712 2.6520 -10.3557
# 3 59.7049 55.1597 152.4528 -34.1112 -10.3579 -21.7698
# 4 -20.1333 -21.3712 -34.1112 40.9244 -9.7194 2.0087
# 5 -4.3985 2.6520 -10.3579 -9.7194 45.4494 -3.2355
# 6 -24.4816 -10.3557 -21.7698 2.0087 -3.2355 48.1020
#
#
#
# Elastic Compliance Matrix: (Units=1/GPa)
#
#
# Indices 1 2 3 4 5 6 
#
# 1 0.011013 -0.005665 -0.001216 0.001673 0.001753 0.003884
# 2 -0.005665 0.023324 -0.005518 0.004282 -0.002300 -0.000692
# 3 -0.001216 -0.005518 0.011359 0.006894 0.004506 0.003349
# 4 0.001673 0.004282 0.006894 0.035253 0.009310 0.004047
# 5 0.001753 -0.002300 0.004506 0.009310 0.025593 0.003769
# 6 0.003884 -0.000692 0.003349 0.004047 0.003769 0.024217
#
#
# Mechanical properties :
#
#
# Convention : Reuss Voigt Hill
#
# Bulk Modulus (GPa) = 47.84659 76.47398 62.16029
# Shear Modulus (GPa) = 30.76518 39.90519 35.33519
#
# Velocity S-wave (km/s) = 3.73290 4.25139 4.00055
# Velocity P-wave (km/s) = 6.34434 7.66398 7.03517
#
# Compressibility (1/GPa) = 0.02090013
#
# Stress axis : x y z
#
# Youngs Moduli (GPa) = 90.79968 42.87410 88.03789
#
# Poissons Ratio (x) = 0.24288 0.10701
# Poissons Ratio (y) = 0.51437 0.48576
# Poissons Ratio (z) = 0.11037 0.23656
#
# Static dielectric constant tensor:
#      x y z
#    x 3.607750 -0.011370 -0.213590 
#    y -0.011370 4.059380 -0.011610 
#    z -0.213590 -0.011610 3.862080 
# 
# 
# High freq. dielectric constant tensor:
#      x y z
#    x 1.876110 -0.015360 -0.000320 
#    y -0.015360 1.867630 -0.007190 
#    z -0.000320 -0.007190 1.885350 
# 
# From -- ./inp_files/528318.got.cif
#   From: 2010.06.25/outbox.cif.g09.slc.cpg/sg2_265_cif.got.tgz:528318.got - 2010.06.27 13:26:56.
