data_PCOD8017285
_publ_section_title
;
Structure prediction by ZEFSAII (Michael W. Deem and Ramdas Pophale) SiO2 
 PCOD8017285
Probable space group: P -1
;
_chemical_formula_sum "Si O2"
_cell_formula_units_Z 16
_cell_length_a 9.016134
_cell_length_b 11.689439
_cell_length_c 8.938727
_cell_angle_alpha 67.632691
_cell_angle_beta 107.538388
_cell_angle_gamma 71.498515
_cell_volume 724.181207
_symmetry_space_group_name_H-M "P -1"
_symmetry_group_IT_number 2
_symmetry_cell_setting 'triclinic'
loop_
_space_group_symop_operation_xyz
x,y,z
-x,-y,-z
loop_
_atom_site_type_symbol
_atom_site_label
_atom_site_fract_x
_atom_site_fract_y
_atom_site_fract_z
Si Si1 0.238010 0.561663 0.282051
Si Si2 0.300168 0.090299 0.462583
Si Si3 0.394531 0.194719 0.014274
Si Si4 0.069114 0.723776 0.847881
Si Si5 0.501594 0.874565 0.252899
Si Si6 0.941049 0.519242 0.145884
Si Si7 0.281680 0.835921 0.691951
Si Si8 0.627900 0.302772 0.522435
O O1 0.435446 0.437777 0.372765
O O2 0.238889 0.654502 0.376002
O O3 0.112845 0.491244 0.312410
O O4 0.155829 0.665338 0.063421
O O5 0.321705 0.176029 0.565637
O O6 0.149823 0.195738 0.247853
O O7 0.500000 0.000000 0.500000
O O8 0.216290 0.997159 0.547662
O O9 0.439754 0.200022 0.851934
O O10 0.204237 0.323582 0.931533
O O11 0.529348 0.222990 0.139600
O O12 0.398532 0.046440 0.124892
O O13 0.122830 0.598647 0.799674
O O14 0.139571 0.828776 0.762639
O O15 0.375409 0.823103 0.320365
O O16 0.000000 0.500000 0.000000
O O17 0.296457 0.747969 0.592885
#
# Coordination Sequence:
#
# PCOD8017285 Si02
#       8
#     2   2   2   2   2   2   2   2
#     4  10  24  39  62  93 135 170 228 273 327 409
#     4  11  23  41  71  95 133 175 224 275 333 405
#     4  10  23  41  67 100 135 173 228 269 343 391
#     4  11  24  42  65  97 132 174 223 280 334 395
#     4  10  22  41  68  95 130 182 219 277 328 405
#     4  10  22  38  65  95 128 171 225 272 325 400
#     4  11  23  39  67  97 131 176 220 279 326 402
#     4  11  22  41  63  95 131 179 223 269 343 385
#
# _framework density 22.093919
#
# number of rings (size 3 to 8) (size 9 to 14) (size 15 to 20)
#    0.000    1.500    1.250    3.375    7.000    5.000 
#    0.000    5.625    0.000    0.000    0.000    0.000 
#    0.000    0.000    0.000    0.000    0.000    0.000 
#
# Total GULP energy -198269.237016 kJ/mol
# GULP energy per Si atom -12391.827313 kJ/mol
# Density = 2.204363 g / cm^3
# Si number density = 22.093919 Si / 1000 Ang^3
#
#
#
# Elastic Constant Matrix: (Units=GPa)
#
#
# Indices 1 2 3 4 5 6 
#
# 1 58.3075 24.9782 29.7274 -1.8688 7.4191 10.9711
# 2 24.9782 97.9840 33.0169 18.9357 12.8121 3.1931
# 3 29.7274 33.0169 112.4622 13.3456 16.9094 -1.5665
# 4 -1.8688 18.9357 13.3456 41.9822 5.5294 5.4965
# 5 7.4191 12.8121 16.9094 5.5294 40.1324 2.9283
# 6 10.9711 3.1931 -1.5665 5.4965 2.9283 39.5501
#
#
#
# Elastic Compliance Matrix: (Units=1/GPa)
#
#
# Indices 1 2 3 4 5 6 
#
# 1 0.023776 -0.005053 -0.005513 0.006135 -0.000780 -0.007201
# 2 -0.005053 0.013339 -0.001601 -0.005630 -0.001961 0.001189
# 3 -0.005513 -0.001601 0.011714 -0.003196 -0.003169 0.002801
# 4 0.006135 -0.005630 -0.003196 0.028535 -0.001540 -0.005226
# 5 -0.000780 -0.001961 -0.003169 -0.001540 0.027349 -0.001562
# 6 -0.007201 0.001189 0.002801 -0.005226 -0.001562 0.028139
#
#
# Mechanical properties :
#
#
# Convention : Reuss Voigt Hill
#
# Bulk Modulus (GPa) = 40.82207 49.35541 45.08874
# Shear Modulus (GPa) = 30.23893 36.40169 33.32031
#
# Velocity S-wave (km/s) = 3.70355 4.06345 3.88767
# Velocity P-wave (km/s) = 6.06672 6.66355 6.37213
#
# Compressibility (1/GPa) = 0.02449655
#
# Stress axis : x y z
#
# Youngs Moduli (GPa) = 42.05898 74.96900 85.36856
#
# Poissons Ratio (x) = 0.37878 0.47060
# Poissons Ratio (y) = 0.21250 0.13668
# Poissons Ratio (z) = 0.23185 0.12003
#
# Static dielectric constant tensor:
#      x y z
#    x 4.012370 0.531730 0.039460 
#    y 0.531730 4.386450 0.144840 
#    z 0.039460 0.144840 4.241820 
# 
# 
# High freq. dielectric constant tensor:
#      x y z
#    x 1.858730 0.022940 0.006060 
#    y 0.022940 1.876510 0.003170 
#    z 0.006060 0.003170 1.875700 
# 
# From -- ./inp_files/186040.got.cif
#   From: 2010.06.25/outbox.cif.g09.slc.cpg/sg2_94_cif.got.tgz:186040.got - 2010.06.27 13:26:56.
