data_PCOD8017215
_publ_section_title
;
Structure prediction by ZEFSAII (Michael W. Deem and Ramdas Pophale) SiO2 
 PCOD8017215
Probable space group: P -1
;
_chemical_formula_sum "Si O2"
_cell_formula_units_Z 16
_cell_length_a 8.808684
_cell_length_b 22.910095
_cell_length_c 6.607766
_cell_angle_alpha 112.552260
_cell_angle_beta 51.736009
_cell_angle_gamma 132.705552
_cell_volume 767.859122
_symmetry_space_group_name_H-M "P -1"
_symmetry_group_IT_number 2
_symmetry_cell_setting 'triclinic'
loop_
_space_group_symop_operation_xyz
x,y,z
-x,-y,-z
loop_
_atom_site_type_symbol
_atom_site_label
_atom_site_fract_x
_atom_site_fract_y
_atom_site_fract_z
Si Si1 0.001734 0.090836 0.472428
Si Si2 0.568792 0.841382 0.054698
Si Si3 0.392669 0.912202 0.037393
Si Si4 0.110824 0.665177 0.103274
Si Si5 0.330366 0.088808 0.517360
Si Si6 0.742343 0.420707 0.873721
Si Si7 0.994437 0.413103 0.313620
Si Si8 0.334021 0.424978 0.386800
O O1 0.132680 0.086808 0.549781
O O2 0.192565 0.146324 0.213341
O O3 0.795763 0.002524 0.434349
O O4 0.877780 0.131287 0.708869
O O5 0.331576 0.755837 0.078384
O O6 0.594327 0.850659 0.284376
O O7 0.556047 0.910446 0.071314
O O8 0.418319 0.873315 0.764963
O O9 0.500000 0.000000 0.000000
O O10 0.168106 0.605479 0.051716
O O11 0.878594 0.646326 0.392067
O O12 0.061844 0.654661 0.887240
O O13 0.932700 0.514492 0.796622
O O14 0.750430 0.380481 0.604518
O O15 0.481805 0.397493 0.121347
O O16 0.217086 0.442230 0.322484
O O17 0.500000 0.500000 0.500000
#
# Coordination Sequence:
#
# PCOD8017215 Si02
#       8
#     2   2   2   2   2   2   2   2
#     4   9  19  36  60  86 111 153 196 238 289 350
#     4  11  23  38  58  86 123 156 191 246 296 343
#     4   9  20  37  59  87 114 150 197 243 288 348
#     4  11  25  40  56  88 127 155 197 244 296 351
#     4   9  19  37  60  85 116 147 197 243 285 345
#     4  10  22  38  63  88 113 156 199 242 290 351
#     4  10  22  39  63  87 116 154 196 246 294 342
#     4  11  23  38  64  92 114 147 202 245 289 353
#
# _framework density 20.837157999999999
#
# number of rings (size 3 to 8) (size 9 to 14) (size 15 to 20)
#    0.000    2.000    1.250    1.875    3.500    8.000 
#    0.000    2.500    0.000    0.000    0.000    0.000 
#    0.000    0.000    0.000    0.000    0.000    0.000 
#
# Total GULP energy -198245.469106 kJ/mol
# GULP energy per Si atom -12390.341819 kJ/mol
# Density = 2.078973 g / cm^3
# Si number density = 20.837158 Si / 1000 Ang^3
#
#
#
# Elastic Constant Matrix: (Units=GPa)
#
#
# Indices 1 2 3 4 5 6 
#
# 1 81.0989 27.1973 67.2020 12.0409 -9.2737 2.9326
# 2 27.1973 50.5343 42.6247 7.9438 7.3220 20.0609
# 3 67.2020 42.6247 200.5585 -0.7370 -27.1124 21.9500
# 4 12.0409 7.9438 -0.7370 17.1125 14.2913 4.9289
# 5 -9.2737 7.3220 -27.1124 14.2913 50.9789 -0.3114
# 6 2.9326 20.0609 21.9500 4.9289 -0.3114 24.5758
#
#
#
# Elastic Compliance Matrix: (Units=1/GPa)
#
#
# Indices 1 2 3 4 5 6 
#
# 1 0.027906 -0.014385 -0.007097 -0.028912 0.011600 0.020696
# 2 -0.014385 0.043205 -0.002439 0.010829 -0.013361 -0.033714
# 3 -0.007097 -0.002439 0.008855 0.006844 0.001811 -0.006421
# 4 -0.028912 0.010829 0.006844 0.113426 -0.035185 -0.034697
# 5 0.011600 -0.013361 0.001811 -0.035185 0.034566 0.015399
# 6 0.020696 -0.033714 -0.006421 -0.034697 0.015399 0.078630
#
#
# Mechanical properties :
#
#
# Convention : Reuss Voigt Hill
#
# Bulk Modulus (GPa) = 31.12829 67.35998 49.24413
# Shear Modulus (GPa) = 13.69351 31.54462 22.61907
#
# Velocity S-wave (km/s) = 2.56631 3.89506 3.29829
# Velocity P-wave (km/s) = 4.87366 7.25436 6.17973
#
# Compressibility (1/GPa) = 0.03212512
#
# Stress axis : x y z
#
# Youngs Moduli (GPa) = 35.83459 23.14568 112.93062
#
# Poissons Ratio (x) = 0.33294 0.80142
# Poissons Ratio (y) = 0.51547 0.27544
# Poissons Ratio (z) = 0.25430 0.05645
#
# Static dielectric constant tensor:
#      x y z
#    x 3.824850 -0.022000 -0.247770 
#    y -0.022000 3.403150 -0.073930 
#    z -0.247770 -0.073930 4.455130 
# 
# 
# High freq. dielectric constant tensor:
#      x y z
#    x 1.804380 -0.004620 -0.005850 
#    y -0.004620 1.773970 -0.006260 
#    z -0.005850 -0.006260 1.846900 
# 
# From -- ./inp_files/55575.got.cif
#   From: 2010.06.25/outbox.cif.g09.slc.cpg/sg2_28_cif.got.tgz:55575.got - 2010.06.27 13:26:56.
