data_PCOD8017790
_publ_section_title
;
Structure prediction by ZEFSAII (Michael W. Deem and Ramdas Pophale) SiO2 
 PCOD8017790
Probable space group: P -1
;
_chemical_formula_sum "Si O2"
_cell_formula_units_Z 14
_cell_length_a 14.473303
_cell_length_b 8.446696
_cell_length_c 8.893752
_cell_angle_alpha 129.345926
_cell_angle_beta 65.050048
_cell_angle_gamma 81.146470
_cell_volume 609.354426
_symmetry_space_group_name_H-M "P -1"
_symmetry_group_IT_number 2
_symmetry_cell_setting 'triclinic'
loop_
_space_group_symop_operation_xyz
x,y,z
-x,-y,-z
loop_
_atom_site_type_symbol
_atom_site_label
_atom_site_fract_x
_atom_site_fract_y
_atom_site_fract_z
Si Si1 0.994485 0.571777 0.790265
Si Si2 0.795080 0.788191 0.810448
Si Si3 0.491035 0.778181 0.434156
Si Si4 0.686502 0.000499 0.547305
Si Si5 0.891603 0.402726 0.992865
Si Si6 0.265672 0.782895 0.095441
Si Si7 0.536435 0.949357 0.115042
O O1 0.868567 0.771815 0.900193
O O2 0.111999 0.412988 0.501150
O O3 0.022030 0.711762 0.982836
O O4 0.973806 0.387160 0.787021
O O5 0.720309 0.071059 0.960855
O O6 0.691246 0.736115 0.891627
O O7 0.357670 0.855081 0.498244
O O8 0.605835 0.497351 0.137352
O O9 0.487853 0.803517 0.632696
O O10 0.500000 0.000000 0.500000
O O11 0.769335 0.695052 0.286614
O O12 0.549881 0.124346 0.798725
O O13 0.764345 0.068906 0.635397
O O14 0.850876 0.224440 0.870323
O O15 0.500000 0.000000 0.000000
#
# Coordination Sequence:
#
# PCOD8017790 Si02
#       7
#     2   2   2   2   2   2   2
#     4  10  24  46  68  91 137 181 221 277 325 384
#     4  11  24  42  67  99 134 179 219 268 342 387
#     4  10  22  39  65  97 137 170 210 269 337 397
#     4  11  22  44  66 105 130 170 220 276 333 397
#     4  11  22  45  75  92 130 179 226 278 323 385
#     4  12  23  40  73 101 132 170 229 272 331 403
#     4  11  20  40  69  94 141 169 205 272 346 394
#
# _framework density 22.975137
#
# number of rings (size 3 to 8) (size 9 to 14) (size 15 to 20)
#    0.000    1.143    5.714    1.286    2.000    1.714 
#    0.000    0.000    3.143    0.000    0.000    0.000 
#    0.000    0.000    0.000    0.000    0.000    0.000 
#
# Total GULP energy -173441.952219 kJ/mol
# GULP energy per Si atom -12388.710873 kJ/mol
# Density = 2.292284 g / cm^3
# Si number density = 22.975137 Si / 1000 Ang^3
#
#
#
# Elastic Constant Matrix: (Units=GPa)
#
#
# Indices 1 2 3 4 5 6 
#
# 1 155.6011 22.0476 30.6284 -10.6586 23.3954 -15.1689
# 2 22.0476 39.1160 11.6020 2.6481 12.3530 -20.0647
# 3 30.6284 11.6020 70.7450 -13.1304 3.9415 3.6271
# 4 -10.6586 2.6481 -13.1304 33.1698 -4.1930 0.0131
# 5 23.3954 12.3530 3.9415 -4.1930 50.8261 -11.4099
# 6 -15.1689 -20.0647 3.6271 0.0131 -11.4099 47.1915
#
#
#
# Elastic Compliance Matrix: (Units=1/GPa)
#
#
# Indices 1 2 3 4 5 6 
#
# 1 0.007865 -0.002365 -0.002689 0.001339 -0.002473 0.001131
# 2 -0.002365 0.038869 -0.007211 -0.007358 -0.005014 0.015110
# 3 -0.002689 -0.007211 0.017976 0.006960 0.001034 -0.005064
# 4 0.001339 -0.007358 0.006960 0.034287 0.002890 -0.002544
# 5 -0.002473 -0.005014 0.001034 0.002890 0.022750 0.002494
# 6 0.001131 0.015110 -0.005064 -0.002544 0.002494 0.028971
#
#
# Mechanical properties :
#
#
# Convention : Reuss Voigt Hill
#
# Bulk Modulus (GPa) = 24.88849 43.77979 34.33414
# Shear Modulus (GPa) = 26.50524 39.64975 33.07749
#
# Velocity S-wave (km/s) = 3.40023 4.15874 3.79847
# Velocity P-wave (km/s) = 5.12559 6.49283 5.84930
#
# Compressibility (1/GPa) = 0.04017921
#
# Stress axis : x y z
#
# Youngs Moduli (GPa) = 127.14896 25.72717 55.62994
#
# Poissons Ratio (x) = 0.06085 0.14958
# Poissons Ratio (y) = 0.30072 0.40117
# Poissons Ratio (z) = 0.34189 0.18553
#
# Static dielectric constant tensor:
#      x y z
#    x 5.182160 -0.804820 0.574160 
#    y -0.804820 4.531070 -0.948950 
#    z 0.574160 -0.948950 4.865030 
# 
# 
# High freq. dielectric constant tensor:
#      x y z
#    x 1.933900 -0.033410 0.001790 
#    y -0.033410 1.870690 -0.027500 
#    z 0.001790 -0.027500 1.905300 
# 
# From -- ./inp_files/296682.got.cif
#   From: 2010.06.25/outbox.cif.g09.slc.cpg/sg2_149_cif.got.tgz:296682.got - 2010.06.27 13:26:56.
