data_PCOD8017728
_publ_section_title
;
Structure prediction by ZEFSAII (Michael W. Deem and Ramdas Pophale) SiO2 
 PCOD8017728
Probable space group: P -1
;
_chemical_formula_sum "Si O2"
_cell_formula_units_Z 16
_cell_length_a 11.861483
_cell_length_b 16.549618
_cell_length_c 9.014536
_cell_angle_alpha 47.200980
_cell_angle_beta 143.089213
_cell_angle_gamma 135.167816
_cell_volume 722.400975
_symmetry_space_group_name_H-M "P -1"
_symmetry_group_IT_number 2
_symmetry_cell_setting 'triclinic'
loop_
_space_group_symop_operation_xyz
x,y,z
-x,-y,-z
loop_
_atom_site_type_symbol
_atom_site_label
_atom_site_fract_x
_atom_site_fract_y
_atom_site_fract_z
Si Si1 0.969733 0.750350 0.369107
Si Si2 0.372557 0.808252 0.554961
Si Si3 0.165945 0.449395 0.285402
Si Si4 0.778148 0.870517 0.412437
Si Si5 0.418558 0.378167 0.408412
Si Si6 0.852376 0.067501 0.449139
Si Si7 0.441407 0.041398 0.160239
Si Si8 0.410894 0.358559 0.098922
O O1 0.947454 0.669824 0.592808
O O2 0.143546 0.744930 0.450556
O O3 0.033253 0.886193 0.329745
O O4 0.761156 0.707607 0.117127
O O5 0.525988 0.873916 0.767684
O O6 0.421949 0.699619 0.674672
O O7 0.388266 0.905350 0.323804
O O8 0.282939 0.438659 0.272925
O O9 0.344671 0.540118 0.462160
O O10 0.000000 0.500000 0.000000
O O11 0.601367 0.741606 0.375979
O O12 0.995945 0.862608 0.612198
O O13 0.793288 0.927667 0.522102
O O14 0.737428 0.952279 0.139159
O O15 0.320655 0.335880 0.197425
O O16 0.643490 0.089355 0.210124
O O17 0.500000 0.500000 0.000000
#
# Coordination Sequence:
#
# PCOD8017728 Si02
#       8
#     2   2   2   2   2   2   2   2
#     4  11  24  46  70  99 134 184 227 278 343 405
#     4  10  25  41  68 100 139 181 231 272 348 408
#     4  11  26  45  72  99 137 180 233 283 336 404
#     4  11  22  39  68  98 141 171 222 287 340 402
#     4  11  26  44  69 106 134 183 229 275 347 403
#     4  10  22  39  64  98 130 169 226 267 346 397
#     4  10  22  43  65  99 135 182 222 281 339 406
#     4  12  26  46  69  98 143 180 228 284 335 410
#
# _framework density 22.148364000000001
#
# number of rings (size 3 to 8) (size 9 to 14) (size 15 to 20)
#    0.000    1.250    2.500    1.875    5.250    4.500 
#    0.000    5.625    0.000    0.000    0.000    0.000 
#    0.000    0.000    0.000    0.000    0.000    0.000 
#
# Total GULP energy -198278.449201 kJ/mol
# GULP energy per Si atom -12392.403075 kJ/mol
# Density = 2.209795 g / cm^3
# Si number density = 22.148364 Si / 1000 Ang^3
#
#
#
# Elastic Constant Matrix: (Units=GPa)
#
#
# Indices 1 2 3 4 5 6 
#
# 1 120.3621 40.0758 46.2060 -3.9685 9.7953 -7.3599
# 2 40.0758 118.1461 41.3945 -5.5846 8.1544 -10.0966
# 3 46.2060 41.3945 99.6410 -3.4509 -0.3302 -4.3864
# 4 -3.9685 -5.5846 -3.4509 31.9931 -0.3743 -0.0569
# 5 9.7953 8.1544 -0.3302 -0.3743 26.2105 2.4364
# 6 -7.3599 -10.0966 -4.3864 -0.0569 2.4364 40.7599
#
#
#
# Elastic Compliance Matrix: (Units=1/GPa)
#
#
# Indices 1 2 3 4 5 6 
#
# 1 0.010947 -0.001834 -0.004252 0.000538 -0.003686 0.001286
# 2 -0.001834 0.010748 -0.003487 0.001243 -0.002883 0.002130
# 3 -0.004252 -0.003487 0.013462 0.000349 0.002881 -0.000355
# 4 0.000538 0.001243 0.000349 0.031577 -0.000179 0.000497
# 5 -0.003686 -0.002883 0.002881 -0.000179 0.040787 -0.003508
# 6 0.001286 0.002130 -0.000355 0.000497 -0.003508 0.025466
#
#
# Mechanical properties :
#
#
# Convention : Reuss Voigt Hill
#
# Bulk Modulus (GPa) = 62.45435 65.94463 64.19949
# Shear Modulus (GPa) = 31.75200 33.82421 32.78810
#
# Velocity S-wave (km/s) = 3.79040 3.91214 3.85175
# Velocity P-wave (km/s) = 6.88590 7.08838 6.98787
#
# Compressibility (1/GPa) = 0.01601169
#
# Stress axis : x y z
#
# Youngs Moduli (GPa) = 91.34530 93.04283 74.28101
#
# Poissons Ratio (x) = 0.17064 0.31582
# Poissons Ratio (y) = 0.16753 0.25904
# Poissons Ratio (z) = 0.38837 0.32447
#
# Static dielectric constant tensor:
#      x y z
#    x 4.197390 -0.047940 -0.055470 
#    y -0.047940 4.303070 0.027750 
#    z -0.055470 0.027750 3.693900 
# 
# 
# High freq. dielectric constant tensor:
#      x y z
#    x 1.888660 -0.005640 0.004790 
#    y -0.005640 1.886080 0.010110 
#    z 0.004790 0.010110 1.840530 
# 
# From -- ./inp_files/255826.got.cif
#   From: 2010.06.25/outbox.cif.g09.slc.cpg/sg2_128_cif.got.tgz:255826.got - 2010.06.27 13:26:56.
