data_PCOD8017237
_publ_section_title
;
Structure prediction by ZEFSAII (Michael W. Deem and Ramdas Pophale) SiO2 
 PCOD8017237
Probable space group: P -1
;
_chemical_formula_sum "Si O2"
_cell_formula_units_Z 16
_cell_length_a 19.880802
_cell_length_b 12.182350
_cell_length_c 15.196135
_cell_angle_alpha 44.777845
_cell_angle_beta 153.101403
_cell_angle_gamma 153.717204
_cell_volume 659.127480
_symmetry_space_group_name_H-M "P -1"
_symmetry_group_IT_number 2
_symmetry_cell_setting 'triclinic'
loop_
_space_group_symop_operation_xyz
x,y,z
-x,-y,-z
loop_
_atom_site_type_symbol
_atom_site_label
_atom_site_fract_x
_atom_site_fract_y
_atom_site_fract_z
Si Si1 0.774114 0.422804 0.804471
Si Si2 0.219670 0.383849 0.031301
Si Si3 0.547572 0.900290 0.230197
Si Si4 0.957541 0.886866 0.316491
Si Si5 0.279367 0.401696 0.507718
Si Si6 0.696436 0.419030 0.391405
Si Si7 0.888706 0.050300 0.995679
Si Si8 0.938505 0.486934 0.334031
O O1 0.557197 0.146025 0.767668
O O2 0.641112 0.389062 0.584332
O O3 0.000000 0.500000 0.000000
O O4 0.885203 0.655938 0.861873
O O5 0.323518 0.628161 0.063941
O O6 0.454664 0.467212 0.234768
O O7 0.096687 0.357594 0.814188
O O8 0.989856 0.103330 0.983572
O O9 0.778140 0.977190 0.470826
O O10 0.664445 0.159251 0.176948
O O11 0.725724 0.574982 0.260604
O O12 0.035207 0.090743 0.360788
O O13 0.855370 0.861427 0.118232
O O14 0.168959 0.387744 0.475045
O O15 0.835573 0.381128 0.543883
O O16 0.395635 0.112144 0.239566
O O17 0.000000 0.500000 0.500000
#
# Coordination Sequence:
#
# PCOD8017237 Si02
#       8
#     2   2   2   2   2   2   2   2
#     4  10  22  39  64  95 125 162 208 256 307 366
#     4  10  22  43  65  91 124 165 212 253 307 373
#     4   9  20  40  65  88 120 167 208 252 303 374
#     4   9  19  41  63  93 126 162 207 252 309 372
#     4  10  22  40  66  95 123 165 208 258 306 367
#     4  11  24  39  61  93 128 165 205 259 308 367
#     4  10  22  38  63  94 127 164 203 257 312 367
#     4  11  26  42  61  89 126 169 207 257 315 368
#
# _framework density 24.274515000000001
#
# number of rings (size 3 to 8) (size 9 to 14) (size 15 to 20)
#    0.000    2.000    0.000    1.875    5.250    8.000 
#    2.250    0.000    0.000    0.000    0.000    0.000 
#    0.000    0.000    0.000    0.000    0.000    0.000 
#
# Total GULP energy -198348.929596 kJ/mol
# GULP energy per Si atom -12396.808100 kJ/mol
# Density = 2.421926 g / cm^3
# Si number density = 24.274515 Si / 1000 Ang^3
#
#
#
# Elastic Constant Matrix: (Units=GPa)
#
#
# Indices 1 2 3 4 5 6 
#
# 1 116.3425 14.9692 37.3727 -14.7738 19.4900 13.6144
# 2 14.9692 34.1238 22.9646 -4.0741 0.6061 20.1960
# 3 37.3727 22.9646 93.4693 -23.3924 3.9868 13.7086
# 4 -14.7738 -4.0741 -23.3924 43.4412 6.3346 0.8655
# 5 19.4900 0.6061 3.9868 6.3346 33.5918 -0.9116
# 6 13.6144 20.1960 13.7086 0.8655 -0.9116 29.3835
#
#
#
# Elastic Compliance Matrix: (Units=1/GPa)
#
#
# Indices 1 2 3 4 5 6 
#
# 1 0.011690 -0.000097 -0.002798 0.003604 -0.007247 -0.004376
# 2 -0.000097 0.055269 -0.008038 0.001685 -0.001235 -0.034281
# 3 -0.002798 -0.008038 0.015711 0.006979 -0.001433 -0.000759
# 4 0.003604 0.001685 0.006979 0.029578 -0.008724 -0.007226
# 5 -0.007247 -0.001235 -0.001433 -0.008724 0.035981 0.006249
# 6 -0.004376 -0.034281 -0.000759 -0.007226 0.006249 0.060383
#
#
# Mechanical properties :
#
#
# Convention : Reuss Voigt Hill
#
# Bulk Modulus (GPa) = 16.44584 43.83873 30.14228
# Shear Modulus (GPa) = 19.94053 32.52522 26.23288
#
# Velocity S-wave (km/s) = 2.86922 3.66442 3.29093
# Velocity P-wave (km/s) = 4.21500 6.00023 5.18503
#
# Compressibility (1/GPa) = 0.06080566
#
# Stress axis : x y z
#
# Youngs Moduli (GPa) = 85.54138 18.09335 63.64852
#
# Poissons Ratio (x) = 0.00175 0.17806
# Poissons Ratio (y) = 0.00826 0.51162
# Poissons Ratio (z) = 0.23931 0.14544
#
# Static dielectric constant tensor:
#      x y z
#    x 4.471810 0.119340 -0.133960 
#    y 0.119340 4.795340 0.052030 
#    z -0.133960 0.052030 4.106280 
# 
# 
# High freq. dielectric constant tensor:
#      x y z
#    x 1.972000 0.007130 -0.003370 
#    y 0.007130 1.968550 -0.002290 
#    z -0.003370 -0.002290 1.951380 
# 
# From -- ./inp_files/239341.got.cif
#   From: 2010.06.25/outbox.cif.g09.slc.cpg/sg2_120_cif.got.tgz:239341.got - 2010.06.27 13:26:56.
