data_PCOD8017708
_publ_section_title
;
Structure prediction by ZEFSAII (Michael W. Deem and Ramdas Pophale) SiO2 
 PCOD8017708
Probable space group: P -1
;
_chemical_formula_sum "Si O2"
_cell_formula_units_Z 16
_cell_length_a 17.727385
_cell_length_b 28.392206
_cell_length_c 23.112572
_cell_angle_alpha 169.245236
_cell_angle_beta 158.059848
_cell_angle_gamma 21.281958
_cell_volume 775.151629
_symmetry_space_group_name_H-M "P -1"
_symmetry_group_IT_number 2
_symmetry_cell_setting 'triclinic'
loop_
_space_group_symop_operation_xyz
x,y,z
-x,-y,-z
loop_
_atom_site_type_symbol
_atom_site_label
_atom_site_fract_x
_atom_site_fract_y
_atom_site_fract_z
Si Si1 0.153744 0.000830 0.875265
Si Si2 0.554000 0.026755 0.726547
Si Si3 0.918499 0.779827 0.351117
Si Si4 0.160437 0.788750 0.930674
Si Si5 0.924760 0.195312 0.628809
Si Si6 0.221540 0.778189 0.782029
Si Si7 0.143460 0.515101 0.702534
Si Si8 0.467768 0.187726 0.258595
O O1 0.193512 0.863824 0.799650
O O2 0.375002 0.051345 0.078981
O O3 0.102532 0.812586 0.563248
O O4 0.957350 0.269402 0.060167
O O5 0.305108 0.079800 0.608899
O O6 0.659071 0.717347 0.414068
O O7 0.634171 0.204449 0.951391
O O8 0.607626 0.103674 0.922359
O O9 0.938909 0.905277 0.453904
O O10 0.957381 0.469715 0.001182
O O11 0.229547 0.663737 0.891701
O O12 0.044718 0.599981 0.589608
O O13 0.001931 0.089668 0.184669
O O14 0.680523 0.237351 0.491883
O O15 0.000000 0.000000 0.500000
O O16 0.291948 0.463778 0.453117
O O17 0.500000 0.000000 0.000000
#
# Coordination Sequence:
#
# PCOD8017708 Si02
#       8
#     2   2   2   2   2   2   2   2
#     4  11  24  40  64  96 130 158 202 263 307 365
#     4  11  20  37  64  88 126 170 202 250 305 368
#     4  11  26  44  61  95 130 161 205 259 319 365
#     4   9  18  36  60  93 124 163 204 253 296 367
#     4  11  27  48  65  87 126 166 209 259 312 375
#     4  10  22  39  64  93 126 161 209 254 306 365
#     4   9  19  35  60  94 125 158 211 246 300 366
#     4  12  24  42  67  94 115 164 215 255 311 370
#
# _framework density 20.641121999999999
#
# number of rings (size 3 to 8) (size 9 to 14) (size 15 to 20)
#    0.000    1.500    2.500    3.750    3.500    2.000 
#    0.000    2.500    0.000    0.000    0.000    0.000 
#    0.000    0.000    0.000    0.000    0.000    0.000 
#
# Total GULP energy -198403.839630 kJ/mol
# GULP energy per Si atom -12400.239977 kJ/mol
# Density = 2.059414 g / cm^3
# Si number density = 20.641122 Si / 1000 Ang^3
#
#
#
# Elastic Constant Matrix: (Units=GPa)
#
#
# Indices 1 2 3 4 5 6 
#
# 1 125.1308 44.1079 47.7011 -7.5613 9.6729 -4.2867
# 2 44.1079 59.5570 32.1675 5.0095 17.8872 -10.8334
# 3 47.7011 32.1675 100.2077 2.1206 -4.3388 -0.2534
# 4 -7.5613 5.0095 2.1206 19.0870 -5.5960 5.6029
# 5 9.6729 17.8872 -4.3388 -5.5960 31.6768 -3.5199
# 6 -4.2867 -10.8334 -0.2534 5.6029 -3.5199 29.6316
#
#
#
# Elastic Compliance Matrix: (Units=1/GPa)
#
#
# Indices 1 2 3 4 5 6 
#
# 1 0.013071 -0.010439 -0.002969 0.010130 0.002895 -0.003523
# 2 -0.010439 0.041642 -0.008867 -0.025809 -0.024364 0.015624
# 3 -0.002969 -0.008867 0.014520 0.002816 0.008053 -0.003123
# 4 0.010130 -0.025809 0.002816 0.075324 0.023011 -0.019456
# 5 0.002895 -0.024364 0.008053 0.023011 0.048837 -0.006970
# 6 -0.003523 0.015624 -0.003123 -0.019456 -0.006970 0.041775
#
#
# Mechanical properties :
#
#
# Convention : Reuss Voigt Hill
#
# Bulk Modulus (GPa) = 40.51524 59.20539 49.86032
# Shear Modulus (GPa) = 17.36440 26.80701 22.08570
#
# Velocity S-wave (km/s) = 2.90358 3.60768 3.27461
# Velocity P-wave (km/s) = 5.55986 6.78965 6.20530
#
# Compressibility (1/GPa) = 0.02468207
#
# Stress axis : x y z
#
# Youngs Moduli (GPa) = 76.50641 24.01444 68.86943
#
# Poissons Ratio (x) = 0.25069 0.20447
# Poissons Ratio (y) = 0.79865 0.61069
# Poissons Ratio (z) = 0.22714 0.21294
#
# Static dielectric constant tensor:
#      x y z
#    x 3.908760 -0.179720 0.011310 
#    y -0.179720 3.605330 0.187230 
#    z 0.011310 0.187230 3.817770 
# 
# 
# High freq. dielectric constant tensor:
#      x y z
#    x 1.820550 -0.010270 0.002910 
#    y -0.010270 1.787770 0.012930 
#    z 0.002910 0.012930 1.807730 
# 
# From -- ./inp_files/227485.got.cif
#   From: 2010.06.25/outbox.cif.g09.slc.cpg/sg2_114_cif.got.tgz:227485.got - 2010.06.27 13:26:56.
