data_PCOD8017906
_publ_section_title
;
Structure prediction by ZEFSAII (Michael W. Deem and Ramdas Pophale) SiO2 
 PCOD8017906
Probable space group: P -1
;
_chemical_formula_sum "Si O2"
_cell_formula_units_Z 16
_cell_length_a 17.881235
_cell_length_b 8.773703
_cell_length_c 6.641478
_cell_angle_alpha 81.119316
_cell_angle_beta 92.801190
_cell_angle_gamma 133.290127
_cell_volume 746.974900
_symmetry_space_group_name_H-M "P -1"
_symmetry_group_IT_number 2
_symmetry_cell_setting 'triclinic'
loop_
_space_group_symop_operation_xyz
x,y,z
-x,-y,-z
loop_
_atom_site_type_symbol
_atom_site_label
_atom_site_fract_x
_atom_site_fract_y
_atom_site_fract_z
Si Si1 0.577950 0.312455 0.559424
Si Si2 0.432358 0.047337 0.245237
Si Si3 0.904772 0.088417 0.121183
Si Si4 0.100757 0.684819 0.593664
Si Si5 0.563909 0.444496 0.939378
Si Si6 0.869557 0.529366 0.029692
Si Si7 0.742596 0.610326 0.179017
Si Si8 0.210797 0.832068 0.185923
O O1 0.472463 0.163676 0.445615
O O2 0.569594 0.438181 0.698317
O O3 0.678614 0.480796 0.399222
O O4 0.589356 0.165351 0.705390
O O5 0.333942 0.999732 0.156265
O O6 0.519951 0.218423 0.061667
O O7 0.914119 0.175533 0.324135
O O8 0.020469 0.228210 0.023067
O O9 0.848479 0.846874 0.199329
O O10 0.836149 0.094515 0.961756
O O11 0.193190 0.832143 0.419698
O O12 0.000000 0.500000 0.500000
O O13 0.125877 0.589753 0.773498
O O14 0.500000 0.500000 0.000000
O O15 0.677247 0.623074 0.013498
O O16 0.841298 0.402572 0.844190
O O17 0.775735 0.506138 0.082100
#
# Coordination Sequence:
#
# PCOD8017906 Si02
#       8
#     2   2   2   2   2   2   2   2
#     4  10  23  44  62  92 124 157 208 256 304 368
#     4  10  22  39  68  92 120 163 205 252 306 364
#     4  11  23  39  61  90 128 165 204 250 305 361
#     4  11  20  40  64  89 123 162 208 253 297 355
#     4  11  24  43  65  91 127 159 200 257 312 366
#     4  11  22  40  62  89 126 163 206 254 299 363
#     4  11  25  41  61  92 126 164 204 250 309 366
#     4  11  21  38  65  93 120 161 209 253 301 361
#
# _framework density 21.419730000000001
#
# number of rings (size 3 to 8) (size 9 to 14) (size 15 to 20)
#    0.000    1.250    2.500    3.750    0.000    9.000 
#    0.000    0.625    0.000    0.000    0.000    0.000 
#    0.000    0.000    0.000    0.000    0.000    0.000 
#
# Total GULP energy -198370.627528 kJ/mol
# GULP energy per Si atom -12398.164220 kJ/mol
# Density = 2.137098 g / cm^3
# Si number density = 21.419730 Si / 1000 Ang^3
#
#
#
# Elastic Constant Matrix: (Units=GPa)
#
#
# Indices 1 2 3 4 5 6 
#
# 1 99.0954 17.3283 31.5248 11.2425 -15.8014 5.7029
# 2 17.3283 80.8451 30.6147 -5.6878 -8.8449 3.9361
# 3 31.5248 30.6147 109.7511 13.1511 -22.4571 -4.3251
# 4 11.2425 -5.6878 13.1511 28.1653 -0.4424 -0.4162
# 5 -15.8014 -8.8449 -22.4571 -0.4424 29.2668 7.4421
# 6 5.7029 3.9361 -4.3251 -0.4162 7.4421 34.9966
#
#
#
# Elastic Compliance Matrix: (Units=1/GPa)
#
#
# Indices 1 2 3 4 5 6 
#
# 1 0.012507 -0.001619 -0.001523 -0.004565 0.005877 -0.003348
# 2 -0.001619 0.014934 -0.004256 0.005634 0.000989 -0.002085
# 3 -0.001523 -0.004256 0.013077 -0.006227 0.007669 0.000638
# 4 -0.004565 0.005634 -0.006227 0.041305 -0.005152 0.000927
# 5 0.005877 0.000989 0.007669 -0.005152 0.045980 -0.009960
# 6 -0.003348 -0.002085 0.000638 0.000927 -0.009960 0.031562
#
#
# Mechanical properties :
#
#
# Convention : Reuss Voigt Hill
#
# Bulk Modulus (GPa) = 38.87770 49.84747 44.36259
# Shear Modulus (GPa) = 27.36215 32.50066 29.93141
#
# Velocity S-wave (km/s) = 3.57799 3.89951 3.74220
# Velocity P-wave (km/s) = 5.93794 6.60282 6.27919
#
# Compressibility (1/GPa) = 0.02572169
#
# Stress axis : x y z
#
# Youngs Moduli (GPa) = 79.95737 66.96135 76.47165
#
# Poissons Ratio (x) = 0.10841 0.11648
# Poissons Ratio (y) = 0.12946 0.32543
# Poissons Ratio (z) = 0.12179 0.28496
#
# Static dielectric constant tensor:
#      x y z
#    x 3.806520 0.076880 -0.239280 
#    y 0.076880 3.951850 0.136570 
#    z -0.239280 0.136570 4.070730 
# 
# 
# High freq. dielectric constant tensor:
#      x y z
#    x 1.837120 0.010990 -0.005030 
#    y 0.010990 1.845490 0.005800 
#    z -0.005030 0.005800 1.843310 
# 
# From -- ./inp_files/46250.got.cif
#   From: 2010.06.25/outbox.cif.g09.slc.cpg/sg2_24_cif.got.tgz:46250.got - 2010.06.27 13:26:56.
