data_PCOD8017580
_publ_section_title
;
Structure prediction by ZEFSAII (Michael W. Deem and Ramdas Pophale) SiO2 
 PCOD8017580
Probable space group: P -1
;
_chemical_formula_sum "Si O2"
_cell_formula_units_Z 16
_cell_length_a 17.095110
_cell_length_b 14.712961
_cell_length_c 8.303945
_cell_angle_alpha 107.170889
_cell_angle_beta 121.772694
_cell_angle_gamma 25.123373
_cell_volume 651.610077
_symmetry_space_group_name_H-M "P -1"
_symmetry_group_IT_number 2
_symmetry_cell_setting 'triclinic'
loop_
_space_group_symop_operation_xyz
x,y,z
-x,-y,-z
loop_
_atom_site_type_symbol
_atom_site_label
_atom_site_fract_x
_atom_site_fract_y
_atom_site_fract_z
Si Si1 0.727772 0.597054 0.397545
Si Si2 0.402794 0.755323 0.281551
Si Si3 0.615846 0.918748 0.750926
Si Si4 0.136708 0.496517 0.142005
Si Si5 0.313743 0.638654 0.045084
Si Si6 0.204112 0.642622 0.257533
Si Si7 0.168283 0.925151 0.693508
Si Si8 0.937921 0.868086 0.618186
O O1 0.524997 0.710674 0.267385
O O2 0.854024 0.507590 0.654585
O O3 0.933877 0.356590 0.381676
O O4 0.589563 0.813486 0.262916
O O5 0.267856 0.796005 0.071992
O O6 0.602172 0.513183 0.480654
O O7 0.220699 0.989032 0.318581
O O8 0.673410 0.768896 0.840874
O O9 0.500000 0.000000 0.500000
O O10 0.871327 0.728144 0.910047
O O11 0.226227 0.509460 0.167769
O O12 0.251184 0.661173 0.165328
O O13 0.578326 0.359204 0.126230
O O14 0.132830 0.766157 0.788563
O O15 0.941954 0.910123 0.190089
O O16 0.000000 0.000000 0.500000
O O17 0.213057 0.956835 0.611213
#
# Coordination Sequence:
#
# PCOD8017580 Si02
#       8
#     2   2   2   2   2   2   2   2
#     4  10  22  39  62  94 125 165 206 263 316 372
#     4  11  22  42  60  88 135 171 216 257 309 371
#     4   9  19  38  67  96 120 153 209 261 321 387
#     4   9  19  38  66  94 118 163 209 256 320 386
#     4  12  26  40  61  94 132 177 219 262 309 366
#     4  11  22  41  66  90 127 174 210 262 320 370
#     4  12  23  42  63  86 130 176 218 263 312 364
#     4  12  25  38  61  95 127 169 221 262 304 375
#
# _framework density 24.554559999999999
#
# number of rings (size 3 to 8) (size 9 to 14) (size 15 to 20)
#    0.000    1.250    5.000    1.500    3.500    2.000 
#    0.000    0.000    0.000   14.250    0.000    0.000 
#    0.000    0.000    0.000    0.000    0.000    0.000 
#
# Total GULP energy -198357.044228 kJ/mol
# GULP energy per Si atom -12397.315264 kJ/mol
# Density = 2.449867 g / cm^3
# Si number density = 24.554560 Si / 1000 Ang^3
#
#
#
# Elastic Constant Matrix: (Units=GPa)
#
#
# Indices 1 2 3 4 5 6 
#
# 1 52.9323 26.9240 3.3681 13.8584 5.6810 12.5337
# 2 26.9240 164.5064 9.0578 -0.2509 -12.9151 17.8196
# 3 3.3681 9.0578 69.8169 -15.4466 13.6084 13.4647
# 4 13.8584 -0.2509 -15.4466 37.6733 4.3045 0.6631
# 5 5.6810 -12.9151 13.6084 4.3045 27.6857 -1.6787
# 6 12.5337 17.8196 13.4647 0.6631 -1.6787 40.9246
#
#
#
# Elastic Compliance Matrix: (Units=1/GPa)
#
#
# Indices 1 2 3 4 5 6 
#
# 1 0.025236 -0.003936 -0.000319 -0.008663 -0.005875 -0.006011
# 2 -0.003936 0.007314 -0.001319 0.000441 0.004717 -0.001359
# 3 -0.000319 -0.001319 0.020495 0.010070 -0.012599 -0.006751
# 4 -0.008663 0.000441 0.010070 0.034864 -0.008494 -0.001765
# 5 -0.005875 0.004717 -0.012599 -0.008494 0.047401 0.005973
# 6 -0.006011 -0.001359 -0.006751 -0.001765 0.005973 0.029363
#
#
# Mechanical properties :
#
#
# Convention : Reuss Voigt Hill
#
# Bulk Modulus (GPa) = 23.86765 40.66171 32.26468
# Shear Modulus (GPa) = 26.34524 37.78377 32.06451
#
# Velocity S-wave (km/s) = 3.27911 3.92697 3.61757
# Velocity P-wave (km/s) = 4.90694 6.09567 5.53332
#
# Compressibility (1/GPa) = 0.04189772
#
# Stress axis : x y z
#
# Youngs Moduli (GPa) = 39.62517 136.72812 48.79140
#
# Poissons Ratio (x) = 0.53818 0.01557
# Poissons Ratio (y) = 0.15597 0.06434
# Poissons Ratio (z) = 0.01265 0.18031
#
# Static dielectric constant tensor:
#      x y z
#    x 4.200290 0.479150 0.081490 
#    y 0.479150 4.888690 -0.206970 
#    z 0.081490 -0.206970 4.633580 
# 
# 
# High freq. dielectric constant tensor:
#      x y z
#    x 1.948700 0.028070 -0.002000 
#    y 0.028070 1.984560 -0.016190 
#    z -0.002000 -0.016190 1.988710 
# 
# From -- ./inp_files/348526.got.cif
#   From: 2010.06.25/outbox.cif.g09.slc.cpg/sg2_175_cif.got.tgz:348526.got - 2010.06.27 13:26:56.
