data_PCOD8017343
_publ_section_title
;
Structure prediction by ZEFSAII (Michael W. Deem and Ramdas Pophale) SiO2 
 PCOD8017343
Probable space group: P -1
;
_chemical_formula_sum "Si O2"
_cell_formula_units_Z 10
_cell_length_a 11.568184
_cell_length_b 13.969609
_cell_length_c 11.564645
_cell_angle_alpha 44.287673
_cell_angle_beta 125.212327
_cell_angle_gamma 159.045482
_cell_volume 433.944206
_symmetry_space_group_name_H-M "P -1"
_symmetry_group_IT_number 2
_symmetry_cell_setting 'triclinic'
loop_
_space_group_symop_operation_xyz
x,y,z
-x,-y,-z
loop_
_atom_site_type_symbol
_atom_site_label
_atom_site_fract_x
_atom_site_fract_y
_atom_site_fract_z
Si Si1 0.845992 0.722049 0.376819
Si Si2 0.195308 0.231143 0.304543
Si Si3 0.596360 0.155819 0.083780
Si Si4 0.740929 0.155369 0.604879
Si Si5 0.599960 0.878826 0.220496
O O1 0.604086 0.594587 0.257636
O O2 0.616021 0.446782 0.583646
O O3 0.049506 0.790394 0.362049
O O4 0.125985 0.071348 0.292603
O O5 0.000000 0.000000 0.500000
O O6 0.016564 0.221721 0.184902
O O7 0.503313 0.108561 0.202144
O O8 0.447201 0.872890 0.208214
O O9 0.443001 0.136423 0.928028
O O10 0.000000 0.500000 0.000000
O O11 0.000000 0.500000 0.500000
O O12 0.500000 0.000000 0.500000
#
# Coordination Sequence:
#
# PCOD8017343 Si02
#       5
#     2   2   2   2   2
#     4  11  22  41  67  97 125 171 220 263 322 381
#     4  10  22  38  67  95 127 169 218 267 311 388
#     4  11  25  40  67  96 131 173 215 273 326 386
#     4  12  25  44  67  95 136 170 218 270 322 390
#     4  10  22  40  63  96 128 167 221 266 322 379
#
# _framework density 23.044438
#
# number of rings (size 3 to 8) (size 9 to 14) (size 15 to 20)
#    0.000    1.200    2.000    4.800   14.000    0.000 
#    0.000    2.000    0.000    0.000    0.000    0.000 
#    0.000    0.000    0.000    0.000    0.000    0.000 
#
# Total GULP energy -123990.772022 kJ/mol
# GULP energy per Si atom -12399.077202 kJ/mol
# Density = 2.299199 g / cm^3
# Si number density = 23.044438 Si / 1000 Ang^3
#
#
#
# Elastic Constant Matrix: (Units=GPa)
#
#
# Indices 1 2 3 4 5 6 
#
# 1 125.5924 45.1503 28.5437 24.2634 -16.5603 11.3076
# 2 45.1503 158.2223 46.2344 43.1749 -12.9653 7.4437
# 3 28.5437 46.2344 87.5862 33.5647 -21.5286 12.4581
# 4 24.2634 43.1749 33.5647 45.1674 -1.3510 9.6932
# 5 -16.5603 -12.9653 -21.5286 -1.3510 36.9387 3.3598
# 6 11.3076 7.4437 12.4581 9.6932 3.3598 47.4887
#
#
#
# Elastic Compliance Matrix: (Units=1/GPa)
#
#
# Indices 1 2 3 4 5 6 
#
# 1 0.009816 -0.001488 0.000140 -0.003467 0.003989 -0.001715
# 2 -0.001488 0.009151 -0.001406 -0.006993 0.001413 0.000616
# 3 0.000140 -0.001406 0.020197 -0.012695 0.011177 -0.003311
# 4 -0.003467 -0.006993 -0.012695 0.040321 -0.009725 -0.002290
# 5 0.003989 0.001413 0.011177 -0.009725 0.035939 -0.004661
# 6 -0.001715 0.000616 -0.003311 -0.002290 -0.004661 0.023035
#
#
# Mechanical properties :
#
#
# Convention : Reuss Voigt Hill
#
# Bulk Modulus (GPa) = 29.71357 67.91754 48.81555
# Shear Modulus (GPa) = 32.21936 42.68380 37.45158
#
# Velocity S-wave (km/s) = 3.74323 4.30843 4.03574
# Velocity P-wave (km/s) = 5.62178 7.36794 6.55328
#
# Compressibility (1/GPa) = 0.03365466
#
# Stress axis : x y z
#
# Youngs Moduli (GPa) = 101.87803 109.28089 49.51158
#
# Poissons Ratio (x) = 0.16265 -0.00691
# Poissons Ratio (y) = 0.15163 0.06961
# Poissons Ratio (z) = -0.01423 0.15363
#
# Static dielectric constant tensor:
#      x y z
#    x -0.692010 -5.107470 -3.754040 
#    y -5.107470 -0.005440 -3.420230 
#    z -3.754040 -3.420230 1.125330 
# 
# 
# High freq. dielectric constant tensor:
#      x y z
#    x 1.922020 -0.001430 0.012050 
#    y -0.001430 1.925860 0.023060 
#    z 0.012050 0.023060 1.881610 
# 
# From -- ./inp_files/15896.got.cif
#   From: 2010.06.25/outbox.cif.g09.slc.cpg/sg2_8_cif.got.tgz:15896.got - 2010.06.27 13:26:56.
