data_PCOD8017028
_publ_section_title
;
Structure prediction by ZEFSAII (Michael W. Deem and Ramdas Pophale) SiO2 
 PCOD8017028
Probable space group: P -1
;
_chemical_formula_sum "Si O2"
_cell_formula_units_Z 16
_cell_length_a 14.457541
_cell_length_b 8.118321
_cell_length_c 14.147966
_cell_angle_alpha 132.914683
_cell_angle_beta 43.462369
_cell_angle_gamma 139.852714
_cell_volume 706.086928
_symmetry_space_group_name_H-M "P -1"
_symmetry_group_IT_number 2
_symmetry_cell_setting 'triclinic'
loop_
_space_group_symop_operation_xyz
x,y,z
-x,-y,-z
loop_
_atom_site_type_symbol
_atom_site_label
_atom_site_fract_x
_atom_site_fract_y
_atom_site_fract_z
Si Si1 0.619021 0.121674 0.188685
Si Si2 0.659852 0.763898 0.152503
Si Si3 0.662321 0.763067 0.874561
Si Si4 0.819792 0.784595 0.579900
Si Si5 0.294609 0.072589 0.434071
Si Si6 0.006490 0.457230 0.587721
Si Si7 0.233614 0.278820 0.745997
Si Si8 0.911299 0.832293 0.862748
O O1 0.441619 0.039884 0.309582
O O2 0.720647 0.436094 0.216038
O O3 0.673416 0.032733 0.207602
O O4 0.630959 0.976567 0.029785
O O5 0.505319 0.514314 0.121698
O O6 0.655121 0.718838 0.250878
O O7 0.825785 0.794824 0.011273
O O8 0.754004 0.876932 0.751782
O O9 0.774824 0.711678 0.836921
O O10 0.691990 0.693087 0.552008
O O11 0.830626 0.532034 0.504719
O O12 0.000000 0.000000 0.500000
O O13 0.252174 0.105970 0.584177
O O14 0.153958 0.824956 0.383484
O O15 0.003513 0.678204 0.739001
O O16 0.000000 0.500000 0.500000
O O17 0.048268 0.137802 0.857346
#
# Coordination Sequence:
#
# PCOD8017028 Si02
#       8
#     2   2   2   2   2   2   2   2
#     4  11  26  44  68  96 136 182 219 280 344 396
#     4  11  26  44  70 102 131 181 230 273 338 406
#     4  11  22  44  71  99 133 172 229 282 330 403
#     4  10  22  37  65 103 130 167 222 276 333 397
#     4  11  23  43  62  97 137 173 229 275 332 407
#     4  11  19  38  69  97 128 175 217 282 336 373
#     4  12  26  44  64  97 143 178 223 282 333 403
#     4  11  22  43  69 100 136 170 229 281 332 407
#
# _framework density 22.660098999999999
#
# number of rings (size 3 to 8) (size 9 to 14) (size 15 to 20)
#    0.000    1.000    2.500    5.250    0.000    7.500 
#    0.000    0.000    0.000    0.000    0.000    0.000 
#    0.000    0.000    0.000    0.000    0.000    0.000 
#
# Total GULP energy -198274.907977 kJ/mol
# GULP energy per Si atom -12392.181749 kJ/mol
# Density = 2.260852 g / cm^3
# Si number density = 22.660099 Si / 1000 Ang^3
#
#
#
# Elastic Constant Matrix: (Units=GPa)
#
#
# Indices 1 2 3 4 5 6 
#
# 1 119.2888 11.6395 32.2693 4.7230 -5.8358 -23.6942
# 2 11.6395 91.1694 18.4315 -4.2436 -7.6574 -8.0611
# 3 32.2693 18.4315 127.2023 -11.4651 -11.0573 -13.1979
# 4 4.7230 -4.2436 -11.4651 31.7538 -4.8008 -4.3821
# 5 -5.8358 -7.6574 -11.0573 -4.8008 34.2683 -2.8803
# 6 -23.6942 -8.0611 -13.1979 -4.3821 -2.8803 31.5807
#
#
#
# Elastic Compliance Matrix: (Units=1/GPa)
#
#
# Indices 1 2 3 4 5 6 
#
# 1 0.010408 -0.000258 -0.001838 -0.001048 0.001561 0.006972
# 2 -0.000258 0.011786 -0.000890 0.002137 0.002854 0.002999
# 3 -0.001838 -0.000890 0.009516 0.004575 0.003479 0.003323
# 4 -0.001048 0.002137 0.004575 0.035711 0.007392 0.007300
# 5 0.001561 0.002854 0.003479 0.007392 0.032863 0.007376
# 6 0.006972 0.002999 0.003323 0.007300 0.007376 0.040735
#
#
# Mechanical properties :
#
#
# Convention : Reuss Voigt Hill
#
# Bulk Modulus (GPa) = 38.85576 51.37121 45.11348
# Shear Modulus (GPa) = 32.13932 37.87524 35.00728
#
# Velocity S-wave (km/s) = 3.77015 4.09277 3.93477
# Velocity P-wave (km/s) = 6.01136 6.71222 6.37144
#
# Compressibility (1/GPa) = 0.02573621
#
# Stress axis : x y z
#
# Youngs Moduli (GPa) = 96.07836 84.84669 105.08220
#
# Poissons Ratio (x) = 0.02193 0.19319
# Poissons Ratio (y) = 0.02483 0.09355
# Poissons Ratio (z) = 0.17663 0.07554
#
# Static dielectric constant tensor:
#      x y z
#    x 4.583480 -0.698250 -0.228730 
#    y -0.698250 5.308190 0.242540 
#    z -0.228730 0.242540 4.435290 
# 
# 
# High freq. dielectric constant tensor:
#      x y z
#    x 1.904190 -0.010840 -0.005670 
#    y -0.010840 1.884370 -0.016990 
#    z -0.005670 -0.016990 1.901730 
# 
# From -- ./inp_files/529058.got.cif
#   From: 2010.06.25/outbox.cif.g09.slc.cpg/sg2_265_cif.got.tgz:529058.got - 2010.06.27 13:26:56.
