data_PCOD8017663
_publ_section_title
;
Structure prediction by ZEFSAII (Michael W. Deem and Ramdas Pophale) SiO2 
 PCOD8017663
Probable space group: P -1
;
_chemical_formula_sum "Si O2"
_cell_formula_units_Z 16
_cell_length_a 14.333319
_cell_length_b 17.506919
_cell_length_c 22.497330
_cell_angle_alpha 22.485494
_cell_angle_beta 20.957335
_cell_angle_gamma 34.342133
_cell_volume 743.177223
_symmetry_space_group_name_H-M "P -1"
_symmetry_group_IT_number 2
_symmetry_cell_setting 'triclinic'
loop_
_space_group_symop_operation_xyz
x,y,z
-x,-y,-z
loop_
_atom_site_type_symbol
_atom_site_label
_atom_site_fract_x
_atom_site_fract_y
_atom_site_fract_z
Si Si1 0.017842 0.323735 0.276628
Si Si2 0.881288 0.268347 0.758096
Si Si3 0.189303 0.987158 0.205629
Si Si4 0.895379 0.230370 0.124503
Si Si5 0.319685 0.093154 0.181502
Si Si6 0.650748 0.952519 0.361311
Si Si7 0.825921 0.163573 0.994997
Si Si8 0.824091 0.562859 0.766151
O O1 0.239706 0.269220 0.141026
O O2 0.133007 0.382838 0.230256
O O3 0.943741 0.526332 0.149089
O O4 0.757295 0.125622 0.579492
O O5 0.000000 0.500000 0.500000
O O6 0.132035 0.175638 0.678770
O O7 0.645540 0.155068 0.934091
O O8 0.734191 0.234701 0.935026
O O9 0.979324 0.758586 0.492268
O O10 0.173836 0.080131 0.213884
O O11 0.102103 0.118220 0.111053
O O12 0.500000 0.000000 0.000000
O O13 0.632563 0.202598 0.341667
O O14 0.776288 0.142056 0.194980
O O15 0.591548 0.042158 0.267535
O O16 0.957344 0.379580 0.797027
O O17 0.000000 0.000000 0.000000
O O18 0.500000 0.500000 0.000000
#
# Coordination Sequence:
#
# PCOD8017663 Si02
#       8
#     2   2   2   2   2   2   2   2
#     4  10  22  42  66  93 129 180 224 272 330 397
#     4  11  23  40  68  96 130 169 214 275 332 395
#     4  11  26  43  64  96 137 175 220 283 342 402
#     4  11  22  41  66  94 129 175 222 273 324 394
#     4  10  23  44  62  96 135 172 224 269 337 407
#     4  10  22  39  63  97 131 161 222 274 323 391
#     4  10  22  40  61  99 132 166 211 279 335 391
#     4  11  22  41  71  96 129 179 227 272 339 401
#
# _framework density 21.529184999999998
#
# number of rings (size 3 to 8) (size 9 to 14) (size 15 to 20)
#    0.000    1.500    1.250    3.000    5.250    2.500 
#    4.500    1.875    0.000    0.000    0.000    0.000 
#    0.000    0.000    0.000    0.000    0.000    0.000 
#
# Total GULP energy -198231.604734 kJ/mol
# GULP energy per Si atom -12389.475296 kJ/mol
# Density = 2.148018 g / cm^3
# Si number density = 21.529185 Si / 1000 Ang^3
#
#
#
# Elastic Constant Matrix: (Units=GPa)
#
#
# Indices 1 2 3 4 5 6 
#
# 1 72.7739 27.7197 37.6185 -2.1318 15.1937 0.5513
# 2 27.7197 102.8822 55.4779 -15.0323 1.9536 1.8522
# 3 37.6185 55.4779 143.9911 -11.6611 8.6798 -17.4006
# 4 -2.1318 -15.0323 -11.6611 40.5120 -6.0175 -2.4316
# 5 15.1937 1.9536 8.6798 -6.0175 37.2847 -0.8217
# 6 0.5513 1.8522 -17.4006 -2.4316 -0.8217 34.2521
#
#
#
# Elastic Compliance Matrix: (Units=1/GPa)
#
#
# Indices 1 2 3 4 5 6 
#
# 1 0.018170 -0.003135 -0.003597 -0.002395 -0.006840 -0.002284
# 2 -0.003135 0.013578 -0.004567 0.003720 0.002170 -0.002688
# 3 -0.003597 -0.004567 0.010472 0.001418 -0.000378 0.005717
# 4 -0.002395 0.003720 0.001418 0.027231 0.004904 0.002608
# 5 -0.006840 0.002170 -0.000378 0.004904 0.030393 0.000878
# 6 -0.002284 -0.002688 0.005717 0.002608 0.000878 0.032488
#
#
# Mechanical properties :
#
#
# Convention : Reuss Voigt Hill
#
# Bulk Modulus (GPa) = 50.96069 62.36439 56.66254
# Shear Modulus (GPa) = 30.96563 35.66519 33.31541
#
# Velocity S-wave (km/s) = 3.79662 4.07455 3.93804
# Velocity P-wave (km/s) = 6.55294 7.15305 6.85956
#
# Compressibility (1/GPa) = 0.01962297
#
# Stress axis : x y z
#
# Youngs Moduli (GPa) = 55.03676 73.65030 95.48865
#
# Poissons Ratio (x) = 0.23089 0.34346
# Poissons Ratio (y) = 0.17254 0.43606
# Poissons Ratio (z) = 0.19796 0.33633
#
# Static dielectric constant tensor:
#      x y z
#    x 4.222570 0.300470 0.302470 
#    y 0.300470 3.742870 -0.140580 
#    z 0.302470 -0.140580 4.164180 
# 
# 
# High freq. dielectric constant tensor:
#      x y z
#    x 1.850390 0.015400 0.021320 
#    y 0.015400 1.845000 -0.010330 
#    z 0.021320 -0.010330 1.848500 
# 
# From -- ./inp_files/612181.got.cif
#   From: 2010.06.25/outbox.cif.g09.slc.cpg/sg2_307_cif.got.tgz:612181.got - 2010.06.27 13:26:56.
