data_PCOD8017742
_publ_section_title
;
Structure prediction by ZEFSAII (Michael W. Deem and Ramdas Pophale) SiO2 
 PCOD8017742
Probable space group: P -1
;
_chemical_formula_sum "Si O2"
_cell_formula_units_Z 16
_cell_length_a 14.746633
_cell_length_b 14.876370
_cell_length_c 14.851573
_cell_angle_alpha 140.612983
_cell_angle_beta 37.866205
_cell_angle_gamma 160.721867
_cell_volume 654.071526
_symmetry_space_group_name_H-M "P -1"
_symmetry_group_IT_number 2
_symmetry_cell_setting 'triclinic'
loop_
_space_group_symop_operation_xyz
x,y,z
-x,-y,-z
loop_
_atom_site_type_symbol
_atom_site_label
_atom_site_fract_x
_atom_site_fract_y
_atom_site_fract_z
Si Si1 0.414387 0.778907 0.932394
Si Si2 0.940228 0.253354 0.003252
Si Si3 0.237467 0.625230 0.472957
Si Si4 0.371403 0.550289 0.152687
Si Si5 0.857693 0.841787 0.298761
Si Si6 0.261599 0.417260 0.642003
Si Si7 0.785911 0.602251 0.533651
Si Si8 0.752746 0.098494 0.222904
O O1 0.415970 0.678994 0.767502
O O2 0.099581 0.509158 0.019223
O O3 0.500000 0.000000 0.000000
O O4 0.660673 0.949488 0.943353
O O5 0.854073 0.243261 0.159630
O O6 0.152570 0.289851 0.872049
O O7 0.430951 0.673033 0.300147
O O8 0.103359 0.430952 0.513147
O O9 0.398093 0.895731 0.599019
O O10 0.000000 0.500000 0.500000
O O11 0.031706 0.265146 0.184006
O O12 0.527026 0.785602 0.143602
O O13 0.500000 0.500000 0.000000
O O14 0.944796 0.827777 0.312324
O O15 0.557882 0.676983 0.411816
O O16 0.097816 0.154235 0.331039
O O17 0.500000 0.500000 0.500000
O O18 0.104973 0.331302 0.604093
#
# Coordination Sequence:
#
# PCOD8017742 Si02
#       8
#     2   2   2   2   2   2   2   2
#     4  11  24  41  64  96 140 180 223 275 329 409
#     4  11  23  42  67  96 139 177 225 277 345 392
#     4  10  26  48  69 102 142 179 228 289 350 408
#     4  11  25  45  74 101 132 173 229 291 349 408
#     4  10  22  39  65 100 135 170 226 288 327 402
#     4   9  20  41  63  96 131 175 217 276 334 387
#     4  11  23  39  70  97 132 180 230 273 343 412
#     4  11  25  45  70  98 139 180 221 286 351 411
#
# _framework density 24.462156
#
# number of rings (size 3 to 8) (size 9 to 14) (size 15 to 20)
#    0.000    1.500    0.000    4.500    5.250    7.000 
#    4.500    0.000    0.000    0.000    0.000    0.000 
#    0.000    0.000    0.000    0.000    0.000    0.000 
#
# Total GULP energy -198250.241919 kJ/mol
# GULP energy per Si atom -12390.640120 kJ/mol
# Density = 2.440648 g / cm^3
# Si number density = 24.462156 Si / 1000 Ang^3
#
#
#
# Elastic Constant Matrix: (Units=GPa)
#
#
# Indices 1 2 3 4 5 6 
#
# 1 122.3538 24.6372 41.4236 9.6507 0.9492 -22.8305
# 2 24.6372 101.9942 28.2008 16.2468 -2.7057 -17.8508
# 3 41.4236 28.2008 170.3757 10.6184 -2.3446 -15.3964
# 4 9.6507 16.2468 10.6184 36.0155 -11.8107 -6.6189
# 5 0.9492 -2.7057 -2.3446 -11.8107 30.7746 4.8925
# 6 -22.8305 -17.8508 -15.3964 -6.6189 4.8925 34.0800
#
#
#
# Elastic Compliance Matrix: (Units=1/GPa)
#
#
# Indices 1 2 3 4 5 6 
#
# 1 0.010094 -0.000803 -0.001757 -0.001445 -0.001952 0.005547
# 2 -0.000803 0.011747 -0.001090 -0.004409 -0.001429 0.004471
# 3 -0.001757 -0.001090 0.006625 -0.000795 -0.000016 0.001093
# 4 -0.001445 -0.004409 -0.000795 0.034793 0.012744 0.001291
# 5 -0.001952 -0.001429 -0.000016 0.012744 0.038123 -0.005061
# 6 0.005547 0.004471 0.001093 0.001291 -0.005061 0.036872
#
#
# Mechanical properties :
#
#
# Convention : Reuss Voigt Hill
#
# Bulk Modulus (GPa) = 47.24546 64.80520 56.02533
# Shear Modulus (GPa) = 32.76359 40.20484 36.48422
#
# Velocity S-wave (km/s) = 3.66369 4.05847 3.86613
# Velocity P-wave (km/s) = 6.10348 6.96499 6.54842
#
# Compressibility (1/GPa) = 0.02116605
#
# Stress axis : x y z
#
# Youngs Moduli (GPa) = 99.07194 85.12925 150.94333
#
# Poissons Ratio (x) = 0.06838 0.26516
# Poissons Ratio (y) = 0.07957 0.16451
# Poissons Ratio (z) = 0.17404 0.09278
#
# Static dielectric constant tensor:
#      x y z
#    x 4.579070 -0.254220 0.371450 
#    y -0.254220 4.451890 -0.260840 
#    z 0.371450 -0.260840 4.904930 
# 
# 
# High freq. dielectric constant tensor:
#      x y z
#    x 1.956330 -0.015150 0.005030 
#    y -0.015150 1.965940 0.010160 
#    z 0.005030 0.010160 1.982790 
# 
# From -- ./inp_files/534426.got.cif
#   From: 2010.06.25/outbox.cif.g09.slc.cpg/sg2_268_cif.got.tgz:534426.got - 2010.06.27 13:26:56.
