data_PCOD8017469
_publ_section_title
;
Structure prediction by ZEFSAII (Michael W. Deem and Ramdas Pophale) SiO2 
 PCOD8017469
Probable space group: P -1
;
_chemical_formula_sum "Si O2"
_cell_formula_units_Z 12
_cell_length_a 11.763887
_cell_length_b 21.406214
_cell_length_c 9.192530
_cell_angle_alpha 29.893174
_cell_angle_beta 40.389867
_cell_angle_gamma 30.190663
_cell_volume 579.469723
_symmetry_space_group_name_H-M "P -1"
_symmetry_group_IT_number 2
_symmetry_cell_setting 'triclinic'
loop_
_space_group_symop_operation_xyz
x,y,z
-x,-y,-z
loop_
_atom_site_type_symbol
_atom_site_label
_atom_site_fract_x
_atom_site_fract_y
_atom_site_fract_z
Si Si1 0.108059 0.271509 0.617290
Si Si2 0.261766 0.120069 0.063208
Si Si3 0.060259 0.194484 0.523266
Si Si4 0.202920 0.356353 0.880127
Si Si5 0.616722 0.102540 0.370963
Si Si6 0.592368 0.321402 0.741848
O O1 0.014486 0.219961 0.689988
O O2 0.365336 0.179804 0.504483
O O3 0.969084 0.462157 0.375626
O O4 0.082009 0.217932 0.909744
O O5 0.218792 0.014479 0.417995
O O6 0.268177 0.239979 0.915920
O O7 0.500000 0.000000 0.000000
O O8 0.837188 0.223388 0.621342
O O9 0.290654 0.017448 0.617041
O O10 0.074289 0.331602 0.176970
O O11 0.428501 0.315679 0.809525
O O12 0.621310 0.244046 0.029781
O O13 0.500000 0.500000 0.500000
#
# Coordination Sequence:
#
# PCOD8017469 Si02
#       6
#     2   2   2   2   2   2
#     4  11  19  38  65  90 120 163 199 244 308 359
#     4   9  22  38  65  88 120 168 202 241 307 364
#     4  11  22  38  65  93 120 158 206 256 300 353
#     4  11  22  40  66  90 124 161 198 257 301 358
#     4  10  22  39  60  90 124 157 204 252 295 360
#     4  12  23  38  63  96 121 155 207 253 306 354
#
# _framework density 20.708590000000001
#
# number of rings (size 3 to 8) (size 9 to 14) (size 15 to 20)
#    0.000    1.333    3.333    3.000    4.667    0.000 
#    0.000    0.833   11.000    9.000    0.000    0.000 
#    0.000    0.000    0.000    0.000    0.000    0.000 
#
# Total GULP energy -148684.963925 kJ/mol
# GULP energy per Si atom -12390.413660 kJ/mol
# Density = 2.066146 g / cm^3
# Si number density = 20.708590 Si / 1000 Ang^3
#
#
#
# Elastic Constant Matrix: (Units=GPa)
#
#
# Indices 1 2 3 4 5 6 
#
# 1 103.8525 44.9869 62.1324 6.4668 23.4511 5.6891
# 2 44.9869 104.1930 45.6704 -9.7582 8.1978 1.8866
# 3 62.1324 45.6704 156.8009 -20.9298 29.4388 1.6878
# 4 6.4668 -9.7582 -20.9298 30.5059 -10.1677 -2.4231
# 5 23.4511 8.1978 29.4388 -10.1677 29.9334 9.8172
# 6 5.6891 1.8866 1.6878 -2.4231 9.8172 38.6773
#
#
#
# Elastic Compliance Matrix: (Units=1/GPa)
#
#
# Indices 1 2 3 4 5 6 
#
# 1 0.019332 -0.006342 -0.005236 -0.014069 -0.013081 0.000133
# 2 -0.006342 0.013158 -0.001435 0.006214 0.005065 -0.000543
# 3 -0.005236 -0.001435 0.010526 0.006614 -0.004222 0.001867
# 4 -0.014069 0.006214 0.006614 0.048760 0.019517 -0.000421
# 5 -0.013081 0.005065 -0.004222 0.019517 0.056764 -0.011324
# 6 0.000133 -0.000543 0.001867 -0.000421 -0.011324 0.028628
#
#
# Mechanical properties :
#
#
# Convention : Reuss Voigt Hill
#
# Bulk Modulus (GPa) = 58.86399 74.49176 66.67788
# Shear Modulus (GPa) = 23.93962 33.96044 28.95003
#
# Velocity S-wave (km/s) = 3.40372 4.05399 3.74300
# Velocity P-wave (km/s) = 6.62825 7.61332 7.13780
#
# Compressibility (1/GPa) = 0.01698831
#
# Stress axis : x y z
#
# Youngs Moduli (GPa) = 51.72806 75.99765 95.00461
#
# Poissons Ratio (x) = 0.48201 0.49748
# Poissons Ratio (y) = 0.32808 0.13634
# Poissons Ratio (z) = 0.27087 0.10906
#
# Static dielectric constant tensor:
#      x y z
#    x 4.027740 -0.006820 0.573980 
#    y -0.006820 3.837560 -0.034570 
#    z 0.573980 -0.034570 4.377080 
# 
# 
# High freq. dielectric constant tensor:
#      x y z
#    x 1.785250 -0.000920 0.018220 
#    y -0.000920 1.820930 -0.015930 
#    z 0.018220 -0.015930 1.819760 
# 
# From -- ./inp_files/150150.got.cif
#   From: 2010.06.25/outbox.cif.g09.slc.cpg/sg2_76_cif.got.tgz:150150.got - 2010.06.27 13:26:56.
