data_PCOD8017431
_publ_section_title
;
Structure prediction by ZEFSAII (Michael W. Deem and Ramdas Pophale) SiO2 
 PCOD8017431
Probable space group: P -1
;
_chemical_formula_sum "Si O2"
_cell_formula_units_Z 14
_cell_length_a 12.116433
_cell_length_b 17.808996
_cell_length_c 15.938355
_cell_angle_alpha 151.770936
_cell_angle_beta 153.053648
_cell_angle_gamma 44.561293
_cell_volume 693.209679
_symmetry_space_group_name_H-M "P -1"
_symmetry_group_IT_number 2
_symmetry_cell_setting 'triclinic'
loop_
_space_group_symop_operation_xyz
x,y,z
-x,-y,-z
loop_
_atom_site_type_symbol
_atom_site_label
_atom_site_fract_x
_atom_site_fract_y
_atom_site_fract_z
Si Si1 0.786671 0.111874 0.826263
Si Si2 0.884462 0.118459 0.220531
Si Si3 0.547133 0.201156 0.355166
Si Si4 0.016739 0.657997 0.336639
Si Si5 0.813351 0.605684 0.710698
Si Si6 0.002408 0.687121 0.675358
Si Si7 0.502829 0.586803 0.327512
O O1 0.500000 0.000000 0.500000
O O2 0.968510 0.000310 0.832540
O O3 0.895973 0.269693 0.991886
O O4 0.798849 0.182972 0.998585
O O5 0.013150 0.218491 0.489624
O O6 0.898898 0.255643 0.294630
O O7 0.590473 0.000771 0.927447
O O8 0.812273 0.234888 0.517827
O O9 0.355609 0.283798 0.257801
O O10 0.608719 0.282729 0.570944
O O11 0.159923 0.530466 0.339844
O O12 0.728919 0.565135 0.017436
O O13 0.667615 0.518175 0.439609
O O14 0.707182 0.684075 0.489327
O O15 0.000000 0.500000 0.500000
#
# Coordination Sequence:
#
# PCOD8017431 Si02
#       7
#     2   2   2   2   2   2   2
#     4  10  22  39  59  87 125 154 198 244 306 361
#     4  11  23  37  62  90 119 161 190 252 309 348
#     4   9  21  42  58  86 125 157 200 252 296 347
#     4  12  21  37  67  87 118 162 207 241 295 365
#     4   8  20  39  58  87 118 158 200 243 298 341
#     4  11  23  42  62  86 126 153 197 256 297 363
#     4   9  22  38  61  89 118 152 209 236 302 348
#
# _framework density 20.195910000000001
#
# number of rings (size 3 to 8) (size 9 to 14) (size 15 to 20)
#    0.857    1.143    1.429    3.429    4.000    0.571 
#    0.000    0.000    0.000    2.571    0.000    0.000 
#    0.000    0.000    0.000    0.000    0.000    0.000 
#
# Total GULP energy -173513.869024 kJ/mol
# GULP energy per Si atom -12393.847787 kJ/mol
# Density = 2.014994 g / cm^3
# Si number density = 20.195910 Si / 1000 Ang^3
#
#
#
# Elastic Constant Matrix: (Units=GPa)
#
#
# Indices 1 2 3 4 5 6 
#
# 1 103.7727 15.8739 69.0227 4.6510 -0.1765 10.9179
# 2 15.8739 46.7578 24.6476 16.9629 -0.2182 8.4526
# 3 69.0227 24.6476 193.0987 -1.6106 -0.7999 10.3639
# 4 4.6510 16.9629 -1.6106 25.6521 -5.5297 2.8660
# 5 -0.1765 -0.2182 -0.7999 -5.5297 35.8730 9.8586
# 6 10.9179 8.4526 10.3639 2.8660 9.8586 20.6665
#
#
#
# Elastic Compliance Matrix: (Units=1/GPa)
#
#
# Indices 1 2 3 4 5 6 
#
# 1 0.013240 -0.000821 -0.004378 -0.001369 0.001066 -0.004782
# 2 -0.000821 0.032574 -0.003631 -0.020980 -0.001011 -0.007676
# 3 -0.004378 -0.003631 0.007291 0.003959 0.000968 -0.000869
# 4 -0.001369 -0.020980 0.003959 0.056106 0.010047 -0.005255
# 5 0.001066 -0.001011 0.000968 0.010047 0.034529 -0.018500
# 6 -0.004782 -0.007676 -0.000869 -0.005255 -0.018500 0.064042
#
#
# Mechanical properties :
#
#
# Convention : Reuss Voigt Hill
#
# Bulk Modulus (GPa) = 28.21416 62.52417 45.36917
# Shear Modulus (GPa) = 21.07401 32.04399 26.55900
#
# Velocity S-wave (km/s) = 3.23380 3.98761 3.63032
# Velocity P-wave (km/s) = 5.28619 7.22685 6.33132
#
# Compressibility (1/GPa) = 0.03544319
#
# Stress axis : x y z
#
# Youngs Moduli (GPa) = 75.52600 30.69958 137.15739
#
# Poissons Ratio (x) = 0.02521 0.60052
# Poissons Ratio (y) = 0.06202 0.49808
# Poissons Ratio (z) = 0.33068 0.11148
#
# Static dielectric constant tensor:
#      x y z
#    x 3.811750 0.027650 0.141480 
#    y 0.027650 3.228620 0.172670 
#    z 0.141480 0.172670 3.796180 
# 
# 
# High freq. dielectric constant tensor:
#      x y z
#    x 1.795460 -0.001100 0.003460 
#    y -0.001100 1.750410 0.016190 
#    z 0.003460 0.016190 1.794160 
# 
# From -- ./inp_files/354012.got.cif
#   From: 2010.06.25/outbox.cif.g09.slc.cpg/sg2_178_cif.got.tgz:354012.got - 2010.06.27 13:26:56.
