data_PCOD8017484
_publ_section_title
;
Structure prediction by ZEFSAII (Michael W. Deem and Ramdas Pophale) SiO2 
 PCOD8017484
Probable space group: P -1
;
_chemical_formula_sum "Si O2"
_cell_formula_units_Z 16
_cell_length_a 19.369584
_cell_length_b 21.925592
_cell_length_c 6.167050
_cell_angle_alpha 63.827073
_cell_angle_beta 115.431969
_cell_angle_gamma 161.399388
_cell_volume 749.155748
_symmetry_space_group_name_H-M "P -1"
_symmetry_group_IT_number 2
_symmetry_cell_setting 'triclinic'
loop_
_space_group_symop_operation_xyz
x,y,z
-x,-y,-z
loop_
_atom_site_type_symbol
_atom_site_label
_atom_site_fract_x
_atom_site_fract_y
_atom_site_fract_z
Si Si1 0.899171 0.488181 0.333492
Si Si2 0.759493 0.573715 0.025796
Si Si3 0.110041 0.782319 0.921815
Si Si4 0.888296 0.825293 0.710962
Si Si5 0.187896 0.484905 0.441658
Si Si6 0.494245 0.812247 0.018720
Si Si7 0.683138 0.849833 0.988901
Si Si8 0.901552 0.964092 0.738077
O O1 0.832070 0.468175 0.497317
O O2 0.000000 0.500000 0.500000
O O3 0.691533 0.304156 0.186251
O O4 0.078628 0.683681 0.150329
O O5 0.758715 0.539634 0.317043
O O6 0.542824 0.375326 0.916141
O O7 0.764422 0.659438 0.912538
O O8 0.961792 0.716102 0.937258
O O9 0.037993 0.714872 0.679335
O O10 0.360860 0.013438 0.923176
O O11 0.779109 0.806143 0.667244
O O12 0.910313 0.840980 0.453467
O O13 0.138376 0.033607 0.798261
O O14 0.383791 0.665555 0.259899
O O15 0.649005 0.901087 0.917163
O O16 0.746913 0.892135 0.753133
O O17 0.000000 0.000000 0.000000
#
# Coordination Sequence:
#
# PCOD8017484 Si02
#       8
#     2   2   2   2   2   2   2   2
#     4  10  23  44  64  91 133 166 204 258 309 372
#     4  11  22  37  62  95 122 161 209 260 314 365
#     4  10  22  39  60  95 126 162 215 254 308 375
#     4  10  22  41  61  86 127 161 207 262 310 376
#     4  10  22  40  62  93 126 162 206 257 313 367
#     4  11  22  40  63  95 128 163 213 260 306 371
#     4  11  21  38  62  91 122 160 209 261 309 362
#     4   9  22  42  60  87 123 167 205 253 319 368
#
# _framework density 21.357372000000002
#
# number of rings (size 3 to 8) (size 9 to 14) (size 15 to 20)
#    0.000    1.750    5.000    0.000    1.750    8.000 
#    0.000    6.875    0.000    0.000    0.000    0.000 
#    0.000    0.000    0.000    0.000    0.000    0.000 
#
# Total GULP energy -198277.290997 kJ/mol
# GULP energy per Si atom -12392.330687 kJ/mol
# Density = 2.130876 g / cm^3
# Si number density = 21.357372 Si / 1000 Ang^3
#
#
#
# Elastic Constant Matrix: (Units=GPa)
#
#
# Indices 1 2 3 4 5 6 
#
# 1 61.7050 19.9125 29.3244 -8.4355 2.7524 -12.4890
# 2 19.9125 125.5756 37.6080 18.0020 -2.5217 -27.1905
# 3 29.3244 37.6080 100.2480 -0.3168 -7.6467 -7.6851
# 4 -8.4355 18.0020 -0.3168 28.7664 -3.8666 -2.0281
# 5 2.7524 -2.5217 -7.6467 -3.8666 29.2370 -3.7076
# 6 -12.4890 -27.1905 -7.6851 -2.0281 -3.7076 28.2724
#
#
#
# Elastic Compliance Matrix: (Units=1/GPa)
#
#
# Indices 1 2 3 4 5 6 
#
# 1 0.021761 -0.001397 -0.005401 0.007470 -0.001692 0.007114
# 2 -0.001397 0.012469 -0.003485 -0.007472 0.000571 0.009966
# 3 -0.005401 -0.003485 0.013010 0.001100 0.003546 -0.001657
# 4 0.007470 -0.007472 0.001100 0.042253 0.004533 0.000038
# 5 -0.001692 0.000571 0.003546 0.004533 0.036687 0.005902
# 6 0.007114 0.009966 -0.001657 0.000038 0.005902 0.048424
#
#
# Mechanical properties :
#
#
# Convention : Reuss Voigt Hill
#
# Bulk Modulus (GPa) = 37.49243 51.24649 44.36946
# Shear Modulus (GPa) = 24.50234 30.63406 27.56820
#
# Velocity S-wave (km/s) = 3.39079 3.79140 3.59668
# Velocity P-wave (km/s) = 5.73784 6.57367 6.16992
#
# Compressibility (1/GPa) = 0.02667205
#
# Stress axis : x y z
#
# Youngs Moduli (GPa) = 45.95466 80.19715 76.86690
#
# Poissons Ratio (x) = 0.11207 0.41517
# Poissons Ratio (y) = 0.06422 0.26789
# Poissons Ratio (z) = 0.24821 0.27949
#
# Static dielectric constant tensor:
#      x y z
#    x 4.033780 -0.100520 -0.343080 
#    y -0.100520 3.772210 0.066930 
#    z -0.343080 0.066930 4.003740 
# 
# 
# High freq. dielectric constant tensor:
#      x y z
#    x 1.826110 -0.012780 -0.009880 
#    y -0.012780 1.821030 0.003940 
#    z -0.009880 0.003940 1.844100 
# 
# From -- ./inp_files/105758.got.cif
#   From: 2010.06.25/outbox.cif.g09.slc.cpg/sg2_53_cif.got.tgz:105758.got - 2010.06.27 13:26:56.
