data_PCOD8017893
_publ_section_title
;
Structure prediction by ZEFSAII (Michael W. Deem and Ramdas Pophale) SiO2 
 PCOD8017893
Probable space group: P -1
;
_chemical_formula_sum "Si O2"
_cell_formula_units_Z 14
_cell_length_a 8.062100
_cell_length_b 15.326053
_cell_length_c 14.412843
_cell_angle_alpha 29.819482
_cell_angle_beta 59.062390
_cell_angle_gamma 79.216386
_cell_volume 603.583884
_symmetry_space_group_name_H-M "P -1"
_symmetry_group_IT_number 2
_symmetry_cell_setting 'triclinic'
loop_
_space_group_symop_operation_xyz
x,y,z
-x,-y,-z
loop_
_atom_site_type_symbol
_atom_site_label
_atom_site_fract_x
_atom_site_fract_y
_atom_site_fract_z
Si Si1 0.634752 0.807636 0.916483
Si Si2 0.600082 0.845235 0.511004
Si Si3 0.920489 0.441970 0.681235
Si Si4 0.809205 0.991130 0.127371
Si Si5 0.275964 0.763996 0.436157
Si Si6 0.168406 0.442530 0.922095
Si Si7 0.281285 0.989657 0.482355
O O1 0.717760 0.022430 0.752487
O O2 0.751396 0.895274 0.699267
O O3 0.344020 0.617615 0.172275
O O4 0.755887 0.697123 0.024358
O O5 0.771840 0.883967 0.338941
O O6 0.367521 0.591350 0.806359
O O7 0.528410 0.014406 0.368126
O O8 0.719899 0.888472 0.537590
O O9 0.000000 0.500000 0.500000
O O10 0.129609 0.649066 0.490617
O O11 0.912871 0.235664 0.899449
O O12 0.556084 0.854092 0.269172
O O13 0.000000 0.000000 0.000000
O O14 0.146265 0.591166 0.718441
O O15 0.919415 0.274488 0.204554
#
# Coordination Sequence:
#
# PCOD8017893 Si02
#       7
#     2   2   2   2   2   2   2
#     4  11  25  43  65 104 135 168 232 276 325 410
#     4  10  22  39  67  99 132 181 214 274 338 393
#     4  11  25  45  67  95 136 178 221 282 340 393
#     4  10  22  44  68 101 133 169 233 276 321 406
#     4  10  24  47  67  97 135 179 219 276 345 392
#     4  11  23  40  70  96 130 179 220 267 340 401
#     4  11  21  41  65  98 141 170 223 272 333 399
#
# _framework density 23.194789
#
# number of rings (size 3 to 8) (size 9 to 14) (size 15 to 20)
#    0.000    1.429    4.286    1.714    6.000    4.571 
#    5.143    0.000    0.000    0.000    0.000    0.000 
#    0.000    0.000    0.000    0.000    0.000    0.000 
#
# Total GULP energy -173541.819532 kJ/mol
# GULP energy per Si atom -12395.844252 kJ/mol
# Density = 2.314200 g / cm^3
# Si number density = 23.194789 Si / 1000 Ang^3
#
#
#
# Elastic Constant Matrix: (Units=GPa)
#
#
# Indices 1 2 3 4 5 6 
#
# 1 31.8009 30.4263 22.0623 -2.1534 -8.2462 7.5428
# 2 30.4263 125.9923 48.8803 16.1416 -26.0051 16.9309
# 3 22.0623 48.8803 104.7293 2.0488 -18.9843 20.0549
# 4 -2.1534 16.1416 2.0488 42.9329 -2.8102 -8.7077
# 5 -8.2462 -26.0051 -18.9843 -2.8102 30.0415 -9.4413
# 6 7.5428 16.9309 20.0549 -8.7077 -9.4413 53.9822
#
#
#
# Elastic Compliance Matrix: (Units=1/GPa)
#
#
# Indices 1 2 3 4 5 6 
#
# 1 0.044575 -0.009292 -0.004826 0.006011 0.001620 -0.000268
# 2 -0.009292 0.013462 -0.002756 -0.005315 0.006346 -0.001647
# 3 -0.004826 -0.002756 0.013033 -0.000132 0.003670 -0.002682
# 4 0.006011 -0.005315 -0.000132 0.026769 0.001167 0.005398
# 5 0.001620 0.006346 0.003670 0.001167 0.042949 0.004119
# 6 -0.000268 -0.001647 -0.002682 0.005398 0.004119 0.021667
#
#
# Mechanical properties :
#
#
# Convention : Reuss Voigt Hill
#
# Bulk Modulus (GPa) = 26.79343 51.69560 39.24452
# Shear Modulus (GPa) = 23.96434 36.13489 30.04962
#
# Velocity S-wave (km/s) = 3.21780 3.95129 3.60326
# Velocity P-wave (km/s) = 5.03807 6.56909 5.85385
#
# Compressibility (1/GPa) = 0.03732258
#
# Stress axis : x y z
#
# Youngs Moduli (GPa) = 22.43421 74.28119 76.72885
#
# Poissons Ratio (x) = 0.69021 0.37028
# Poissons Ratio (y) = 0.20846 0.21146
# Poissons Ratio (z) = 0.10826 0.20472
#
# Static dielectric constant tensor:
#      x y z
#    x 3.951240 -0.008460 -0.115540 
#    y -0.008460 4.121820 -0.193060 
#    z -0.115540 -0.193060 4.246380 
# 
# 
# High freq. dielectric constant tensor:
#      x y z
#    x 1.892340 -0.004790 -0.009520 
#    y -0.004790 1.917810 -0.004690 
#    z -0.009520 -0.004690 1.931760 
# 
# From -- ./inp_files/417471.got.cif
#   From: 2010.06.25/outbox.cif.g09.slc.cpg/sg2_209_cif.got.tgz:417471.got - 2010.06.27 13:26:56.
