data_PCOD8017703
_publ_section_title
;
Structure prediction by ZEFSAII (Michael W. Deem and Ramdas Pophale) SiO2 
 PCOD8017703
Probable space group: P -1
;
_chemical_formula_sum "Si O2"
_cell_formula_units_Z 14
_cell_length_a 12.088149
_cell_length_b 5.104047
_cell_length_c 12.802036
_cell_angle_alpha 92.555160
_cell_angle_beta 60.756077
_cell_angle_gamma 73.809155
_cell_volume 646.270834
_symmetry_space_group_name_H-M "P -1"
_symmetry_group_IT_number 2
_symmetry_cell_setting 'triclinic'
loop_
_space_group_symop_operation_xyz
x,y,z
-x,-y,-z
loop_
_atom_site_type_symbol
_atom_site_label
_atom_site_fract_x
_atom_site_fract_y
_atom_site_fract_z
Si Si1 0.216291 0.903071 0.231369
Si Si2 0.734033 0.231279 0.030310
Si Si3 0.945041 0.465579 0.637691
Si Si4 0.631226 0.362962 0.505403
Si Si5 0.211499 0.259777 0.634620
Si Si6 0.522676 0.345786 0.772477
Si Si7 0.260151 0.269904 0.851301
O O1 0.147020 0.728928 0.331625
O O2 0.366350 0.852086 0.204240
O O3 0.138108 0.231672 0.273906
O O4 0.221424 0.792627 0.109865
O O5 0.570478 0.377504 0.117489
O O6 0.805096 0.421071 0.063004
O O7 0.783592 0.932702 0.056842
O O8 0.000000 0.500000 0.500000
O O9 0.064607 0.304998 0.658204
O O10 0.500000 0.500000 0.500000
O O11 0.745483 0.484947 0.420519
O O12 0.595625 0.435748 0.643681
O O13 0.683899 0.030771 0.459756
O O14 0.202605 0.258761 0.763357
O O15 0.424414 0.184230 0.770913
#
# Coordination Sequence:
#
# PCOD8017703 Si02
#       7
#     2   2   2   2   2   2   2
#     4  12  25  44  68  93 124 177 215 251 319 377
#     4  10  23  41  63  98 130 159 212 267 323 369
#     4  12  27  47  66  92 130 173 214 256 304 385
#     4  12  22  37  67 100 128 163 204 262 331 378
#     4  12  24  43  63  95 135 166 212 262 315 374
#     4  10  24  37  67  96 133 157 213 269 322 372
#     4  10  22  39  64  92 132 161 202 267 329 357
#
# _framework density 21.662747
#
# number of rings (size 3 to 8) (size 9 to 14) (size 15 to 20)
#    0.857    0.000    1.429    6.429    4.000    0.571 
#    0.000    4.286    0.000    0.000    0.000    0.000 
#    0.000    0.000    0.000    0.000    0.000    0.000 
#
# Total GULP energy -173630.068999 kJ/mol
# GULP energy per Si atom -12402.147786 kJ/mol
# Density = 2.161344 g / cm^3
# Si number density = 21.662747 Si / 1000 Ang^3
#
#
#
# Elastic Constant Matrix: (Units=GPa)
#
#
# Indices 1 2 3 4 5 6 
#
# 1 84.9704 26.4893 8.8090 -0.4809 17.4003 -12.0001
# 2 26.4893 109.6551 13.6148 -3.6139 -0.0178 3.3334
# 3 8.8090 13.6148 84.5869 -10.1490 13.6215 -10.5470
# 4 -0.4809 -3.6139 -10.1490 40.0901 1.1611 -3.5371
# 5 17.4003 -0.0178 13.6215 1.1611 16.6143 -4.2661
# 6 -12.0001 3.3334 -10.5470 -3.5371 -4.2661 29.8194
#
#
#
# Elastic Compliance Matrix: (Units=1/GPa)
#
#
# Indices 1 2 3 4 5 6 
#
# 1 0.017899 -0.004842 0.003078 0.001678 -0.019800 0.006199
# 2 -0.004842 0.010714 -0.002693 -0.000244 0.006486 -0.003200
# 3 0.003078 -0.002693 0.015577 0.004652 -0.014920 0.005467
# 4 0.001678 -0.000244 0.004652 0.026708 -0.006252 0.004622
# 5 -0.019800 0.006486 -0.014920 -0.006252 0.093250 -0.001371
# 6 0.006199 -0.003200 0.005467 0.004622 -0.001371 0.038673
#
#
# Mechanical properties :
#
#
# Convention : Reuss Voigt Hill
#
# Bulk Modulus (GPa) = 28.34790 41.89317 35.12054
# Shear Modulus (GPa) = 22.37187 32.65805 27.51496
#
# Velocity S-wave (km/s) = 3.21711 3.88695 3.56778
# Velocity P-wave (km/s) = 5.18788 6.28692 5.76365
#
# Compressibility (1/GPa) = 0.03527598
#
# Stress axis : x y z
#
# Youngs Moduli (GPa) = 55.86907 93.33647 64.19531
#
# Poissons Ratio (x) = 0.45197 -0.19761
# Poissons Ratio (y) = 0.27054 0.17288
# Poissons Ratio (z) = -0.17198 0.25136
#
# Static dielectric constant tensor:
#      x y z
#    x 3.916100 0.014470 0.032060 
#    y 0.014470 4.041520 -0.112560 
#    z 0.032060 -0.112560 3.924720 
# 
# 
# High freq. dielectric constant tensor:
#      x y z
#    x 1.843670 0.000050 0.007970 
#    y 0.000050 1.857520 -0.004080 
#    z 0.007970 -0.004080 1.856320 
# 
# From -- ./inp_files/407821.got.cif
#   From: 2010.06.25/outbox.cif.g09.slc.cpg/sg2_204_cif.got.tgz:407821.got - 2010.06.27 13:26:56.
