data_PCOD8017749
_publ_section_title
;
Structure prediction by ZEFSAII (Michael W. Deem and Ramdas Pophale) SiO2 
 PCOD8017749
Probable space group: P -1
;
_chemical_formula_sum "Si O2"
_cell_formula_units_Z 14
_cell_length_a 6.616354
_cell_length_b 9.365251
_cell_length_c 15.350336
_cell_angle_alpha 88.158835
_cell_angle_beta 124.615930
_cell_angle_gamma 62.181075
_cell_volume 631.961176
_symmetry_space_group_name_H-M "P -1"
_symmetry_group_IT_number 2
_symmetry_cell_setting 'triclinic'
loop_
_space_group_symop_operation_xyz
x,y,z
-x,-y,-z
loop_
_atom_site_type_symbol
_atom_site_label
_atom_site_fract_x
_atom_site_fract_y
_atom_site_fract_z
Si Si1 0.987496 0.884958 0.572664
Si Si2 0.239403 0.715052 0.277658
Si Si3 0.055407 0.333287 0.067134
Si Si4 0.575780 0.965129 0.119143
Si Si5 0.454569 0.203183 0.519733
Si Si6 0.657316 0.642779 0.702486
Si Si7 0.723902 0.201297 0.910485
O O1 0.812806 0.799780 0.501527
O O2 0.343105 0.730807 0.679955
O O3 0.782171 0.008213 0.601902
O O4 0.000000 0.000000 0.500000
O O5 0.502776 0.676059 0.409049
O O6 0.207939 0.557337 0.279329
O O7 0.311140 0.735912 0.197434
O O8 0.919083 0.895145 0.224479
O O9 0.103244 0.349492 0.180756
O O10 0.355894 0.147117 0.112793
O O11 0.000000 0.500000 0.000000
O O12 0.766482 0.326561 0.980529
O O13 0.566019 0.798409 0.142648
O O14 0.500000 0.000000 0.000000
O O15 0.374343 0.269052 0.399506
O O16 0.000000 0.000000 0.000000
#
# Coordination Sequence:
#
# PCOD8017749 Si02
#       7
#     2   2   2   2   2   2   2
#     4   9  21  42  62  91 125 165 210 259 314 369
#     4  12  23  41  65  94 128 166 212 262 312 386
#     4  11  21  43  65  91 131 165 209 268 314 374
#     4  11  22  42  65  94 125 167 215 257 319 379
#     4  10  23  41  66  93 125 166 215 253 318 378
#     4  11  23  41  63  94 132 162 210 264 316 371
#     4  10  22  39  65  90 127 165 211 255 322 365
#
# _framework density 22.153258999999998
#
# number of rings (size 3 to 8) (size 9 to 14) (size 15 to 20)
#    0.000    1.429    4.286    1.286    0.000   10.857 
#    2.571    1.429    0.000    0.000    0.000    0.000 
#    0.000    0.000    0.000    0.000    0.000    0.000 
#
# Total GULP energy -173457.915850 kJ/mol
# GULP energy per Si atom -12389.851132 kJ/mol
# Density = 2.210284 g / cm^3
# Si number density = 22.153259 Si / 1000 Ang^3
#
#
#
# Elastic Constant Matrix: (Units=GPa)
#
#
# Indices 1 2 3 4 5 6 
#
# 1 105.4722 28.9727 42.0050 6.1044 7.1823 27.8523
# 2 28.9727 106.0139 46.8318 16.8791 -2.4019 28.0958
# 3 42.0050 46.8318 146.8116 32.9634 -5.3305 20.0802
# 4 6.1044 16.8791 32.9634 43.1174 3.1901 8.9599
# 5 7.1823 -2.4019 -5.3305 3.1901 21.6414 -0.4923
# 6 27.8523 28.0958 20.0802 8.9599 -0.4923 34.0192
#
#
#
# Elastic Compliance Matrix: (Units=1/GPa)
#
#
# Indices 1 2 3 4 5 6 
#
# 1 0.013807 -0.000258 -0.003473 0.003339 -0.006186 -0.010010
# 2 -0.000258 0.013224 -0.002594 -0.001397 0.000920 -0.008798
# 3 -0.003473 -0.002594 0.010205 -0.006789 0.004398 0.000814
# 4 0.003339 -0.001397 -0.006789 0.030183 -0.007513 -0.005631
# 5 -0.006186 0.000920 0.004398 -0.007513 0.050654 0.004421
# 6 -0.010010 -0.008798 0.000814 -0.005631 0.004421 0.045923
#
#
# Mechanical properties :
#
#
# Convention : Reuss Voigt Hill
#
# Bulk Modulus (GPa) = 40.67493 65.99076 53.33284
# Shear Modulus (GPa) = 27.05010 35.78813 31.41912
#
# Velocity S-wave (km/s) = 3.49813 4.02366 3.77007
# Velocity P-wave (km/s) = 5.89207 7.17213 6.56338
#
# Compressibility (1/GPa) = 0.02458517
#
# Stress axis : x y z
#
# Youngs Moduli (GPa) = 72.42949 75.61961 97.98644
#
# Poissons Ratio (x) = 0.01951 0.34034
# Poissons Ratio (y) = 0.01868 0.25420
# Poissons Ratio (z) = 0.25157 0.19617
#
# Static dielectric constant tensor:
#      x y z
#    x 4.167730 -0.682510 0.530480 
#    y -0.682510 1.139810 0.243160 
#    z 0.530480 0.243160 4.060850 
# 
# 
# High freq. dielectric constant tensor:
#      x y z
#    x 1.866800 0.017000 0.010180 
#    y 0.017000 1.875420 0.002210 
#    z 0.010180 0.002210 1.869330 
# 
# From -- ./inp_files/480596.got.cif
#   From: 2010.06.25/outbox.cif.g09.slc.cpg/sg2_241_cif.got.tgz:480596.got - 2010.06.27 13:26:56.
