data_PCOD8017075
_publ_section_title
;
Structure prediction by ZEFSAII (Michael W. Deem and Ramdas Pophale) SiO2 
 PCOD8017075
Probable space group: P -1
;
_chemical_formula_sum "Si O2"
_cell_formula_units_Z 12
_cell_length_a 11.327114
_cell_length_b 14.455209
_cell_length_c 14.874411
_cell_angle_alpha 28.176534
_cell_angle_beta 152.329363
_cell_angle_gamma 141.589992
_cell_volume 534.002324
_symmetry_space_group_name_H-M "P -1"
_symmetry_group_IT_number 2
_symmetry_cell_setting 'triclinic'
loop_
_space_group_symop_operation_xyz
x,y,z
-x,-y,-z
loop_
_atom_site_type_symbol
_atom_site_label
_atom_site_fract_x
_atom_site_fract_y
_atom_site_fract_z
Si Si1 0.459166 0.624331 0.751193
Si Si2 0.656433 0.813932 0.372161
Si Si3 0.687160 0.135593 0.728885
Si Si4 0.875934 0.473978 0.052154
Si Si5 0.247573 0.247409 0.000141
Si Si6 0.256583 0.756836 0.999776
O O1 0.377983 0.746974 0.505753
O O2 0.240753 0.468155 0.766022
O O3 0.709874 0.493875 0.012257
O O4 0.538157 0.765766 0.765854
O O5 0.506219 0.820255 0.359316
O O6 0.891600 0.671771 0.655935
O O7 0.768857 0.025467 0.241274
O O8 0.476643 0.733986 0.240511
O O9 0.971315 0.196104 0.899390
O O10 0.679383 0.904647 0.898984
O O11 0.688171 0.393953 0.915258
O O12 0.984837 0.690964 0.915012
#
# Coordination Sequence:
#
# PCOD8017075 Si02
#       6
#     2   2   2   2   2   2
#     4  11  23  41  63  89 120 155 199 246 294 351
#     4  11  23  39  61  91 122 155 195 242 298 355
#     4  11  22  41  64  86 120 157 198 247 292 348
#     4  11  22  38  62  90 122 155 192 243 300 354
#     4  10  24  42  62  88 116 158 204 244 292 344
#     4  10  22  38  56  88 124 156 194 234 292 356
#
# _framework density 22.471813000000001
#
# number of rings (size 3 to 8) (size 9 to 14) (size 15 to 20)
#    0.000    1.333    0.000    6.000    0.000    2.667 
#    0.000   13.333    0.000    0.000    0.000    0.000 
#    0.000    0.000    0.000    0.000    0.000    0.000 
#
# Total GULP energy -148786.731576 kJ/mol
# GULP energy per Si atom -12398.894298 kJ/mol
# Density = 2.242067 g / cm^3
# Si number density = 22.471813 Si / 1000 Ang^3
#
#
#
# Elastic Constant Matrix: (Units=GPa)
#
#
# Indices 1 2 3 4 5 6 
#
# 1 64.5629 31.1233 18.7605 -0.4173 -3.3766 -0.0803
# 2 31.1233 165.3330 36.1508 1.3070 -14.6104 3.2467
# 3 18.7605 36.1508 78.5633 0.3305 -15.1894 0.3901
# 4 -0.4173 1.3070 0.3305 19.7665 -0.6739 -10.0516
# 5 -3.3766 -14.6104 -15.1894 -0.6739 43.7079 -0.8042
# 6 -0.0803 3.2467 0.3901 -10.0516 -0.8042 13.2166
#
#
#
# Elastic Compliance Matrix: (Units=1/GPa)
#
#
# Indices 1 2 3 4 5 6 
#
# 1 0.017700 -0.002762 -0.003082 0.001659 -0.000563 0.002104
# 2 -0.002762 0.007293 -0.002422 -0.002119 0.001290 -0.003270
# 3 -0.003082 -0.002422 0.015410 0.000294 0.004324 0.000608
# 4 0.001659 -0.002119 0.000294 0.083416 0.001987 0.064083
# 5 -0.000563 0.001290 0.004324 0.001987 0.024847 0.002576
# 6 0.002104 -0.003270 0.000608 0.064083 0.002576 0.125354
#
#
# Mechanical properties :
#
#
# Convention : Reuss Voigt Hill
#
# Bulk Modulus (GPa) = 41.89041 53.39203 47.64122
# Shear Modulus (GPa) = 16.74994 30.16650 23.45822
#
# Velocity S-wave (km/s) = 2.73312 3.66787 3.23444
# Velocity P-wave (km/s) = 5.35179 6.46134 5.93256
#
# Compressibility (1/GPa) = 0.02387181
#
# Stress axis : x y z
#
# Youngs Moduli (GPa) = 56.49800 137.12100 64.89090
#
# Poissons Ratio (x) = 0.37876 0.19998
# Poissons Ratio (y) = 0.15606 0.15714
# Poissons Ratio (z) = 0.17411 0.33206
#
# Static dielectric constant tensor:
#      x y z
#    x 4.097540 0.013020 -0.154360 
#    y 0.013020 4.514180 0.007940 
#    z -0.154360 0.007940 3.834590 
# 
# 
# High freq. dielectric constant tensor:
#      x y z
#    x 1.882960 0.000940 -0.014680 
#    y 0.000940 1.914060 0.000670 
#    z -0.014680 0.000670 1.874860 
# 
# From -- ./inp_files/520682.got.cif
#   From: 2010.06.25/outbox.cif.g09.slc.cpg/sg2_261_cif.got.tgz:520682.got - 2010.06.27 13:26:56.
