data_PCOD8017443
_publ_section_title
;
Structure prediction by ZEFSAII (Michael W. Deem and Ramdas Pophale) SiO2 
 PCOD8017443
Probable space group: P -1
;
_chemical_formula_sum "Si O2"
_cell_formula_units_Z 16
_cell_length_a 8.826160
_cell_length_b 11.682721
_cell_length_c 15.422231
_cell_angle_alpha 127.855639
_cell_angle_beta 125.851093
_cell_angle_gamma 40.983304
_cell_volume 800.122951
_symmetry_space_group_name_H-M "P -1"
_symmetry_group_IT_number 2
_symmetry_cell_setting 'triclinic'
loop_
_space_group_symop_operation_xyz
x,y,z
-x,-y,-z
loop_
_atom_site_type_symbol
_atom_site_label
_atom_site_fract_x
_atom_site_fract_y
_atom_site_fract_z
Si Si1 0.212514 0.209937 0.739337
Si Si2 0.225159 0.953326 0.505430
Si Si3 0.735708 0.954886 0.859637
Si Si4 0.623925 0.451949 0.260767
Si Si5 0.623806 0.547217 0.496838
Si Si6 0.895557 0.042451 0.118643
Si Si7 0.882682 0.184142 0.743064
Si Si8 0.999097 0.456189 0.285217
O O1 0.025223 0.215285 0.738220
O O2 0.113803 0.416187 0.779027
O O3 0.252384 0.108696 0.612727
O O4 0.456053 0.108092 0.825681
O O5 0.463428 0.764212 0.530683
O O6 0.190611 0.934272 0.382700
O O7 0.000000 0.000000 0.500000
O O8 0.809334 0.752813 0.779410
O O9 0.866681 0.992368 0.850543
O O10 0.804133 0.969010 0.985720
O O11 0.662745 0.442720 0.372306
O O12 0.686246 0.258878 0.163892
O O13 0.354703 0.614644 0.217005
O O14 0.792675 0.485672 0.286404
O O15 0.500000 0.500000 0.500000
O O16 0.875648 0.478695 0.586103
O O17 0.956402 0.926136 0.171826
#
# Coordination Sequence:
#
# PCOD8017443 Si02
#       8
#     2   2   2   2   2   2   2   2
#     4  11  22  38  63  88 126 159 201 250 302 359
#     4   9  19  35  54  88 121 154 193 236 299 356
#     4  10  23  44  61  91 116 164 210 246 304 353
#     4  10  23  39  59  91 122 157 205 245 305 359
#     4  11  21  36  60  89 127 157 198 248 301 365
#     4  10  23  42  67  82 123 163 204 255 296 360
#     4  10  22  39  59  92 121 159 202 248 303 359
#     4  11  22  39  61  89 123 160 200 251 298 363
#
# _framework density 19.996926999999999
#
# number of rings (size 3 to 8) (size 9 to 14) (size 15 to 20)
#    0.000    1.750    1.250    3.375    5.250    2.500 
#    0.000    6.875    0.000    0.000    0.000    0.000 
#    0.000    0.000    0.000    0.000    0.000    0.000 
#
# Total GULP energy -198422.926644 kJ/mol
# GULP energy per Si atom -12401.432915 kJ/mol
# Density = 1.995141 g / cm^3
# Si number density = 19.996927 Si / 1000 Ang^3
#
#
#
# Elastic Constant Matrix: (Units=GPa)
#
#
# Indices 1 2 3 4 5 6 
#
# 1 80.3339 32.4955 27.0795 -5.4311 -7.5335 4.2703
# 2 32.4955 87.1428 21.8133 -16.8570 -5.1696 -3.9719
# 3 27.0795 21.8133 76.4226 -6.1668 -5.8538 6.3806
# 4 -5.4311 -16.8570 -6.1668 26.7591 -1.3510 -2.3144
# 5 -7.5335 -5.1696 -5.8538 -1.3510 27.0792 -7.1036
# 6 4.2703 -3.9719 6.3806 -2.3144 -7.1036 37.1393
#
#
#
# Elastic Compliance Matrix: (Units=1/GPa)
#
#
# Indices 1 2 3 4 5 6 
#
# 1 0.016087 -0.005084 -0.004037 -0.000869 0.002241 -0.001325
# 2 -0.005084 0.015969 -0.002143 0.008987 0.002594 0.003717
# 3 -0.004037 -0.002143 0.015509 0.001291 0.001336 -0.002093
# 4 -0.000869 0.008987 0.001291 0.043806 0.005132 0.004551
# 5 0.002241 0.002594 0.001336 0.005132 0.040661 0.007887
# 6 -0.001325 0.003717 -0.002093 0.004551 0.007887 0.029627
#
#
# Mechanical properties :
#
#
# Convention : Reuss Voigt Hill
#
# Bulk Modulus (GPa) = 39.94102 45.18619 42.56361
# Shear Modulus (GPa) = 25.96949 29.02957 27.49953
#
# Velocity S-wave (km/s) = 3.60762 3.81425 3.71238
# Velocity P-wave (km/s) = 6.11312 6.48411 6.30134
#
# Compressibility (1/GPa) = 0.02503692
#
# Stress axis : x y z
#
# Youngs Moduli (GPa) = 62.16108 62.61967 64.48041
#
# Poissons Ratio (x) = 0.31836 0.26031
# Poissons Ratio (y) = 0.31603 0.13819
# Poissons Ratio (z) = 0.25095 0.13420
#
# Static dielectric constant tensor:
#      x y z
#    x 3.525540 -0.124330 -0.013980 
#    y -0.124330 3.756320 0.116330 
#    z -0.013980 0.116330 3.771240 
# 
# 
# High freq. dielectric constant tensor:
#      x y z
#    x 1.772640 -0.008740 -0.000390 
#    y -0.008740 1.793700 -0.001580 
#    z -0.000390 -0.001580 1.777950 
# 
# From -- ./inp_files/270791.got.cif
#   From: 2010.06.25/outbox.cif.g09.slc.cpg/sg2_136_cif.got.tgz:270791.got - 2010.06.27 13:26:56.
