data_PCOD8017960
_publ_section_title
;
Structure prediction by ZEFSAII (Michael W. Deem and Ramdas Pophale) SiO2 
 PCOD8017960
Probable space group: P -1
;
_chemical_formula_sum "Si O2"
_cell_formula_units_Z 16
_cell_length_a 9.125388
_cell_length_b 8.695466
_cell_length_c 16.429411
_cell_angle_alpha 103.307590
_cell_angle_beta 35.317926
_cell_angle_gamma 96.805624
_cell_volume 727.840885
_symmetry_space_group_name_H-M "P -1"
_symmetry_group_IT_number 2
_symmetry_cell_setting 'triclinic'
loop_
_space_group_symop_operation_xyz
x,y,z
-x,-y,-z
loop_
_atom_site_type_symbol
_atom_site_label
_atom_site_fract_x
_atom_site_fract_y
_atom_site_fract_z
Si Si1 0.202325 0.153179 0.502797
Si Si2 0.790935 0.211668 0.566031
Si Si3 0.600406 0.707406 0.118115
Si Si4 0.566477 0.354089 0.077185
Si Si5 0.043626 0.237432 0.291139
Si Si6 0.780427 0.128810 0.812581
Si Si7 0.360871 0.636603 0.636345
Si Si8 0.130631 0.630325 0.906960
O O1 0.456949 0.231990 0.408859
O O2 0.042571 0.228456 0.507423
O O3 0.036097 0.180921 0.663713
O O4 0.276512 0.967492 0.429955
O O5 0.544556 0.309855 0.731701
O O6 0.844494 0.277146 0.460478
O O7 0.618439 0.531224 0.048333
O O8 0.449995 0.839567 0.144304
O O9 0.884815 0.757556 0.009037
O O10 0.263039 0.351886 0.210827
O O11 0.668812 0.302117 0.115035
O O12 0.721059 0.228497 0.932271
O O13 0.888410 0.273280 0.283232
O O14 0.182458 0.057613 0.206846
O O15 0.500000 0.500000 0.500000
O O16 0.274586 0.563656 0.751489
O O17 0.000000 0.500000 0.000000
#
# Coordination Sequence:
#
# PCOD8017960 Si02
#       8
#     2   2   2   2   2   2   2   2
#     4   9  21  41  66  96 135 176 224 268 342 386
#     4   9  20  41  67  96 132 179 221 272 328 412
#     4  10  22  39  70  94 132 174 229 273 338 391
#     4  11  23  39  68  95 133 176 231 274 333 397
#     4  11  25  41  65  99 139 177 227 271 345 395
#     4  10  22  42  66  97 135 183 216 276 331 417
#     4  12  28  42  68 101 140 172 229 288 330 399
#     4  10  25  44  62  98 133 173 219 274 344 389
#
# _framework density 21.982828000000001
#
# number of rings (size 3 to 8) (size 9 to 14) (size 15 to 20)
#    0.000    1.750    0.000    3.000   10.500    3.500 
#    0.000    1.875    0.000    0.000    0.000    0.000 
#    0.000    0.000    0.000    0.000    0.000    0.000 
#
# Total GULP energy -198398.849767 kJ/mol
# GULP energy per Si atom -12399.928110 kJ/mol
# Density = 2.193279 g / cm^3
# Si number density = 21.982828 Si / 1000 Ang^3
#
#
#
# Elastic Constant Matrix: (Units=GPa)
#
#
# Indices 1 2 3 4 5 6 
#
# 1 154.6286 41.0540 57.1008 -8.5140 -8.9911 6.8398
# 2 41.0540 56.3228 17.9921 -0.8460 -5.2417 -2.0698
# 3 57.1008 17.9921 117.4821 1.9561 16.0394 3.4404
# 4 -8.5140 -0.8460 1.9561 31.5515 1.4764 -1.9352
# 5 -8.9911 -5.2417 16.0394 1.4764 47.6124 -6.3636
# 6 6.8398 -2.0698 3.4404 -1.9352 -6.3636 33.5800
#
#
#
# Elastic Compliance Matrix: (Units=1/GPa)
#
#
# Indices 1 2 3 4 5 6 
#
# 1 0.009881 -0.005618 -0.004279 0.002587 0.002434 -0.001310
# 2 -0.005618 0.022505 -0.001094 -0.000763 0.002212 0.003019
# 3 -0.004279 -0.001094 0.011504 -0.001753 -0.004938 -0.001411
# 4 0.002587 -0.000763 -0.001753 0.032565 0.000188 0.001518
# 5 0.002434 0.002212 -0.004938 0.000188 0.023992 0.004704
# 6 -0.001310 0.003019 -0.001411 0.001518 0.004704 0.031356
#
#
# Mechanical properties :
#
#
# Convention : Reuss Voigt Hill
#
# Bulk Modulus (GPa) = 45.64584 62.30304 53.97444
# Shear Modulus (GPa) = 31.03929 36.70122 33.87025
#
# Velocity S-wave (km/s) = 3.76171 4.09043 3.92951
# Velocity P-wave (km/s) = 6.29894 7.12124 6.72268
#
# Compressibility (1/GPa) = 0.02190780
#
# Stress axis : x y z
#
# Youngs Moduli (GPa) = 101.20750 44.43555 86.92742
#
# Poissons Ratio (x) = 0.24964 0.37196
# Poissons Ratio (y) = 0.56858 0.09507
# Poissons Ratio (z) = 0.43306 0.04860
#
# Static dielectric constant tensor:
#      x y z
#    x 4.408550 -0.119820 -0.062270 
#    y -0.119820 3.641110 0.024630 
#    z -0.062270 0.024630 4.233970 
# 
# 
# High freq. dielectric constant tensor:
#      x y z
#    x 1.874550 -0.006330 0.001350 
#    y -0.006330 1.840080 -0.000400 
#    z 0.001350 -0.000400 1.882180 
# 
# From -- ./inp_files/495108.got.cif
#   From: 2010.06.25/outbox.cif.g09.slc.cpg/sg2_248_cif.got.tgz:495108.got - 2010.06.27 13:26:56.
