data_PCOD8017928
_publ_section_title
;
Structure prediction by ZEFSAII (Michael W. Deem and Ramdas Pophale) SiO2 
 PCOD8017928
Probable space group: P -1
;
_chemical_formula_sum "Si O2"
_cell_formula_units_Z 16
_cell_length_a 8.226310
_cell_length_b 17.371330
_cell_length_c 5.585621
_cell_angle_alpha 78.788359
_cell_angle_beta 55.845680
_cell_angle_gamma 81.855590
_cell_volume 647.404403
_symmetry_space_group_name_H-M "P -1"
_symmetry_group_IT_number 2
_symmetry_cell_setting 'triclinic'
loop_
_space_group_symop_operation_xyz
x,y,z
-x,-y,-z
loop_
_atom_site_type_symbol
_atom_site_label
_atom_site_fract_x
_atom_site_fract_y
_atom_site_fract_z
Si Si1 0.115914 0.544190 0.571921
Si Si2 0.397561 0.271143 0.494968
Si Si3 0.418053 0.892215 0.534464
Si Si4 0.877484 0.612360 0.108987
Si Si5 0.328308 0.992248 0.960625
Si Si6 0.986679 0.098205 0.309965
Si Si7 0.974118 0.810347 0.287217
Si Si8 0.757456 0.332694 0.913195
O O1 0.203646 0.474625 0.710839
O O2 0.280417 0.601586 0.302429
O O3 0.000000 0.500000 0.500000
O O4 0.951304 0.605299 0.782566
O O5 0.535118 0.197998 0.515258
O O6 0.297025 0.321454 0.763828
O O7 0.224615 0.238157 0.494751
O O8 0.541374 0.328552 0.206113
O O9 0.616606 0.940354 0.320604
O O10 0.245817 0.920201 0.471726
O O11 0.329942 0.908483 0.868788
O O12 0.072795 0.635079 0.077709
O O13 0.111646 0.015479 0.225630
O O14 0.500000 0.000000 0.000000
O O15 0.041841 0.134664 0.497789
O O16 0.018615 0.150785 0.011153
O O17 0.167149 0.752913 0.192543
#
# Coordination Sequence:
#
# PCOD8017928 Si02
#       8
#     2   2   2   2   2   2   2   2
#     4   9  19  41  65  95 137 184 225 286 347 419
#     4  11  22  45  68 102 139 182 236 293 355 421
#     4  11  25  44  68 100 138 182 234 293 357 423
#     4   9  21  41  66  97 139 180 230 287 350 417
#     4  11  26  45  70  99 139 182 237 292 356 423
#     4  12  26  47  72  99 142 187 236 292 360 421
#     4  11  26  44  70 104 141 186 234 298 353 420
#     4  10  22  39  68  99 138 180 235 285 354 416
#
# _framework density 24.714075000000001
#
# number of rings (size 3 to 8) (size 9 to 14) (size 15 to 20)
#    0.000    1.500    2.500    1.125    7.000    2.000 
#    2.250    5.625    0.000    0.000    0.000    0.000 
#    0.000    0.000    0.000    0.000    0.000    0.000 
#
# Total GULP energy -198219.598171 kJ/mol
# GULP energy per Si atom -12388.724886 kJ/mol
# Density = 2.465782 g / cm^3
# Si number density = 24.714075 Si / 1000 Ang^3
#
#
#
# Elastic Constant Matrix: (Units=GPa)
#
#
# Indices 1 2 3 4 5 6 
#
# 1 74.3902 27.3678 36.0189 19.0842 -13.1511 -0.5238
# 2 27.3678 142.9807 57.1194 36.9123 -5.1465 -0.1173
# 3 36.0189 57.1194 123.8555 21.4263 -15.2039 10.0762
# 4 19.0842 36.9123 21.4263 56.3592 2.8199 -3.6295
# 5 -13.1511 -5.1465 -15.2039 2.8199 48.2268 4.7583
# 6 -0.5238 -0.1173 10.0762 -3.6295 4.7583 20.4385
#
#
#
# Elastic Compliance Matrix: (Units=1/GPa)
#
#
# Indices 1 2 3 4 5 6 
#
# 1 0.017125 -0.000648 -0.003560 -0.004166 0.003663 0.000597
# 2 -0.000648 0.009776 -0.003588 -0.004751 -0.000084 0.000984
# 3 -0.003560 -0.003588 0.012018 -0.001631 0.003229 -0.007078
# 4 -0.004166 -0.004751 -0.001631 0.023464 -0.004101 0.005791
# 5 0.003663 -0.000084 0.003229 -0.004101 0.023748 -0.007756
# 6 0.000597 0.000984 -0.007078 0.005791 -0.007756 0.055272
#
#
# Mechanical properties :
#
#
# Convention : Reuss Voigt Hill
#
# Bulk Modulus (GPa) = 42.86821 64.69319 53.78070
# Shear Modulus (GPa) = 30.34504 39.71959 35.03231
#
# Velocity S-wave (km/s) = 3.50786 4.01329 3.76906
# Velocity P-wave (km/s) = 5.81293 6.90716 6.38353
#
# Compressibility (1/GPa) = 0.02332731
#
# Stress axis : x y z
#
# Youngs Moduli (GPa) = 58.39380 102.29168 83.20597
#
# Poissons Ratio (x) = 0.06629 0.29618
# Poissons Ratio (y) = 0.03784 0.29858
# Poissons Ratio (z) = 0.20786 0.36707
#
# Static dielectric constant tensor:
#      x y z
#    x 4.184240 -0.069270 -0.201100 
#    y -0.069270 5.473730 -0.543060 
#    z -0.201100 -0.543060 5.430290 
# 
# 
# High freq. dielectric constant tensor:
#      x y z
#    x 1.956140 0.007570 -0.009940 
#    y 0.007570 1.997840 -0.002250 
#    z -0.009940 -0.002250 2.003810 
# 
# From -- ./inp_files/47284.got.cif
#   From: 2010.06.25/outbox.cif.g09.slc.cpg/sg2_24_cif.got.tgz:47284.got - 2010.06.27 13:26:56.
