data_PCOD8017029
_publ_section_title
;
Structure prediction by ZEFSAII (Michael W. Deem and Ramdas Pophale) SiO2 
 PCOD8017029
Probable space group: P -1
;
_chemical_formula_sum "Si O2"
_cell_formula_units_Z 12
_cell_length_a 8.788969
_cell_length_b 10.067385
_cell_length_c 8.955559
_cell_angle_alpha 76.552578
_cell_angle_beta 45.414879
_cell_angle_gamma 104.430702
_cell_volume 440.972401
_symmetry_space_group_name_H-M "P -1"
_symmetry_group_IT_number 2
_symmetry_cell_setting 'triclinic'
loop_
_space_group_symop_operation_xyz
x,y,z
-x,-y,-z
loop_
_atom_site_type_symbol
_atom_site_label
_atom_site_fract_x
_atom_site_fract_y
_atom_site_fract_z
Si Si1 0.644686 0.904431 0.409468
Si Si2 0.043631 0.770766 0.725550
Si Si3 0.212394 0.072693 0.031041
Si Si4 0.312298 0.540392 0.787977
Si Si5 0.797296 0.544985 0.453183
Si Si6 0.258452 0.774538 0.280707
O O1 0.642437 0.893244 0.235729
O O2 0.381367 0.728081 0.695496
O O3 0.688929 0.075622 0.406394
O O4 0.903497 0.909417 0.281916
O O5 0.105413 0.810791 0.497810
O O6 0.798626 0.773286 0.947350
O O7 0.939680 0.579217 0.893839
O O8 0.416660 0.068422 0.003656
O O9 0.569872 0.559109 0.666690
O O10 0.215335 0.451870 0.716994
O O11 0.740159 0.375019 0.605752
O O12 0.092176 0.712756 0.258158
#
# Coordination Sequence:
#
# PCOD8017029 Si02
#       6
#     2   2   2   2   2   2
#     4   9  19  39  65  92 125 172 203 257 325 370
#     4  10  22  37  71  92 124 168 210 261 319 367
#     4   9  18  40  59  89 128 166 197 260 312 372
#     4  11  19  43  67  92 125 171 210 259 314 383
#     4  10  22  37  65  91 132 166 209 261 316 376
#     4  11  21  41  62  99 125 166 214 258 321 376
#
# _framework density 27.212588
#
# number of rings (size 3 to 8) (size 9 to 14) (size 15 to 20)
#    1.000    1.000    3.333    1.000    0.000    2.000 
#    0.000    3.333    0.000    2.000    0.000    0.000 
#    0.000    0.000    0.000    0.000    0.000    0.000 
#
# Total GULP energy -148666.852687 kJ/mol
# GULP energy per Si atom -12388.904391 kJ/mol
# Density = 2.715065 g / cm^3
# Si number density = 27.212588 Si / 1000 Ang^3
#
#
#
# Elastic Constant Matrix: (Units=GPa)
#
#
# Indices 1 2 3 4 5 6 
#
# 1 124.8886 34.3042 24.2461 -8.4959 -31.1713 27.3971
# 2 34.3042 106.5554 23.3689 4.4307 -14.1689 13.7576
# 3 24.2461 23.3689 74.3482 -4.7024 -10.9837 1.6938
# 4 -8.4959 4.4307 -4.7024 36.1732 12.6666 -16.9647
# 5 -31.1713 -14.1689 -10.9837 12.6666 40.4927 -7.3168
# 6 27.3971 13.7576 1.6938 -16.9647 -7.3168 40.8581
#
#
#
# Elastic Compliance Matrix: (Units=1/GPa)
#
#
# Indices 1 2 3 4 5 6 
#
# 1 0.012327 -0.001145 -0.002515 -0.003871 0.008187 -0.007917
# 2 -0.001145 0.011690 -0.003061 -0.005445 0.003228 -0.004724
# 3 -0.002515 -0.003061 0.015476 0.003161 0.000841 0.003539
# 4 -0.003871 -0.005445 0.003161 0.041526 -0.013564 0.019111
# 5 0.008187 0.003228 0.000841 -0.013564 0.035536 -0.005880
# 6 -0.007917 -0.004724 0.003539 0.019111 -0.005880 0.038110
#
#
# Mechanical properties :
#
#
# Convention : Reuss Voigt Hill
#
# Bulk Modulus (GPa) = 38.38605 52.18120 45.28363
# Shear Modulus (GPa) = 28.28197 38.42965 33.35581
#
# Velocity S-wave (km/s) = 3.22731 3.76200 3.50487
# Velocity P-wave (km/s) = 5.29377 6.17149 5.74940
#
# Compressibility (1/GPa) = 0.02605113
#
# Stress axis : x y z
#
# Youngs Moduli (GPa) = 81.12476 85.54057 64.61566
#
# Poissons Ratio (x) = 0.09795 0.16251
# Poissons Ratio (y) = 0.09290 0.19778
# Poissons Ratio (z) = 0.20403 0.26183
#
# Static dielectric constant tensor:
#      x y z
#    x 5.098670 -0.036820 -0.618320 
#    y -0.036820 5.075490 -0.361740 
#    z -0.618320 -0.361740 4.778520 
# 
# 
# High freq. dielectric constant tensor:
#      x y z
#    x 2.115470 -0.011530 -0.047650 
#    y -0.011530 2.101970 -0.020750 
#    z -0.047650 -0.020750 2.093550 
# 
# From -- ./inp_files/178639.got.cif
#   From: 2010.06.25/outbox.cif.g09.slc.cpg/sg2_90_cif.got.tgz:178639.got - 2010.06.27 13:26:56.
