data_PCOD8017477
_publ_section_title
;
Structure prediction by ZEFSAII (Michael W. Deem and Ramdas Pophale) SiO2 
 PCOD8017477
Probable space group: P -1
;
_chemical_formula_sum "Si O2"
_cell_formula_units_Z 16
_cell_length_a 28.180791
_cell_length_b 7.848992
_cell_length_c 10.008862
_cell_angle_alpha 132.723382
_cell_angle_beta 27.860463
_cell_angle_gamma 130.100485
_cell_volume 753.687278
_symmetry_space_group_name_H-M "P -1"
_symmetry_group_IT_number 2
_symmetry_cell_setting 'triclinic'
loop_
_space_group_symop_operation_xyz
x,y,z
-x,-y,-z
loop_
_atom_site_type_symbol
_atom_site_label
_atom_site_fract_x
_atom_site_fract_y
_atom_site_fract_z
Si Si1 0.456451 0.236851 0.454382
Si Si2 0.181111 0.541374 0.222997
Si Si3 0.338939 0.963454 0.136532
Si Si4 0.866527 0.314712 0.122654
Si Si5 0.177083 0.795768 0.115485
Si Si6 0.905834 0.711591 0.438062
Si Si7 0.721522 0.880719 0.356249
Si Si8 0.382878 0.034204 0.785517
O O1 0.500000 0.500000 0.500000
O O2 0.391708 0.178956 0.452241
O O3 0.381854 0.204868 0.753251
O O4 0.544382 0.069979 0.139971
O O5 0.276437 0.705942 0.137196
O O6 0.125784 0.684751 0.322366
O O7 0.107679 0.440684 0.472551
O O8 0.213607 0.324671 0.946098
O O9 0.288863 0.103946 0.450186
O O10 0.339730 0.117694 0.079525
O O11 0.859888 0.557133 0.344912
O O12 0.773230 0.125633 0.298934
O O13 0.859163 0.360262 0.006047
O O14 0.972686 0.216650 0.843313
O O15 0.149218 0.057212 0.298490
O O16 0.301409 0.806243 0.827990
O O17 0.500000 0.000000 0.500000
#
# Coordination Sequence:
#
# PCOD8017477 Si02
#       8
#     2   2   2   2   2   2   2   2
#     4  11  20  37  65  91 121 171 216 259 324 381
#     4  11  23  40  67  93 132 168 212 267 322 384
#     4  10  22  39  60  92 128 168 213 262 322 378
#     4  11  24  43  69  95 130 168 221 269 324 385
#     4  11  23  42  68  96 129 174 213 266 327 387
#     4  11  24  46  66  96 130 171 215 277 324 375
#     4  12  22  40  64  94 128 171 216 266 317 389
#     4   9  20  38  62  86 129 164 203 263 310 373
#
# _framework density 21.228963
#
# number of rings (size 3 to 8) (size 9 to 14) (size 15 to 20)
#    0.000    1.250    5.000    0.750    0.000    2.500 
#    0.000    1.875    0.000    0.000    0.000    0.000 
#    0.000    0.000    0.000    0.000    0.000    0.000 
#
# Total GULP energy -198272.043942 kJ/mol
# GULP energy per Si atom -12392.002746 kJ/mol
# Density = 2.118064 g / cm^3
# Si number density = 21.228963 Si / 1000 Ang^3
#
#
#
# Elastic Constant Matrix: (Units=GPa)
#
#
# Indices 1 2 3 4 5 6 
#
# 1 112.8138 38.2052 30.3544 6.9224 32.9974 11.1896
# 2 38.2052 67.5152 21.5459 -0.1568 17.9245 10.6021
# 3 30.3544 21.5459 75.3423 5.6640 25.8209 8.8614
# 4 6.9224 -0.1568 5.6640 24.2713 3.5522 6.6678
# 5 32.9974 17.9245 25.8209 3.5522 43.1867 -4.3005
# 6 11.1896 10.6021 8.8614 6.6678 -4.3005 38.8239
#
#
#
# Elastic Compliance Matrix: (Units=1/GPa)
#
#
# Indices 1 2 3 4 5 6 
#
# 1 0.013420 -0.004756 -0.000856 -0.001685 -0.007925 -0.002962
# 2 -0.004756 0.020053 -0.002103 0.003904 -0.004228 -0.004764
# 3 -0.000856 -0.002103 0.018098 -0.001458 -0.009584 -0.004121
# 4 -0.001685 0.003904 -0.001458 0.044942 -0.003995 -0.008409
# 5 -0.007925 -0.004228 -0.009584 -0.003995 0.038072 0.010529
# 6 -0.002962 -0.004764 -0.004121 -0.008409 0.010529 0.031463
#
#
# Mechanical properties :
#
#
# Convention : Reuss Voigt Hill
#
# Bulk Modulus (GPa) = 27.66848 48.43136 38.04992
# Shear Modulus (GPa) = 25.83639 32.29411 29.06525
#
# Velocity S-wave (km/s) = 3.49239 3.90452 3.70419
# Velocity P-wave (km/s) = 5.41517 6.57194 6.02140
#
# Compressibility (1/GPa) = 0.03614221
#
# Stress axis : x y z
#
# Youngs Moduli (GPa) = 74.51472 49.86684 55.25495
#
# Poissons Ratio (x) = 0.23716 0.04729
# Poissons Ratio (y) = 0.35438 0.11620
# Poissons Ratio (z) = 0.06377 0.10487
#
# Static dielectric constant tensor:
#      x y z
#    x 4.186200 0.089860 0.190450 
#    y 0.089860 3.808360 -0.355030 
#    z 0.190450 -0.355030 3.801340 
# 
# 
# High freq. dielectric constant tensor:
#      x y z
#    x 1.848880 0.012510 0.016270 
#    y 0.012510 1.819810 -0.022530 
#    z 0.016270 -0.022530 1.823970 
# 
# From -- ./inp_files/299763.got.cif
#   From: 2010.06.25/outbox.cif.g09.slc.cpg/sg2_150_cif.got.tgz:299763.got - 2010.06.27 13:26:56.
