data_PCOD8017835
_publ_section_title
;
Structure prediction by ZEFSAII (Michael W. Deem and Ramdas Pophale) SiO2 
 PCOD8017835
Probable space group: P -1
;
_chemical_formula_sum "Si O2"
_cell_formula_units_Z 16
_cell_length_a 11.898013
_cell_length_b 9.032373
_cell_length_c 14.758783
_cell_angle_alpha 48.740720
_cell_angle_beta 125.716643
_cell_angle_gamma 141.973182
_cell_volume 727.386492
_symmetry_space_group_name_H-M "P -1"
_symmetry_group_IT_number 2
_symmetry_cell_setting 'triclinic'
loop_
_space_group_symop_operation_xyz
x,y,z
-x,-y,-z
loop_
_atom_site_type_symbol
_atom_site_label
_atom_site_fract_x
_atom_site_fract_y
_atom_site_fract_z
Si Si1 0.362439 0.586433 0.955067
Si Si2 0.699035 0.194202 0.885276
Si Si3 0.295362 0.424873 0.798739
Si Si4 0.045393 0.592140 0.775247
Si Si5 0.018872 0.583924 0.370800
Si Si6 0.873913 0.091069 0.151845
Si Si7 0.411430 0.089122 0.365346
Si Si8 0.291798 0.393767 0.194747
O O1 0.351583 0.425181 0.928891
O O2 0.174334 0.531566 0.886464
O O3 0.530656 0.896936 0.900494
O O4 0.371653 0.466742 0.099347
O O5 0.837441 0.339848 0.807406
O O6 0.624126 0.342393 0.816858
O O7 0.814937 0.230214 0.012779
O O8 0.437291 0.724842 0.713907
O O9 0.091982 0.321475 0.735855
O O10 0.287263 0.220483 0.816216
O O11 0.048560 0.636613 0.649408
O O12 0.113608 0.848388 0.759526
O O13 0.000000 0.500000 0.500000
O O14 0.226776 0.826904 0.343104
O O15 0.070864 0.197620 0.167568
O O16 0.360670 0.249308 0.328209
O O17 0.500000 0.000000 0.500000
#
# Coordination Sequence:
#
# PCOD8017835 Si02
#       8
#     2   2   2   2   2   2   2   2
#     4  11  22  38  64 103 133 172 211 260 326 394
#     4  11  21  39  64  97 142 169 205 261 328 394
#     4  11  25  40  67  98 131 170 219 265 327 383
#     4  10  22  39  66  96 132 170 210 260 330 388
#     4  11  23  46  69  89 124 172 222 277 316 373
#     4  11  21  41  65  99 136 173 205 261 329 397
#     4  12  25  43  67  90 124 173 221 269 318 373
#     4  11  22  39  65  96 132 173 212 263 324 385
#
# _framework density 21.996558
#
# number of rings (size 3 to 8) (size 9 to 14) (size 15 to 20)
#    0.000    1.000    5.000    2.625    1.750    3.500 
#    0.000    0.625    0.000    7.500    0.000    0.000 
#    0.000    0.000    0.000    0.000    0.000    0.000 
#
# Total GULP energy -198290.714159 kJ/mol
# GULP energy per Si atom -12393.169635 kJ/mol
# Density = 2.194649 g / cm^3
# Si number density = 21.996558 Si / 1000 Ang^3
#
#
#
# Elastic Constant Matrix: (Units=GPa)
#
#
# Indices 1 2 3 4 5 6 
#
# 1 83.3634 56.0545 49.6248 9.4692 -12.0025 -20.4273
# 2 56.0545 124.1541 45.2938 1.7071 -11.0709 -25.2343
# 3 49.6248 45.2938 118.5961 7.6391 2.6527 -16.9988
# 4 9.4692 1.7071 7.6391 25.2530 -2.6038 -1.4742
# 5 -12.0025 -11.0709 2.6527 -2.6038 47.9469 6.5808
# 6 -20.4273 -25.2343 -16.9988 -1.4742 6.5808 40.1514
#
#
#
# Elastic Compliance Matrix: (Units=1/GPa)
#
#
# Indices 1 2 3 4 5 6 
#
# 1 0.021987 -0.006642 -0.005851 -0.005447 0.003482 0.003764
# 2 -0.006642 0.012445 -0.001623 0.002451 0.000927 0.003693
# 3 -0.005851 -0.001623 0.011862 -0.001487 -0.002772 0.001425
# 4 -0.005447 0.002451 -0.001487 0.042062 0.001649 -0.000586
# 5 0.003482 0.000927 -0.002772 0.001649 0.022521 -0.002450
# 6 0.003764 0.003693 0.001425 -0.000586 -0.002450 0.030125
#
#
# Mechanical properties :
#
#
# Convention : Reuss Voigt Hill
#
# Bulk Modulus (GPa) = 55.36403 69.78441 62.57422
# Shear Modulus (GPa) = 28.52979 34.34630 31.43805
#
# Velocity S-wave (km/s) = 3.60531 3.95579 3.78461
# Velocity P-wave (km/s) = 6.52343 7.25661 6.89976
#
# Compressibility (1/GPa) = 0.01806227
#
# Stress axis : x y z
#
# Youngs Moduli (GPa) = 45.48097 80.35343 84.30184
#
# Poissons Ratio (x) = 0.53371 0.49325
# Poissons Ratio (y) = 0.30209 0.13682
# Poissons Ratio (z) = 0.26611 0.13041
#
# Static dielectric constant tensor:
#      x y z
#    x 4.440040 0.153560 0.044160 
#    y 0.153560 4.087840 0.139910 
#    z 0.044160 0.139910 3.779970 
# 
# 
# High freq. dielectric constant tensor:
#      x y z
#    x 1.886200 0.012770 0.016720 
#    y 0.012770 1.876150 0.013200 
#    z 0.016720 0.013200 1.829310 
# 
# From -- ./inp_files/271964.got.cif
#   From: 2010.06.25/outbox.cif.g09.slc.cpg/sg2_136_cif.got.tgz:271964.got - 2010.06.27 13:26:56.
