data_PCOD8017574
_publ_section_title
;
Structure prediction by ZEFSAII (Michael W. Deem and Ramdas Pophale) SiO2 
 PCOD8017574
Probable space group: P -1
;
_chemical_formula_sum "Si O2"
_cell_formula_units_Z 12
_cell_length_a 19.182826
_cell_length_b 7.173732
_cell_length_c 10.972531
_cell_angle_alpha 97.497524
_cell_angle_beta 23.669184
_cell_angle_gamma 97.654602
_cell_volume 600.641762
_symmetry_space_group_name_H-M "P -1"
_symmetry_group_IT_number 2
_symmetry_cell_setting 'triclinic'
loop_
_space_group_symop_operation_xyz
x,y,z
-x,-y,-z
loop_
_atom_site_type_symbol
_atom_site_label
_atom_site_fract_x
_atom_site_fract_y
_atom_site_fract_z
Si Si1 0.664250 0.196665 0.354341
Si Si2 0.276638 0.959894 0.246660
Si Si3 0.173009 0.428991 0.777131
Si Si4 0.698477 0.975261 0.054851
Si Si5 0.443310 0.305578 0.138743
Si Si6 0.908910 0.887717 0.927936
O O1 0.710764 0.408437 0.331716
O O2 0.478235 0.141180 0.705333
O O3 0.654314 0.163195 0.220159
O O4 0.812451 0.062403 0.160510
O O5 0.112092 0.938799 0.596729
O O6 0.380750 0.154496 0.125147
O O7 0.392933 0.777949 0.060712
O O8 0.212256 0.965732 0.210121
O O9 0.287751 0.330621 0.484213
O O10 0.116777 0.292890 0.964055
O O11 0.000000 0.500000 0.000000
O O12 0.826161 0.849899 0.921997
O O13 0.500000 0.500000 0.000000
#
# Coordination Sequence:
#
# PCOD8017574 Si02
#       6
#     2   2   2   2   2   2
#     4   9  21  40  62  90 120 153 206 244 298 354
#     4  11  22  42  62  87 128 155 202 250 295 364
#     4  12  24  40  63  91 123 156 206 249 296 361
#     4   9  20  42  63  90 119 160 200 247 304 348
#     4  11  25  40  62  90 120 166 200 244 304 354
#     4  10  22  39  62  93 116 161 197 247 309 344
#
# _framework density 19.978631
#
# number of rings (size 3 to 8) (size 9 to 14) (size 15 to 20)
#    1.000    0.667    0.000    4.500    0.000    6.000 
#    3.000    0.833    0.000    0.000    0.000    0.000 
#    0.000    0.000    0.000    0.000    0.000    0.000 
#
# Total GULP energy -148766.247678 kJ/mol
# GULP energy per Si atom -12397.187307 kJ/mol
# Density = 1.993316 g / cm^3
# Si number density = 19.978631 Si / 1000 Ang^3
#
#
#
# Elastic Constant Matrix: (Units=GPa)
#
#
# Indices 1 2 3 4 5 6 
#
# 1 102.9038 45.6269 30.2002 -0.4417 7.6384 -21.4544
# 2 45.6269 108.7519 30.9851 -4.1527 4.7402 -14.7871
# 3 30.2002 30.9851 103.3594 -1.4574 -13.3703 -16.3302
# 4 -0.4417 -4.1527 -1.4574 24.0559 -6.1796 -4.5161
# 5 7.6384 4.7402 -13.3703 -6.1796 25.9441 3.8645
# 6 -21.4544 -14.7871 -16.3302 -4.5161 3.8645 35.0541
#
#
#
# Elastic Compliance Matrix: (Units=1/GPa)
#
#
# Indices 1 2 3 4 5 6 
#
# 1 0.014024 -0.004061 -0.002689 -0.000974 -0.005920 0.006145
# 2 -0.004061 0.011985 -0.002350 0.001675 -0.002092 0.001922
# 3 -0.002689 -0.002350 0.012681 0.002895 0.008035 0.002758
# 4 -0.000974 0.001675 0.002895 0.046134 0.011548 0.006130
# 5 -0.005920 -0.002092 0.008035 0.011548 0.048245 -0.004594
# 6 0.006145 0.001922 0.002758 0.006130 -0.004594 0.035680
#
#
# Mechanical properties :
#
#
# Convention : Reuss Voigt Hill
#
# Bulk Modulus (GPa) = 48.80301 58.73772 53.77037
# Shear Modulus (GPa) = 25.80269 30.89102 28.34685
#
# Velocity S-wave (km/s) = 3.59766 3.93644 3.77086
# Velocity P-wave (km/s) = 6.46051 7.07989 6.77728
#
# Compressibility (1/GPa) = 0.02049054
#
# Stress axis : x y z
#
# Youngs Moduli (GPa) = 71.30625 83.43682 78.85900
#
# Poissons Ratio (x) = 0.33887 0.21203
# Poissons Ratio (y) = 0.28960 0.18528
# Poissons Ratio (z) = 0.19173 0.19604
#
# Static dielectric constant tensor:
#      x y z
#    x 3.529280 -0.017070 -0.056120 
#    y -0.017070 3.445450 0.043690 
#    z -0.056120 0.043690 3.676780 
# 
# 
# High freq. dielectric constant tensor:
#      x y z
#    x 1.780090 -0.000810 -0.002300 
#    y -0.000810 1.764930 -0.003140 
#    z -0.002300 -0.003140 1.792760 
# 
# From -- ./inp_files/48631.got.cif
#   From: 2010.06.25/outbox.cif.g09.slc.cpg/sg2_25_cif.got.tgz:48631.got - 2010.06.27 13:26:56.
