data_PCOD8017877
_publ_section_title
;
Structure prediction by ZEFSAII (Michael W. Deem and Ramdas Pophale) SiO2 
 PCOD8017877
Probable space group: P -1
;
_chemical_formula_sum "Si O2"
_cell_formula_units_Z 16
_cell_length_a 12.212420
_cell_length_b 17.509547
_cell_length_c 15.304648
_cell_angle_alpha 149.237058
_cell_angle_beta 28.507334
_cell_angle_gamma 131.699610
_cell_volume 742.790829
_symmetry_space_group_name_H-M "P -1"
_symmetry_group_IT_number 2
_symmetry_cell_setting 'triclinic'
loop_
_space_group_symop_operation_xyz
x,y,z
-x,-y,-z
loop_
_atom_site_type_symbol
_atom_site_label
_atom_site_fract_x
_atom_site_fract_y
_atom_site_fract_z
Si Si1 0.407784 0.320330 0.229647
Si Si2 0.017252 0.589962 0.664037
Si Si3 0.502407 0.194720 0.224657
Si Si4 0.763152 0.147309 0.279823
Si Si5 0.768572 0.479267 0.186883
Si Si6 0.002150 0.194951 0.854146
Si Si7 0.625959 0.825971 0.281016
Si Si8 0.444452 0.025439 0.257546
O O1 0.160459 0.458118 0.505655
O O2 0.354376 0.261409 0.304671
O O3 0.641229 0.377212 0.119726
O O4 0.474640 0.164040 0.967000
O O5 0.164335 0.706769 0.659014
O O6 0.000000 0.500000 0.500000
O O7 0.740298 0.691037 0.993458
O O8 0.440917 0.348083 0.482110
O O9 0.428458 0.061846 0.199021
O O10 0.796481 0.115822 0.926798
O O11 0.570218 0.213769 0.560325
O O12 0.638914 0.089050 0.229651
O O13 0.000000 0.000000 0.000000
O O14 0.000000 0.500000 0.000000
O O15 0.864385 0.385294 0.118420
O O16 0.144546 0.169484 0.819655
O O17 0.174154 0.113968 0.572365
O O18 0.500000 0.000000 0.500000
#
# Coordination Sequence:
#
# PCOD8017877 Si02
#       8
#     2   2   2   2   2   2   2   2
#     4  11  25  42  65  99 141 169 223 282 331 391
#     4  12  26  47  70 100 140 174 222 286 336 398
#     4  11  22  42  66  94 134 175 223 269 336 397
#     4  11  23  43  72  96 130 181 225 273 338 403
#     4  11  21  40  67  93 129 175 216 269 331 397
#     4  10  22  39  67  95 130 171 226 266 329 397
#     4  11  23  41  71 100 129 175 230 273 333 403
#     4  11  23  42  66  98 133 178 223 271 337 396
#
# _framework density 21.540382999999999
#
# number of rings (size 3 to 8) (size 9 to 14) (size 15 to 20)
#    0.000    1.000    2.500    5.625    3.500    2.500 
#    2.250    0.000    0.000    0.000    0.000    0.000 
#    0.000    0.000    0.000    0.000    0.000    0.000 
#
# Total GULP energy -198403.139977 kJ/mol
# GULP energy per Si atom -12400.196249 kJ/mol
# Density = 2.149136 g / cm^3
# Si number density = 21.540383 Si / 1000 Ang^3
#
#
#
# Elastic Constant Matrix: (Units=GPa)
#
#
# Indices 1 2 3 4 5 6 
#
# 1 108.9302 35.6863 42.3195 0.7322 -12.0402 -7.1262
# 2 35.6863 113.2257 55.5013 6.1332 3.3417 0.6047
# 3 42.3195 55.5013 118.1830 -1.8179 -18.3033 -2.5138
# 4 0.7322 6.1332 -1.8179 43.3448 -7.9631 2.5268
# 5 -12.0402 3.3417 -18.3033 -7.9631 31.5918 5.3424
# 6 -7.1262 0.6047 -2.5138 2.5268 5.3424 34.3874
#
#
#
# Elastic Compliance Matrix: (Units=1/GPa)
#
#
# Indices 1 2 3 4 5 6 
#
# 1 0.011384 -0.002568 -0.002346 0.000542 0.003098 0.001712
# 2 -0.002568 0.013156 -0.006382 -0.003365 -0.006932 0.000094
# 3 -0.002346 -0.006382 0.013668 0.003162 0.008658 -0.000952
# 4 0.000542 -0.003365 0.003162 0.025555 0.009331 -0.002925
# 5 0.003098 -0.006932 0.008658 0.009331 0.041917 -0.005801
# 6 0.001712 0.000094 -0.000952 -0.002925 -0.005801 0.030480
#
#
# Mechanical properties :
#
#
# Convention : Reuss Voigt Hill
#
# Bulk Modulus (GPa) = 64.03767 67.48369 65.76068
# Shear Modulus (GPa) = 30.49594 35.65358 33.07476
#
# Velocity S-wave (km/s) = 3.76674 4.07283 3.92277
# Velocity P-wave (km/s) = 6.97936 7.31534 7.14932
#
# Compressibility (1/GPa) = 0.01561581
#
# Stress axis : x y z
#
# Youngs Moduli (GPa) = 87.84589 76.01060 73.16425
#
# Poissons Ratio (x) = 0.19519 0.17162
# Poissons Ratio (y) = 0.22559 0.46695
# Poissons Ratio (z) = 0.20606 0.48511
#
# Static dielectric constant tensor:
#      x y z
#    x 3.888780 -0.170350 0.001310 
#    y -0.170350 4.048130 0.002140 
#    z 0.001310 0.002140 4.289370 
# 
# 
# High freq. dielectric constant tensor:
#      x y z
#    x 1.841280 -0.013280 -0.005160 
#    y -0.013280 1.848480 0.003340 
#    z -0.005160 0.003340 1.859990 
# 
# From -- ./inp_files/319099.got.cif
#   From: 2010.06.25/outbox.cif.g09.slc.cpg/sg2_160_cif.got.tgz:319099.got - 2010.06.27 13:26:56.
