data_PCOD8017044
_publ_section_title
;
Structure prediction by ZEFSAII (Michael W. Deem and Ramdas Pophale) SiO2 
 PCOD8017044
Probable space group: P -1
;
_chemical_formula_sum "Si O2"
_cell_formula_units_Z 12
_cell_length_a 7.345894
_cell_length_b 8.904393
_cell_length_c 14.394394
_cell_angle_alpha 38.897818
_cell_angle_beta 87.234470
_cell_angle_gamma 69.244378
_cell_volume 509.654659
_symmetry_space_group_name_H-M "P -1"
_symmetry_group_IT_number 2
_symmetry_cell_setting 'triclinic'
loop_
_space_group_symop_operation_xyz
x,y,z
-x,-y,-z
loop_
_atom_site_type_symbol
_atom_site_label
_atom_site_fract_x
_atom_site_fract_y
_atom_site_fract_z
Si Si1 0.034775 0.231653 0.502463
Si Si2 0.122485 0.192192 0.715885
Si Si3 0.751486 0.639647 0.931727
Si Si4 0.419195 0.617392 0.074001
Si Si5 0.496349 0.229182 0.603060
Si Si6 0.652023 0.243301 0.403076
O O1 0.016295 0.132218 0.657098
O O2 0.031560 0.527529 0.358655
O O3 0.831198 0.285787 0.424616
O O4 0.247839 0.999793 0.559215
O O5 0.273651 0.268011 0.616987
O O6 0.240135 0.938067 0.906790
O O7 0.674259 0.570090 0.871254
O O8 0.671230 0.964588 0.783220
O O9 0.644463 0.544561 0.058903
O O10 0.000000 0.500000 0.000000
O O11 0.476894 0.535155 0.219698
O O12 0.500000 0.500000 0.500000
O O13 0.534798 0.169706 0.520646
#
# Coordination Sequence:
#
# PCOD8017044 Si02
#       6
#     2   2   2   2   2   2
#     4  10  22  37  66  95 121 173 208 260 315 390
#     4  10  22  44  67  89 131 173 212 255 328 388
#     4  10  23  40  66  91 131 173 212 257 330 387
#     4  10  23  42  63  96 129 168 214 269 318 385
#     4  11  23  41  63  94 129 171 212 264 322 387
#     4  11  23  40  65  97 131 159 218 271 318 372
#
# _framework density 23.545352999999999
#
# number of rings (size 3 to 8) (size 9 to 14) (size 15 to 20)
#    0.000    1.667    1.667    3.000    7.000    3.333 
#    0.000    0.000    0.000    6.000    0.000    0.000 
#    0.000    0.000    0.000    0.000    0.000    0.000 
#
# Total GULP energy -148699.411282 kJ/mol
# GULP energy per Si atom -12391.617607 kJ/mol
# Density = 2.349176 g / cm^3
# Si number density = 23.545353 Si / 1000 Ang^3
#
#
#
# Elastic Constant Matrix: (Units=GPa)
#
#
# Indices 1 2 3 4 5 6 
#
# 1 86.7178 14.8527 41.5882 -3.1806 8.8750 12.3149
# 2 14.8527 111.1134 47.1117 -11.0901 1.0045 6.1473
# 3 41.5882 47.1117 132.5886 -8.5386 18.9149 5.2072
# 4 -3.1806 -11.0901 -8.5386 43.1945 3.1115 2.0714
# 5 8.8750 1.0045 18.9149 3.1115 36.8153 1.2152
# 6 12.3149 6.1473 5.2072 2.0714 1.2152 25.0248
#
#
#
# Elastic Compliance Matrix: (Units=1/GPa)
#
#
# Indices 1 2 3 4 5 6 
#
# 1 0.014547 0.000264 -0.004189 0.000703 -0.001211 -0.006351
# 2 0.000264 0.010968 -0.003987 0.002040 0.001587 -0.002241
# 3 -0.004189 -0.003987 0.010973 0.001129 -0.004644 0.000890
# 4 0.000703 0.002040 0.001129 0.024291 -0.002760 -0.002959
# 5 -0.001211 0.001587 -0.004644 -0.002760 0.030032 -0.000057
# 6 -0.006351 -0.002241 0.000890 -0.002959 -0.000057 0.043699
#
#
# Mechanical properties :
#
#
# Convention : Reuss Voigt Hill
#
# Bulk Modulus (GPa) = 48.39305 59.72499 54.05902
# Shear Modulus (GPa) = 31.80193 36.13138 33.96665
#
# Velocity S-wave (km/s) = 3.67913 3.92158 3.80229
# Velocity P-wave (km/s) = 6.21657 6.77687 6.50276
#
# Compressibility (1/GPa) = 0.02066413
#
# Stress axis : x y z
#
# Youngs Moduli (GPa) = 68.74151 91.17171 91.13182
#
# Poissons Ratio (x) = -0.02408 0.38178
# Poissons Ratio (y) = -0.01816 0.36336
# Poissons Ratio (z) = 0.28798 0.36352
#
# Static dielectric constant tensor:
#      x y z
#    x 4.361360 0.142430 0.147330 
#    y 0.142430 4.578290 -0.119580 
#    z 0.147330 -0.119580 4.334800 
# 
# 
# High freq. dielectric constant tensor:
#      x y z
#    x 1.932060 0.009860 0.018690 
#    y 0.009860 1.918750 -0.013060 
#    z 0.018690 -0.013060 1.940660 
# 
# From -- ./inp_files/490296.got.cif
#   From: 2010.06.25/outbox.cif.g09.slc.cpg/sg2_246_cif.got.tgz:490296.got - 2010.06.27 13:26:56.
