data_PCOD8017024
_publ_section_title
;
Structure prediction by ZEFSAII (Michael W. Deem and Ramdas Pophale) SiO2 
 PCOD8017024
Probable space group: P -1
;
_chemical_formula_sum "Si O2"
_cell_formula_units_Z 16
_cell_length_a 19.004237
_cell_length_b 6.446392
_cell_length_c 18.400831
_cell_angle_alpha 135.752479
_cell_angle_beta 26.634880
_cell_angle_gamma 126.462930
_cell_volume 697.480573
_symmetry_space_group_name_H-M "P -1"
_symmetry_group_IT_number 2
_symmetry_cell_setting 'triclinic'
loop_
_space_group_symop_operation_xyz
x,y,z
-x,-y,-z
loop_
_atom_site_type_symbol
_atom_site_label
_atom_site_fract_x
_atom_site_fract_y
_atom_site_fract_z
Si Si1 0.149783 0.673026 0.393383
Si Si2 0.646187 0.264289 0.640596
Si Si3 0.890483 0.198277 0.280466
Si Si4 0.500526 0.152050 0.421996
Si Si5 0.733838 0.833296 0.229544
Si Si6 0.148899 0.871875 0.061982
Si Si7 0.684838 0.577299 0.957878
Si Si8 0.950585 0.239844 0.721555
O O1 0.224316 0.755664 0.421493
O O2 0.287480 0.491776 0.170817
O O3 0.000000 0.500000 0.500000
O O4 0.083987 0.997208 0.499088
O O5 0.730841 0.352710 0.510093
O O6 0.576596 0.956357 0.607969
O O7 0.488026 0.481183 0.868839
O O8 0.983191 0.464863 0.237213
O O9 0.868308 0.023374 0.181970
O O10 0.992055 0.960075 0.180633
O O11 0.500000 0.500000 0.500000
O O12 0.398471 0.085388 0.567667
O O13 0.673334 0.958470 0.236239
O O14 0.784336 0.477231 0.095426
O O15 0.106768 0.935828 0.200743
O O16 0.281636 0.081762 0.970677
O O17 0.808813 0.327767 0.819425
#
# Coordination Sequence:
#
# PCOD8017024 Si02
#       8
#     2   2   2   2   2   2   2   2
#     4  12  23  46  70  94 131 176 220 277 339 388
#     4  11  23  44  67  97 133 171 220 273 333 388
#     4  10  23  41  65  99 134 174 221 271 332 396
#     4  10  22  40  63  94 139 175 213 270 333 386
#     4  10  22  37  64  97 132 175 221 265 328 391
#     4  11  21  42  65  96 136 175 222 273 322 395
#     4  11  24  42  67  98 131 173 225 275 327 394
#     4  11  23  43  68  93 135 177 218 273 340 388
#
# _framework density 22.939708
#
# number of rings (size 3 to 8) (size 9 to 14) (size 15 to 20)
#    0.000    1.250    2.500    3.375    1.750    1.500 
#    4.500    1.250    0.000    0.000    0.000    0.000 
#    0.000    0.000    0.000    0.000    0.000    0.000 
#
# Total GULP energy -198235.335884 kJ/mol
# GULP energy per Si atom -12389.708493 kJ/mol
# Density = 2.288750 g / cm^3
# Si number density = 22.939708 Si / 1000 Ang^3
#
#
#
# Elastic Constant Matrix: (Units=GPa)
#
#
# Indices 1 2 3 4 5 6 
#
# 1 140.2333 49.0662 30.2195 7.3340 -6.7183 22.0556
# 2 49.0662 68.9804 20.2889 21.7387 -21.3502 0.3736
# 3 30.2195 20.2889 95.9031 8.3850 -5.7395 5.9837
# 4 7.3340 21.7387 8.3850 42.3039 -2.6449 4.5934
# 5 -6.7183 -21.3502 -5.7395 -2.6449 26.1895 -0.3543
# 6 22.0556 0.3736 5.9837 4.5934 -0.3543 24.3880
#
#
#
# Elastic Compliance Matrix: (Units=1/GPa)
#
#
# Indices 1 2 3 4 5 6 
#
# 1 0.013338 -0.012877 -0.001598 0.005552 -0.007036 -0.012621
# 2 -0.012877 0.037056 -0.001774 -0.016519 0.025051 0.014988
# 3 -0.001598 -0.001774 0.011493 -0.000929 0.000553 -0.001165
# 4 0.005552 -0.016519 -0.000929 0.031936 -0.009165 -0.010688
# 5 -0.007036 0.025051 0.000553 -0.009165 0.056110 0.008385
# 6 -0.012621 0.014988 -0.001165 -0.010688 0.008385 0.054609
#
#
# Mechanical properties :
#
#
# Convention : Reuss Voigt Hill
#
# Bulk Modulus (GPa) = 34.02358 56.02956 45.02657
# Shear Modulus (GPa) = 20.25642 32.27911 26.26776
#
# Velocity S-wave (km/s) = 2.97480 3.75524 3.38757
# Velocity P-wave (km/s) = 5.16364 6.57877 5.91369
#
# Compressibility (1/GPa) = 0.02939138
#
# Stress axis : x y z
#
# Youngs Moduli (GPa) = 74.97217 26.98608 87.01057
#
# Poissons Ratio (x) = 0.34749 0.13903
# Poissons Ratio (y) = 0.96538 0.15432
# Poissons Ratio (z) = 0.11979 0.04786
#
# Static dielectric constant tensor:
#      x y z
#    x 4.334890 0.198230 0.059750 
#    y 0.198230 3.977160 -0.067770 
#    z 0.059750 -0.067770 4.362390 
# 
# 
# High freq. dielectric constant tensor:
#      x y z
#    x 1.911740 0.008830 0.009200 
#    y 0.008830 1.890300 -0.001820 
#    z 0.009200 -0.001820 1.917690 
# 
# From -- ./inp_files/85002.got.cif
#   From: 2010.06.25/outbox.cif.g09.slc.cpg/sg2_43_cif.got.tgz:85002.got - 2010.06.27 13:26:56.
