data_PCOD8017982
_publ_section_title
;
Structure prediction by ZEFSAII (Michael W. Deem and Ramdas Pophale) SiO2 
 PCOD8017982
Probable space group: P -1
;
_chemical_formula_sum "Si O2"
_cell_formula_units_Z 12
_cell_length_a 11.830034
_cell_length_b 5.272000
_cell_length_c 11.952227
_cell_angle_alpha 105.384557
_cell_angle_beta 57.667637
_cell_angle_gamma 121.523293
_cell_volume 536.806546
_symmetry_space_group_name_H-M "P -1"
_symmetry_group_IT_number 2
_symmetry_cell_setting 'triclinic'
loop_
_space_group_symop_operation_xyz
x,y,z
-x,-y,-z
loop_
_atom_site_type_symbol
_atom_site_label
_atom_site_fract_x
_atom_site_fract_y
_atom_site_fract_z
Si Si1 0.111763 0.925002 0.784657
Si Si2 0.426819 0.971507 0.235461
Si Si3 0.898500 0.172290 0.975182
Si Si4 0.407060 0.145101 0.508131
Si Si5 0.573220 0.574588 0.089301
Si Si6 0.805578 0.416151 0.870689
O O1 0.988001 0.582199 0.779513
O O2 0.250132 0.044726 0.641736
O O3 0.175796 0.993552 0.886478
O O4 0.013827 0.094537 0.837523
O O5 0.542368 0.836181 0.186352
O O6 0.283025 0.737365 0.213028
O O7 0.364735 0.023929 0.390753
O O8 0.510116 0.285237 0.166054
O O9 0.769212 0.161563 0.955602
O O10 0.000000 0.500000 0.000000
O O11 0.500000 0.500000 0.500000
O O12 0.500000 0.000000 0.500000
O O13 0.500000 0.500000 0.000000
O O14 0.750374 0.656274 0.977240
#
# Coordination Sequence:
#
# PCOD8017982 Si02
#       6
#     2   2   2   2   2   2
#     4  10  24  43  67  99 134 180 233 278 348 398
#     4  11  25  44  69 105 139 184 225 280 347 406
#     4   9  21  39  66  99 133 171 222 285 341 399
#     4  12  30  50  68  94 141 190 234 278 340 424
#     4  10  22  41  67 107 142 170 221 281 350 404
#     4  10  22  39  73 102 138 169 231 292 343 399
#
# _framework density 22.354423000000001
#
# number of rings (size 3 to 8) (size 9 to 14) (size 15 to 20)
#    0.000    1.667    0.000    3.000   14.000    6.000 
#    0.000    0.833    0.000    0.000    0.000    0.000 
#    0.000    0.000    0.000    0.000    0.000    0.000 
#
# Total GULP energy -148679.705816 kJ/mol
# GULP energy per Si atom -12389.975485 kJ/mol
# Density = 2.230354 g / cm^3
# Si number density = 22.354423 Si / 1000 Ang^3
#
#
#
# Elastic Constant Matrix: (Units=GPa)
#
#
# Indices 1 2 3 4 5 6 
#
# 1 145.6804 58.4646 83.8117 -0.8898 0.7193 -10.0367
# 2 58.4646 126.4630 76.1655 -3.4904 -7.5273 -5.6726
# 3 83.8117 76.1655 204.0735 -4.8257 -8.7330 4.6060
# 4 -0.8898 -3.4904 -4.8257 38.5376 11.5521 -3.2389
# 5 0.7193 -7.5273 -8.7330 11.5521 38.0441 3.1183
# 6 -10.0367 -5.6726 4.6060 -3.2389 3.1183 52.2878
#
#
#
# Elastic Compliance Matrix: (Units=1/GPa)
#
#
# Indices 1 2 3 4 5 6 
#
# 1 0.009918 -0.002668 -0.003189 0.000265 -0.001693 0.002013
# 2 -0.002668 0.011072 -0.002991 0.000216 0.001417 0.000881
# 3 -0.003189 -0.002991 0.007421 0.000058 0.001291 -0.001664
# 4 0.000265 0.000216 0.000058 0.028852 -0.008905 0.002387
# 5 -0.001693 0.001417 0.001291 -0.008905 0.029812 -0.002615
# 6 0.002013 0.000881 -0.001664 0.002387 -0.002615 0.020057
#
#
# Mechanical properties :
#
#
# Convention : Reuss Voigt Hill
#
# Bulk Modulus (GPa) = 93.32756 101.45561 97.39159
# Shear Modulus (GPa) = 38.94090 42.95893 40.94992
#
# Velocity S-wave (km/s) = 4.17823 4.38850 4.28465
# Velocity P-wave (km/s) = 8.06948 8.43576 8.25465
#
# Compressibility (1/GPa) = 0.01071495
#
# Stress axis : x y z
#
# Youngs Moduli (GPa) = 100.82192 90.31896 134.76157
#
# Poissons Ratio (x) = 0.24094 0.42981
# Poissons Ratio (y) = 0.26895 0.40306
# Poissons Ratio (z) = 0.32157 0.27013
#
# Static dielectric constant tensor:
#      x y z
#    x 4.498110 0.097480 -0.249670 
#    y 0.097480 3.701600 0.604630 
#    z -0.249670 0.604630 3.900290 
# 
# 
# High freq. dielectric constant tensor:
#      x y z
#    x 1.904110 -0.003980 0.000680 
#    y -0.003980 1.912360 0.005080 
#    z 0.000680 0.005080 1.859070 
# 
# From -- ./inp_files/365218.got.cif
#   From: 2010.06.25/outbox.cif.g09.slc.cpg/sg2_183_cif.got.tgz:365218.got - 2010.06.27 13:26:56.
