data_PCOD8017649
_publ_section_title
;
Structure prediction by ZEFSAII (Michael W. Deem and Ramdas Pophale) SiO2 
 PCOD8017649
Probable space group: P -1
;
_chemical_formula_sum "Si O2"
_cell_formula_units_Z 14
_cell_length_a 10.849179
_cell_length_b 19.150806
_cell_length_c 14.578254
_cell_angle_alpha 158.822039
_cell_angle_beta 145.937311
_cell_angle_gamma 35.964426
_cell_volume 602.608245
_symmetry_space_group_name_H-M "P -1"
_symmetry_group_IT_number 2
_symmetry_cell_setting 'triclinic'
loop_
_space_group_symop_operation_xyz
x,y,z
-x,-y,-z
loop_
_atom_site_type_symbol
_atom_site_label
_atom_site_fract_x
_atom_site_fract_y
_atom_site_fract_z
Si Si1 0.329472 0.558955 0.332244
Si Si2 0.192500 0.332225 0.641604
Si Si3 0.662034 0.764264 0.589277
Si Si4 0.522814 0.371581 0.052079
Si Si5 0.216391 0.950515 0.635251
Si Si6 0.216612 0.373614 0.215908
Si Si7 0.058768 0.954477 0.084697
O O1 0.363489 0.393566 0.070274
O O2 0.200963 0.767672 0.469259
O O3 0.190271 0.472443 0.219173
O O4 0.570547 0.580579 0.544678
O O5 0.312827 0.243794 0.514656
O O6 0.007462 0.526535 0.745749
O O7 0.067591 0.159790 0.394461
O O8 0.375508 0.391009 0.893787
O O9 0.664215 0.546294 0.360340
O O10 0.429782 0.904449 0.643295
O O11 0.862277 0.844682 0.865461
O O12 0.693557 0.169486 0.906893
O O13 0.000000 0.000000 0.500000
O O14 0.233242 0.140152 0.938993
O O15 0.000000 0.000000 0.000000
#
# Coordination Sequence:
#
# PCOD8017649 Si02
#       7
#     2   2   2   2   2   2   2
#     4  10  24  43  70  98 130 186 227 274 337 403
#     4  11  24  42  66 104 131 173 222 276 341 393
#     4  10  23  43  69  95 133 175 222 272 337 403
#     4  11  22  42  67  97 134 172 224 280 333 394
#     4  11  25  45  70 102 137 175 226 284 340 402
#     4  11  24  44  70  94 140 175 230 277 334 407
#     4  10  22  39  63  94 132 170 219 267 327 400
#
# _framework density 23.232341000000002
#
# number of rings (size 3 to 8) (size 9 to 14) (size 15 to 20)
#    0.000    1.429    0.000    5.143    8.000    3.429 
#    5.143    0.000    0.000    0.000    0.000    0.000 
#    0.000    0.000    0.000    0.000    0.000    0.000 
#
# Total GULP energy -173604.711212 kJ/mol
# GULP energy per Si atom -12400.336515 kJ/mol
# Density = 2.317946 g / cm^3
# Si number density = 23.232341 Si / 1000 Ang^3
#
#
#
# Elastic Constant Matrix: (Units=GPa)
#
#
# Indices 1 2 3 4 5 6 
#
# 1 51.4261 17.9780 19.4841 5.0465 -5.8412 -2.3382
# 2 17.9780 131.7276 11.8024 14.5414 -6.5241 -8.5717
# 3 19.4841 11.8024 77.7058 16.3430 -7.7926 -10.0401
# 4 5.0465 14.5414 16.3430 31.2630 -5.2680 -9.2046
# 5 -5.8412 -6.5241 -7.7926 -5.2680 29.8463 4.0015
# 6 -2.3382 -8.5717 -10.0401 -9.2046 4.0015 34.2528
#
#
#
# Elastic Compliance Matrix: (Units=1/GPa)
#
#
# Indices 1 2 3 4 5 6 
#
# 1 0.022538 -0.002585 -0.005198 0.000495 0.002685 -0.000813
# 2 -0.002585 0.008376 0.000251 -0.003183 0.000687 0.001058
# 3 -0.005198 0.000251 0.016018 -0.006650 0.001722 0.002415
# 4 0.000495 -0.003183 -0.006650 0.039697 0.003662 0.007528
# 5 0.002685 0.000687 0.001722 0.003662 0.035587 -0.002313
# 6 -0.000813 0.001058 0.002415 0.007528 -0.002313 0.032405
#
#
# Mechanical properties :
#
#
# Convention : Reuss Voigt Hill
#
# Bulk Modulus (GPa) = 31.38055 39.93205 35.65630
# Shear Modulus (GPa) = 27.73047 33.17876 30.45462
#
# Velocity S-wave (km/s) = 3.45862 3.78316 3.62452
# Velocity P-wave (km/s) = 5.43010 6.02565 5.73561
#
# Compressibility (1/GPa) = 0.03186688
#
# Stress axis : x y z
#
# Youngs Moduli (GPa) = 44.36953 119.39042 62.43094
#
# Poissons Ratio (x) = 0.30859 0.32454
# Poissons Ratio (y) = 0.11468 -0.01566
# Poissons Ratio (z) = 0.23065 -0.02995
#
# Static dielectric constant tensor:
#      x y z
#    x 4.531700 -0.004300 0.297600 
#    y -0.004300 3.940220 0.124550 
#    z 0.297600 0.124550 4.818930 
# 
# 
# High freq. dielectric constant tensor:
#      x y z
#    x 1.908630 -0.004480 -0.001140 
#    y -0.004480 1.923800 0.004070 
#    z -0.001140 0.004070 1.932560 
# 
# From -- ./inp_files/243764.got.cif
#   From: 2010.06.25/outbox.cif.g09.slc.cpg/sg2_122_cif.got.tgz:243764.got - 2010.06.27 13:26:56.
