data_PCOD8017031
_publ_section_title
;
Structure prediction by ZEFSAII (Michael W. Deem and Ramdas Pophale) SiO2 
 PCOD8017031
Probable space group: P -1
;
_chemical_formula_sum "Si O2"
_cell_formula_units_Z 16
_cell_length_a 13.212271
_cell_length_b 14.398965
_cell_length_c 14.229088
_cell_angle_alpha 20.462456
_cell_angle_beta 127.513903
_cell_angle_gamma 127.590345
_cell_volume 742.998172
_symmetry_space_group_name_H-M "P -1"
_symmetry_group_IT_number 2
_symmetry_cell_setting 'triclinic'
loop_
_space_group_symop_operation_xyz
x,y,z
-x,-y,-z
loop_
_atom_site_type_symbol
_atom_site_label
_atom_site_fract_x
_atom_site_fract_y
_atom_site_fract_z
Si Si1 0.426319 0.205987 0.211940
Si Si2 0.233694 0.593394 0.949521
Si Si3 0.506068 0.135351 0.121216
Si Si4 0.185250 0.043562 0.350123
Si Si5 0.575863 0.701069 0.455686
Si Si6 0.356875 0.257821 0.743652
Si Si7 0.820634 0.427871 0.860489
Si Si8 0.900298 0.895095 0.330895
O O1 0.420652 0.122996 0.178123
O O2 0.279514 0.152974 0.214781
O O3 0.500000 0.000000 0.500000
O O4 0.500000 0.500000 0.000000
O O5 0.385850 0.602441 0.054870
O O6 0.232683 0.807912 0.661742
O O7 0.172980 0.296518 0.168321
O O8 0.149018 0.641162 0.948350
O O9 0.588099 0.890462 0.376397
O O10 0.407516 0.116181 0.996706
O O11 0.043742 0.939326 0.326920
O O12 0.427437 0.563736 0.494679
O O13 0.611974 0.871677 0.217963
O O14 0.670176 0.473024 0.730253
O O15 0.201274 0.251641 0.664544
O O16 0.902557 0.704244 0.605463
O O17 0.852648 0.179541 0.053814
#
# Coordination Sequence:
#
# PCOD8017031 Si02
#       8
#     2   2   2   2   2   2   2   2
#     4  12  26  46  70  99 127 170 227 283 332 378
#     4  12  23  39  69  94 133 166 223 271 333 387
#     4  12  23  39  70 100 130 167 220 287 333 377
#     4  12  25  46  63  93 132 178 216 278 325 390
#     4  10  22  37  65  99 138 165 217 273 330 387
#     4  10  23  38  64  99 132 175 213 268 332 394
#     4  11  23  40  64 100 131 179 219 264 328 400
#     4  11  26  42  63  91 142 179 215 258 332 403
#
# _framework density 21.534372999999999
#
# number of rings (size 3 to 8) (size 9 to 14) (size 15 to 20)
#    0.000    0.750    3.750    4.125    7.000    3.000 
#    0.000    0.625    0.000    0.750    0.000    0.000 
#    0.000    0.000    0.000    0.000    0.000    0.000 
#
# Total GULP energy -198216.916738 kJ/mol
# GULP energy per Si atom -12388.557296 kJ/mol
# Density = 2.148536 g / cm^3
# Si number density = 21.534373 Si / 1000 Ang^3
#
#
#
# Elastic Constant Matrix: (Units=GPa)
#
#
# Indices 1 2 3 4 5 6 
#
# 1 131.9860 69.7545 37.8290 5.4003 -17.1893 19.4133
# 2 69.7545 82.0521 24.1478 -4.9299 -3.5709 7.9110
# 3 37.8290 24.1478 109.9404 -1.8402 -9.9363 -4.9637
# 4 5.4003 -4.9299 -1.8402 22.1867 -1.1553 -9.3750
# 5 -17.1893 -3.5709 -9.9363 -1.1553 21.8838 -4.2010
# 6 19.4133 7.9110 -4.9637 -9.3750 -4.2010 48.7645
#
#
#
# Elastic Compliance Matrix: (Units=1/GPa)
#
#
# Indices 1 2 3 4 5 6 
#
# 1 0.018749 -0.014684 -0.002862 -0.010360 0.009223 -0.006570
# 2 -0.014684 0.024893 -0.000712 0.010001 -0.006676 0.003083
# 3 -0.002862 -0.000712 0.010727 0.002949 0.003275 0.003196
# 4 -0.010360 0.010001 0.002949 0.055812 0.000384 0.013565
# 5 0.009223 -0.006676 0.003275 0.000384 0.053830 0.002456
# 6 -0.006570 0.003083 0.003196 0.013565 0.002456 0.025767
#
#
# Mechanical properties :
#
#
# Convention : Reuss Voigt Hill
#
# Bulk Modulus (GPa) = 56.01523 65.27125 60.64324
# Shear Modulus (GPa) = 21.52888 31.38349 26.45619
#
# Velocity S-wave (km/s) = 3.16530 3.82169 3.50888
# Velocity P-wave (km/s) = 6.27912 7.06044 6.68121
#
# Compressibility (1/GPa) = 0.01785229
#
# Stress axis : x y z
#
# Youngs Moduli (GPa) = 53.33622 40.17128 93.22451
#
# Poissons Ratio (x) = 0.58988 0.26685
# Poissons Ratio (y) = 0.78320 0.06636
# Poissons Ratio (z) = 0.15267 0.02860
#
# Static dielectric constant tensor:
#      x y z
#    x 3.460770 0.152610 -0.171210 
#    y 0.152610 4.001180 0.009870 
#    z -0.171210 0.009870 3.938040 
# 
# 
# High freq. dielectric constant tensor:
#      x y z
#    x 1.822910 0.015280 -0.012160 
#    y 0.015280 1.835760 -0.006340 
#    z -0.012160 -0.006340 1.853720 
# 
# From -- ./inp_files/534016.got.cif
#   From: 2010.06.25/outbox.cif.g09.slc.cpg/sg2_268_cif.got.tgz:534016.got - 2010.06.27 13:26:56.
