data_PCOD8017045
_publ_section_title
;
Structure prediction by ZEFSAII (Michael W. Deem and Ramdas Pophale) SiO2 
 PCOD8017045
Probable space group: P -1
;
_chemical_formula_sum "Si O2"
_cell_formula_units_Z 16
_cell_length_a 12.091144
_cell_length_b 10.712520
_cell_length_c 9.650327
_cell_angle_alpha 121.351176
_cell_angle_beta 131.259366
_cell_angle_gamma 51.607569
_cell_volume 723.349955
_symmetry_space_group_name_H-M "P -1"
_symmetry_group_IT_number 2
_symmetry_cell_setting 'triclinic'
loop_
_space_group_symop_operation_xyz
x,y,z
-x,-y,-z
loop_
_atom_site_type_symbol
_atom_site_label
_atom_site_fract_x
_atom_site_fract_y
_atom_site_fract_z
Si Si1 0.321983 0.617856 0.973474
Si Si2 0.667324 0.598557 0.903092
Si Si3 0.526458 0.771824 0.321847
Si Si4 0.853179 0.468981 0.422386
Si Si5 0.667524 0.160916 0.299598
Si Si6 0.190127 0.171014 0.921800
Si Si7 0.453735 0.098271 0.308365
Si Si8 0.834764 0.371729 0.662873
O O1 0.261225 0.541621 0.005807
O O2 0.352301 0.768998 0.143052
O O3 0.500000 0.500000 0.000000
O O4 0.177258 0.672496 0.767845
O O5 0.469993 0.690161 0.814322
O O6 0.709577 0.522508 0.737739
O O7 0.735048 0.733418 0.059048
O O8 0.688461 0.618471 0.319697
O O9 0.548389 0.773862 0.506141
O O10 0.532162 0.922470 0.338017
O O11 0.869814 0.434694 0.580087
O O12 0.000000 0.500000 0.500000
O O13 0.572406 0.093104 0.281772
O O14 0.774915 0.232504 0.510457
O O15 0.779333 0.006468 0.210575
O O16 0.998630 0.286368 0.839313
O O17 0.271279 0.148899 0.128431
#
# Coordination Sequence:
#
# PCOD8017045 Si02
#       8
#     2   2   2   2   2   2   2   2
#     4  10  22  37  66  95 125 162 217 267 308 372
#     4  11  22  42  68  93 124 172 223 264 312 382
#     4  10  22  41  62  92 122 166 213 261 312 380
#     4  11  24  39  65  94 131 164 208 260 327 378
#     4  11  23  39  66  95 126 168 216 265 319 380
#     4  11  25  39  65  95 131 166 210 268 328 377
#     4  10  22  40  66  87 126 166 213 259 315 387
#     4  12  25  43  65  97 133 168 214 271 321 383
#
# _framework density 22.119306999999999
#
# number of rings (size 3 to 8) (size 9 to 14) (size 15 to 20)
#    0.000    1.250    0.000    7.125   10.500    1.000 
#    0.000    0.000    0.000    3.750    0.000    0.000 
#    0.000    0.000    0.000    0.000    0.000    0.000 
#
# Total GULP energy -198303.414896 kJ/mol
# GULP energy per Si atom -12393.963431 kJ/mol
# Density = 2.206896 g / cm^3
# Si number density = 22.119307 Si / 1000 Ang^3
#
#
#
# Elastic Constant Matrix: (Units=GPa)
#
#
# Indices 1 2 3 4 5 6 
#
# 1 55.8868 18.7813 25.0551 0.5203 1.4453 0.4542
# 2 18.7813 60.1135 19.2557 7.1034 6.7883 -3.1681
# 3 25.0551 19.2557 119.3733 6.4594 15.9881 -5.8397
# 4 0.5203 7.1034 6.4594 38.9133 3.8751 4.0249
# 5 1.4453 6.7883 15.9881 3.8751 41.5482 -6.8159
# 6 0.4542 -3.1681 -5.8397 4.0249 -6.8159 22.6175
#
#
#
# Elastic Compliance Matrix: (Units=1/GPa)
#
#
# Indices 1 2 3 4 5 6 
#
# 1 0.021623 -0.005932 -0.003937 0.001551 0.001228 -0.002188
# 2 -0.005932 0.019664 -0.001385 -0.003376 -0.001733 0.002594
# 3 -0.003937 -0.001385 0.009992 -0.001228 -0.003079 0.001755
# 4 0.001551 -0.003376 -0.001228 0.027435 -0.002656 -0.006504
# 5 0.001228 -0.001733 -0.003079 -0.002656 0.026978 0.007540
# 6 -0.002188 0.002594 0.001755 -0.006504 0.007540 0.048504
#
#
# Mechanical properties :
#
#
# Convention : Reuss Voigt Hill
#
# Bulk Modulus (GPa) = 34.75830 40.17309 37.46570
# Shear Modulus (GPa) = 26.83933 32.10124 29.47028
#
# Velocity S-wave (km/s) = 3.48715 3.81370 3.65407
# Velocity P-wave (km/s) = 5.65347 6.13138 5.89727
#
# Compressibility (1/GPa) = 0.02877010
#
# Stress axis : x y z
#
# Youngs Moduli (GPa) = 46.24605 50.85551 100.08423
#
# Poissons Ratio (x) = 0.30168 0.39404
# Poissons Ratio (y) = 0.27433 0.13863
# Poissons Ratio (z) = 0.18208 0.07044
#
# Static dielectric constant tensor:
#      x y z
#    x 3.849390 0.147460 0.148400 
#    y 0.147460 3.930250 0.232220 
#    z 0.148400 0.232220 4.759660 
# 
# 
# High freq. dielectric constant tensor:
#      x y z
#    x 1.858120 0.017290 0.004000 
#    y 0.017290 1.855970 0.008960 
#    z 0.004000 0.008960 1.892270 
# 
# From -- ./inp_files/263157.got.cif
#   From: 2010.06.25/outbox.cif.g09.slc.cpg/sg2_132_cif.got.tgz:263157.got - 2010.06.27 13:26:56.
