data_PCOD8017296
_publ_section_title
;
Structure prediction by ZEFSAII (Michael W. Deem and Ramdas Pophale) SiO2 
 PCOD8017296
Probable space group: P -1
;
_chemical_formula_sum "Si O2"
_cell_formula_units_Z 16
_cell_length_a 12.334500
_cell_length_b 13.674234
_cell_length_c 14.834548
_cell_angle_alpha 31.202096
_cell_angle_beta 137.194163
_cell_angle_gamma 115.808876
_cell_volume 737.994703
_symmetry_space_group_name_H-M "P -1"
_symmetry_group_IT_number 2
_symmetry_cell_setting 'triclinic'
loop_
_space_group_symop_operation_xyz
x,y,z
-x,-y,-z
loop_
_atom_site_type_symbol
_atom_site_label
_atom_site_fract_x
_atom_site_fract_y
_atom_site_fract_z
Si Si1 0.146043 0.021523 0.130452
Si Si2 0.108770 0.869886 0.795452
Si Si3 0.674249 0.178452 0.294911
Si Si4 0.236460 0.444538 0.106083
Si Si5 0.567416 0.364838 0.273322
Si Si6 0.064741 0.617658 0.124656
Si Si7 0.651255 0.901194 0.249679
Si Si8 0.496747 0.065394 0.676277
O O1 0.282292 0.049148 0.123489
O O2 0.268627 0.776572 0.443488
O O3 0.051060 0.223361 0.986011
O O4 0.000000 0.000000 0.000000
O O5 0.219328 0.996876 0.761046
O O6 0.161743 0.703601 0.874210
O O7 0.141811 0.744517 0.012009
O O8 0.890538 0.056221 0.493716
O O9 0.663010 0.291196 0.293400
O O10 0.600507 0.015059 0.390949
O O11 0.527845 0.367284 0.984773
O O12 0.389377 0.336330 0.202609
O O13 0.353803 0.332442 0.359915
O O14 0.066441 0.412704 0.002389
O O15 0.224207 0.373166 0.455432
O O16 0.522686 0.994474 0.187095
O O17 0.500000 0.000000 0.000000
#
# Coordination Sequence:
#
# PCOD8017296 Si02
#       8
#     2   2   2   2   2   2   2   2
#     4  11  26  46  70  96 139 196 235 275 341 423
#     4  12  24  43  73 104 141 181 227 292 350 412
#     4  11  21  39  67 104 134 170 229 298 353 396
#     4  11  21  42  71 105 136 177 230 294 360 403
#     4  10  22  38  65  99 138 174 227 287 350 402
#     4  12  24  47  73 104 139 181 234 292 350 408
#     4  12  30  46  67 103 145 191 233 276 342 424
#     4  11  23  43  68  99 135 178 232 288 346 407
#
# _framework density 21.680371000000001
#
# number of rings (size 3 to 8) (size 9 to 14) (size 15 to 20)
#    0.000    0.750    3.750    3.375    1.750    8.000 
#    0.000    1.250    0.000    0.000    0.000    0.000 
#    0.000    0.000    0.000    0.000    0.000    0.000 
#
# Total GULP energy -198249.820257 kJ/mol
# GULP energy per Si atom -12390.613766 kJ/mol
# Density = 2.163103 g / cm^3
# Si number density = 21.680371 Si / 1000 Ang^3
#
#
#
# Elastic Constant Matrix: (Units=GPa)
#
#
# Indices 1 2 3 4 5 6 
#
# 1 131.5093 56.6146 66.5275 -3.9328 5.7516 10.3283
# 2 56.6146 109.1838 59.9186 3.0445 12.8645 4.4247
# 3 66.5275 59.9186 153.6222 -2.2832 3.6589 -3.8578
# 4 -3.9328 3.0445 -2.2832 33.1576 4.3410 3.2020
# 5 5.7516 12.8645 3.6589 4.3410 32.9352 -1.3179
# 6 10.3283 4.4247 -3.8578 3.2020 -1.3179 31.3502
#
#
#
# Elastic Compliance Matrix: (Units=1/GPa)
#
#
# Indices 1 2 3 4 5 6 
#
# 1 0.011407 -0.003828 -0.003503 0.001904 -0.000513 -0.003865
# 2 -0.003828 0.013716 -0.003641 -0.001307 -0.004159 -0.001164
# 3 -0.003503 -0.003641 0.009496 0.000155 0.001073 0.002866
# 4 0.001904 -0.001307 0.000155 0.031424 -0.004133 -0.003807
# 5 -0.000513 -0.004159 0.001073 -0.004133 0.032609 0.002681
# 6 -0.003865 -0.001164 0.002866 -0.003807 0.002681 0.034189
#
#
# Mechanical properties :
#
#
# Convention : Reuss Voigt Hill
#
# Bulk Modulus (GPa) = 78.91081 84.49297 81.70189
# Shear Modulus (GPa) = 31.44402 33.57225 32.50813
#
# Velocity S-wave (km/s) = 3.81247 3.93938 3.87644
# Velocity P-wave (km/s) = 7.47371 7.72970 7.60278
#
# Compressibility (1/GPa) = 0.01267254
#
# Stress axis : x y z
#
# Youngs Moduli (GPa) = 87.66294 72.90766 105.31125
#
# Poissons Ratio (x) = 0.27912 0.36894
# Poissons Ratio (y) = 0.33561 0.38349
# Poissons Ratio (z) = 0.30712 0.26549
#
# Static dielectric constant tensor:
#      x y z
#    x 4.145350 0.011180 -0.059910 
#    y 0.011180 3.788150 -0.352610 
#    z -0.059910 -0.352610 4.273890 
# 
# 
# High freq. dielectric constant tensor:
#      x y z
#    x 1.874080 -0.000710 0.000200 
#    y -0.000710 1.826840 -0.022040 
#    z 0.000200 -0.022040 1.867240 
# 
# From -- ./inp_files/522206.got.cif
#   From: 2010.06.25/outbox.cif.g09.slc.cpg/sg2_262_cif.got.tgz:522206.got - 2010.06.27 13:26:56.
