data_PCOD8017373
_publ_section_title
;
Structure prediction by ZEFSAII (Michael W. Deem and Ramdas Pophale) SiO2 
 PCOD8017373
Probable space group: P -1
;
_chemical_formula_sum "Si O2"
_cell_formula_units_Z 16
_cell_length_a 22.101264
_cell_length_b 17.074178
_cell_length_c 14.120807
_cell_angle_alpha 147.102459
_cell_angle_beta 158.406213
_cell_angle_gamma 21.504142
_cell_volume 705.957713
_symmetry_space_group_name_H-M "P -1"
_symmetry_group_IT_number 2
_symmetry_cell_setting 'triclinic'
loop_
_space_group_symop_operation_xyz
x,y,z
-x,-y,-z
loop_
_atom_site_type_symbol
_atom_site_label
_atom_site_fract_x
_atom_site_fract_y
_atom_site_fract_z
Si Si1 0.322232 0.929673 0.714832
Si Si2 0.459680 0.526934 0.080490
Si Si3 0.331200 0.236453 0.116044
Si Si4 0.082691 0.283957 0.071648
Si Si5 0.480124 0.845573 0.485826
Si Si6 0.107138 0.951489 0.709681
Si Si7 0.326047 0.530728 0.201216
Si Si8 0.061947 0.798558 0.910705
O O1 0.427293 0.873018 0.703546
O O2 0.531843 0.712018 0.863120
O O3 0.080382 0.985960 0.418840
O O4 0.248431 0.131959 0.855813
O O5 0.493559 0.666172 0.309313
O O6 0.640743 0.299460 0.165522
O O7 0.500000 0.500000 0.000000
O O8 0.186199 0.652456 0.846310
O O9 0.398362 0.187992 0.273221
O O10 0.103179 0.495339 0.035977
O O11 0.343800 0.196005 0.379945
O O12 0.946974 0.331642 0.019493
O O13 0.150719 0.092117 0.923149
O O14 0.201328 0.096900 0.333745
O O15 0.000000 0.000000 0.500000
O O16 0.500000 0.500000 0.500000
O O17 0.272950 0.654248 0.153708
O O18 0.000000 0.000000 0.000000
#
# Coordination Sequence:
#
# PCOD8017373 Si02
#       8
#     2   2   2   2   2   2   2   2
#     4  10  22  38  69 101 141 179 236 287 341 417
#     4  11  27  45  68  99 135 181 239 284 346 422
#     4  10  22  41  66 105 140 184 232 286 355 407
#     4  11  24  39  70 104 137 182 228 290 350 410
#     4  11  24  45  70  95 147 184 232 284 357 419
#     4  12  23  38  68  97 135 175 237 287 346 407
#     4  11  23  43  72 104 141 178 236 288 347 414
#     4  10  26  45  70  99 136 188 229 282 357 418
#
# _framework density 22.664245000000001
#
# number of rings (size 3 to 8) (size 9 to 14) (size 15 to 20)
#    0.000    1.250    1.250    3.375   12.250    0.500 
#    0.000    1.250    0.000    0.000    0.000    0.000 
#    0.000    0.000    0.000    0.000    0.000    0.000 
#
# Total GULP energy -198280.305863 kJ/mol
# GULP energy per Si atom -12392.519116 kJ/mol
# Density = 2.261266 g / cm^3
# Si number density = 22.664245 Si / 1000 Ang^3
#
#
#
# Elastic Constant Matrix: (Units=GPa)
#
#
# Indices 1 2 3 4 5 6 
#
# 1 96.7830 51.2236 33.7223 -19.2435 11.3286 -3.2739
# 2 51.2236 167.2969 49.0834 -2.3371 7.2997 -7.0363
# 3 33.7223 49.0834 74.9076 -5.8072 23.9936 -9.5034
# 4 -19.2435 -2.3371 -5.8072 36.6629 -3.1685 8.8187
# 5 11.3286 7.2997 23.9936 -3.1685 45.4720 -11.2053
# 6 -3.2739 -7.0363 -9.5034 8.8187 -11.2053 39.7540
#
#
#
# Elastic Compliance Matrix: (Units=1/GPa)
#
#
# Indices 1 2 3 4 5 6 
#
# 1 0.015040 -0.003412 -0.003857 0.007513 -0.001206 -0.002294
# 2 -0.003412 0.008294 -0.004579 -0.002082 0.002070 0.001138
# 3 -0.003857 -0.004579 0.021185 -0.000082 -0.009149 0.001376
# 4 0.007513 -0.002082 -0.000082 0.032746 -0.001016 -0.007320
# 5 -0.001206 0.002070 -0.009149 -0.001016 0.028262 0.006271
# 6 -0.002294 0.001138 0.001376 -0.007320 0.006271 0.028888
#
#
# Mechanical properties :
#
#
# Convention : Reuss Voigt Hill
#
# Bulk Modulus (GPa) = 48.02432 67.44956 57.73694
# Shear Modulus (GPa) = 30.29368 38.04167 34.16768
#
# Velocity S-wave (km/s) = 3.65996 4.10138 3.88694
# Velocity P-wave (km/s) = 6.25267 7.22865 6.75830
#
# Compressibility (1/GPa) = 0.02082279
#
# Stress axis : x y z
#
# Youngs Moduli (GPa) = 66.49099 120.57043 47.20290
#
# Poissons Ratio (x) = 0.41140 0.18207
# Poissons Ratio (y) = 0.22688 0.21612
# Poissons Ratio (z) = 0.25647 0.55204
#
# Static dielectric constant tensor:
#      x y z
#    x 4.661430 -0.502280 0.739470 
#    y -0.502280 4.824300 -0.451320 
#    z 0.739470 -0.451320 4.239660 
# 
# 
# High freq. dielectric constant tensor:
#      x y z
#    x 1.906360 -0.008280 0.025680 
#    y -0.008280 1.916250 -0.008000 
#    z 0.025680 -0.008000 1.862150 
# 
# From -- ./inp_files/543189.got.cif
#   From: 2010.06.25/outbox.cif.g09.slc.cpg/sg2_272_cif.got.tgz:543189.got - 2010.06.27 13:26:56.
