data_PCOD8017522
_publ_section_title
;
Structure prediction by ZEFSAII (Michael W. Deem and Ramdas Pophale) SiO2 
 PCOD8017522
Probable space group: P -1
;
_chemical_formula_sum "Si O2"
_cell_formula_units_Z 14
_cell_length_a 15.842761
_cell_length_b 6.405386
_cell_length_c 23.778669
_cell_angle_alpha 79.571885
_cell_angle_beta 159.165108
_cell_angle_gamma 112.649567
_cell_volume 664.072239
_symmetry_space_group_name_H-M "P -1"
_symmetry_group_IT_number 2
_symmetry_cell_setting 'triclinic'
loop_
_space_group_symop_operation_xyz
x,y,z
-x,-y,-z
loop_
_atom_site_type_symbol
_atom_site_label
_atom_site_fract_x
_atom_site_fract_y
_atom_site_fract_z
Si Si1 0.952110 0.905778 0.065256
Si Si2 0.801465 0.429694 0.056712
Si Si3 0.172931 0.422602 0.807500
Si Si4 0.773187 0.178402 0.864263
Si Si5 0.692644 0.083717 0.173595
Si Si6 0.761302 0.900116 0.513539
Si Si7 0.688977 0.583387 0.668939
O O1 0.727811 0.608755 0.968877
O O2 0.149231 0.900095 0.140932
O O3 0.165388 0.111403 0.238050
O O4 0.778060 0.013301 0.926512
O O5 0.885216 0.525862 0.168566
O O6 0.069915 0.468925 0.188030
O O7 0.523206 0.109106 0.900195
O O8 0.159512 0.602827 0.743100
O O9 0.500000 0.500000 0.000000
O O10 0.895837 0.114594 0.637514
O O11 0.427421 0.068001 0.650982
O O12 0.000000 0.500000 0.000000
O O13 0.954302 0.054376 0.339703
O O14 0.500000 0.000000 0.000000
O O15 0.529817 0.600494 0.407786
O O16 0.500000 0.500000 0.500000
#
# Coordination Sequence:
#
# PCOD8017522 Si02
#       7
#     2   2   2   2   2   2   2
#     4  11  24  43  69  95 137 179 220 282 342 376
#     4  11  23  40  63  98 139 173 212 279 336 396
#     4  11  23  40  66  96 137 181 217 264 343 406
#     4  11  24  46  68  97 135 179 231 281 326 394
#     4  10  22  39  61  92 138 178 212 271 330 408
#     4  12  23  40  66 100 129 178 226 267 337 401
#     4  12  25  37  65 105 139 165 222 283 339 404
#
# _framework density 21.082045000000001
#
# number of rings (size 3 to 8) (size 9 to 14) (size 15 to 20)
#    0.000    0.857    5.714    2.571    6.000    1.143 
#    0.000    0.714    0.000    4.286    0.000    0.000 
#    0.000    0.000    0.000    0.000    0.000    0.000 
#
# Total GULP energy -173520.136529 kJ/mol
# GULP energy per Si atom -12394.295466 kJ/mol
# Density = 2.103406 g / cm^3
# Si number density = 21.082045 Si / 1000 Ang^3
#
#
#
# Elastic Constant Matrix: (Units=GPa)
#
#
# Indices 1 2 3 4 5 6 
#
# 1 58.1297 30.1064 22.8773 0.2404 -9.1232 2.2507
# 2 30.1064 134.9685 29.5629 -11.2120 -1.4347 23.3640
# 3 22.8773 29.5629 110.5419 -21.8737 1.0120 3.2450
# 4 0.2404 -11.2120 -21.8737 33.1267 5.2179 -0.6231
# 5 -9.1232 -1.4347 1.0120 5.2179 22.8873 6.2223
# 6 2.2507 23.3640 3.2450 -0.6231 6.2223 47.5254
#
#
#
# Elastic Compliance Matrix: (Units=1/GPa)
#
#
# Indices 1 2 3 4 5 6 
#
# 1 0.023236 -0.004521 -0.005025 -0.006709 0.010738 -0.000029
# 2 -0.004521 0.009593 -0.000974 0.002648 -0.000586 -0.004324
# 3 -0.005025 -0.000974 0.012034 0.008402 -0.004679 0.000618
# 4 -0.006709 0.002648 0.008402 0.038548 -0.011802 0.000493
# 5 0.010738 -0.000586 -0.004679 -0.011802 0.052725 -0.006959
# 6 -0.000029 -0.004324 0.000618 0.000493 -0.006959 0.024044
#
#
# Mechanical properties :
#
#
# Convention : Reuss Voigt Hill
#
# Bulk Modulus (GPa) = 41.97353 52.08147 47.02750
# Shear Modulus (GPa) = 26.43270 35.44745 30.94008
#
# Velocity S-wave (km/s) = 3.54475 4.10494 3.83509
# Velocity P-wave (km/s) = 6.05859 6.87206 6.47811
#
# Compressibility (1/GPa) = 0.02382454
#
# Stress axis : x y z
#
# Youngs Moduli (GPa) = 43.03679 104.24215 83.09888
#
# Poissons Ratio (x) = 0.47124 0.41755
# Poissons Ratio (y) = 0.19455 0.08092
# Poissons Ratio (z) = 0.21625 0.10151
#
# Static dielectric constant tensor:
#      x y z
#    x 3.788480 0.068440 -0.053840 
#    y 0.068440 4.570780 0.018460 
#    z -0.053840 0.018460 3.870790 
# 
# 
# High freq. dielectric constant tensor:
#      x y z
#    x 1.803780 -0.002720 0.006300 
#    y -0.002720 1.854480 -0.001420 
#    z 0.006300 -0.001420 1.810840 
# 
# From -- ./inp_files/108906.got.cif
#   From: 2010.06.25/outbox.cif.g09.slc.cpg/sg2_55_cif.got.tgz:108906.got - 2010.06.27 13:26:56.
