data_PCOD8017244
_publ_section_title
;
Structure prediction by ZEFSAII (Michael W. Deem and Ramdas Pophale) SiO2 
 PCOD8017244
Probable space group: P -1
;
_chemical_formula_sum "Si O2"
_cell_formula_units_Z 14
_cell_length_a 24.922643
_cell_length_b 15.522941
_cell_length_c 5.299240
_cell_angle_alpha 106.169923
_cell_angle_beta 97.032731
_cell_angle_gamma 19.955625
_cell_volume 608.284918
_symmetry_space_group_name_H-M "P -1"
_symmetry_group_IT_number 2
_symmetry_cell_setting 'triclinic'
loop_
_space_group_symop_operation_xyz
x,y,z
-x,-y,-z
loop_
_atom_site_type_symbol
_atom_site_label
_atom_site_fract_x
_atom_site_fract_y
_atom_site_fract_z
Si Si1 0.575647 0.666895 0.115357
Si Si2 0.919617 0.696155 0.927055
Si Si3 0.598174 0.730892 0.664521
Si Si4 0.357940 0.643568 0.050496
Si Si5 0.195002 0.287940 0.384432
Si Si6 0.845621 0.996341 0.267113
Si Si7 0.776539 0.612986 0.897824
O O1 0.673332 0.558494 0.322721
O O2 0.389370 0.004466 0.332362
O O3 0.636506 0.606291 0.827585
O O4 0.560736 0.583183 0.050347
O O5 0.815016 0.803531 0.747699
O O6 0.076502 0.503007 0.726292
O O7 0.000000 0.500000 0.000000
O O8 0.800928 0.959630 0.196431
O O9 0.714806 0.635287 0.681257
O O10 0.394835 0.082389 0.801551
O O11 0.227771 0.859574 0.386498
O O12 0.500000 0.500000 0.000000
O O13 0.252973 0.802160 0.857886
O O14 0.136041 0.439757 0.235739
O O15 0.052424 0.693723 0.106666
#
# Coordination Sequence:
#
# PCOD8017244 Si02
#       7
#     2   2   2   2   2   2   2
#     4  11  24  44  65  91 129 179 223 261 322 383
#     4  11  22  36  62 100 131 160 206 270 343 389
#     4  10  24  43  71  99 133 166 216 279 332 389
#     4  12  28  46  66  93 133 181 223 263 314 389
#     4  10  22  38  63  96 134 167 210 270 333 406
#     4  12  25  43  67  97 133 172 219 269 323 389
#     4  10  22  43  68 103 130 168 213 276 342 385
#
# _framework density 23.015532
#
# number of rings (size 3 to 8) (size 9 to 14) (size 15 to 20)
#    0.000    1.143    1.429    3.857    6.000    8.571 
#    0.000    4.286    0.000    0.000    0.000    0.000 
#    0.000    0.000    0.000    0.000    0.000    0.000 
#
# Total GULP energy -173440.095360 kJ/mol
# GULP energy per Si atom -12388.578240 kJ/mol
# Density = 2.296315 g / cm^3
# Si number density = 23.015532 Si / 1000 Ang^3
#
#
#
# Elastic Constant Matrix: (Units=GPa)
#
#
# Indices 1 2 3 4 5 6 
#
# 1 74.6890 11.6679 14.7870 9.2926 8.5974 1.1121
# 2 11.6679 86.7629 26.6330 -3.5409 -16.2244 6.6448
# 3 14.7870 26.6330 103.0726 -18.0157 8.7751 -0.2650
# 4 9.2926 -3.5409 -18.0157 19.3115 -1.2355 1.2072
# 5 8.5974 -16.2244 8.7751 -1.2355 34.5240 5.1584
# 6 1.1121 6.6448 -0.2650 1.2072 5.1584 28.4974
#
#
#
# Elastic Compliance Matrix: (Units=1/GPa)
#
#
# Indices 1 2 3 4 5 6 
#
# 1 0.016549 -0.002791 -0.003296 -0.011975 -0.005237 0.001430
# 2 -0.002791 0.015527 -0.004263 0.001185 0.009925 -0.005398
# 3 -0.003296 -0.004263 0.014023 0.013506 -0.004487 0.001493
# 4 -0.011975 0.001185 0.013506 0.070765 0.003124 -0.003247
# 5 -0.005237 0.009925 -0.004487 0.003124 0.037542 -0.009079
# 6 0.001430 -0.005398 0.001493 -0.003247 -0.009079 0.038089
#
#
# Mechanical properties :
#
#
# Convention : Reuss Voigt Hill
#
# Bulk Modulus (GPa) = 39.37412 41.18892 40.28152
# Shear Modulus (GPa) = 22.55678 30.56234 26.55956
#
# Velocity S-wave (km/s) = 3.13400 3.64799 3.40072
# Velocity P-wave (km/s) = 5.49915 5.97317 5.74106
#
# Compressibility (1/GPa) = 0.02539739
#
# Stress axis : x y z
#
# Youngs Moduli (GPa) = 60.42690 64.40231 71.31177
#
# Poissons Ratio (x) = 0.17976 0.23507
# Poissons Ratio (y) = 0.16866 0.30403
# Poissons Ratio (z) = 0.19919 0.27457
#
# Static dielectric constant tensor:
#      x y z
#    x 4.383400 -0.074940 0.164170 
#    y -0.074940 4.120150 -0.203080 
#    z 0.164170 -0.203080 4.073040 
# 
# 
# High freq. dielectric constant tensor:
#      x y z
#    x 1.912290 -0.004810 0.015730 
#    y -0.004810 1.903280 -0.020630 
#    z 0.015730 -0.020630 1.906770 
# 
# From -- ./inp_files/65481.got.cif
#   From: 2010.06.25/outbox.cif.g09.slc.cpg/sg2_33_cif.got.tgz:65481.got - 2010.06.27 13:26:56.
