data_PCOD8017153
_publ_section_title
;
Structure prediction by ZEFSAII (Michael W. Deem and Ramdas Pophale) SiO2 
 PCOD8017153
Probable space group: P -1
;
_chemical_formula_sum "Si O2"
_cell_formula_units_Z 16
_cell_length_a 13.351118
_cell_length_b 13.992786
_cell_length_c 7.036263
_cell_angle_alpha 107.038964
_cell_angle_beta 73.707920
_cell_angle_gamma 53.301125
_cell_volume 810.373441
_symmetry_space_group_name_H-M "P -1"
_symmetry_group_IT_number 2
_symmetry_cell_setting 'triclinic'
loop_
_space_group_symop_operation_xyz
x,y,z
-x,-y,-z
loop_
_atom_site_type_symbol
_atom_site_label
_atom_site_fract_x
_atom_site_fract_y
_atom_site_fract_z
Si Si1 0.360416 0.776766 0.473066
Si Si2 0.873253 0.424438 0.733721
Si Si3 0.216172 0.162844 0.299862
Si Si4 0.195684 0.693114 0.602272
Si Si5 0.707245 0.533892 0.284524
Si Si6 0.152821 0.034414 0.009652
Si Si7 0.364147 0.865321 0.122107
Si Si8 0.301874 0.321060 0.296656
O O1 0.313324 0.696783 0.488142
O O2 0.528055 0.676579 0.413209
O O3 0.366091 0.790101 0.253419
O O4 0.235441 0.944593 0.718495
O O5 0.817634 0.369026 0.608774
O O6 0.812100 0.569277 0.752004
O O7 0.058690 0.300205 0.575120
O O8 0.811387 0.458349 0.998345
O O9 0.176936 0.136093 0.102297
O O10 0.314282 0.192903 0.227660
O O11 0.317489 0.013496 0.286885
O O12 0.264610 0.588462 0.687708
O O13 0.029648 0.860305 0.840786
O O14 0.761128 0.588803 0.418957
O O15 0.237708 0.912355 0.064835
O O16 0.532028 0.746595 0.867198
#
# Coordination Sequence:
#
# PCOD8017153 Si02
#       8
#     2   2   2   2   2   2   2   2
#     4  12  22  40  61  89 117 159 194 240 294 344
#     4  10  22  41  58  91 117 154 200 240 285 355
#     4   9  21  41  61  85 121 154 190 247 294 339
#     4  10  24  39  63  84 121 156 192 246 293 339
#     4  11  23  39  61  88 121 151 202 238 284 360
#     4   9  22  41  58  89 117 152 196 244 285 352
#     4  10  22  38  61  86 122 150 198 241 283 354
#     4  11  20  42  61  85 121 156 193 243 296 337
#
# _framework density 19.743981000000002
#
# number of rings (size 3 to 8) (size 9 to 14) (size 15 to 20)
#    0.750    1.000    2.500    1.500    1.750    2.500 
#    2.250    1.250    0.000    0.000    0.000    0.000 
#    0.000    0.000    0.000    0.000    0.000    0.000 
#
# Total GULP energy -198369.721958 kJ/mol
# GULP energy per Si atom -12398.107622 kJ/mol
# Density = 1.969904 g / cm^3
# Si number density = 19.743981 Si / 1000 Ang^3
#
#
#
# Elastic Constant Matrix: (Units=GPa)
#
#
# Indices 1 2 3 4 5 6 
#
# 1 28.7836 -2.7241 6.7672 -6.1618 -1.5615 9.3642
# 2 -2.7241 73.5665 27.1315 -1.6744 -1.0486 -2.7052
# 3 6.7672 27.1315 100.9605 -5.1609 -4.5877 -1.8923
# 4 -6.1618 -1.6744 -5.1609 30.1298 -3.7273 -3.5493
# 5 -1.5615 -1.0486 -4.5877 -3.7273 18.0858 2.9474
# 6 9.3642 -2.7052 -1.8923 -3.5493 2.9474 29.8639
#
#
#
# Elastic Compliance Matrix: (Units=1/GPa)
#
#
# Indices 1 2 3 4 5 6 
#
# 1 0.041825 0.002455 -0.003021 0.007478 0.006622 -0.012848
# 2 0.002455 0.015273 -0.004221 0.000689 0.000101 0.000418
# 3 -0.003021 -0.004221 0.011460 0.001567 0.002524 0.001228
# 4 0.007478 0.000689 0.001567 0.036210 0.008334 0.001298
# 5 0.006622 0.000101 0.002524 0.008334 0.059331 -0.006773
# 6 -0.012848 0.000418 0.001228 0.001298 -0.006773 0.038452
#
#
# Mechanical properties :
#
#
# Convention : Reuss Voigt Hill
#
# Bulk Modulus (GPa) = 16.95398 29.51775 23.23587
# Shear Modulus (GPa) = 21.57158 27.09163 24.33160
#
# Velocity S-wave (km/s) = 3.30898 3.70827 3.51430
# Velocity P-wave (km/s) = 4.81713 5.77215 5.31613
#
# Compressibility (1/GPa) = 0.05898321
#
# Stress axis : x y z
#
# Youngs Moduli (GPa) = 23.90935 65.47323 87.26296
#
# Poissons Ratio (x) = -0.16073 0.26360
# Poissons Ratio (y) = -0.05870 0.36837
# Poissons Ratio (z) = 0.07223 0.27639
#
# Static dielectric constant tensor:
#      x y z
#    x 3.354020 -0.097530 -0.003800 
#    y -0.097530 3.652910 0.163420 
#    z -0.003800 0.163420 3.512570 
# 
# 
# High freq. dielectric constant tensor:
#      x y z
#    x 1.754860 -0.008870 -0.002920 
#    y -0.008870 1.774820 0.016110 
#    z -0.002920 0.016110 1.770090 
# 
# From -- ./inp_files/97156.got.cif
#   From: 2010.06.25/outbox.cif.g09.slc.cpg/sg2_49_cif.got.tgz:97156.got - 2010.06.27 13:26:56.
