data_PCOD8017868
_publ_section_title
;
Structure prediction by ZEFSAII (Michael W. Deem and Ramdas Pophale) SiO2 
 PCOD8017868
Probable space group: P -1
;
_chemical_formula_sum "Si O2"
_cell_formula_units_Z 16
_cell_length_a 12.001334
_cell_length_b 12.129930
_cell_length_c 12.176222
_cell_angle_alpha 143.025250
_cell_angle_beta 47.014953
_cell_angle_gamma 130.852947
_cell_volume 755.402941
_symmetry_space_group_name_H-M "P -1"
_symmetry_group_IT_number 2
_symmetry_cell_setting 'triclinic'
loop_
_space_group_symop_operation_xyz
x,y,z
-x,-y,-z
loop_
_atom_site_type_symbol
_atom_site_label
_atom_site_fract_x
_atom_site_fract_y
_atom_site_fract_z
Si Si1 0.532798 0.725385 0.256036
Si Si2 0.629595 0.011263 0.013142
Si Si3 0.932864 0.232163 0.909049
Si Si4 0.246662 0.499717 0.140424
Si Si5 0.617462 0.070998 0.315419
Si Si6 0.978633 0.203116 0.207673
Si Si7 0.951630 0.354537 0.754357
Si Si8 0.899341 0.831697 0.669474
O O1 0.365348 0.587261 0.227089
O O2 0.505730 0.821620 0.465155
O O3 0.601005 0.875218 0.234018
O O4 0.664593 0.609667 0.091261
O O5 0.757839 0.205145 0.053247
O O6 0.563357 0.024614 0.189814
O O7 0.500000 0.000000 0.000000
O O8 0.715415 0.835611 0.810707
O O9 0.028486 0.427438 0.050259
O O10 0.925520 0.226609 0.777457
O O11 0.999400 0.051088 0.756014
O O12 0.202133 0.673495 0.242726
O O13 0.086775 0.363846 0.187662
O O14 0.796305 0.199891 0.307554
O O15 0.029508 0.248408 0.335835
O O16 0.000000 0.000000 0.000000
O O17 0.089685 0.302242 0.548298
#
# Coordination Sequence:
#
# PCOD8017868 Si02
#       8
#     2   2   2   2   2   2   2   2
#     4  10  24  39  60  98 132 164 203 267 333 384
#     4  10  22  41  61  87 127 170 210 256 306 384
#     4   9  23  41  61  90 125 161 218 261 302 377
#     4  11  23  40  62  97 131 160 209 272 325 380
#     4  11  22  42  65  93 128 173 214 254 328 387
#     4  12  20  40  68  93 127 168 212 270 317 380
#     4  11  21  41  65  92 125 161 214 266 316 374
#     4  10  22  39  67  93 121 167 212 264 319 370
#
# _framework density 21.180747
#
# number of rings (size 3 to 8) (size 9 to 14) (size 15 to 20)
#    0.750    0.750    2.500    2.625    1.750    3.000 
#    4.500    0.625    0.000    0.000    0.000    0.000 
#    0.000    0.000    0.000    0.000    0.000    0.000 
#
# Total GULP energy -198290.557455 kJ/mol
# GULP energy per Si atom -12393.159841 kJ/mol
# Density = 2.113254 g / cm^3
# Si number density = 21.180747 Si / 1000 Ang^3
#
#
#
# Elastic Constant Matrix: (Units=GPa)
#
#
# Indices 1 2 3 4 5 6 
#
# 1 94.0600 27.6332 37.3977 -18.5536 -4.3111 -19.7721
# 2 27.6332 59.3025 21.3932 -21.7548 2.9415 0.8001
# 3 37.3977 21.3932 126.9342 -22.9395 11.2715 -20.5357
# 4 -18.5536 -21.7548 -22.9395 32.0031 -6.6736 8.3135
# 5 -4.3111 2.9415 11.2715 -6.6736 24.9641 -7.6611
# 6 -19.7721 0.8001 -20.5357 8.3135 -7.6611 35.0168
#
#
#
# Elastic Compliance Matrix: (Units=1/GPa)
#
#
# Indices 1 2 3 4 5 6 
#
# 1 0.016256 -0.006164 -0.002519 0.002804 0.008172 0.008964
# 2 -0.006164 0.025866 -0.001033 0.015063 -0.002307 -0.008758
# 3 -0.002519 -0.001033 0.010233 0.003754 -0.002992 0.003056
# 4 0.002804 0.015063 0.003754 0.049184 0.008184 -0.006446
# 5 0.008172 -0.002307 -0.002992 0.008184 0.048857 0.011658
# 6 0.008964 -0.008758 0.003056 -0.006446 0.011658 0.039693
#
#
# Mechanical properties :
#
#
# Convention : Reuss Voigt Hill
#
# Bulk Modulus (GPa) = 30.37424 50.34943 40.36184
# Shear Modulus (GPa) = 22.67623 31.32163 26.99893
#
# Velocity S-wave (km/s) = 3.27556 3.84966 3.57416
# Velocity P-wave (km/s) = 5.35512 6.60173 6.01083
#
# Compressibility (1/GPa) = 0.03292263
#
# Stress axis : x y z
#
# Youngs Moduli (GPa) = 61.51616 38.66099 97.72230
#
# Poissons Ratio (x) = 0.23829 0.24618
# Poissons Ratio (y) = 0.37916 0.10098
# Poissons Ratio (z) = 0.15497 0.03995
#
# Static dielectric constant tensor:
#      x y z
#    x 3.905960 -0.095440 -0.083460 
#    y -0.095440 3.827260 -0.101580 
#    z -0.083460 -0.101580 3.919380 
# 
# 
# High freq. dielectric constant tensor:
#      x y z
#    x 1.815960 -0.009440 0.004130 
#    y -0.009440 1.822430 -0.008950 
#    z 0.004130 -0.008950 1.836980 
# 
# From -- ./inp_files/429029.got.cif
#   From: 2010.06.25/outbox.cif.g09.slc.cpg/sg2_215_cif.got.tgz:429029.got - 2010.06.27 13:26:56.
