data_PCOD8017875
_publ_section_title
;
Structure prediction by ZEFSAII (Michael W. Deem and Ramdas Pophale) SiO2 
 PCOD8017875
Probable space group: P -1
;
_chemical_formula_sum "Si O2"
_cell_formula_units_Z 16
_cell_length_a 22.627243
_cell_length_b 14.438730
_cell_length_c 8.207980
_cell_angle_alpha 127.908504
_cell_angle_beta 146.629098
_cell_angle_gamma 30.370532
_cell_volume 689.333193
_symmetry_space_group_name_H-M "P -1"
_symmetry_group_IT_number 2
_symmetry_cell_setting 'triclinic'
loop_
_space_group_symop_operation_xyz
x,y,z
-x,-y,-z
loop_
_atom_site_type_symbol
_atom_site_label
_atom_site_fract_x
_atom_site_fract_y
_atom_site_fract_z
Si Si1 0.229612 0.934409 0.784428
Si Si2 0.228405 0.328594 0.497464
Si Si3 0.641527 0.294927 0.850422
Si Si4 0.726287 0.481726 0.699758
Si Si5 0.786800 0.677353 0.188251
Si Si6 0.615805 0.581215 0.186375
Si Si7 0.983140 0.964496 0.098011
Si Si8 0.179562 0.245496 0.978852
O O1 0.145490 0.137567 0.801067
O O2 0.307953 0.840940 0.040440
O O3 0.397696 0.775685 0.875054
O O4 0.073917 0.976281 0.443202
O O5 0.296625 0.215647 0.708270
O O6 0.302089 0.396046 0.722842
O O7 0.010779 0.520069 0.210718
O O8 0.290515 0.195126 0.339698
O O9 0.426033 0.468460 0.513067
O O10 0.686497 0.389437 0.100351
O O11 0.767722 0.143734 0.828164
O O12 0.679973 0.557197 0.489871
O O13 0.735327 0.588352 0.944424
O O14 0.920616 0.246192 0.895041
O O15 0.716902 0.817560 0.024082
O O16 0.000000 0.500000 0.500000
O O17 0.000000 0.000000 0.000000
#
# Coordination Sequence:
#
# PCOD8017875 Si02
#       8
#     2   2   2   2   2   2   2   2
#     4  11  23  43  66  98 133 173 229 280 338 409
#     4  10  22  39  67  95 124 183 224 274 346 392
#     4  11  24  44  69  97 136 180 224 277 341 408
#     4  11  23  45  68  97 140 176 226 281 342 404
#     4  10  23  42  67  94 136 178 225 288 334 401
#     4  11  21  43  70  95 133 179 224 283 341 406
#     4  12  27  40  66 104 138 178 223 280 340 410
#     4  10  22  41  65  93 131 174 232 280 328 401
#
# _framework density 23.210837999999999
#
# number of rings (size 3 to 8) (size 9 to 14) (size 15 to 20)
#    0.000    1.250    3.750    1.875    7.000    2.000 
#    0.000    0.625    0.000    0.000    0.000    0.000 
#    0.000    0.000    0.000    0.000    0.000    0.000 
#
# Total GULP energy -198341.632223 kJ/mol
# GULP energy per Si atom -12396.352014 kJ/mol
# Density = 2.315801 g / cm^3
# Si number density = 23.210838 Si / 1000 Ang^3
#
#
#
# Elastic Constant Matrix: (Units=GPa)
#
#
# Indices 1 2 3 4 5 6 
#
# 1 129.6326 2.1570 7.2645 -1.1968 -1.5678 -11.1432
# 2 2.1570 44.3277 -11.3824 -4.4093 -7.2747 1.7753
# 3 7.2645 -11.3824 39.5980 3.7827 3.0549 -8.7065
# 4 -1.1968 -4.4093 3.7827 23.9757 0.6834 10.7027
# 5 -1.5678 -7.2747 3.0549 0.6834 30.0953 1.1801
# 6 -11.1432 1.7753 -8.7065 10.7027 1.1801 35.1615
#
#
#
# Elastic Compliance Matrix: (Units=1/GPa)
#
#
# Indices 1 2 3 4 5 6 
#
# 1 0.008001 -0.000800 -0.001099 -0.000702 0.000252 0.002509
# 2 -0.000800 0.025600 0.006380 0.004135 0.005460 -0.001408
# 3 -0.001099 0.006380 0.030186 -0.007705 -0.001765 0.009209
# 4 -0.000702 0.004135 -0.007705 0.051702 0.001281 -0.018119
# 5 0.000252 0.005460 -0.001765 0.001281 0.034797 -0.002191
# 6 0.002509 -0.001408 0.009209 -0.018119 -0.002191 0.037175
#
#
# Mechanical properties :
#
#
# Convention : Reuss Voigt Hill
#
# Bulk Modulus (GPa) = 13.74590 23.29294 18.51942
# Shear Modulus (GPa) = 24.66097 32.21445 28.43771
#
# Velocity S-wave (km/s) = 3.26310 3.72950 3.50407
# Velocity P-wave (km/s) = 4.48689 5.34815 4.93634
#
# Compressibility (1/GPa) = 0.07274898
#
# Stress axis : x y z
#
# Youngs Moduli (GPa) = 124.98030 39.06233 33.12775
#
# Poissons Ratio (x) = 0.03126 0.03640
# Poissons Ratio (y) = 0.10003 -0.21135
# Poissons Ratio (z) = 0.13731 -0.24921
#
# Static dielectric constant tensor:
#      x y z
#    x 4.614690 -0.179360 -0.000830 
#    y -0.179360 3.928350 -0.057950 
#    z -0.000830 -0.057950 4.350160 
# 
# 
# High freq. dielectric constant tensor:
#      x y z
#    x 1.929150 0.000340 0.005730 
#    y 0.000340 1.898620 0.004600 
#    z 0.005730 0.004600 1.911520 
# 
# From -- ./inp_files/354547.got.cif
#   From: 2010.06.25/outbox.cif.g09.slc.cpg/sg2_178_cif.got.tgz:354547.got - 2010.06.27 13:26:56.
