data_PCOD8017072
_publ_section_title
;
Structure prediction by ZEFSAII (Michael W. Deem and Ramdas Pophale) SiO2 
 PCOD8017072
Probable space group: P -1
;
_chemical_formula_sum "Si O2"
_cell_formula_units_Z 16
_cell_length_a 6.728315
_cell_length_b 24.413053
_cell_length_c 16.013743
_cell_angle_alpha 21.329414
_cell_angle_beta 79.072803
_cell_angle_gamma 67.157707
_cell_volume 756.726177
_symmetry_space_group_name_H-M "P -1"
_symmetry_group_IT_number 2
_symmetry_cell_setting 'triclinic'
loop_
_space_group_symop_operation_xyz
x,y,z
-x,-y,-z
loop_
_atom_site_type_symbol
_atom_site_label
_atom_site_fract_x
_atom_site_fract_y
_atom_site_fract_z
Si Si1 0.161733 0.097638 0.628999
Si Si2 0.297654 0.203375 0.984457
Si Si3 0.704552 0.956944 0.615352
Si Si4 0.227293 0.527226 0.772584
Si Si5 0.735777 0.284598 0.160405
Si Si6 0.672081 0.486841 0.403342
Si Si7 0.144675 0.766254 0.104117
Si Si8 0.967160 0.642858 0.867277
O O1 0.202672 0.154371 0.452634
O O2 0.971214 0.276789 0.445345
O O3 0.435157 0.963725 0.839643
O O4 0.056503 0.976034 0.798578
O O5 0.292695 0.159030 0.144278
O O6 0.259262 0.398970 0.708145
O O7 0.093180 0.227571 0.906061
O O8 0.984449 0.831329 0.734289
O O9 0.500000 0.000000 0.500000
O O10 0.658483 0.147306 0.384572
O O11 0.197100 0.566181 0.621499
O O12 0.512400 0.445274 0.891447
O O13 0.165510 0.378701 0.011362
O O14 0.766595 0.390728 0.084231
O O15 0.368661 0.620758 0.229328
O O16 0.771893 0.298428 0.714433
O O17 0.000000 0.500000 0.000000
#
# Coordination Sequence:
#
# PCOD8017072 Si02
#       8
#     2   2   2   2   2   2   2   2
#     4  10  23  38  57  85 120 154 190 236 291 351
#     4  11  20  37  60  83 114 154 193 238 297 351
#     4  11  22  35  57  89 122 153 196 248 290 347
#     4  11  23  39  59  88 121 154 195 243 293 351
#     4  11  21  35  58  86 117 159 196 235 298 345
#     4  10  22  40  62  86 113 147 198 253 292 339
#     4  10  22  41  62  85 112 152 200 244 294 350
#     4  10  22  38  55  83 122 157 192 234 283 352
#
# _framework density 21.143712000000001
#
# number of rings (size 3 to 8) (size 9 to 14) (size 15 to 20)
#    0.000    1.500    0.000    5.625    0.000    8.500 
#    0.000    2.500    0.000    0.000    0.000    0.000 
#    0.000    0.000    0.000    0.000    0.000    0.000 
#
# Total GULP energy -198282.144402 kJ/mol
# GULP energy per Si atom -12392.634025 kJ/mol
# Density = 2.109559 g / cm^3
# Si number density = 21.143712 Si / 1000 Ang^3
#
#
#
# Elastic Constant Matrix: (Units=GPa)
#
#
# Indices 1 2 3 4 5 6 
#
# 1 126.3831 23.1562 27.0771 -7.1704 4.8861 20.0925
# 2 23.1562 84.1874 37.6194 9.0141 0.5514 -3.8279
# 3 27.0771 37.6194 98.6080 0.9048 -9.3807 2.6414
# 4 -7.1704 9.0141 0.9048 26.4177 -6.8329 -4.4957
# 5 4.8861 0.5514 -9.3807 -6.8329 29.6552 -1.1590
# 6 20.0925 -3.8279 2.6414 -4.4957 -1.1590 32.7246
#
#
#
# Elastic Compliance Matrix: (Units=1/GPa)
#
#
# Indices 1 2 3 4 5 6 
#
# 1 0.009885 -0.002368 -0.001853 0.002035 -0.001936 -0.005986
# 2 -0.002368 0.015895 -0.005721 -0.006174 -0.003027 0.002820
# 3 -0.001853 -0.005721 0.013304 0.002307 0.005147 -0.000106
# 4 0.002035 -0.006174 0.002307 0.043953 0.010803 0.004263
# 5 -0.001936 -0.003027 0.005147 0.010803 0.038341 0.003261
# 6 -0.005986 0.002820 -0.000106 0.004263 0.003261 0.035273
#
#
# Mechanical properties :
#
#
# Convention : Reuss Voigt Hill
#
# Bulk Modulus (GPa) = 52.08406 53.87598 52.98002
# Shear Modulus (GPa) = 27.33204 32.51456 29.92330
#
# Velocity S-wave (km/s) = 3.59929 3.92572 3.76604
# Velocity P-wave (km/s) = 6.47765 6.78856 6.63493
#
# Compressibility (1/GPa) = 0.01919973
#
# Stress axis : x y z
#
# Youngs Moduli (GPa) = 101.15900 62.91307 75.16595
#
# Poissons Ratio (x) = 0.14899 0.13932
# Poissons Ratio (y) = 0.23957 0.42999
# Poissons Ratio (z) = 0.18750 0.35990
#
# Static dielectric constant tensor:
#      x y z
#    x 4.238790 -0.020300 -0.224980 
#    y -0.020300 3.715270 -0.006180 
#    z -0.224980 -0.006180 3.969370 
# 
# 
# High freq. dielectric constant tensor:
#      x y z
#    x 1.845030 -0.003650 -0.005430 
#    y -0.003650 1.807320 -0.004420 
#    z -0.005430 -0.004420 1.835110 
# 
# From -- ./inp_files/551378.got.cif
#   From: 2010.06.25/outbox.cif.g09.slc.cpg/sg2_276_cif.got.tgz:551378.got - 2010.06.27 13:26:56.
