data_PCOD8017345
_publ_section_title
;
Structure prediction by ZEFSAII (Michael W. Deem and Ramdas Pophale) SiO2 
 PCOD8017345
Probable space group: P -1
;
_chemical_formula_sum "Si O2"
_cell_formula_units_Z 16
_cell_length_a 14.011132
_cell_length_b 10.064070
_cell_length_c 9.675957
_cell_angle_alpha 142.408554
_cell_angle_beta 74.449095
_cell_angle_gamma 117.009852
_cell_volume 730.891325
_symmetry_space_group_name_H-M "P -1"
_symmetry_group_IT_number 2
_symmetry_cell_setting 'triclinic'
loop_
_space_group_symop_operation_xyz
x,y,z
-x,-y,-z
loop_
_atom_site_type_symbol
_atom_site_label
_atom_site_fract_x
_atom_site_fract_y
_atom_site_fract_z
Si Si1 0.398794 0.350217 0.505798
Si Si2 0.875632 0.761027 0.920000
Si Si3 0.989545 0.789483 0.623704
Si Si4 0.798115 0.249821 0.583163
Si Si5 0.775887 0.458838 0.299223
Si Si6 0.517090 0.381843 0.036198
Si Si7 0.715246 0.000663 0.140161
Si Si8 0.688154 0.176088 0.837184
O O1 0.500000 0.500000 0.500000
O O2 0.305784 0.420187 0.539645
O O3 0.422889 0.406312 0.704568
O O4 0.367012 0.071351 0.261965
O O5 0.793664 0.509271 0.806295
O O6 0.944943 0.703575 0.725203
O O7 0.955059 0.919720 0.143472
O O8 0.805449 0.895510 0.994359
O O9 0.080165 0.704823 0.467190
O O10 0.893445 0.673512 0.455565
O O11 0.714478 0.079764 0.364271
O O12 0.761211 0.136328 0.654710
O O13 0.747664 0.231683 0.221944
O O14 0.766893 0.376219 0.075854
O O15 0.500000 0.500000 0.000000
O O16 0.594010 0.243231 0.864750
O O17 0.405347 0.200504 0.002798
#
# Coordination Sequence:
#
# PCOD8017345 Si02
#       8
#     2   2   2   2   2   2   2   2
#     4  11  25  44  66  92 128 170 212 260 314 376
#     4  10  22  38  67  97 127 159 215 272 309 363
#     4  10  23  39  65  96 125 165 217 262 311 371
#     4  11  23  42  63  95 129 166 213 263 313 374
#     4  11  25  41  63  95 129 165 216 259 310 380
#     4  11  24  42  65  97 128 162 211 261 316 381
#     4  11  23  38  68  97 122 166 216 260 317 374
#     4  11  26  43  63  93 135 168 206 259 319 379
#
# _framework density 21.891079999999999
#
# number of rings (size 3 to 8) (size 9 to 14) (size 15 to 20)
#    0.000    1.250    1.250    3.375    7.000    9.500 
#    0.000    1.250    0.000    0.000    0.000    0.000 
#    0.000    0.000    0.000    0.000    0.000    0.000 
#
# Total GULP energy -198374.927305 kJ/mol
# GULP energy per Si atom -12398.432957 kJ/mol
# Density = 2.184125 g / cm^3
# Si number density = 21.891080 Si / 1000 Ang^3
#
#
#
# Elastic Constant Matrix: (Units=GPa)
#
#
# Indices 1 2 3 4 5 6 
#
# 1 128.9192 37.9872 54.4827 3.2863 3.2886 -3.7597
# 2 37.9872 76.0500 28.7711 -1.6178 -15.6153 -6.7678
# 3 54.4827 28.7711 99.3844 2.8654 2.2203 -0.2190
# 4 3.2863 -1.6178 2.8654 36.1834 2.1770 -0.2792
# 5 3.2886 -15.6153 2.2203 2.1770 37.3590 2.1509
# 6 -3.7597 -6.7678 -0.2190 -0.2792 2.1509 27.9695
#
#
#
# Elastic Compliance Matrix: (Units=1/GPa)
#
#
# Indices 1 2 3 4 5 6 
#
# 1 0.011123 -0.004198 -0.004807 -0.000665 -0.002445 0.000623
# 2 -0.004198 0.018428 -0.003234 0.001004 0.008018 0.003263
# 3 -0.004807 -0.003234 0.013688 -0.000703 -0.001632 -0.001203
# 4 -0.000665 0.001004 -0.000703 0.027870 -0.001134 0.000513
# 5 -0.002445 0.008018 -0.001632 -0.001134 0.030541 -0.000761
# 6 0.000623 0.003263 -0.001203 0.000513 -0.000761 0.036681
#
#
# Mechanical properties :
#
#
# Convention : Reuss Voigt Hill
#
# Bulk Modulus (GPa) = 53.30639 60.75949 57.03294
# Shear Modulus (GPa) = 29.57503 32.50988 31.04246
#
# Velocity S-wave (km/s) = 3.67959 3.85785 3.76977
# Velocity P-wave (km/s) = 6.51584 6.90359 6.71252
#
# Compressibility (1/GPa) = 0.01875948
#
# Stress axis : x y z
#
# Youngs Moduli (GPa) = 89.90533 54.26594 73.05920
#
# Poissons Ratio (x) = 0.22781 0.35120
# Poissons Ratio (y) = 0.37743 0.23629
# Poissons Ratio (z) = 0.43218 0.17551
#
# Static dielectric constant tensor:
#      x y z
#    x 4.293880 -0.176840 0.020160 
#    y -0.176840 3.874240 0.171650 
#    z 0.020160 0.171650 4.355270 
# 
# 
# High freq. dielectric constant tensor:
#      x y z
#    x 1.861570 0.008990 0.004090 
#    y 0.008990 1.847140 0.006740 
#    z 0.004090 0.006740 1.881090 
# 
# From -- ./inp_files/206134.got.cif
#   From: 2010.06.25/outbox.cif.g09.slc.cpg/sg2_104_cif.got.tgz:206134.got - 2010.06.27 13:26:56.
