data_PCOD8017860
_publ_section_title
;
Structure prediction by ZEFSAII (Michael W. Deem and Ramdas Pophale) SiO2 
 PCOD8017860
Probable space group: P -1
;
_chemical_formula_sum "Si O2"
_cell_formula_units_Z 16
_cell_length_a 7.839102
_cell_length_b 9.555547
_cell_length_c 20.041639
_cell_angle_alpha 123.615090
_cell_angle_beta 53.889165
_cell_angle_gamma 81.177502
_cell_volume 708.263179
_symmetry_space_group_name_H-M "P -1"
_symmetry_group_IT_number 2
_symmetry_cell_setting 'triclinic'
loop_
_space_group_symop_operation_xyz
x,y,z
-x,-y,-z
loop_
_atom_site_type_symbol
_atom_site_label
_atom_site_fract_x
_atom_site_fract_y
_atom_site_fract_z
Si Si1 0.934986 0.791571 0.303639
Si Si2 0.492439 0.739562 0.804859
Si Si3 0.774515 0.442958 0.955047
Si Si4 0.685207 0.700332 0.442765
Si Si5 0.099456 0.179741 0.225650
Si Si6 0.277697 0.914173 0.243988
Si Si7 0.060046 0.324134 0.493767
Si Si8 0.925297 0.101803 0.941328
O O1 0.928392 0.659560 0.329241
O O2 0.977447 0.670013 0.190665
O O3 0.206591 0.766174 0.246771
O O4 0.644226 0.078273 0.450520
O O5 0.643739 0.825974 0.820486
O O6 0.745445 0.472641 0.644644
O O7 0.257924 0.915538 0.846671
O O8 0.325196 0.732929 0.900047
O O9 0.923091 0.256876 0.931860
O O10 0.500000 0.500000 0.000000
O O11 0.632778 0.700655 0.083372
O O12 0.779652 0.450906 0.354893
O O13 0.691991 0.757687 0.532320
O O14 0.164989 0.022134 0.106652
O O15 0.069300 0.082415 0.273175
O O16 0.209832 0.075620 0.362598
O O17 0.000000 0.500000 0.500000
#
# Coordination Sequence:
#
# PCOD8017860 Si02
#       8
#     2   2   2   2   2   2   2   2
#     4  10  23  43  64  94 132 165 223 266 326 410
#     4  10  25  41  66 101 134 164 231 274 324 391
#     4  10  22  39  67  90 132 171 221 267 333 394
#     4  10  24  42  64  99 128 172 215 278 323 389
#     4  11  22  41  72  97 129 176 222 274 326 386
#     4  11  23  40  66  98 121 180 222 256 342 393
#     4  11  23  42  65  90 136 163 216 281 323 384
#     4  11  23  44  67 100 133 179 214 282 329 390
#
# _framework density 22.590472999999999
#
# number of rings (size 3 to 8) (size 9 to 14) (size 15 to 20)
#    0.000    1.500    5.000    0.375   10.500    2.000 
#    0.000    3.750    0.000    0.000    0.000    0.000 
#    0.000    0.000    0.000    0.000    0.000    0.000 
#
# Total GULP energy -198305.580364 kJ/mol
# GULP energy per Si atom -12394.098773 kJ/mol
# Density = 2.253906 g / cm^3
# Si number density = 22.590473 Si / 1000 Ang^3
#
#
#
# Elastic Constant Matrix: (Units=GPa)
#
#
# Indices 1 2 3 4 5 6 
#
# 1 59.7906 11.3628 17.1190 3.1657 15.2368 -10.1020
# 2 11.3628 87.0506 28.2402 1.0019 26.0298 -14.8436
# 3 17.1190 28.2402 126.3350 11.4920 39.7984 5.0768
# 4 3.1657 1.0019 11.4920 35.5989 -1.3237 2.7497
# 5 15.2368 26.0298 39.7984 -1.3237 38.3850 -0.2838
# 6 -10.1020 -14.8436 5.0768 2.7497 -0.2838 29.4822
#
#
#
# Elastic Compliance Matrix: (Units=1/GPa)
#
#
# Indices 1 2 3 4 5 6 
#
# 1 0.020240 0.001448 -0.000437 -0.002629 -0.008595 0.007902
# 2 0.001448 0.016306 -0.000596 -0.001487 -0.011000 0.008841
# 3 -0.000437 -0.000596 0.012567 -0.004290 -0.012617 -0.002335
# 4 -0.002629 -0.001487 -0.004290 0.030314 0.007519 -0.003666
# 5 -0.008595 -0.011000 -0.012617 0.007519 0.050216 -0.006529
# 6 0.007902 0.008841 -0.002335 -0.003666 -0.006529 0.041759
#
#
# Mechanical properties :
#
#
# Convention : Reuss Voigt Hill
#
# Bulk Modulus (GPa) = 20.02330 42.95781 31.49055
# Shear Modulus (GPa) = 26.70684 35.12350 30.91517
#
# Velocity S-wave (km/s) = 3.44207 3.94736 3.70334
# Velocity P-wave (km/s) = 4.96789 6.31132 5.67947
#
# Compressibility (1/GPa) = 0.04994183
#
# Stress axis : x y z
#
# Youngs Moduli (GPa) = 49.40817 61.32772 79.57620
#
# Poissons Ratio (x) = -0.08877 0.03476
# Poissons Ratio (y) = -0.07152 0.04741
# Poissons Ratio (z) = 0.02158 0.03653
#
# Static dielectric constant tensor:
#      x y z
#    x 3.872180 -0.209400 0.251450 
#    y -0.209400 4.064400 -0.023180 
#    z 0.251450 -0.023180 4.827080 
# 
# 
# High freq. dielectric constant tensor:
#      x y z
#    x 1.861700 -0.022550 0.007980 
#    y -0.022550 1.890800 0.001190 
#    z 0.007980 0.001190 1.910500 
# 
# From -- ./inp_files/389270.got.cif
#   From: 2010.06.25/outbox.cif.g09.slc.cpg/sg2_195_cif.got.tgz:389270.got - 2010.06.27 13:26:56.
