data_PCOD8017657
_publ_section_title
;
Structure prediction by ZEFSAII (Michael W. Deem and Ramdas Pophale) SiO2 
 PCOD8017657
Probable space group: P -1
;
_chemical_formula_sum "Si O2"
_cell_formula_units_Z 14
_cell_length_a 11.025669
_cell_length_b 8.817412
_cell_length_c 10.567600
_cell_angle_alpha 70.499095
_cell_angle_beta 53.621271
_cell_angle_gamma 105.503987
_cell_volume 615.960485
_symmetry_space_group_name_H-M "P -1"
_symmetry_group_IT_number 2
_symmetry_cell_setting 'triclinic'
loop_
_space_group_symop_operation_xyz
x,y,z
-x,-y,-z
loop_
_atom_site_type_symbol
_atom_site_label
_atom_site_fract_x
_atom_site_fract_y
_atom_site_fract_z
Si Si1 0.801110 0.876172 0.789111
Si Si2 0.396034 0.719001 0.183057
Si Si3 0.013786 0.312056 0.177041
Si Si4 0.995673 0.325417 0.895765
Si Si5 0.315337 0.099441 0.416742
Si Si6 0.607271 0.088838 0.109560
Si Si7 0.158196 0.291742 0.564679
O O1 0.847987 0.718525 0.824557
O O2 0.804556 0.918843 0.626457
O O3 0.591089 0.763090 0.006068
O O4 0.951576 0.090991 0.705815
O O5 0.228236 0.484061 0.380463
O O6 0.439758 0.852305 0.245570
O O7 0.317970 0.785045 0.103473
O O8 0.033368 0.504416 0.163469
O O9 0.794710 0.117426 0.386019
O O10 0.068090 0.338671 0.987739
O O11 0.145691 0.341308 0.703828
O O12 0.782902 0.114830 0.062421
O O13 0.524779 0.174323 0.229712
O O14 0.317308 0.253836 0.467418
#
# Coordination Sequence:
#
# PCOD8017657 Si02
#       7
#     2   2   2   2   2   2   2
#     4  10  22  42  63  97 125 161 207 268 305 366
#     4  10  22  39  63  96 128 158 211 259 309 367
#     4  10  23  42  63  88 129 165 213 254 306 377
#     4  11  24  40  64  91 124 176 205 248 318 367
#     4  10  23  40  64  95 122 163 211 258 316 362
#     4  10  22  40  60  94 131 160 206 260 309 372
#     4  11  22  39  64  94 120 167 207 251 318 363
#
# _framework density 22.728728
#
# number of rings (size 3 to 8) (size 9 to 14) (size 15 to 20)
#    0.000    1.714    1.429    2.571    6.000    4.571 
#    0.000    0.714    0.000    0.000    0.000    0.000 
#    0.000    0.000    0.000    0.000    0.000    0.000 
#
# Total GULP energy -173598.040646 kJ/mol
# GULP energy per Si atom -12399.860046 kJ/mol
# Density = 2.267700 g / cm^3
# Si number density = 22.728728 Si / 1000 Ang^3
#
#
#
# Elastic Constant Matrix: (Units=GPa)
#
#
# Indices 1 2 3 4 5 6 
#
# 1 37.5891 11.9590 9.8732 3.4782 -1.4298 -10.0378
# 2 11.9590 99.7128 42.3233 23.4858 3.0400 -9.6523
# 3 9.8732 42.3233 88.4178 11.7097 3.3594 -7.9528
# 4 3.4782 23.4858 11.7097 44.3956 -8.6329 -4.1699
# 5 -1.4298 3.0400 3.3594 -8.6329 21.8532 0.1191
# 6 -10.0378 -9.6523 -7.9528 -4.1699 0.1191 23.3160
#
#
#
# Elastic Compliance Matrix: (Units=1/GPa)
#
#
# Indices 1 2 3 4 5 6 
#
# 1 0.030944 -0.002165 -0.001551 0.000807 0.002818 0.012026
# 2 -0.002165 0.014495 -0.005486 -0.006627 -0.003944 0.002032
# 3 -0.001551 -0.005486 0.014482 -0.001008 -0.001973 0.001830
# 4 0.000807 -0.006627 -0.001008 0.028892 0.012530 0.002363
# 5 0.002818 -0.003944 -0.001973 0.012530 0.051741 0.000884
# 6 0.012026 0.002032 0.001830 0.002363 0.000884 0.049950
#
#
# Mechanical properties :
#
#
# Convention : Reuss Voigt Hill
#
# Bulk Modulus (GPa) = 24.08700 39.33675 31.71187
# Shear Modulus (GPa) = 22.44692 28.68392 25.56542
#
# Velocity S-wave (km/s) = 3.14602 3.55633 3.35745
# Velocity P-wave (km/s) = 4.88029 5.84876 5.38633
#
# Compressibility (1/GPa) = 0.04151618
#
# Stress axis : x y z
#
# Youngs Moduli (GPa) = 32.31687 68.98911 69.04942
#
# Poissons Ratio (x) = 0.14933 0.10713
# Poissons Ratio (y) = 0.06995 0.37883
# Poissons Ratio (z) = 0.05014 0.37850
#
# Static dielectric constant tensor:
#      x y z
#    x 3.699420 -0.205310 -0.031040 
#    y -0.205310 4.245250 0.140200 
#    z -0.031040 0.140200 4.050940 
# 
# 
# High freq. dielectric constant tensor:
#      x y z
#    x 1.867690 -0.013870 -0.008480 
#    y -0.013870 1.903970 0.009280 
#    z -0.008480 0.009280 1.899700 
# 
# From -- ./inp_files/198971.got.cif
#   From: 2010.06.25/outbox.cif.g09.slc.cpg/sg2_100_cif.got.tgz:198971.got - 2010.06.27 13:26:56.
