data_PCOD8017497
_publ_section_title
;
Structure prediction by ZEFSAII (Michael W. Deem and Ramdas Pophale) SiO2 
 PCOD8017497
Probable space group: P -1
;
_chemical_formula_sum "Si O2"
_cell_formula_units_Z 16
_cell_length_a 13.851801
_cell_length_b 21.726012
_cell_length_c 19.211159
_cell_angle_alpha 162.458221
_cell_angle_beta 149.959184
_cell_angle_gamma 27.829733
_cell_volume 803.075815
_symmetry_space_group_name_H-M "P -1"
_symmetry_group_IT_number 2
_symmetry_cell_setting 'triclinic'
loop_
_space_group_symop_operation_xyz
x,y,z
-x,-y,-z
loop_
_atom_site_type_symbol
_atom_site_label
_atom_site_fract_x
_atom_site_fract_y
_atom_site_fract_z
Si Si1 0.585038 0.665158 0.382656
Si Si2 0.361397 0.486749 0.594546
Si Si3 0.613580 0.206289 0.844116
Si Si4 0.187254 0.750623 0.552109
Si Si5 0.465610 0.311541 0.186833
Si Si6 0.077147 0.158060 0.263534
Si Si7 0.300874 0.010985 0.479319
Si Si8 0.430189 0.924348 0.804326
O O1 0.542629 0.623849 0.391569
O O2 0.781171 0.739523 0.580322
O O3 0.379880 0.867037 0.443758
O O4 0.633981 0.434801 0.123544
O O5 0.491731 0.629920 0.802210
O O6 0.389251 0.303758 0.355341
O O7 0.117429 0.633068 0.604902
O O8 0.623800 0.178561 0.737588
O O9 0.802850 0.988085 0.754495
O O10 0.401151 0.194361 0.729236
O O11 0.274600 0.497167 0.308161
O O12 0.315918 0.762520 0.713911
O O13 0.220900 0.888253 0.655378
O O14 0.944449 0.847426 0.521796
O O15 0.393522 0.105336 0.915933
O O16 0.000000 0.000000 0.000000
O O17 0.500000 0.000000 0.000000
#
# Coordination Sequence:
#
# PCOD8017497 Si02
#       8
#     2   2   2   2   2   2   2   2
#     4  11  24  39  57  87 125 160 205 239 298 371
#     4  11  22  35  59  88 120 156 191 247 306 353
#     4  10  22  40  59  88 121 163 205 246 293 360
#     4   9  18  37  58  87 113 150 198 246 294 353
#     4   9  19  35  59  86 118 145 194 250 300 348
#     4  11  23  38  61  92 123 156 201 250 303 359
#     4  10  22  39  61  85 123 163 204 245 294 355
#     4   9  20  36  58  89 119 149 194 248 306 356
#
# _framework density 19.923399
#
# number of rings (size 3 to 8) (size 9 to 14) (size 15 to 20)
#    0.000    2.000    1.250    2.250    1.750    3.000 
#    0.000    2.500    0.000    4.500    0.000    0.000 
#    0.000    0.000    0.000    0.000    0.000    0.000 
#
# Total GULP energy -198301.617126 kJ/mol
# GULP energy per Si atom -12393.851070 kJ/mol
# Density = 1.987805 g / cm^3
# Si number density = 19.923399 Si / 1000 Ang^3
#
#
#
# Elastic Constant Matrix: (Units=GPa)
#
#
# Indices 1 2 3 4 5 6 
#
# 1 113.5973 52.9007 43.4256 8.1849 15.2893 5.3514
# 2 52.9007 116.9198 31.6824 3.4571 10.1401 -12.5738
# 3 43.4256 31.6824 113.4849 6.3077 17.5071 -4.8412
# 4 8.1849 3.4571 6.3077 19.0565 6.7485 1.9152
# 5 15.2893 10.1401 17.5071 6.7485 31.7077 5.5718
# 6 5.3514 -12.5738 -4.8412 1.9152 5.5718 29.6539
#
#
#
# Elastic Compliance Matrix: (Units=1/GPa)
#
#
# Indices 1 2 3 4 5 6 
#
# 1 0.013202 -0.005371 -0.003400 -0.002602 -0.001376 -0.004788
# 2 -0.005371 0.012026 -0.000743 0.000464 -0.002053 0.006303
# 3 -0.003400 -0.000743 0.011217 -0.000764 -0.004692 0.003061
# 4 -0.002602 0.000464 -0.000764 0.057609 -0.010522 -0.001202
# 5 -0.001376 -0.002053 -0.004692 -0.010522 0.039103 -0.008056
# 6 -0.004788 0.006303 0.003061 -0.001202 -0.008056 0.039350
#
#
# Mechanical properties :
#
#
# Convention : Reuss Voigt Hill
#
# Bulk Modulus (GPa) = 57.40892 66.66880 62.03886
# Shear Modulus (GPa) = 25.33704 30.48317 27.91010
#
# Velocity S-wave (km/s) = 3.56999 3.91579 3.74688
# Velocity P-wave (km/s) = 6.77278 7.34709 7.06577
#
# Compressibility (1/GPa) = 0.01741890
#
# Stress axis : x y z
#
# Youngs Moduli (GPa) = 75.74616 83.15184 89.15185
#
# Poissons Ratio (x) = 0.44658 0.30310
# Poissons Ratio (y) = 0.40681 0.06620
# Poissons Ratio (z) = 0.25752 0.06175
#
# Static dielectric constant tensor:
#      x y z
#    x 3.921700 0.149510 0.357680 
#    y 0.149510 3.602340 0.193720 
#    z 0.357680 0.193720 3.847850 
# 
# 
# High freq. dielectric constant tensor:
#      x y z
#    x 1.786810 0.006330 0.012650 
#    y 0.006330 1.761050 0.021250 
#    z 0.012650 0.021250 1.774850 
# 
# From -- ./inp_files/570814.got.cif
#   From: 2010.06.25/outbox.cif.g09.slc.cpg/sg2_286_cif.got.tgz:570814.got - 2010.06.27 13:26:56.
