data_PCOD8017526
_publ_section_title
;
Structure prediction by ZEFSAII (Michael W. Deem and Ramdas Pophale) SiO2 
 PCOD8017526
Probable space group: P -1
;
_chemical_formula_sum "Si O2"
_cell_formula_units_Z 16
_cell_length_a 12.705801
_cell_length_b 10.106750
_cell_length_c 7.979180
_cell_angle_alpha 117.530956
_cell_angle_beta 128.097825
_cell_angle_gamma 68.249978
_cell_volume 709.670528
_symmetry_space_group_name_H-M "P -1"
_symmetry_group_IT_number 2
_symmetry_cell_setting 'triclinic'
loop_
_space_group_symop_operation_xyz
x,y,z
-x,-y,-z
loop_
_atom_site_type_symbol
_atom_site_label
_atom_site_fract_x
_atom_site_fract_y
_atom_site_fract_z
Si Si1 0.750458 0.183583 0.484757
Si Si2 0.220901 0.485075 0.252399
Si Si3 0.116353 0.330117 0.378239
Si Si4 0.850738 0.007613 0.790457
Si Si5 0.384635 0.968070 0.993167
Si Si6 0.621423 0.231762 0.848132
Si Si7 0.175929 0.537957 0.855528
Si Si8 0.545051 0.751611 0.617776
O O1 0.800362 0.344934 0.596917
O O2 0.847221 0.095006 0.662476
O O3 0.596369 0.220963 0.411787
O O4 0.750288 0.072764 0.258973
O O5 0.145498 0.392655 0.259159
O O6 0.376706 0.411320 0.356180
O O7 0.166573 0.477912 0.003128
O O8 0.179183 0.409115 0.644017
O O9 0.954249 0.341538 0.239207
O O10 0.184958 0.160555 0.364314
O O11 0.738096 0.094456 0.848196
O O12 0.000000 0.000000 0.000000
O O13 0.434471 0.814044 0.054065
O O14 0.358988 0.118666 0.169661
O O15 0.500000 0.000000 0.000000
O O16 0.489962 0.241616 0.608990
O O17 0.687398 0.386303 0.992312
#
# Coordination Sequence:
#
# PCOD8017526 Si02
#       8
#     2   2   2   2   2   2   2   2
#     4  10  22  40  64  91 134 164 212 267 322 381
#     4  12  22  43  66  96 131 172 217 264 325 385
#     4  11  25  42  67  98 126 171 220 268 320 386
#     4  11  21  42  66  92 125 172 215 259 324 384
#     4  10  22  39  61  94 128 167 213 268 321 383
#     4  11  21  43  65  91 132 172 211 268 328 383
#     4  11  24  43  67  93 133 168 216 271 323 384
#     4  10  22  39  64  92 127 170 212 263 325 385
#
# _framework density 22.545672
#
# number of rings (size 3 to 8) (size 9 to 14) (size 15 to 20)
#    0.000    1.250    3.750    2.625    1.750    2.000 
#    2.250    1.875    0.000    0.000    0.000    0.000 
#    0.000    0.000    0.000    0.000    0.000    0.000 
#
# Total GULP energy -198275.815675 kJ/mol
# GULP energy per Si atom -12392.238480 kJ/mol
# Density = 2.249436 g / cm^3
# Si number density = 22.545672 Si / 1000 Ang^3
#
#
#
# Elastic Constant Matrix: (Units=GPa)
#
#
# Indices 1 2 3 4 5 6 
#
# 1 30.9349 23.0744 29.1727 0.4804 -5.9883 8.5583
# 2 23.0744 146.0370 64.8193 1.5325 2.2880 7.4597
# 3 29.1727 64.8193 159.0720 -0.8219 -7.7804 -4.5891
# 4 0.4804 1.5325 -0.8219 31.6919 -0.1760 6.5610
# 5 -5.9883 2.2880 -7.7804 -0.1760 24.2646 -10.9039
# 6 8.5583 7.4597 -4.5891 6.5610 -10.9039 31.2189
#
#
#
# Elastic Compliance Matrix: (Units=1/GPa)
#
#
# Indices 1 2 3 4 5 6 
#
# 1 0.045606 -0.003576 -0.007030 0.001723 0.004139 -0.011598
# 2 -0.003576 0.009138 -0.003369 0.000169 -0.004273 -0.003226
# 3 -0.007030 -0.003369 0.009310 -0.000640 0.004112 0.005671
# 4 0.001723 0.000169 -0.000640 0.033313 -0.003527 -0.008840
# 5 0.004139 -0.004273 0.004112 -0.003527 0.052765 0.019661
# 6 -0.011598 -0.003226 0.005671 -0.008840 0.019661 0.045541
#
#
# Mechanical properties :
#
#
# Convention : Reuss Voigt Hill
#
# Bulk Modulus (GPa) = 27.69791 63.35298 45.52545
# Shear Modulus (GPa) = 21.21728 32.03358 26.62543
#
# Velocity S-wave (km/s) = 3.07103 3.77348 3.44023
# Velocity P-wave (km/s) = 4.98868 6.86632 6.00139
#
# Compressibility (1/GPa) = 0.03610381
#
# Stress axis : x y z
#
# Youngs Moduli (GPa) = 21.92704 109.43412 107.41295
#
# Poissons Ratio (x) = 0.39136 0.75509
# Poissons Ratio (y) = 0.07842 0.36186
# Poissons Ratio (z) = 0.15414 0.36867
#
# Static dielectric constant tensor:
#      x y z
#    x 3.847970 0.073360 -0.278500 
#    y 0.073360 4.336490 0.181390 
#    z -0.278500 0.181390 4.751250 
# 
# 
# High freq. dielectric constant tensor:
#      x y z
#    x 1.864300 0.012710 -0.005060 
#    y 0.012710 1.895620 0.002000 
#    z -0.005060 0.002000 1.905940 
# 
# From -- ./inp_files/296245.got.cif
#   From: 2010.06.25/outbox.cif.g09.slc.cpg/sg2_149_cif.got.tgz:296245.got - 2010.06.27 13:26:56.
