data_PCOD8017656
_publ_section_title
;
Structure prediction by ZEFSAII (Michael W. Deem and Ramdas Pophale) SiO2 
 PCOD8017656
Probable space group: P -1
;
_chemical_formula_sum "Si O2"
_cell_formula_units_Z 14
_cell_length_a 18.309789
_cell_length_b 12.173895
_cell_length_c 9.096745
_cell_angle_alpha 46.894028
_cell_angle_beta 32.467277
_cell_angle_gamma 37.046483
_cell_volume 655.466076
_symmetry_space_group_name_H-M "P -1"
_symmetry_group_IT_number 2
_symmetry_cell_setting 'triclinic'
loop_
_space_group_symop_operation_xyz
x,y,z
-x,-y,-z
loop_
_atom_site_type_symbol
_atom_site_label
_atom_site_fract_x
_atom_site_fract_y
_atom_site_fract_z
Si Si1 0.886244 0.320605 0.055070
Si Si2 0.535455 0.578282 0.507207
Si Si3 0.476750 0.957408 0.241386
Si Si4 0.246274 0.625083 0.090016
Si Si5 0.097059 0.971099 0.214662
Si Si6 0.673980 0.910219 0.211682
Si Si7 0.810739 0.679757 0.448490
O O1 0.734034 0.462158 0.291912
O O2 0.825297 0.299951 0.019608
O O3 0.988034 0.126141 0.138610
O O4 0.000804 0.395838 0.763061
O O5 0.500000 0.500000 0.500000
O O6 0.455723 0.791837 0.427367
O O7 0.439270 0.557715 0.824991
O O8 0.644264 0.896762 0.101954
O O9 0.311494 0.130250 0.432862
O O10 0.500000 0.000000 0.000000
O O11 0.146299 0.780786 0.237377
O O12 0.234345 0.459139 0.303178
O O13 0.000000 0.000000 0.500000
O O14 0.258448 0.964691 0.991328
O O15 0.792413 0.714494 0.270628
O O16 0.500000 0.000000 0.500000
#
# Coordination Sequence:
#
# PCOD8017656 Si02
#       7
#     2   2   2   2   2   2   2
#     4  10  22  41  62  90 126 163 209 255 304 369
#     4  10  22  39  63  96 123 155 206 260 306 358
#     4  11  22  40  65  91 122 164 207 251 305 375
#     4  11  22  41  65  92 125 166 209 256 305 364
#     4  11  25  41  61  93 127 163 206 259 315 358
#     4   9  21  41  60  83 121 163 201 243 303 371
#     4  10  22  41  63  91 123 166 207 250 311 367
#
# _framework density 21.358848999999999
#
# number of rings (size 3 to 8) (size 9 to 14) (size 15 to 20)
#    0.000    1.714    0.000    5.143    0.000    9.143 
#    0.000    7.143    0.000    0.000    0.000    0.000 
#    0.000    0.000    0.000    0.000    0.000    0.000 
#
# Total GULP energy -173545.277134 kJ/mol
# GULP energy per Si atom -12396.091224 kJ/mol
# Density = 2.131024 g / cm^3
# Si number density = 21.358849 Si / 1000 Ang^3
#
#
#
# Elastic Constant Matrix: (Units=GPa)
#
#
# Indices 1 2 3 4 5 6 
#
# 1 121.0351 42.5553 52.9051 -0.9292 4.2945 4.0312
# 2 42.5553 141.8675 70.0098 -4.9478 -11.9163 29.1760
# 3 52.9051 70.0098 160.1867 5.6362 -17.0167 11.9838
# 4 -0.9292 -4.9478 5.6362 38.0508 1.8381 -5.1224
# 5 4.2945 -11.9163 -17.0167 1.8381 37.0174 0.2786
# 6 4.0312 29.1760 11.9838 -5.1224 0.2786 24.3208
#
#
#
# Elastic Compliance Matrix: (Units=1/GPa)
#
#
# Indices 1 2 3 4 5 6 
#
# 1 0.010494 -0.002564 -0.002975 0.000941 -0.003480 0.003041
# 2 -0.002564 0.012293 -0.003281 0.000175 0.002834 -0.012701
# 3 -0.002975 -0.003281 0.009159 -0.002107 0.003608 -0.000569
# 4 0.000941 0.000175 -0.002107 0.027634 -0.002443 0.006520
# 5 -0.003480 0.002834 0.003608 -0.002443 0.030151 -0.005460
# 6 0.003041 -0.012701 -0.000569 0.006520 -0.005460 0.057566
#
#
# Mechanical properties :
#
#
# Convention : Reuss Voigt Hill
#
# Bulk Modulus (GPa) = 69.90418 83.78107 76.84263
# Shear Modulus (GPa) = 29.46239 37.05241 33.25740
#
# Velocity S-wave (km/s) = 3.71806 4.16956 3.95026
# Velocity P-wave (km/s) = 7.15761 7.90512 7.54063
#
# Compressibility (1/GPa) = 0.01430530
#
# Stress axis : x y z
#
# Youngs Moduli (GPa) = 95.29582 81.34481 109.17850
#
# Poissons Ratio (x) = 0.20860 0.32484
# Poissons Ratio (y) = 0.24437 0.35819
# Poissons Ratio (z) = 0.28354 0.26688
#
# Static dielectric constant tensor:
#      x y z
#    x 4.446980 -0.228070 -0.153200 
#    y -0.228070 3.811700 0.177800 
#    z -0.153200 0.177800 4.318590 
# 
# 
# High freq. dielectric constant tensor:
#      x y z
#    x 1.838290 0.001400 -0.006950 
#    y 0.001400 1.830030 -0.002540 
#    z -0.006950 -0.002540 1.855340 
# 
# From -- ./inp_files/149922.got.cif
#   From: 2010.06.25/outbox.cif.g09.slc.cpg/sg2_75_cif.got.tgz:149922.got - 2010.06.27 13:26:56.
