data_PCOD8017208
_publ_section_title
;
Structure prediction by ZEFSAII (Michael W. Deem and Ramdas Pophale) SiO2 
 PCOD8017208
Probable space group: P -1
;
_chemical_formula_sum "Si O2"
_cell_formula_units_Z 16
_cell_length_a 20.537417
_cell_length_b 11.367603
_cell_length_c 11.437492
_cell_angle_alpha 120.094023
_cell_angle_beta 40.876557
_cell_angle_gamma 151.215529
_cell_volume 722.889785
_symmetry_space_group_name_H-M "P -1"
_symmetry_group_IT_number 2
_symmetry_cell_setting 'triclinic'
loop_
_space_group_symop_operation_xyz
x,y,z
-x,-y,-z
loop_
_atom_site_type_symbol
_atom_site_label
_atom_site_fract_x
_atom_site_fract_y
_atom_site_fract_z
Si Si1 0.617388 0.774146 0.020166
Si Si2 0.199696 0.834398 0.376210
Si Si3 0.956414 0.794863 0.605814
Si Si4 0.826932 0.463787 0.158362
Si Si5 0.917196 0.761437 0.378913
Si Si6 0.542369 0.198062 0.916486
Si Si7 0.284490 0.942335 0.770742
Si Si8 0.561111 0.948702 0.636518
O O1 0.591882 0.863978 0.010207
O O2 0.565143 0.766704 0.220473
O O3 0.500000 0.500000 0.000000
O O4 0.857982 0.033500 0.822626
O O5 0.315606 0.012898 0.431244
O O6 0.000000 0.500000 0.500000
O O7 0.131321 0.889007 0.430001
O O8 0.383369 0.973225 0.126451
O O9 0.759437 0.532807 0.829474
O O10 0.842260 0.668877 0.569572
O O11 0.076165 0.079509 0.606426
O O12 0.755584 0.225527 0.165541
O O13 0.775447 0.497214 0.357341
O O14 0.691656 0.358552 0.179003
O O15 0.067031 0.755335 0.939912
O O16 0.626615 0.170265 0.715820
O O17 0.374320 0.987451 0.553777
#
# Coordination Sequence:
#
# PCOD8017208 Si02
#       8
#     2   2   2   2   2   2   2   2
#     4  11  21  39  69 104 135 168 221 283 338 399
#     4  12  28  43  66  98 133 179 232 276 327 399
#     4  11  23  41  67  97 136 172 229 273 337 391
#     4  10  22  38  62  96 134 170 218 271 340 390
#     4  10  22  40  66 101 135 175 212 288 335 393
#     4  12  24  41  65  99 131 175 221 279 330 392
#     4  10  23  38  63  99 134 174 216 280 333 392
#     4  12  25  40  65  93 135 179 217 271 330 400
#
# _framework density 22.133388
#
# number of rings (size 3 to 8) (size 9 to 14) (size 15 to 20)
#    0.000    1.000    5.000    1.500    3.500    0.000 
#    0.000    0.625    0.000    2.250    0.000    0.000 
#    0.000    0.000    0.000    0.000    0.000    0.000 
#
# Total GULP energy -198254.818113 kJ/mol
# GULP energy per Si atom -12390.926132 kJ/mol
# Density = 2.208301 g / cm^3
# Si number density = 22.133388 Si / 1000 Ang^3
#
#
#
# Elastic Constant Matrix: (Units=GPa)
#
#
# Indices 1 2 3 4 5 6 
#
# 1 84.6154 44.1352 18.7941 1.1390 -15.4177 16.3883
# 2 44.1352 118.6682 25.7994 9.5670 3.1148 10.4456
# 3 18.7941 25.7994 90.8887 4.9793 5.5987 -4.0656
# 4 1.1390 9.5670 4.9793 26.9233 -0.0045 -4.7562
# 5 -15.4177 3.1148 5.5987 -0.0045 31.9668 -0.6628
# 6 16.3883 10.4456 -4.0656 -4.7562 -0.6628 33.0602
#
#
#
# Elastic Compliance Matrix: (Units=1/GPa)
#
#
# Indices 1 2 3 4 5 6 
#
# 1 0.018980 -0.006002 -0.003219 0.000580 0.010145 -0.007622
# 2 -0.006002 0.011560 -0.001667 -0.003812 -0.003761 -0.001506
# 3 -0.003219 -0.001667 0.012567 -0.000986 -0.003519 0.003455
# 4 0.000580 -0.003812 -0.000986 0.039811 0.000965 0.006542
# 5 0.010145 -0.003761 -0.003519 0.000965 0.037088 -0.003391
# 6 -0.007622 -0.001506 0.003455 0.006542 -0.003391 0.035800
#
#
# Mechanical properties :
#
#
# Convention : Reuss Voigt Hill
#
# Bulk Modulus (GPa) = 46.87839 52.40331 49.64085
# Shear Modulus (GPa) = 27.07207 32.08629 29.57918
#
# Velocity S-wave (km/s) = 3.50113 3.81159 3.65965
# Velocity P-wave (km/s) = 6.12942 6.56495 6.35092
#
# Compressibility (1/GPa) = 0.02133179
#
# Stress axis : x y z
#
# Youngs Moduli (GPa) = 52.68600 86.50437 79.57547
#
# Poissons Ratio (x) = 0.51916 0.25614
# Poissons Ratio (y) = 0.31620 0.13267
# Poissons Ratio (z) = 0.16959 0.14423
#
# Static dielectric constant tensor:
#      x y z
#    x 4.194150 0.123850 -0.267180 
#    y 0.123850 3.912430 0.147800 
#    z -0.267180 0.147800 4.242210 
# 
# 
# High freq. dielectric constant tensor:
#      x y z
#    x 1.857600 0.016420 -0.029900 
#    y 0.016420 1.858300 -0.003340 
#    z -0.029900 -0.003340 1.884990 
# 
# From -- ./inp_files/471204.got.cif
#   From: 2010.06.25/outbox.cif.g09.slc.cpg/sg2_236_cif.got.tgz:471204.got - 2010.06.27 13:26:56.
