data_PCOD8017694
_publ_section_title
;
Structure prediction by ZEFSAII (Michael W. Deem and Ramdas Pophale) SiO2 
 PCOD8017694
Probable space group: P -1
;
_chemical_formula_sum "Si O2"
_cell_formula_units_Z 14
_cell_length_a 19.995275
_cell_length_b 12.423416
_cell_length_c 8.734999
_cell_angle_alpha 113.792103
_cell_angle_beta 49.639231
_cell_angle_gamma 153.051613
_cell_volume 647.400808
_symmetry_space_group_name_H-M "P -1"
_symmetry_group_IT_number 2
_symmetry_cell_setting 'triclinic'
loop_
_space_group_symop_operation_xyz
x,y,z
-x,-y,-z
loop_
_atom_site_type_symbol
_atom_site_label
_atom_site_fract_x
_atom_site_fract_y
_atom_site_fract_z
Si Si1 0.664491 0.937589 0.218055
Si Si2 0.497955 0.497063 0.316348
Si Si3 0.361450 0.682484 0.724189
Si Si4 0.451493 0.847547 0.256344
Si Si5 0.062028 0.365276 0.734663
Si Si6 0.687340 0.479723 0.976486
Si Si7 0.929158 0.017674 0.506742
O O1 0.646197 0.775266 0.182302
O O2 0.586829 0.906784 0.471250
O O3 0.519804 0.814697 0.229573
O O4 0.901504 0.254077 0.002137
O O5 0.500000 0.500000 0.500000
O O6 0.561413 0.447397 0.129685
O O7 0.277327 0.259565 0.436836
O O8 0.187946 0.442847 0.718426
O O9 0.281875 0.517562 0.893240
O O10 0.379372 0.844997 0.815203
O O11 0.238602 0.641691 0.527590
O O12 0.426333 0.768628 0.076973
O O13 0.916186 0.113728 0.693915
O O14 0.908522 0.763691 0.740787
O O15 0.000000 0.000000 0.500000
#
# Coordination Sequence:
#
# PCOD8017694 Si02
#       7
#     2   2   2   2   2   2   2
#     4  11  22  41  64  91 126 164 214 259 314 377
#     4  12  25  41  65  97 129 166 208 267 325 374
#     4  11  23  40  64  95 128 167 212 262 315 376
#     4  10  23  42  64  92 125 170 216 257 312 379
#     4  10  22  39  64  92 122 167 213 259 311 373
#     4  11  24  41  66  93 134 164 211 265 324 373
#     4  11  24  42  65  94 130 171 216 256 315 387
#
# _framework density 21.624934
#
# number of rings (size 3 to 8) (size 9 to 14) (size 15 to 20)
#    0.000    1.143    1.429    6.429    2.000    4.571 
#    0.000    0.000    0.000    6.857    0.000    0.000 
#    0.000    0.000    0.000    0.000    0.000    0.000 
#
# Total GULP energy -173489.715091 kJ/mol
# GULP energy per Si atom -12392.122506 kJ/mol
# Density = 2.157571 g / cm^3
# Si number density = 21.624934 Si / 1000 Ang^3
#
#
#
# Elastic Constant Matrix: (Units=GPa)
#
#
# Indices 1 2 3 4 5 6 
#
# 1 83.9725 40.4544 24.2389 4.1275 0.1910 9.3513
# 2 40.4544 74.9800 29.4677 -4.9063 -2.6500 6.1095
# 3 24.2389 29.4677 125.3893 5.5736 -7.5783 8.1107
# 4 4.1275 -4.9063 5.5736 22.2572 6.7457 -0.2782
# 5 0.1910 -2.6500 -7.5783 6.7457 20.5273 1.4355
# 6 9.3513 6.1095 8.1107 -0.2782 1.4355 33.1374
#
#
#
# Elastic Compliance Matrix: (Units=1/GPa)
#
#
# Indices 1 2 3 4 5 6 
#
# 1 0.017032 -0.008972 -0.000745 -0.005074 0.000287 -0.003025
# 2 -0.008972 0.019933 -0.003307 0.007155 -0.000899 -0.000235
# 3 -0.000745 -0.003307 0.009485 -0.004397 0.004648 -0.001740
# 4 -0.005074 0.007155 -0.004397 0.054230 -0.018645 0.002452
# 5 0.000287 -0.000899 0.004648 -0.018645 0.056696 -0.003666
# 6 -0.003025 -0.000235 -0.001740 0.002452 -0.003666 0.031679
#
#
# Mechanical properties :
#
#
# Convention : Reuss Voigt Hill
#
# Bulk Modulus (GPa) = 49.01701 52.51821 50.76761
# Shear Modulus (GPa) = 22.53223 27.86311 25.19767
#
# Velocity S-wave (km/s) = 3.23144 3.59342 3.41723
# Velocity P-wave (km/s) = 6.05302 6.44636 6.25278
#
# Compressibility (1/GPa) = 0.02040108
#
# Stress axis : x y z
#
# Youngs Moduli (GPa) = 58.71453 50.16867 105.42503
#
# Poissons Ratio (x) = 0.45009 0.07858
# Poissons Ratio (y) = 0.52676 0.34868
# Poissons Ratio (z) = 0.04376 0.16592
#
# Static dielectric constant tensor:
#      x y z
#    x 3.757850 0.017790 0.104300 
#    y 0.017790 3.947660 -0.013580 
#    z 0.104300 -0.013580 4.327420 
# 
# 
# High freq. dielectric constant tensor:
#      x y z
#    x 1.842610 -0.000040 0.009050 
#    y -0.000040 1.842440 0.005990 
#    z 0.009050 0.005990 1.863130 
# 
# From -- ./inp_files/278827.got.cif
#   From: 2010.06.25/outbox.cif.g09.slc.cpg/sg2_140_cif.got.tgz:278827.got - 2010.06.27 13:26:56.
