data_PCOD8017218
_publ_section_title
;
Structure prediction by ZEFSAII (Michael W. Deem and Ramdas Pophale) SiO2 
 PCOD8017218
Probable space group: P -1
;
_chemical_formula_sum "Si O2"
_cell_formula_units_Z 16
_cell_length_a 11.759981
_cell_length_b 15.855357
_cell_length_c 15.187943
_cell_angle_alpha 140.550504
_cell_angle_beta 27.514777
_cell_angle_gamma 140.880161
_cell_volume 790.342162
_symmetry_space_group_name_H-M "P -1"
_symmetry_group_IT_number 2
_symmetry_cell_setting 'triclinic'
loop_
_space_group_symop_operation_xyz
x,y,z
-x,-y,-z
loop_
_atom_site_type_symbol
_atom_site_label
_atom_site_fract_x
_atom_site_fract_y
_atom_site_fract_z
Si Si1 0.116865 0.081720 0.775609
Si Si2 0.064541 0.858594 0.354976
Si Si3 0.593976 0.031040 0.178135
Si Si4 0.046886 0.783678 0.499743
Si Si5 0.261349 0.428393 0.169972
Si Si6 0.328080 0.252916 0.602977
Si Si7 0.374663 0.159149 0.843525
Si Si8 0.241415 0.489765 0.432928
O O1 0.246659 0.206278 0.720387
O O2 0.296039 0.101222 0.753569
O O3 0.091843 0.934288 0.631505
O O4 0.833063 0.091114 0.997842
O O5 0.955024 0.785434 0.463667
O O6 0.925960 0.754454 0.287397
O O7 0.377882 0.900657 0.174303
O O8 0.000000 0.000000 0.500000
O O9 0.479551 0.154731 0.378260
O O10 0.691394 0.973846 0.153638
O O11 0.320580 0.752729 0.293359
O O12 0.827179 0.666505 0.607948
O O13 0.318441 0.490572 0.278668
O O14 0.996005 0.450294 0.337262
O O15 0.500000 0.500000 0.000000
O O16 0.215578 0.262199 0.066763
O O17 0.510581 0.412201 0.606862
#
# Coordination Sequence:
#
# PCOD8017218 Si02
#       8
#     2   2   2   2   2   2   2   2
#     4  12  22  36  66  91 118 158 207 250 301 364
#     4   9  19  43  63  86 122 157 204 263 301 340
#     4  10  22  38  63  90 119 161 200 259 305 349
#     4  11  22  40  64  88 124 165 198 251 307 360
#     4  11  22  40  60  87 134 164 194 241 305 374
#     4  11  23  41  60  91 123 156 209 252 295 362
#     4  11  21  38  62  92 124 156 201 256 301 356
#     4  11  25  38  63  92 123 170 197 238 313 366
#
# _framework density 20.244396999999999
#
# number of rings (size 3 to 8) (size 9 to 14) (size 15 to 20)
#    0.000    1.250    5.000    3.000    1.750    1.000 
#    0.000    0.000    0.000    3.750    0.000    0.000 
#    0.000    0.000    0.000    0.000    0.000    0.000 
#
# Total GULP energy -198418.800477 kJ/mol
# GULP energy per Si atom -12401.175030 kJ/mol
# Density = 2.019832 g / cm^3
# Si number density = 20.244397 Si / 1000 Ang^3
#
#
#
# Elastic Constant Matrix: (Units=GPa)
#
#
# Indices 1 2 3 4 5 6 
#
# 1 115.2331 29.5103 8.6922 -5.8270 -0.0403 8.5531
# 2 29.5103 99.3727 12.0926 -14.8365 5.3573 5.1573
# 3 8.6922 12.0926 67.3523 -17.5696 7.5293 -8.0576
# 4 -5.8270 -14.8365 -17.5696 25.5100 1.7313 0.9966
# 5 -0.0403 5.3573 7.5293 1.7313 15.1900 3.5774
# 6 8.5531 5.1573 -8.0576 0.9966 3.5774 27.7684
#
#
#
# Elastic Compliance Matrix: (Units=1/GPa)
#
#
# Indices 1 2 3 4 5 6 
#
# 1 0.009716 -0.002740 -0.001574 -0.000508 0.002598 -0.003257
# 2 -0.002740 0.012217 0.000523 0.007226 -0.005195 -0.000863
# 3 -0.001574 0.000523 0.021569 0.015474 -0.014518 0.007961
# 4 -0.000508 0.007226 0.015474 0.054980 -0.017325 0.003563
# 5 0.002598 -0.005195 -0.014518 -0.017325 0.080079 -0.013743
# 6 -0.003257 -0.000863 0.007961 0.003563 -0.013743 0.041128
#
#
# Mechanical properties :
#
#
# Convention : Reuss Voigt Hill
#
# Bulk Modulus (GPa) = 27.84217 42.50536 35.17377
# Shear Modulus (GPa) = 20.89899 29.13789 25.01844
#
# Velocity S-wave (km/s) = 3.21648 3.79793 3.51924
# Velocity P-wave (km/s) = 5.25140 6.34619 5.82457
#
# Compressibility (1/GPa) = 0.03591674
#
# Stress axis : x y z
#
# Youngs Moduli (GPa) = 102.92746 81.85280 46.36384
#
# Poissons Ratio (x) = 0.22431 0.07299
# Poissons Ratio (y) = 0.28207 -0.02423
# Poissons Ratio (z) = 0.16204 -0.04278
#
# Static dielectric constant tensor:
#      x y z
#    x 4.088290 0.207850 -0.154420 
#    y 0.207850 3.723040 -0.207620 
#    z -0.154420 -0.207620 3.784680 
# 
# 
# High freq. dielectric constant tensor:
#      x y z
#    x 1.791640 0.002720 0.001780 
#    y 0.002720 1.790190 -0.010190 
#    z 0.001780 -0.010190 1.782060 
# 
# From -- ./inp_files/454778.got.cif
#   From: 2010.06.25/outbox.cif.g09.slc.cpg/sg2_228_cif.got.tgz:454778.got - 2010.06.27 13:26:56.
