data_PCOD8017304
_publ_section_title
;
Structure prediction by ZEFSAII (Michael W. Deem and Ramdas Pophale) SiO2 
 PCOD8017304
Probable space group: P -1
;
_chemical_formula_sum "Si O2"
_cell_formula_units_Z 16
_cell_length_a 11.940067
_cell_length_b 10.992246
_cell_length_c 8.514428
_cell_angle_alpha 56.720533
_cell_angle_beta 122.466598
_cell_angle_gamma 105.817577
_cell_volume 787.837069
_symmetry_space_group_name_H-M "P -1"
_symmetry_group_IT_number 2
_symmetry_cell_setting 'triclinic'
loop_
_space_group_symop_operation_xyz
x,y,z
-x,-y,-z
loop_
_atom_site_type_symbol
_atom_site_label
_atom_site_fract_x
_atom_site_fract_y
_atom_site_fract_z
Si Si1 0.368718 0.862831 0.143226
Si Si2 0.909333 0.179127 0.987072
Si Si3 0.331946 0.388753 0.574445
Si Si4 0.943080 0.472157 0.646429
Si Si5 0.867407 0.321090 0.197267
Si Si6 0.385465 0.568430 0.205430
Si Si7 0.651433 0.924923 0.301665
Si Si8 0.906859 0.022868 0.563849
O O1 0.232906 0.888732 0.123548
O O2 0.386273 0.690914 0.255397
O O3 0.505807 0.920691 0.280579
O O4 0.345768 0.932247 0.904665
O O5 0.953339 0.299139 0.810599
O O6 0.892433 0.257029 0.088357
O O7 0.018119 0.045305 0.178187
O O8 0.207431 0.467341 0.507550
O O9 0.341700 0.426468 0.368798
O O10 0.461814 0.441230 0.732867
O O11 0.322075 0.213789 0.694514
O O12 0.000000 0.500000 0.500000
O O13 0.026305 0.556642 0.779254
O O14 0.878447 0.197062 0.429807
O O15 0.718864 0.395627 0.038147
O O16 0.769146 0.937866 0.506819
O O17 0.000000 0.000000 0.500000
#
# Coordination Sequence:
#
# PCOD8017304 Si02
#       8
#     2   2   2   2   2   2   2   2
#     4   9  16  29  47  80 116 133 159 223 274 314
#     4  10  19  35  55  79 107 137 179 221 266 315
#     4  10  19  31  53  80 113 138 178 218 269 312
#     4  12  25  38  52  76 112 150 184 219 265 320
#     4  10  19  35  56  81 106 138 177 225 272 310
#     4   9  17  32  54  83 107 137 173 226 269 313
#     4  10  17  26  50  85 112 130 167 218 277 315
#     4  10  17  29  51  82 109 133 169 222 272 317
#
# _framework density 20.308767
#
# number of rings (size 3 to 8) (size 9 to 14) (size 15 to 20)
#    0.000    2.000    6.250    1.875    1.750    0.000 
#    0.000    1.250    0.000    0.000    0.000    1.750 
#    0.000    0.000    0.000    0.000    0.000    0.000 
#
# Total GULP energy -198258.101126 kJ/mol
# GULP energy per Si atom -12391.131320 kJ/mol
# Density = 2.026254 g / cm^3
# Si number density = 20.308767 Si / 1000 Ang^3
#
#
#
# Elastic Constant Matrix: (Units=GPa)
#
#
# Indices 1 2 3 4 5 6 
#
# 1 106.3454 29.2236 61.8137 5.2831 27.8248 37.7488
# 2 29.2236 32.0524 20.0843 -6.4468 3.5245 25.5472
# 3 61.8137 20.0843 114.4699 -18.4727 24.7996 15.3716
# 4 5.2831 -6.4468 -18.4727 24.6930 8.7822 3.8754
# 5 27.8248 3.5245 24.7996 8.7822 40.3794 6.4074
# 6 37.7488 25.5472 15.3716 3.8754 6.4074 32.2280
#
#
#
# Elastic Compliance Matrix: (Units=1/GPa)
#
#
# Indices 1 2 3 4 5 6 
#
# 1 0.025772 0.002335 -0.010875 -0.007077 -0.005802 -0.024847
# 2 0.002335 0.125754 0.001473 0.053196 -0.007931 -0.107943
# 3 -0.010875 0.001473 0.019371 0.020203 -0.009201 0.001731
# 4 -0.007077 0.053196 0.020203 0.087037 -0.023273 -0.049354
# 5 -0.005802 -0.007931 -0.009201 -0.023273 0.038155 0.012684
# 6 -0.024847 -0.107943 0.001731 -0.049354 0.012684 0.148286
#
#
# Mechanical properties :
#
#
# Convention : Reuss Voigt Hill
#
# Bulk Modulus (GPa) = 6.37905 52.79010 29.58457
# Shear Modulus (GPa) = 9.78926 28.90982 19.34954
#
# Velocity S-wave (km/s) = 2.19788 3.77704 3.09004
# Velocity P-wave (km/s) = 3.09657 6.71354 5.22783
#
# Compressibility (1/GPa) = 0.15676324
#
# Stress axis : x y z
#
# Youngs Moduli (GPa) = 38.80159 7.95204 51.62268
#
# Poissons Ratio (x) = -0.01857 0.56141
# Poissons Ratio (y) = -0.09062 -0.07602
# Poissons Ratio (z) = 0.42198 -0.01171
#
# Static dielectric constant tensor:
#      x y z
#    x 3.738510 0.581920 0.608580 
#    y 0.581920 3.513660 -0.348600 
#    z 0.608580 -0.348600 4.028520 
# 
# 
# High freq. dielectric constant tensor:
#      x y z
#    x 1.769280 0.054790 0.043940 
#    y 0.054790 1.762700 -0.038410 
#    z 0.043940 -0.038410 1.796270 
# 
# From -- ./inp_files/238910.got.cif
#   From: 2010.06.25/outbox.cif.g09.slc.cpg/sg2_120_cif.got.tgz:238910.got - 2010.06.27 13:26:56.
