data_PCOD8017408
_publ_section_title
;
Structure prediction by ZEFSAII (Michael W. Deem and Ramdas Pophale) SiO2 
 PCOD8017408
Probable space group: P -1
;
_chemical_formula_sum "Si O2"
_cell_formula_units_Z 14
_cell_length_a 17.845667
_cell_length_b 16.489306
_cell_length_c 15.142444
_cell_angle_alpha 147.783729
_cell_angle_beta 157.058047
_cell_angle_gamma 22.063799
_cell_volume 651.603818
_symmetry_space_group_name_H-M "P -1"
_symmetry_group_IT_number 2
_symmetry_cell_setting 'triclinic'
loop_
_space_group_symop_operation_xyz
x,y,z
-x,-y,-z
loop_
_atom_site_type_symbol
_atom_site_label
_atom_site_fract_x
_atom_site_fract_y
_atom_site_fract_z
Si Si1 0.284003 0.421262 0.723980
Si Si2 0.278576 0.326043 0.911736
Si Si3 0.340561 0.131722 0.037632
Si Si4 0.265817 0.614013 0.040741
Si Si5 0.309506 0.389364 0.516554
Si Si6 0.352879 0.039046 0.285601
Si Si7 0.719229 0.512264 0.747727
O O1 0.339934 0.412861 0.674336
O O2 0.000000 0.500000 0.500000
O O3 0.497161 0.194823 0.800737
O O4 0.292117 0.575612 0.927645
O O5 0.990584 0.402910 0.653468
O O6 0.338999 0.416146 0.986092
O O7 0.260880 0.422622 0.074739
O O8 0.511703 0.063980 0.912709
O O9 0.013243 0.280870 0.821182
O O10 0.373456 0.296238 0.242033
O O11 0.500000 0.000000 0.000000
O O12 0.468660 0.631309 0.311501
O O13 0.958937 0.837003 0.930376
O O14 0.372773 0.175525 0.369344
O O15 0.500000 0.000000 0.500000
O O16 0.500000 0.500000 0.500000
#
# Coordination Sequence:
#
# PCOD8017408 Si02
#       7
#     2   2   2   2   2   2   2
#     4  11  19  39  60  79 117 159 203 246 292 339
#     4  10  22  39  58  89 125 155 189 252 296 351
#     4   9  21  41  66  90 120 158 194 239 306 359
#     4  11  22  38  57  87 118 157 203 244 294 349
#     4  10  22  39  57  84 121 158 200 247 292 349
#     4   9  19  36  55  78 111 154 194 252 291 334
#     4  10  22  41  66  94 119 155 200 242 297 368
#
# _framework density 21.485447000000001
#
# number of rings (size 3 to 8) (size 9 to 14) (size 15 to 20)
#    0.000    2.000    4.286    0.429    0.000   11.429 
#    2.571    0.000    0.000    0.000    0.000    0.000 
#    0.000    0.000    0.000    0.000    0.000    0.000 
#
# Total GULP energy -173434.231024 kJ/mol
# GULP energy per Si atom -12388.159359 kJ/mol
# Density = 2.143655 g / cm^3
# Si number density = 21.485447 Si / 1000 Ang^3
#
#
#
# Elastic Constant Matrix: (Units=GPa)
#
#
# Indices 1 2 3 4 5 6 
#
# 1 46.0370 31.1611 38.7939 -6.2518 12.3712 -4.7422
# 2 31.1611 164.6795 77.1302 -32.8407 20.6334 -1.1653
# 3 38.7939 77.1302 161.9613 -7.5355 47.6943 2.2612
# 4 -6.2518 -32.8407 -7.5355 25.7618 -4.5445 -5.0954
# 5 12.3712 20.6334 47.6943 -4.5445 39.9824 -0.1002
# 6 -4.7422 -1.1653 2.2612 -5.0954 -0.1002 26.9060
#
#
#
# Elastic Compliance Matrix: (Units=1/GPa)
#
#
# Indices 1 2 3 4 5 6 
#
# 1 0.029291 -0.001845 -0.005839 0.004192 -0.000654 0.006365
# 2 -0.001845 0.011131 -0.004944 0.013305 0.002244 0.003101
# 3 -0.005839 -0.004944 0.013273 -0.006726 -0.012248 -0.003678
# 4 0.004192 0.013305 -0.006726 0.058553 0.006547 0.012993
# 5 -0.000654 0.002244 -0.012248 0.006547 0.039416 0.002398
# 6 0.006365 0.003101 -0.003678 0.012993 0.002398 0.041201
#
#
# Mechanical properties :
#
#
# Convention : Reuss Voigt Hill
#
# Bulk Modulus (GPa) = 35.16258 74.09425 54.62842
# Shear Modulus (GPa) = 21.96823 33.56955 27.76889
#
# Velocity S-wave (km/s) = 3.20108 3.95705 3.59897
# Velocity P-wave (km/s) = 5.48305 7.44569 6.53843
#
# Compressibility (1/GPa) = 0.02843932
#
# Stress axis : x y z
#
# Youngs Moduli (GPa) = 34.14008 89.83648 75.34238
#
# Poissons Ratio (x) = 0.16575 0.43990
# Poissons Ratio (y) = 0.06299 0.37251
# Poissons Ratio (z) = 0.19933 0.44418
#
# Static dielectric constant tensor:
#      x y z
#    x 6.586860 0.575520 -0.281730 
#    y 0.575520 4.298920 -0.253630 
#    z -0.281730 -0.253630 3.825310 
# 
# 
# High freq. dielectric constant tensor:
#      x y z
#    x 1.833350 0.003000 0.011260 
#    y 0.003000 1.854810 -0.006730 
#    z 0.011260 -0.006730 1.832540 
# 
# From -- ./inp_files/578374.got.cif
#   From: 2010.06.25/outbox.cif.g09.slc.cpg/sg2_290_cif.got.tgz:578374.got - 2010.06.27 13:26:56.
