data_PCOD8017096
_publ_section_title
;
Structure prediction by ZEFSAII (Michael W. Deem and Ramdas Pophale) SiO2 
 PCOD8017096
Probable space group: P -1
;
_chemical_formula_sum "Si O2"
_cell_formula_units_Z 14
_cell_length_a 9.087791
_cell_length_b 19.153069
_cell_length_c 12.271742
_cell_angle_alpha 148.720776
_cell_angle_beta 141.951036
_cell_angle_gamma 51.308089
_cell_volume 675.839638
_symmetry_space_group_name_H-M "P -1"
_symmetry_group_IT_number 2
_symmetry_cell_setting 'triclinic'
loop_
_space_group_symop_operation_xyz
x,y,z
-x,-y,-z
loop_
_atom_site_type_symbol
_atom_site_label
_atom_site_fract_x
_atom_site_fract_y
_atom_site_fract_z
Si Si1 0.358821 0.358745 0.267799
Si Si2 0.693279 0.161140 0.915622
Si Si3 0.090526 0.361179 0.339443
Si Si4 0.725172 0.858509 0.507730
Si Si5 0.479874 0.359551 0.737522
Si Si6 0.824399 0.278617 0.379494
Si Si7 0.972278 0.442777 0.030442
O O1 0.500000 0.500000 0.500000
O O2 0.251608 0.371994 0.341100
O O3 0.559028 0.255366 0.252571
O O4 0.147446 0.330704 0.014371
O O5 0.412899 0.152014 0.703668
O O6 0.756406 0.011521 0.774784
O O7 0.755485 0.254248 0.181366
O O8 0.868366 0.238969 0.028764
O O9 0.240488 0.324940 0.481839
O O10 0.000000 0.500000 0.500000
O O11 0.545387 0.763471 0.356049
O O12 0.994447 0.820007 0.600189
O O13 0.500000 0.500000 0.000000
O O14 0.704922 0.366037 0.794971
O O15 0.965479 0.431197 0.681242
O O16 0.000000 0.500000 0.000000
#
# Coordination Sequence:
#
# PCOD8017096 Si02
#       7
#     2   2   2   2   2   2   2
#     4  10  22  38  58  92 127 164 207 259 323 373
#     4  11  24  43  68  93 130 168 221 262 323 382
#     4  12  23  39  65  94 127 166 213 271 315 380
#     4  11  24  41  69  96 126 171 217 268 317 385
#     4  12  21  37  64  94 124 162 217 261 316 377
#     4  11  22  41  64  91 132 169 207 264 322 378
#     4  11  23  38  62  95 132 165 211 267 321 381
#
# _framework density 20.714974999999999
#
# number of rings (size 3 to 8) (size 9 to 14) (size 15 to 20)
#    0.000    0.857    2.857    6.429    2.000    0.000 
#    0.000    0.714    3.143    2.571    0.000    0.000 
#    0.000    0.000    0.000    0.000    0.000    0.000 
#
# Total GULP energy -173479.380551 kJ/mol
# GULP energy per Si atom -12391.384325 kJ/mol
# Density = 2.066783 g / cm^3
# Si number density = 20.714975 Si / 1000 Ang^3
#
#
#
# Elastic Constant Matrix: (Units=GPa)
#
#
# Indices 1 2 3 4 5 6 
#
# 1 134.8208 53.1831 38.9648 5.8761 6.2644 -14.1179
# 2 53.1831 134.5287 37.0345 -11.7988 1.5470 -21.3980
# 3 38.9648 37.0345 90.0480 0.3962 0.0724 3.5886
# 4 5.8761 -11.7988 0.3962 44.2792 8.7512 10.3000
# 5 6.2644 1.5470 0.0724 8.7512 26.4205 -8.0981
# 6 -14.1179 -21.3980 3.5886 10.3000 -8.0981 33.7827
#
#
#
# Elastic Compliance Matrix: (Units=1/GPa)
#
#
# Indices 1 2 3 4 5 6 
#
# 1 0.009950 -0.002683 -0.003335 -0.002824 -0.000142 0.003640
# 2 -0.002683 0.010449 -0.003370 0.001610 0.001235 0.005661
# 3 -0.003335 -0.003370 0.014153 0.000923 -0.001063 -0.005568
# 4 -0.002824 0.001610 0.000923 0.028667 -0.012607 -0.012021
# 5 -0.000142 0.001235 -0.001063 -0.012607 0.046867 0.015915
# 6 0.003640 0.005661 -0.005568 -0.012021 0.015915 0.042779
#
#
# Mechanical properties :
#
#
# Convention : Reuss Voigt Hill
#
# Bulk Modulus (GPa) = 63.38421 68.64028 66.01224
# Shear Modulus (GPa) = 28.26444 36.24413 32.25428
#
# Velocity S-wave (km/s) = 3.69785 4.18743 3.95023
# Velocity P-wave (km/s) = 6.99262 7.52243 7.26236
#
# Compressibility (1/GPa) = 0.01577680
#
# Stress axis : x y z
#
# Youngs Moduli (GPa) = 100.50120 95.70265 70.65634
#
# Poissons Ratio (x) = 0.25673 0.23562
# Poissons Ratio (y) = 0.26960 0.23813
# Poissons Ratio (z) = 0.33515 0.32255
#
# Static dielectric constant tensor:
#      x y z
#    x 4.733670 -0.800440 0.510500 
#    y -0.800440 4.453860 -0.532220 
#    z 0.510500 -0.532220 3.881600 
# 
# 
# High freq. dielectric constant tensor:
#      x y z
#    x 1.806770 -0.008270 0.010430 
#    y -0.008270 1.822800 -0.031730 
#    z 0.010430 -0.031730 1.797410 
# 
# From -- ./inp_files/255774.got.cif
#   From: 2010.06.25/outbox.cif.g09.slc.cpg/sg2_128_cif.got.tgz:255774.got - 2010.06.27 13:26:56.
