data_PCOD8017537
_publ_section_title
;
Structure prediction by ZEFSAII (Michael W. Deem and Ramdas Pophale) SiO2 
 PCOD8017537
Probable space group: P -1
;
_chemical_formula_sum "Si O2"
_cell_formula_units_Z 16
_cell_length_a 11.544015
_cell_length_b 12.698172
_cell_length_c 11.147928
_cell_angle_alpha 44.253435
_cell_angle_beta 143.025235
_cell_angle_gamma 141.213511
_cell_volume 596.424855
_symmetry_space_group_name_H-M "P -1"
_symmetry_group_IT_number 2
_symmetry_cell_setting 'triclinic'
loop_
_space_group_symop_operation_xyz
x,y,z
-x,-y,-z
loop_
_atom_site_type_symbol
_atom_site_label
_atom_site_fract_x
_atom_site_fract_y
_atom_site_fract_z
Si Si1 0.814112 0.461608 0.780592
Si Si2 0.570811 0.901360 0.244760
Si Si3 0.159311 0.216090 0.558133
Si Si4 0.411942 0.135403 0.004759
Si Si5 0.895928 0.404625 0.621346
Si Si6 0.587897 0.852703 0.579039
Si Si7 0.206014 0.783284 0.584957
Si Si8 0.010729 0.134679 0.994039
O O1 0.602881 0.289233 0.794501
O O2 0.760827 0.620378 0.598371
O O3 0.890914 0.443469 0.726103
O O4 0.000000 0.500000 0.000000
O O5 0.811228 0.936937 0.361826
O O6 0.557708 0.879526 0.393964
O O7 0.511232 0.058957 0.045237
O O8 0.917808 0.164635 0.454532
O O9 0.322700 0.258206 0.775633
O O10 0.599981 0.241651 0.172529
O O11 0.208499 0.958069 0.031820
O O12 0.650650 0.294573 0.447254
O O13 0.040840 0.603353 0.523006
O O14 0.026009 0.298495 0.803987
O O15 0.683798 0.051055 0.550083
O O16 0.767686 0.793202 0.801013
O O17 0.000000 0.000000 0.000000
#
# Coordination Sequence:
#
# PCOD8017537 Si02
#       8
#     2   2   2   2   2   2   2   2
#     4  10  22  39  61  99 143 183 229 271 325 414
#     4  10  22  40  62  98 138 185 224 271 340 404
#     4  11  23  36  65  98 134 188 222 262 343 402
#     4  11  23  45  64  99 143 170 236 292 331 411
#     4  10  23  45  66 101 134 181 223 283 349 393
#     4  10  22  45  67  93 141 175 224 289 333 412
#     4  10  22  42  69  97 140 178 221 282 336 407
#     4  12  25  47  76  96 127 184 232 290 359 404
#
# _framework density 26.826514
#
# number of rings (size 3 to 8) (size 9 to 14) (size 15 to 20)
#    0.000    1.500    5.000    0.750    5.250    5.500 
#    0.000    1.250    0.000    0.000    0.000    0.000 
#    0.000    0.000    0.000    0.000    0.000    0.000 
#
# Total GULP energy -198321.323545 kJ/mol
# GULP energy per Si atom -12395.082722 kJ/mol
# Density = 2.676546 g / cm^3
# Si number density = 26.826514 Si / 1000 Ang^3
#
#
#
# Elastic Constant Matrix: (Units=GPa)
#
#
# Indices 1 2 3 4 5 6 
#
# 1 68.3493 46.1528 23.4712 -7.2511 12.5666 10.5368
# 2 46.1528 159.8511 60.9785 -2.0371 13.4562 25.0619
# 3 23.4712 60.9785 202.2178 -7.5596 22.7621 22.3625
# 4 -7.2511 -2.0371 -7.5596 49.4147 3.1119 7.3751
# 5 12.5666 13.4562 22.7621 3.1119 34.8266 0.7894
# 6 10.5368 25.0619 22.3625 7.3751 0.7894 42.7333
#
#
#
# Elastic Compliance Matrix: (Units=1/GPa)
#
#
# Indices 1 2 3 4 5 6 
#
# 1 0.019611 -0.004822 0.000229 0.003458 -0.005612 -0.002620
# 2 -0.004822 0.008819 -0.001713 -0.000120 -0.000468 -0.003057
# 3 0.000229 -0.001713 0.006161 0.001496 -0.003525 -0.002469
# 4 0.003458 -0.000120 0.001496 0.022011 -0.004026 -0.005289
# 5 -0.005612 -0.000468 -0.003525 -0.004026 0.033502 0.003579
# 6 -0.002620 -0.003057 -0.002469 -0.005289 0.003579 0.027978
#
#
# Mechanical properties :
#
#
# Convention : Reuss Voigt Hill
#
# Bulk Modulus (GPa) = 45.50190 76.84702 61.17446
# Shear Modulus (GPa) = 36.22621 45.38262 40.80441
#
# Velocity S-wave (km/s) = 3.67875 4.11750 3.90429
# Velocity P-wave (km/s) = 5.91968 7.16332 6.57099
#
# Compressibility (1/GPa) = 0.02197710
#
# Stress axis : x y z
#
# Youngs Moduli (GPa) = 50.99182 113.39445 162.31157
#
# Poissons Ratio (x) = 0.54679 -0.03711
# Poissons Ratio (y) = 0.24588 0.27811
# Poissons Ratio (z) = -0.01166 0.19429
#
# Static dielectric constant tensor:
#      x y z
#    x 6.019100 1.042930 0.432700 
#    y 1.042930 6.220840 0.261860 
#    z 0.432700 0.261860 5.404680 
# 
# 
# High freq. dielectric constant tensor:
#      x y z
#    x 2.100010 0.003250 -0.008940 
#    y 0.003250 2.074290 0.003390 
#    z -0.008940 0.003390 2.098420 
# 
# From -- ./inp_files/534290.got.cif
#   From: 2010.06.25/outbox.cif.g09.slc.cpg/sg2_268_cif.got.tgz:534290.got - 2010.06.27 13:26:56.
