data_PCOD8017669
_publ_section_title
;
Structure prediction by ZEFSAII (Michael W. Deem and Ramdas Pophale) SiO2 
 PCOD8017669
Probable space group: P -1
;
_chemical_formula_sum "Si O2"
_cell_formula_units_Z 16
_cell_length_a 16.201256
_cell_length_b 23.888136
_cell_length_c 13.584819
_cell_angle_alpha 21.140202
_cell_angle_beta 32.716043
_cell_angle_gamma 20.697649
_cell_volume 649.857626
_symmetry_space_group_name_H-M "P -1"
_symmetry_group_IT_number 2
_symmetry_cell_setting 'triclinic'
loop_
_space_group_symop_operation_xyz
x,y,z
-x,-y,-z
loop_
_atom_site_type_symbol
_atom_site_label
_atom_site_fract_x
_atom_site_fract_y
_atom_site_fract_z
Si Si1 0.942774 0.573479 0.234505
Si Si2 0.209533 0.962291 0.343478
Si Si3 0.194897 0.663235 0.569842
Si Si4 0.433584 0.454043 0.485666
Si Si5 0.159423 0.299507 0.085499
Si Si6 0.802780 0.179113 0.046870
Si Si7 0.442557 0.206190 0.404527
Si Si8 0.349688 0.422677 0.341068
O O1 0.231072 0.319942 0.356371
O O2 0.828013 0.542110 0.474178
O O3 0.832479 0.622147 0.157209
O O4 0.893569 0.784937 0.975911
O O5 0.379667 0.800764 0.342224
O O6 0.372959 0.825255 0.501637
O O7 0.000000 0.000000 0.500000
O O8 0.294323 0.479451 0.676796
O O9 0.415293 0.528319 0.641457
O O10 0.990270 0.744331 0.708976
O O11 0.077656 0.909093 0.232157
O O12 0.231053 0.685838 0.236572
O O13 0.428605 0.048496 0.263244
O O14 0.000000 0.500000 0.000000
O O15 0.634542 0.161129 0.228840
O O16 0.717542 0.343961 0.957982
O O17 0.313853 0.407329 0.289251
#
# Coordination Sequence:
#
# PCOD8017669 Si02
#       8
#     2   2   2   2   2   2   2   2
#     4  12  25  45  67 100 140 172 223 282 332 399
#     4  11  23  40  72  97 131 175 221 271 339 389
#     4  10  22  42  64  96 128 172 224 268 322 395
#     4  10  22  39  64 100 125 169 218 275 325 384
#     4  11  26  44  69  92 136 178 221 271 337 402
#     4  10  22  40  66  93 132 172 222 272 327 390
#     4  11  24  44  68  97 132 177 228 271 335 401
#     4  11  24  42  67 102 137 176 219 281 339 391
#
# _framework density 24.620778000000001
#
# number of rings (size 3 to 8) (size 9 to 14) (size 15 to 20)
#    0.000    1.250    1.250    4.500    7.000    0.500 
#    4.500    0.000    0.000    0.000    0.000    0.000 
#    0.000    0.000    0.000    0.000    0.000    0.000 
#
# Total GULP energy -198409.324924 kJ/mol
# GULP energy per Si atom -12400.582808 kJ/mol
# Density = 2.456474 g / cm^3
# Si number density = 24.620778 Si / 1000 Ang^3
#
#
#
# Elastic Constant Matrix: (Units=GPa)
#
#
# Indices 1 2 3 4 5 6 
#
# 1 69.6316 0.5703 -0.1118 -24.2013 9.5157 6.8597
# 2 0.5703 79.5902 11.0528 -10.5330 7.3333 -5.9642
# 3 -0.1118 11.0528 49.3344 -14.3410 9.9332 -5.7400
# 4 -24.2013 -10.5330 -14.3410 44.4366 0.0436 2.5445
# 5 9.5157 7.3333 9.9332 0.0436 26.0109 2.5267
# 6 6.8597 -5.9642 -5.7400 2.5445 2.5267 42.8299
#
#
#
# Elastic Compliance Matrix: (Units=1/GPa)
#
#
# Indices 1 2 3 4 5 6 
#
# 1 0.020635 0.001611 0.005273 0.013480 -0.009787 -0.002597
# 2 0.001611 0.013685 -0.000942 0.003732 -0.004245 0.001550
# 3 0.005273 -0.000942 0.026429 0.011039 -0.012029 0.002620
# 4 0.013480 0.003732 0.011039 0.034395 -0.010101 -0.001607
# 5 -0.009787 -0.004245 -0.012029 -0.010101 0.048112 -0.002874
# 6 -0.002597 0.001550 0.002620 -0.001607 -0.002874 0.024596
#
#
# Mechanical properties :
#
#
# Convention : Reuss Voigt Hill
#
# Bulk Modulus (GPa) = 13.76806 24.61986 19.19396
# Shear Modulus (GPa) = 27.74998 35.12514 31.43756
#
# Velocity S-wave (km/s) = 3.36087 3.78119 3.57721
# Velocity P-wave (km/s) = 4.54585 5.39301 4.98745
#
# Compressibility (1/GPa) = 0.07263190
#
# Stress axis : x y z
#
# Youngs Moduli (GPa) = 48.46082 73.07342 37.83747
#
# Poissons Ratio (x) = -0.11772 -0.19951
# Poissons Ratio (y) = -0.07807 0.03566
# Poissons Ratio (z) = -0.25553 0.06886
#
# Static dielectric constant tensor:
#      x y z
#    x 4.600530 -0.004260 -0.058010 
#    y -0.004260 4.670180 0.149360 
#    z -0.058010 0.149360 4.563570 
# 
# 
# High freq. dielectric constant tensor:
#      x y z
#    x 1.984220 -0.002030 -0.001240 
#    y -0.002030 1.989200 0.001020 
#    z -0.001240 0.001020 1.972400 
# 
# From -- ./inp_files/539375.got.cif
#   From: 2010.06.25/outbox.cif.g09.slc.cpg/sg2_270_cif.got.tgz:539375.got - 2010.06.27 13:26:56.
