data_PCOD8017086
_publ_section_title
;
Structure prediction by ZEFSAII (Michael W. Deem and Ramdas Pophale) SiO2 
 PCOD8017086
Probable space group: P -1
;
_chemical_formula_sum "Si O2"
_cell_formula_units_Z 14
_cell_length_a 16.684546
_cell_length_b 11.687553
_cell_length_c 16.658102
_cell_angle_alpha 21.385470
_cell_angle_beta 31.716366
_cell_angle_gamma 29.670220
_cell_volume 570.545440
_symmetry_space_group_name_H-M "P -1"
_symmetry_group_IT_number 2
_symmetry_cell_setting 'triclinic'
loop_
_space_group_symop_operation_xyz
x,y,z
-x,-y,-z
loop_
_atom_site_type_symbol
_atom_site_label
_atom_site_fract_x
_atom_site_fract_y
_atom_site_fract_z
Si Si1 0.151891 0.356116 0.903074
Si Si2 0.672970 0.189687 0.550792
Si Si3 0.144619 0.199790 0.657135
Si Si4 0.826742 0.229483 0.840545
Si Si5 0.591145 0.237872 0.166846
Si Si6 0.622652 0.186161 0.415985
Si Si7 0.496982 0.784608 0.029223
O O1 0.183043 0.684653 0.627089
O O2 0.000000 0.500000 0.000000
O O3 0.117993 0.158230 0.985430
O O4 0.319182 0.105346 0.970555
O O5 0.500000 0.500000 0.500000
O O6 0.698433 0.078946 0.508776
O O7 0.655465 0.890922 0.814500
O O8 0.176711 0.537881 0.385565
O O9 0.949738 0.270384 0.777028
O O10 0.231473 0.047105 0.766901
O O11 0.219373 0.914736 0.710627
O O12 0.644474 0.364796 0.953295
O O13 0.502170 0.533745 0.114768
O O14 0.480189 0.028817 0.382372
O O15 0.515109 0.592796 0.225227
#
# Coordination Sequence:
#
# PCOD8017086 Si02
#       7
#     2   2   2   2   2   2   2
#     4  11  23  40  60  85 120 163 203 236 281 349
#     4  10  22  38  58  84 116 159 202 234 278 345
#     4  10  22  38  61  93 120 149 188 242 309 358
#     4  11  22  39  62  87 123 157 187 242 301 345
#     4  11  21  37  65  95 116 145 195 248 302 354
#     4  11  21  38  63  89 118 152 194 247 298 345
#     4  10  22  40  62  88 119 152 195 248 295 346
#
# _framework density 24.537925000000001
#
# number of rings (size 3 to 8) (size 9 to 14) (size 15 to 20)
#    0.000    1.429    0.000    7.286    0.000    5.143 
#    0.000    4.286    0.000   14.571    0.000    0.000 
#    0.000    0.000    0.000    0.000    0.000    0.000 
#
# Total GULP energy -173537.236890 kJ/mol
# GULP energy per Si atom -12395.516921 kJ/mol
# Density = 2.448208 g / cm^3
# Si number density = 24.537925 Si / 1000 Ang^3
#
#
#
# Elastic Constant Matrix: (Units=GPa)
#
#
# Indices 1 2 3 4 5 6 
#
# 1 57.4971 8.1174 31.5409 -4.7192 -6.6360 2.3808
# 2 8.1174 99.3850 44.6690 15.5959 -9.6369 4.0682
# 3 31.5409 44.6690 174.4699 5.5741 -21.1222 -7.3467
# 4 -4.7192 15.5959 5.5741 36.9622 -5.3941 -0.1257
# 5 -6.6360 -9.6369 -21.1222 -5.3941 38.5129 -3.0016
# 6 2.3808 4.0682 -7.3467 -0.1257 -3.0016 28.6426
#
#
#
# Elastic Compliance Matrix: (Units=1/GPa)
#
#
# Indices 1 2 3 4 5 6 
#
# 1 0.019950 -0.000327 -0.003522 0.003461 0.001728 -0.002319
# 2 -0.000327 0.012323 -0.002983 -0.004721 0.000539 -0.002452
# 3 -0.003522 -0.002983 0.007627 0.000118 0.003080 0.002996
# 4 0.003461 -0.004721 0.000118 0.030022 0.003758 0.000939
# 5 0.001728 0.000539 0.003080 0.003758 0.028895 0.003614
# 6 -0.002319 -0.002452 0.002996 0.000939 0.003614 0.036606
#
#
# Mechanical properties :
#
#
# Convention : Reuss Voigt Hill
#
# Bulk Modulus (GPa) = 38.11552 55.55628 46.83590
# Shear Modulus (GPa) = 31.67924 37.29186 34.48555
#
# Velocity S-wave (km/s) = 3.59699 3.90264 3.75293
# Velocity P-wave (km/s) = 5.72871 6.55726 6.15694
#
# Compressibility (1/GPa) = 0.02623603
#
# Stress axis : x y z
#
# Youngs Moduli (GPa) = 50.12588 81.15018 131.10754
#
# Poissons Ratio (x) = 0.02654 0.46173
# Poissons Ratio (y) = 0.01640 0.39110
# Poissons Ratio (z) = 0.17653 0.24208
#
# Static dielectric constant tensor:
#      x y z
#    x 4.238030 -0.216150 0.097800 
#    y -0.216150 4.586960 -0.099570 
#    z 0.097800 -0.099570 5.363600 
# 
# 
# High freq. dielectric constant tensor:
#      x y z
#    x 1.957030 -0.004640 -0.008760 
#    y -0.004640 1.971070 0.002730 
#    z -0.008760 0.002730 2.000670 
# 
# From -- ./inp_files/462491.got.cif
#   From: 2010.06.25/outbox.cif.g09.slc.cpg/sg2_232_cif.got.tgz:462491.got - 2010.06.27 13:26:56.
