data_PCOD8017321
_publ_section_title
;
Structure prediction by ZEFSAII (Michael W. Deem and Ramdas Pophale) SiO2 
 PCOD8017321
Probable space group: P -1
;
_chemical_formula_sum "Si O2"
_cell_formula_units_Z 16
_cell_length_a 9.581403
_cell_length_b 12.079631
_cell_length_c 8.980590
_cell_angle_alpha 73.535181
_cell_angle_beta 115.375980
_cell_angle_gamma 67.207507
_cell_volume 728.941827
_symmetry_space_group_name_H-M "P -1"
_symmetry_group_IT_number 2
_symmetry_cell_setting 'triclinic'
loop_
_space_group_symop_operation_xyz
x,y,z
-x,-y,-z
loop_
_atom_site_type_symbol
_atom_site_label
_atom_site_fract_x
_atom_site_fract_y
_atom_site_fract_z
Si Si1 0.508750 0.784385 0.526131
Si Si2 0.592488 0.746091 0.919588
Si Si3 0.676847 0.154314 0.988029
Si Si4 0.477407 0.040751 0.762028
Si Si5 0.557103 0.582654 0.398716
Si Si6 0.910553 0.037817 0.662307
Si Si7 0.867565 0.478298 0.346897
Si Si8 0.065585 0.161033 0.487114
O O1 0.573510 0.726956 0.743952
O O2 0.546412 0.897716 0.440409
O O3 0.627804 0.648753 0.522838
O O4 0.281587 0.861090 0.369337
O O5 0.625954 0.869421 0.898692
O O6 0.393362 0.798481 0.890635
O O7 0.767754 0.601060 0.128723
O O8 0.550080 0.104072 0.886481
O O9 0.628038 0.291132 0.822880
O O10 0.902447 0.038033 0.119313
O O11 0.267680 0.084842 0.695899
O O12 0.500000 0.500000 0.500000
O O13 0.719812 0.483203 0.390971
O O14 0.921723 0.140021 0.515531
O O15 0.898559 0.916648 0.625499
O O16 0.000000 0.500000 0.500000
O O17 0.976321 0.328197 0.366931
#
# Coordination Sequence:
#
# PCOD8017321 Si02
#       8
#     2   2   2   2   2   2   2   2
#     4  11  23  41  65  97 130 170 214 273 325 386
#     4  11  21  40  67  95 123 172 217 260 326 382
#     4  10  22  38  66  96 124 174 224 263 313 395
#     4  11  22  41  69  94 131 168 222 268 320 381
#     4  10  23  43  60  88 137 172 207 264 334 388
#     4  11  22  38  65 100 131 161 220 272 326 373
#     4  11  25  44  66  96 128 175 222 264 315 393
#     4  11  22  41  66  95 132 166 214 277 315 383
#
# _framework density 21.949627
#
# number of rings (size 3 to 8) (size 9 to 14) (size 15 to 20)
#    0.000    1.250    2.500    4.500    1.750    3.000 
#    2.250    5.625    0.000    0.000    0.000    0.000 
#    0.000    0.000    0.000    0.000    0.000    0.000 
#
# Total GULP energy -198325.525354 kJ/mol
# GULP energy per Si atom -12395.345335 kJ/mol
# Density = 2.189967 g / cm^3
# Si number density = 21.949627 Si / 1000 Ang^3
#
#
#
# Elastic Constant Matrix: (Units=GPa)
#
#
# Indices 1 2 3 4 5 6 
#
# 1 54.5686 18.7121 21.9407 0.8869 0.8305 12.2931
# 2 18.7121 107.0420 42.0866 -15.0387 -3.2699 12.7371
# 3 21.9407 42.0866 130.3300 -5.4284 -7.8973 6.4076
# 4 0.8869 -15.0387 -5.4284 36.6034 0.2551 -8.5973
# 5 0.8305 -3.2699 -7.8973 0.2551 46.1980 -2.4709
# 6 12.2931 12.7371 6.4076 -8.5973 -2.4709 30.4286
#
#
#
# Elastic Compliance Matrix: (Units=1/GPa)
#
#
# Indices 1 2 3 4 5 6 
#
# 1 0.022310 -0.002360 -0.002823 -0.003955 -0.001492 -0.008669
# 2 -0.002360 0.011805 -0.003131 0.003924 0.000203 -0.002204
# 3 -0.002823 -0.003131 0.009224 0.000307 0.001442 0.000712
# 4 -0.003955 0.003924 0.000307 0.031121 0.000697 0.008740
# 5 -0.001492 0.000203 0.001442 0.000697 0.022048 0.002201
# 6 -0.008669 -0.002204 0.000712 0.008740 0.002201 0.039787
#
#
# Mechanical properties :
#
#
# Convention : Reuss Voigt Hill
#
# Bulk Modulus (GPa) = 37.43536 50.82437 44.12987
# Shear Modulus (GPa) = 30.89738 36.59275 33.74506
#
# Velocity S-wave (km/s) = 3.75594 4.08747 3.92521
# Velocity P-wave (km/s) = 5.99179 6.74402 6.37900
#
# Compressibility (1/GPa) = 0.02671271
#
# Stress axis : x y z
#
# Youngs Moduli (GPa) = 44.82360 84.70715 108.41018
#
# Poissons Ratio (x) = 0.19989 0.30601
# Poissons Ratio (y) = 0.10577 0.33942
# Poissons Ratio (z) = 0.12652 0.26521
#
# Static dielectric constant tensor:
#      x y z
#    x 3.939370 0.003370 -0.164180 
#    y 0.003370 4.032440 -0.134900 
#    z -0.164180 -0.134900 3.975050 
# 
# 
# High freq. dielectric constant tensor:
#      x y z
#    x 1.858510 0.003360 -0.012380 
#    y 0.003360 1.861580 -0.005330 
#    z -0.012380 -0.005330 1.863500 
# 
# From -- ./inp_files/186063.got.cif
#   From: 2010.06.25/outbox.cif.g09.slc.cpg/sg2_94_cif.got.tgz:186063.got - 2010.06.27 13:26:56.
