data_PCOD8017736
_publ_section_title
;
Structure prediction by ZEFSAII (Michael W. Deem and Ramdas Pophale) SiO2 
 PCOD8017736
Probable space group: P -1
;
_chemical_formula_sum "Si O2"
_cell_formula_units_Z 14
_cell_length_a 11.822175
_cell_length_b 12.236097
_cell_length_c 13.887737
_cell_angle_alpha 120.523259
_cell_angle_beta 158.896616
_cell_angle_gamma 58.868286
_cell_volume 617.025177
_symmetry_space_group_name_H-M "P -1"
_symmetry_group_IT_number 2
_symmetry_cell_setting 'triclinic'
loop_
_space_group_symop_operation_xyz
x,y,z
-x,-y,-z
loop_
_atom_site_type_symbol
_atom_site_label
_atom_site_fract_x
_atom_site_fract_y
_atom_site_fract_z
Si Si1 0.751194 0.152037 0.615695
Si Si2 0.817919 0.982276 0.943392
Si Si3 0.133397 0.990248 0.706190
Si Si4 0.127390 0.431429 0.793849
Si Si5 0.173663 0.578164 0.247819
Si Si6 0.719252 0.789044 0.341216
Si Si7 0.724916 0.565842 0.376666
O O1 0.397673 0.127764 0.298407
O O2 0.753115 0.300855 0.702114
O O3 0.977403 0.118946 0.689970
O O4 0.897547 0.064752 0.779960
O O5 0.600262 0.107511 0.870918
O O6 0.000000 0.000000 0.000000
O O7 0.000000 0.000000 0.500000
O O8 0.030388 0.862902 0.618566
O O9 0.500000 0.000000 0.000000
O O10 0.258891 0.310170 0.775937
O O11 0.022789 0.383098 0.792840
O O12 0.831135 0.525493 0.552110
O O13 0.399861 0.518049 0.067669
O O14 0.500000 0.500000 0.500000
O O15 0.000000 0.500000 0.000000
O O16 0.703538 0.717011 0.400113
O O17 0.000000 0.500000 0.500000
#
# Coordination Sequence:
#
# PCOD8017736 Si02
#       7
#     2   2   2   2   2   2   2
#     4  11  25  45  65  97 132 167 222 267 317 397
#     4  11  25  44  69  98 133 173 213 267 328 386
#     4  11  23  39  65  97 129 169 211 266 325 378
#     4  11  24  43  67  98 133 172 218 271 322 383
#     4  12  27  46  68  95 130 175 219 268 327 385
#     4  10  23  42  68 100 133 172 216 266 326 388
#     4  10  22  39  64  99 135 170 217 269 321 383
#
# _framework density 22.689512000000001
#
# number of rings (size 3 to 8) (size 9 to 14) (size 15 to 20)
#    0.000    1.143    0.000    6.429    0.000   17.143 
#    0.000    1.429    0.000    0.000    0.000    0.000 
#    0.000    0.000    0.000    0.000    0.000    0.000 
#
# Total GULP energy -173518.614248 kJ/mol
# GULP energy per Si atom -12394.186732 kJ/mol
# Density = 2.263787 g / cm^3
# Si number density = 22.689512 Si / 1000 Ang^3
#
#
#
# Elastic Constant Matrix: (Units=GPa)
#
#
# Indices 1 2 3 4 5 6 
#
# 1 115.8051 30.3395 24.7242 -0.0220 -6.7094 -4.0593
# 2 30.3395 130.5912 31.2442 12.3544 -2.8394 8.9592
# 3 24.7242 31.2442 129.4238 13.2528 -5.0915 -4.9914
# 4 -0.0220 12.3544 13.2528 34.0541 7.2981 0.3511
# 5 -6.7094 -2.8394 -5.0915 7.2981 47.4409 -2.3011
# 6 -4.0593 8.9592 -4.9914 0.3511 -2.3011 30.1174
#
#
#
# Elastic Compliance Matrix: (Units=1/GPa)
#
#
# Indices 1 2 3 4 5 6 
#
# 1 0.009591 -0.002111 -0.001322 0.001051 0.001012 0.001766
# 2 -0.002111 0.009011 -0.001607 -0.002682 0.000327 -0.003175
# 3 -0.001322 -0.001607 0.008809 -0.003130 0.001235 0.001891
# 4 0.001051 -0.002682 -0.003130 0.032718 -0.005399 -0.000373
# 5 0.001012 0.000327 0.001235 -0.005399 0.022302 0.002011
# 6 0.001766 -0.003175 0.001891 -0.000373 0.002011 0.034857
#
#
# Mechanical properties :
#
#
# Convention : Reuss Voigt Hill
#
# Bulk Modulus (GPa) = 57.69903 60.93734 59.31819
# Shear Modulus (GPa) = 37.55266 41.62328 39.58797
#
# Velocity S-wave (km/s) = 4.07266 4.28772 4.18158
# Velocity P-wave (km/s) = 6.89931 7.17134 7.03664
#
# Compressibility (1/GPa) = 0.01733131
#
# Stress axis : x y z
#
# Youngs Moduli (GPa) = 104.26190 110.97537 113.51741
#
# Poissons Ratio (x) = 0.23422 0.15012
# Poissons Ratio (y) = 0.22005 0.18243
# Poissons Ratio (z) = 0.13788 0.17835
#
# Static dielectric constant tensor:
#      x y z
#    x 4.315790 0.082880 -0.180820 
#    y 0.082880 3.932210 -0.288620 
#    z -0.180820 -0.288620 4.098480 
# 
# 
# High freq. dielectric constant tensor:
#      x y z
#    x 1.903910 0.010460 0.001620 
#    y 0.010460 1.897840 0.004080 
#    z 0.001620 0.004080 1.907730 
# 
# From -- ./inp_files/519892.got.cif
#   From: 2010.06.25/outbox.cif.g09.slc.cpg/sg2_260_cif.got.tgz:519892.got - 2010.06.27 13:26:56.
