data_PCOD8017112
_publ_section_title
;
Structure prediction by ZEFSAII (Michael W. Deem and Ramdas Pophale) SiO2 
 PCOD8017112
Probable space group: P -1
;
_chemical_formula_sum "Si O2"
_cell_formula_units_Z 16
_cell_length_a 14.787383
_cell_length_b 21.682131
_cell_length_c 11.370408
_cell_angle_alpha 46.278946
_cell_angle_beta 151.430540
_cell_angle_gamma 151.190324
_cell_volume 790.061384
_symmetry_space_group_name_H-M "P -1"
_symmetry_group_IT_number 2
_symmetry_cell_setting 'triclinic'
loop_
_space_group_symop_operation_xyz
x,y,z
-x,-y,-z
loop_
_atom_site_type_symbol
_atom_site_label
_atom_site_fract_x
_atom_site_fract_y
_atom_site_fract_z
Si Si1 0.604662 0.630444 0.968629
Si Si2 0.604084 0.305433 0.534967
Si Si3 0.232625 0.888119 0.428185
Si Si4 0.175402 0.550316 0.755088
Si Si5 0.618311 0.794515 0.340596
Si Si6 0.786195 0.041070 0.285178
Si Si7 0.885626 0.007139 0.676437
Si Si8 0.455255 0.796615 0.896891
O O1 0.482557 0.640234 0.705544
O O2 0.489260 0.617714 0.984654
O O3 0.500000 0.500000 0.000000
O O4 0.963093 0.759911 0.208625
O O5 0.582841 0.314955 0.639297
O O6 0.393304 0.156002 0.441140
O O7 0.961781 0.415428 0.771792
O O8 0.319748 0.845136 0.679957
O O9 0.500000 0.000000 0.500000
O O10 0.141610 0.949366 0.292702
O O11 0.249284 0.665413 0.751560
O O12 0.000000 0.500000 0.500000
O O13 0.713958 0.919005 0.334295
O O14 0.450903 0.752255 0.080754
O O15 0.908596 0.832204 0.608119
O O16 0.871406 0.076537 0.471671
O O17 0.500000 0.000000 0.000000
O O18 0.207684 0.073916 0.942187
#
# Coordination Sequence:
#
# PCOD8017112 Si02
#       8
#     2   2   2   2   2   2   2   2
#     4  11  24  42  61  87 125 162 207 254 309 374
#     4  10  22  41  64  89 122 164 208 255 306 364
#     4  12  25  35  63  96 122 161 206 254 305 363
#     4  10  22  41  63  82 124 170 201 247 314 366
#     4   9  20  37  61  91 120 160 207 251 301 364
#     4   9  17  34  59  86 127 165 192 243 313 364
#     4  10  22  38  59  95 127 155 200 259 302 361
#     4  11  22  42  64  89 130 163 200 253 313 364
#
# _framework density 20.251591000000001
#
# number of rings (size 3 to 8) (size 9 to 14) (size 15 to 20)
#    0.000    1.750    1.250    3.750    5.250    2.500 
#    2.250    0.000    0.000    1.500    0.000    0.000 
#    0.000    0.000    0.000    0.000    0.000    0.000 
#
# Total GULP energy -198208.945412 kJ/mol
# GULP energy per Si atom -12388.059088 kJ/mol
# Density = 2.020550 g / cm^3
# Si number density = 20.251591 Si / 1000 Ang^3
#
#
#
# Elastic Constant Matrix: (Units=GPa)
#
#
# Indices 1 2 3 4 5 6 
#
# 1 107.3626 46.8125 27.7804 -3.0088 -2.4828 21.3998
# 2 46.8125 101.5719 24.1976 11.5247 3.5006 10.4785
# 3 27.7804 24.1976 81.3642 -2.6370 4.4114 12.3693
# 4 -3.0088 11.5247 -2.6370 37.6842 -0.4236 3.0487
# 5 -2.4828 3.5006 4.4114 -0.4236 31.7867 3.6369
# 6 21.3998 10.4785 12.3693 3.0487 3.6369 39.8719
#
#
#
# Elastic Compliance Matrix: (Units=1/GPa)
#
#
# Indices 1 2 3 4 5 6 
#
# 1 0.013595 -0.005618 -0.002157 0.003139 0.002666 -0.005634
# 2 -0.005618 0.013509 -0.002266 -0.004815 -0.001756 0.000696
# 3 -0.002157 -0.002266 0.014245 0.001715 -0.001569 -0.002654
# 4 0.003139 -0.004815 0.001715 0.028658 0.001292 -0.003260
# 5 0.002666 -0.001756 -0.001569 0.001292 0.032502 -0.003546
# 6 -0.005634 0.000696 -0.002654 -0.003260 -0.003546 0.029317
#
#
# Mechanical properties :
#
#
# Convention : Reuss Voigt Hill
#
# Bulk Modulus (GPa) = 47.02372 54.20887 50.61629
# Shear Modulus (GPa) = 31.44690 34.63576 33.04133
#
# Velocity S-wave (km/s) = 3.94485 4.14003 4.04362
# Velocity P-wave (km/s) = 6.63470 7.04833 6.84464
#
# Compressibility (1/GPa) = 0.02126586
#
# Stress axis : x y z
#
# Youngs Moduli (GPa) = 73.55772 74.02200 70.20018
#
# Poissons Ratio (x) = 0.41589 0.15143
# Poissons Ratio (y) = 0.41328 0.15908
# Poissons Ratio (z) = 0.15867 0.16774
#
# Static dielectric constant tensor:
#      x y z
#    x -6.422780 -12.756950 5.943420 
#    y -12.756950 -12.101260 6.999310 
#    z 5.943420 6.999310 0.843260 
# 
# 
# High freq. dielectric constant tensor:
#      x y z
#    x 1.803850 0.006650 0.005050 
#    y 0.006650 1.774670 0.012310 
#    z 0.005050 0.012310 1.788370 
# 
# From -- ./inp_files/455525.got.cif
#   From: 2010.06.25/outbox.cif.g09.slc.cpg/sg2_228_cif.got.tgz:455525.got - 2010.06.27 13:26:56.
