data_PCOD8017280
_publ_section_title
;
Structure prediction by ZEFSAII (Michael W. Deem and Ramdas Pophale) SiO2 
 PCOD8017280
Probable space group: P -1
;
_chemical_formula_sum "Si O2"
_cell_formula_units_Z 12
_cell_length_a 9.272565
_cell_length_b 10.326209
_cell_length_c 9.248278
_cell_angle_alpha 58.809824
_cell_angle_beta 133.317009
_cell_angle_gamma 120.367945
_cell_volume 534.848622
_symmetry_space_group_name_H-M "P -1"
_symmetry_group_IT_number 2
_symmetry_cell_setting 'triclinic'
loop_
_space_group_symop_operation_xyz
x,y,z
-x,-y,-z
loop_
_atom_site_type_symbol
_atom_site_label
_atom_site_fract_x
_atom_site_fract_y
_atom_site_fract_z
Si Si1 0.764417 0.685134 0.063118
Si Si2 0.527548 0.149730 0.536579
Si Si3 0.669438 0.132773 0.965079
Si Si4 0.905390 0.911207 0.783547
Si Si5 0.341083 0.645553 0.929056
Si Si6 0.119516 0.735298 0.466642
O O1 0.698027 0.541046 0.989469
O O2 0.906005 0.630354 0.316249
O O3 0.893182 0.839816 0.979730
O O4 0.565214 0.725200 0.973053
O O5 0.619526 0.127758 0.766319
O O6 0.305182 0.186058 0.381870
O O7 0.689072 0.288591 0.485454
O O8 0.500000 0.000000 0.500000
O O9 0.668983 0.296912 0.946777
O O10 0.897021 0.109389 0.154652
O O11 0.500000 0.000000 0.000000
O O12 0.910236 0.091625 0.675885
O O13 0.165441 0.699714 0.684023
#
# Coordination Sequence:
#
# PCOD8017280 Si02
#       6
#     2   2   2   2   2   2
#     4  11  23  43  68  92 128 181 212 251 326 388
#     4  10  22  38  65  94 125 164 214 257 316 382
#     4  12  25  41  63 101 132 161 212 279 319 365
#     4  11  23  39  70  95 124 170 216 262 319 381
#     4  11  26  42  64  97 135 163 216 270 313 378
#     4  11  21  40  70  94 121 173 222 256 310 390
#
# _framework density 22.436254000000002
#
# number of rings (size 3 to 8) (size 9 to 14) (size 15 to 20)
#    0.000    1.000    3.333    4.000    4.667    4.667 
#    0.000    0.833    0.000    0.000    0.000    0.000 
#    0.000    0.000    0.000    0.000    0.000    0.000 
#
# Total GULP energy -148733.039723 kJ/mol
# GULP energy per Si atom -12394.419977 kJ/mol
# Density = 2.238519 g / cm^3
# Si number density = 22.436254 Si / 1000 Ang^3
#
#
#
# Elastic Constant Matrix: (Units=GPa)
#
#
# Indices 1 2 3 4 5 6 
#
# 1 114.4119 37.9330 33.4872 8.0492 24.6044 -10.1998
# 2 37.9330 55.8569 27.6848 19.5211 -0.7253 -15.9584
# 3 33.4872 27.6848 103.8959 16.7439 11.3410 -10.0564
# 4 8.0492 19.5211 16.7439 30.0132 3.2308 -4.1669
# 5 24.6044 -0.7253 11.3410 3.2308 50.8867 5.3075
# 6 -10.1998 -15.9584 -10.0564 -4.1669 5.3075 30.9008
#
#
#
# Elastic Compliance Matrix: (Units=1/GPa)
#
#
# Indices 1 2 3 4 5 6 
#
# 1 0.013742 -0.010008 -0.001706 0.004585 -0.006759 0.000592
# 2 -0.010008 0.035575 -0.002990 -0.017961 0.006043 0.010636
# 3 -0.001706 -0.002990 0.011940 -0.003848 -0.001798 0.001569
# 4 0.004585 -0.017961 -0.003848 0.046098 -0.004328 -0.002055
# 5 -0.006759 0.006043 -0.001798 -0.004328 0.024143 -0.004426
# 6 0.000592 0.010636 0.001569 -0.002055 -0.004426 0.039043
#
#
# Mechanical properties :
#
#
# Convention : Reuss Voigt Hill
#
# Bulk Modulus (GPa) = 31.39771 52.48609 41.94190
# Shear Modulus (GPa) = 23.74571 34.03078 28.88825
#
# Velocity S-wave (km/s) = 3.25678 3.89881 3.59217
# Velocity P-wave (km/s) = 5.30723 6.61149 5.99494
#
# Compressibility (1/GPa) = 0.03184946
#
# Stress axis : x y z
#
# Youngs Moduli (GPa) = 72.77219 28.10952 83.75373
#
# Poissons Ratio (x) = 0.28131 0.14291
# Poissons Ratio (y) = 0.72827 0.25039
# Poissons Ratio (z) = 0.12417 0.08404
#
# Static dielectric constant tensor:
#      x y z
#    x 4.629820 0.280710 0.493000 
#    y 0.280710 3.952640 0.398370 
#    z 0.493000 0.398370 4.553070 
# 
# 
# High freq. dielectric constant tensor:
#      x y z
#    x 1.876860 0.016390 0.023790 
#    y 0.016390 1.867360 0.011510 
#    z 0.023790 0.011510 1.898240 
# 
# From -- ./inp_files/157781.got.cif
#   From: 2010.06.25/outbox.cif.g09.slc.cpg/sg2_79_cif.got.tgz:157781.got - 2010.06.27 13:26:56.
