data_PCOD8017830
_publ_section_title
;
Structure prediction by ZEFSAII (Michael W. Deem and Ramdas Pophale) SiO2 
 PCOD8017830
Probable space group: P -1
;
_chemical_formula_sum "Si O2"
_cell_formula_units_Z 16
_cell_length_a 5.395436
_cell_length_b 17.373144
_cell_length_c 18.774225
_cell_angle_alpha 29.510426
_cell_angle_beta 125.884075
_cell_angle_gamma 131.820892
_cell_volume 645.925348
_symmetry_space_group_name_H-M "P -1"
_symmetry_group_IT_number 2
_symmetry_cell_setting 'triclinic'
loop_
_space_group_symop_operation_xyz
x,y,z
-x,-y,-z
loop_
_atom_site_type_symbol
_atom_site_label
_atom_site_fract_x
_atom_site_fract_y
_atom_site_fract_z
Si Si1 0.251033 0.644495 0.137867
Si Si2 0.144881 0.061360 0.061261
Si Si3 0.770501 0.254619 0.787559
Si Si4 0.598714 0.416605 0.374523
Si Si5 0.456601 0.216671 0.375894
Si Si6 0.550551 0.857760 0.307976
Si Si7 0.278985 0.830040 0.689269
Si Si8 0.858754 0.825833 0.877322
O O1 0.325234 0.704796 0.183349
O O2 0.271194 0.461708 0.278022
O O3 0.523678 0.775627 0.027785
O O4 0.910333 0.649265 0.042652
O O5 0.040342 0.072643 0.114811
O O6 0.211410 0.889513 0.210807
O O7 0.854712 0.080366 0.946814
O O8 0.458027 0.228021 0.702965
O O9 0.089468 0.417249 0.683014
O O10 0.677407 0.352215 0.362965
O O11 0.502680 0.267478 0.535207
O O12 0.652269 0.253328 0.304675
O O13 0.104209 0.238518 0.295563
O O14 0.413879 0.032112 0.543787
O O15 0.868560 0.030010 0.243635
O O16 0.485499 0.781157 0.824429
#
# Coordination Sequence:
#
# PCOD8017830 Si02
#       8
#     2   2   2   2   2   2   2   2
#     4   9  22  40  62  86 135 171 216 263 335 389
#     4   9  20  39  63  88 127 167 222 271 327 379
#     4  10  22  41  60  89 132 176 214 268 327 397
#     4  11  24  40  63  92 134 173 215 271 332 396
#     4  10  24  41  69  99 133 172 217 276 341 390
#     4  11  23  36  64  97 124 170 224 269 326 392
#     4  10  23  42  69 100 132 168 221 279 334 395
#     4  10  22  39  66  95 127 168 218 276 324 393
#
# _framework density 24.770664
#
# number of rings (size 3 to 8) (size 9 to 14) (size 15 to 20)
#    0.000    2.000    0.000    1.500   10.500    8.000 
#    0.000    1.250    0.000    0.000    0.000    0.000 
#    0.000    0.000    0.000    0.000    0.000    0.000 
#
# Total GULP energy -198212.014979 kJ/mol
# GULP energy per Si atom -12388.250936 kJ/mol
# Density = 2.471428 g / cm^3
# Si number density = 24.770664 Si / 1000 Ang^3
#
#
#
# Elastic Constant Matrix: (Units=GPa)
#
#
# Indices 1 2 3 4 5 6 
#
# 1 93.3665 12.8078 38.4431 1.1939 18.0693 -6.8406
# 2 12.8078 65.1447 36.8369 8.4209 17.3261 4.3551
# 3 38.4431 36.8369 142.6279 13.3897 13.4772 -15.2479
# 4 1.1939 8.4209 13.3897 33.0949 4.7798 5.4777
# 5 18.0693 17.3261 13.4772 4.7798 27.3140 -7.5548
# 6 -6.8406 4.3551 -15.2479 5.4777 -7.5548 15.1448
#
#
#
# Elastic Compliance Matrix: (Units=1/GPa)
#
#
# Indices 1 2 3 4 5 6 
#
# 1 0.013690 0.002325 -0.004095 0.002859 -0.010339 -0.004799
# 2 0.002325 0.027764 -0.009208 0.004939 -0.023719 -0.029823
# 3 -0.004095 -0.009208 0.012515 -0.007366 0.009404 0.020753
# 4 0.002859 0.004939 -0.007366 0.039184 -0.016535 -0.029966
# 5 -0.010339 -0.023719 0.009404 -0.016535 0.071480 0.053257
# 6 -0.004799 -0.029823 0.020753 -0.029966 0.053257 0.130738
#
#
# Mechanical properties :
#
#
# Convention : Reuss Voigt Hill
#
# Bulk Modulus (GPa) = 31.23736 53.03494 42.13615
# Shear Modulus (GPa) = 15.24400 29.31415 22.27908
#
# Velocity S-wave (km/s) = 2.48343 3.44382 3.00228
# Velocity P-wave (km/s) = 4.56741 6.10492 5.39126
#
# Compressibility (1/GPa) = 0.03201295
#
# Stress axis : x y z
#
# Youngs Moduli (GPa) = 73.04435 36.01800 79.90590
#
# Poissons Ratio (x) = -0.08374 0.32722
# Poissons Ratio (y) = -0.16983 0.73577
# Poissons Ratio (z) = 0.29912 0.33165
#
# Static dielectric constant tensor:
#      x y z
#    x 4.819380 -0.154030 0.378130 
#    y -0.154030 4.165210 0.046580 
#    z 0.378130 0.046580 4.552840 
# 
# 
# High freq. dielectric constant tensor:
#      x y z
#    x 1.994930 -0.012030 0.002630 
#    y -0.012030 1.967390 0.005320 
#    z 0.002630 0.005320 1.986910 
# 
# From -- ./inp_files/550547.got.cif
#   From: 2010.06.25/outbox.cif.g09.slc.cpg/sg2_276_cif.got.tgz:550547.got - 2010.06.27 13:26:56.
