data_PCOD8017995
_publ_section_title
;
Structure prediction by ZEFSAII (Michael W. Deem and Ramdas Pophale) SiO2 
 PCOD8017995
Probable space group: P -1
;
_chemical_formula_sum "Si O2"
_cell_formula_units_Z 16
_cell_length_a 12.739037
_cell_length_b 12.629887
_cell_length_c 13.949049
_cell_angle_alpha 53.331893
_cell_angle_beta 118.428699
_cell_angle_gamma 73.798861
_cell_volume 952.837262
_symmetry_space_group_name_H-M "P -1"
_symmetry_group_IT_number 2
_symmetry_cell_setting 'triclinic'
loop_
_space_group_symop_operation_xyz
x,y,z
-x,-y,-z
loop_
_atom_site_type_symbol
_atom_site_label
_atom_site_fract_x
_atom_site_fract_y
_atom_site_fract_z
Si Si1 0.594833 0.836506 0.851395
Si Si2 0.884504 0.484698 0.006910
Si Si3 0.934739 0.909682 0.036327
Si Si4 0.494714 0.793720 0.330921
Si Si5 0.134503 0.543205 0.456955
Si Si6 0.181321 0.517947 0.224092
Si Si7 0.841522 0.773124 0.577714
Si Si8 0.887498 0.508776 0.315240
O O1 0.711867 0.697072 0.881854
O O2 0.587517 0.998616 0.773660
O O3 0.375376 0.973610 0.662542
O O4 0.687421 0.693821 0.065158
O O5 0.799946 0.474114 0.886700
O O6 0.000000 0.500000 0.000000
O O7 0.037616 0.267525 0.258797
O O8 0.047398 0.756966 0.262640
O O9 0.996223 0.765120 0.050086
O O10 0.696017 0.120858 0.831845
O O11 0.000000 0.000000 0.000000
O O12 0.648888 0.682452 0.370561
O O13 0.614986 0.612072 0.566535
O O14 0.160328 0.532739 0.588155
O O15 0.968733 0.580966 0.339233
O O16 0.151198 0.391972 0.311665
O O17 0.948253 0.711835 0.557057
#
# Coordination Sequence:
#
# PCOD8017995 Si02
#       8
#     2   2   2   2   2   2   2   2
#     4  10  17  27  45  68  93 129 153 179 232 281
#     4   9  17  26  42  63  98 125 151 187 223 278
#     4  11  21  35  50  64  92 126 162 198 230 268
#     4  10  18  31  46  68  95 122 161 187 229 281
#     4  10  20  30  46  69  94 129 153 192 233 265
#     4   9  18  31  43  68  94 124 155 192 231 265
#     4   9  16  29  44  69 100 125 149 182 227 285
#     4  10  17  30  45  67 103 124 150 189 227 281
#
# _framework density 16.791955000000002
#
# number of rings (size 3 to 8) (size 9 to 14) (size 15 to 20)
#    0.000    2.250    5.000    1.500    0.000    9.000 
#    0.000    0.000    0.000    0.000    0.000    3.500 
#    0.000   10.000    0.000    0.000    0.000    0.000 
#
# Total GULP energy -198254.808419 kJ/mol
# GULP energy per Si atom -12390.925526 kJ/mol
# Density = 1.675374 g / cm^3
# Si number density = 16.791955 Si / 1000 Ang^3
#
#
#
# Elastic Constant Matrix: (Units=GPa)
#
#
# Indices 1 2 3 4 5 6 
#
# 1 69.8668 47.6224 55.9498 6.1617 0.1736 -21.9410
# 2 47.6224 75.6186 53.8444 15.3708 -3.9818 -37.5919
# 3 55.9498 53.8444 126.1535 9.2884 15.6283 -28.0947
# 4 6.1617 15.3708 9.2884 19.8045 -6.3650 -9.3399
# 5 0.1736 -3.9818 15.6283 -6.3650 26.4574 1.2042
# 6 -21.9410 -37.5919 -28.0947 -9.3399 1.2042 29.5982
#
#
#
# Elastic Compliance Matrix: (Units=1/GPa)
#
#
# Indices 1 2 3 4 5 6 
#
# 1 0.030199 -0.016400 -0.008375 0.006420 0.004031 -0.004531
# 2 -0.016400 0.052378 -0.004829 -0.009212 0.006505 0.046611
# 3 -0.008375 -0.004829 0.015750 -0.003653 -0.010941 0.001900
# 4 0.006420 -0.009212 -0.003653 0.067478 0.016498 0.010214
# 5 0.004031 0.006505 -0.010941 0.016498 0.048995 0.004079
# 6 -0.004531 0.046611 0.001900 0.010214 0.004079 0.094487
#
#
# Mechanical properties :
#
#
# Convention : Reuss Voigt Hill
#
# Bulk Modulus (GPa) = 25.56364 65.16356 45.36360
# Shear Modulus (GPa) = 13.10493 22.78684 17.94588
#
# Velocity S-wave (km/s) = 2.79665 3.68776 3.27267
# Velocity P-wave (km/s) = 5.06805 7.55138 6.43073
#
# Compressibility (1/GPa) = 0.03911807
#
# Stress axis : x y z
#
# Youngs Moduli (GPa) = 33.11351 19.09204 63.49269
#
# Poissons Ratio (x) = 0.31312 0.53173
# Poissons Ratio (y) = 0.54307 0.30664
# Poissons Ratio (z) = 0.27731 0.09220
#
# Static dielectric constant tensor:
#      x y z
#    x 2.762100 -0.233260 0.187850 
#    y -0.233260 3.063120 0.364210 
#    z 0.187850 0.364210 3.649180 
# 
# 
# High freq. dielectric constant tensor:
#      x y z
#    x 1.602570 -0.040650 0.019000 
#    y -0.040650 1.625630 0.016060 
#    z 0.019000 0.016060 1.662740 
# 
# From -- ./inp_files/431234.got.cif
#   From: 2010.06.25/outbox.cif.g09.slc.cpg/sg2_216_cif.got.tgz:431234.got - 2010.06.27 13:26:56.
