data_PCOD8017363
_publ_section_title
;
Structure prediction by ZEFSAII (Michael W. Deem and Ramdas Pophale) SiO2 
 PCOD8017363
Probable space group: P -1
;
_chemical_formula_sum "Si O2"
_cell_formula_units_Z 16
_cell_length_a 11.664512
_cell_length_b 13.285521
_cell_length_c 6.986747
_cell_angle_alpha 84.663186
_cell_angle_beta 75.946039
_cell_angle_gamma 130.209307
_cell_volume 755.154046
_symmetry_space_group_name_H-M "P -1"
_symmetry_group_IT_number 2
_symmetry_cell_setting 'triclinic'
loop_
_space_group_symop_operation_xyz
x,y,z
-x,-y,-z
loop_
_atom_site_type_symbol
_atom_site_label
_atom_site_fract_x
_atom_site_fract_y
_atom_site_fract_z
Si Si1 0.809433 0.398930 0.063208
Si Si2 0.713327 0.206783 0.806112
Si Si3 0.351848 0.001242 0.836706
Si Si4 0.863435 0.955355 0.206190
Si Si5 0.342241 0.476011 0.797224
Si Si6 0.800555 0.216959 0.356741
Si Si7 0.293483 0.328305 0.472118
Si Si8 0.910772 0.747504 0.783920
O O1 0.728881 0.457799 0.130070
O O2 0.733916 0.278698 0.272623
O O3 0.767895 0.340437 0.872079
O O4 0.000000 0.500000 0.000000
O O5 0.819305 0.241491 0.572232
O O6 0.536111 0.121700 0.805210
O O7 0.735005 0.126364 0.956891
O O8 0.328232 0.944669 0.638426
O O9 0.267756 0.060958 0.866257
O O10 0.767296 0.811240 0.382427
O O11 0.960860 0.084469 0.290791
O O12 0.000000 0.000000 0.000000
O O13 0.314461 0.431058 0.596374
O O14 0.538143 0.590527 0.729563
O O15 0.241626 0.335212 0.991273
O O16 0.986153 0.294326 0.206615
O O17 0.157469 0.291663 0.394305
#
# Coordination Sequence:
#
# PCOD8017363 Si02
#       8
#     2   2   2   2   2   2   2   2
#     4  11  24  41  63  96 132 164 217 273 315 383
#     4  10  22  41  66  92 127 175 205 261 340 385
#     4   9  22  42  61  96 131 161 212 272 323 386
#     4  11  23  42  68  97 130 163 217 279 319 377
#     4  11  25  47  64  93 135 173 219 273 314 387
#     4  10  22  38  68  95 126 167 212 268 327 391
#     4  11  26  44  69  92 128 183 216 263 329 381
#     4  11  23  43  68  96 130 169 219 269 323 391
#
# _framework density 21.187730999999999
#
# number of rings (size 3 to 8) (size 9 to 14) (size 15 to 20)
#    0.000    1.500    2.500    1.125    5.250    2.500 
#    6.750    0.000    0.000    0.000    0.000    0.000 
#    0.000    0.000    0.000    0.000    0.000    0.000 
#
# Total GULP energy -198297.315342 kJ/mol
# GULP energy per Si atom -12393.582209 kJ/mol
# Density = 2.113951 g / cm^3
# Si number density = 21.187731 Si / 1000 Ang^3
#
#
#
# Elastic Constant Matrix: (Units=GPa)
#
#
# Indices 1 2 3 4 5 6 
#
# 1 102.9260 44.9551 27.7274 15.9874 2.1660 8.4453
# 2 44.9551 107.2738 39.1837 14.1173 -4.6992 11.8406
# 3 27.7274 39.1837 94.1084 14.9839 -9.5137 6.3370
# 4 15.9874 14.1173 14.9839 40.1959 3.3236 -1.4602
# 5 2.1660 -4.6992 -9.5137 3.3236 32.3380 4.0506
# 6 8.4453 11.8406 6.3370 -1.4602 4.0506 29.8868
#
#
#
# Elastic Compliance Matrix: (Units=1/GPa)
#
#
# Indices 1 2 3 4 5 6 
#
# 1 0.012575 -0.004229 -0.001528 -0.002884 -0.001422 -0.001502
# 2 -0.004229 0.013090 -0.003477 -0.001899 0.001807 -0.003591
# 3 -0.001528 -0.003477 0.013661 -0.003680 0.004225 -0.001840
# 4 -0.002884 -0.001899 -0.003680 0.028608 -0.004654 0.004376
# 5 -0.001422 0.001807 0.004225 -0.004654 0.033755 -0.006012
# 6 -0.001502 -0.003591 -0.001840 0.004376 -0.006012 0.036726
#
#
# Mechanical properties :
#
#
# Convention : Reuss Voigt Hill
#
# Bulk Modulus (GPa) = 47.94267 58.67119 53.30693
# Shear Modulus (GPa) = 30.51847 33.31362 31.91605
#
# Velocity S-wave (km/s) = 3.79936 3.96953 3.88538
# Velocity P-wave (km/s) = 6.47484 6.98290 6.73366
#
# Compressibility (1/GPa) = 0.02085825
#
# Stress axis : x y z
#
# Youngs Moduli (GPa) = 79.51973 76.39569 73.20219
#
# Poissons Ratio (x) = 0.32307 0.11183
# Poissons Ratio (y) = 0.33628 0.25455
# Poissons Ratio (z) = 0.12149 0.26565
#
# Static dielectric constant tensor:
#      x y z
#    x 3.990990 -0.085040 0.027790 
#    y -0.085040 4.254030 -0.085570 
#    z 0.027790 -0.085570 3.915290 
# 
# 
# High freq. dielectric constant tensor:
#      x y z
#    x 1.836200 0.007590 -0.000990 
#    y 0.007590 1.839030 0.004730 
#    z -0.000990 0.004730 1.824880 
# 
# From -- ./inp_files/77607.got.cif
#   From: 2010.06.25/outbox.cif.g09.slc.cpg/sg2_39_cif.got.tgz:77607.got - 2010.06.27 13:26:56.
