data_PCOD8017916
_publ_section_title
;
Structure prediction by ZEFSAII (Michael W. Deem and Ramdas Pophale) SiO2 
 PCOD8017916
Probable space group: P -1
;
_chemical_formula_sum "Si O2"
_cell_formula_units_Z 16
_cell_length_a 14.575224
_cell_length_b 11.775256
_cell_length_c 14.569366
_cell_angle_alpha 141.812440
_cell_angle_beta 149.291144
_cell_angle_gamma 56.441920
_cell_volume 727.087632
_symmetry_space_group_name_H-M "P -1"
_symmetry_group_IT_number 2
_symmetry_cell_setting 'triclinic'
loop_
_space_group_symop_operation_xyz
x,y,z
-x,-y,-z
loop_
_atom_site_type_symbol
_atom_site_label
_atom_site_fract_x
_atom_site_fract_y
_atom_site_fract_z
Si Si1 0.247882 0.783110 0.562419
Si Si2 0.126872 0.042288 0.991109
Si Si3 0.728543 0.569043 0.753368
Si Si4 0.786292 0.334738 0.199058
Si Si5 0.477525 0.790079 0.943596
Si Si6 0.679999 0.310444 0.890019
Si Si7 0.821682 0.656202 0.096974
Si Si8 0.260714 0.093503 0.336262
O O1 0.206031 0.589044 0.341343
O O2 0.311535 0.749508 0.698023
O O3 0.043928 0.817217 0.405992
O O4 0.423874 0.976093 0.795296
O O5 0.898922 0.910851 0.728969
O O6 0.220599 0.889174 0.941734
O O7 0.159164 0.208530 0.047721
O O8 0.216362 0.152439 0.233884
O O9 0.500000 0.500000 0.500000
O O10 0.785646 0.571241 0.909446
O O11 0.634302 0.344531 0.151770
O O12 0.000000 0.500000 0.500000
O O13 0.711762 0.377684 0.065056
O O14 0.656841 0.738281 0.030752
O O15 0.815588 0.481991 0.049748
O O16 0.732655 0.122266 0.797463
O O17 0.457649 0.266689 0.647303
#
# Coordination Sequence:
#
# PCOD8017916 Si02
#       8
#     2   2   2   2   2   2   2   2
#     4  11  25  46  68 101 140 176 225 276 337 404
#     4  10  22  39  68  96 128 173 226 268 337 394
#     4  12  23  42  71 102 133 177 225 284 335 394
#     4  11  25  44  66  94 135 179 224 272 335 404
#     4  11  26  46  68  96 142 183 217 279 340 404
#     4  10  22  41  63  97 130 169 219 278 330 391
#     4  12  25  43  72 100 136 178 229 274 340 400
#     4   9  20  40  65  94 132 166 217 288 328 382
#
# _framework density 22.005600999999999
#
# number of rings (size 3 to 8) (size 9 to 14) (size 15 to 20)
#    0.000    1.250    1.250    3.750    3.500    4.500 
#    4.500    0.000    0.000    0.000    0.000    0.000 
#    0.000    0.000    0.000    0.000    0.000    0.000 
#
# Total GULP energy -198440.548795 kJ/mol
# GULP energy per Si atom -12402.534300 kJ/mol
# Density = 2.195552 g / cm^3
# Si number density = 22.005601 Si / 1000 Ang^3
#
#
#
# Elastic Constant Matrix: (Units=GPa)
#
#
# Indices 1 2 3 4 5 6 
#
# 1 115.3300 38.1025 63.0769 -8.9438 1.0988 20.9578
# 2 38.1025 70.7529 28.5328 -4.6575 -2.4086 15.9471
# 3 63.0769 28.5328 117.6104 -22.3049 4.9161 7.4885
# 4 -8.9438 -4.6575 -22.3049 43.1148 -4.5822 7.2459
# 5 1.0988 -2.4086 4.9161 -4.5822 29.1436 -4.3386
# 6 20.9578 15.9471 7.4885 7.2459 -4.3386 40.6131
#
#
#
# Elastic Compliance Matrix: (Units=1/GPa)
#
#
# Indices 1 2 3 4 5 6 
#
# 1 0.014389 -0.004134 -0.006404 -0.000044 -0.000506 -0.004667
# 2 -0.004134 0.018267 -0.001749 0.001165 0.001434 -0.004771
# 3 -0.006404 -0.001749 0.013369 0.005185 -0.001274 0.000465
# 4 -0.000044 0.001165 0.005185 0.027276 0.002622 -0.005977
# 5 -0.000506 0.001434 -0.001274 0.002622 0.035563 0.003264
# 6 -0.004667 -0.004771 0.000465 -0.005977 0.003264 0.030234
#
#
# Mechanical properties :
#
#
# Convention : Reuss Voigt Hill
#
# Bulk Modulus (GPa) = 46.62404 62.56864 54.59634
# Shear Modulus (GPa) = 29.27023 34.17302 31.72162
#
# Velocity S-wave (km/s) = 3.65105 3.94499 3.80086
# Velocity P-wave (km/s) = 6.24555 7.01751 6.64275
#
# Compressibility (1/GPa) = 0.02144816
#
# Stress axis : x y z
#
# Youngs Moduli (GPa) = 69.49911 54.74497 74.80193
#
# Poissons Ratio (x) = 0.22634 0.47903
# Poissons Ratio (y) = 0.28734 0.13086
# Poissons Ratio (z) = 0.44507 0.09577
#
# Static dielectric constant tensor:
#      x y z
#    x 3.975700 0.043960 0.081180 
#    y 0.043960 4.013430 -0.103200 
#    z 0.081180 -0.103200 4.055170 
# 
# 
# High freq. dielectric constant tensor:
#      x y z
#    x 1.868310 0.000550 0.008860 
#    y 0.000550 1.867650 -0.006270 
#    z 0.008860 -0.006270 1.876330 
# 
# From -- ./inp_files/532511.got.cif
#   From: 2010.06.25/outbox.cif.g09.slc.cpg/sg2_267_cif.got.tgz:532511.got - 2010.06.27 13:26:56.
