data_PCOD8017369
_publ_section_title
;
Structure prediction by ZEFSAII (Michael W. Deem and Ramdas Pophale) SiO2 
 PCOD8017369
Probable space group: P -1
;
_chemical_formula_sum "Si O2"
_cell_formula_units_Z 16
_cell_length_a 10.621377
_cell_length_b 12.284543
_cell_length_c 14.029294
_cell_angle_alpha 118.204445
_cell_angle_beta 148.066871
_cell_angle_gamma 82.326640
_cell_volume 698.678298
_symmetry_space_group_name_H-M "P -1"
_symmetry_group_IT_number 2
_symmetry_cell_setting 'triclinic'
loop_
_space_group_symop_operation_xyz
x,y,z
-x,-y,-z
loop_
_atom_site_type_symbol
_atom_site_label
_atom_site_fract_x
_atom_site_fract_y
_atom_site_fract_z
Si Si1 0.201813 0.616536 0.426741
Si Si2 0.717754 0.081216 0.839107
Si Si3 0.230358 0.906809 0.600110
Si Si4 0.684587 0.413074 0.310270
Si Si5 0.802415 0.912189 0.193378
Si Si6 0.329740 0.217518 0.358499
Si Si7 0.554673 0.451294 0.914208
Si Si8 0.655505 0.830229 0.443541
O O1 0.226937 0.759740 0.547334
O O2 0.280045 0.551096 0.538873
O O3 0.406908 0.655225 0.483991
O O4 0.879186 0.495905 0.133115
O O5 0.610734 0.150453 0.721991
O O6 0.513275 0.037683 0.780625
O O7 0.696905 0.938218 0.724607
O O8 0.048081 0.205161 0.133372
O O9 0.937436 0.859975 0.337433
O O10 0.260401 0.974613 0.751727
O O11 0.500676 0.469921 0.173373
O O12 0.000000 0.500000 0.500000
O O13 0.496213 0.232313 0.098696
O O14 0.036309 0.004983 0.296938
O O15 0.373303 0.258777 0.515270
O O16 0.356836 0.270688 0.695061
O O17 0.500000 0.500000 0.000000
#
# Coordination Sequence:
#
# PCOD8017369 Si02
#       8
#     2   2   2   2   2   2   2   2
#     4  11  24  44  69  94 138 185 219 280 346 399
#     4   9  21  40  67  99 142 169 223 290 338 389
#     4   9  19  39  65 101 131 174 218 288 338 394
#     4  12  27  42  67  99 135 181 218 271 350 412
#     4  10  22  38  69 100 133 169 231 276 340 413
#     4  10  23  43  68 103 137 174 233 283 334 402
#     4  12  26  48  68  98 145 177 226 282 343 408
#     4  11  25  42  72 102 133 185 229 280 339 405
#
# _framework density 22.900383999999999
#
# number of rings (size 3 to 8) (size 9 to 14) (size 15 to 20)
#    0.000    1.500    2.500    1.125    8.750    4.000 
#    0.000    1.250    0.000    0.000    0.000    0.000 
#    0.000    0.000    0.000    0.000    0.000    0.000 
#
# Total GULP energy -198425.466619 kJ/mol
# GULP energy per Si atom -12401.591664 kJ/mol
# Density = 2.284826 g / cm^3
# Si number density = 22.900384 Si / 1000 Ang^3
#
#
#
# Elastic Constant Matrix: (Units=GPa)
#
#
# Indices 1 2 3 4 5 6 
#
# 1 98.1205 19.8953 52.3449 -7.0935 5.3793 17.5015
# 2 19.8953 59.2155 29.6889 -6.9670 -4.5958 19.8092
# 3 52.3449 29.6889 142.8887 -2.5286 19.2085 13.3557
# 4 -7.0935 -6.9670 -2.5286 29.6715 5.8588 -4.8702
# 5 5.3793 -4.5958 19.2085 5.8588 29.4244 -2.9872
# 6 17.5015 19.8092 13.3557 -4.8702 -2.9872 36.4217
#
#
#
# Elastic Compliance Matrix: (Units=1/GPa)
#
#
# Indices 1 2 3 4 5 6 
#
# 1 0.013596 -0.000778 -0.004289 0.002127 -0.000668 -0.004308
# 2 -0.000778 0.023300 -0.004265 0.002271 0.005097 -0.010013
# 3 -0.004289 -0.004265 0.010350 0.000182 -0.006668 0.000063
# 4 0.002127 0.002271 0.000182 0.036509 -0.007223 0.001965
# 5 -0.000668 0.005097 -0.006668 -0.007223 0.040937 0.002386
# 6 -0.004308 -0.010013 0.000063 0.001965 0.002386 0.035407
#
#
# Mechanical properties :
#
#
# Convention : Reuss Voigt Hill
#
# Bulk Modulus (GPa) = 34.98862 56.00922 45.49892
# Shear Modulus (GPa) = 26.55481 32.32322 29.43901
#
# Velocity S-wave (km/s) = 3.40895 3.76103 3.58931
# Velocity P-wave (km/s) = 5.55035 6.58569 6.09006
#
# Compressibility (1/GPa) = 0.02858072
#
# Stress axis : x y z
#
# Youngs Moduli (GPa) = 73.55037 42.91899 96.62235
#
# Poissons Ratio (x) = 0.03340 0.41440
# Poissons Ratio (y) = 0.05724 0.41211
# Poissons Ratio (z) = 0.31545 0.18306
#
# Static dielectric constant tensor:
#      x y z
#    x 3.957280 -0.018990 0.111010 
#    y -0.018990 4.098750 -0.133020 
#    z 0.111010 -0.133020 4.188360 
# 
# 
# High freq. dielectric constant tensor:
#      x y z
#    x 1.895210 0.002590 0.006150 
#    y 0.002590 1.902830 -0.009590 
#    z 0.006150 -0.009590 1.905930 
# 
# From -- ./inp_files/519889.got.cif
#   From: 2010.06.25/outbox.cif.g09.slc.cpg/sg2_260_cif.got.tgz:519889.got - 2010.06.27 13:26:56.
