data_PCOD8017921
_publ_section_title
;
Structure prediction by ZEFSAII (Michael W. Deem and Ramdas Pophale) SiO2 
 PCOD8017921
Probable space group: P -1
;
_chemical_formula_sum "Si O2"
_cell_formula_units_Z 14
_cell_length_a 5.338934
_cell_length_b 12.771513
_cell_length_c 12.924961
_cell_angle_alpha 80.095844
_cell_angle_beta 49.685946
_cell_angle_gamma 67.618996
_cell_volume 617.918986
_symmetry_space_group_name_H-M "P -1"
_symmetry_group_IT_number 2
_symmetry_cell_setting 'triclinic'
loop_
_space_group_symop_operation_xyz
x,y,z
-x,-y,-z
loop_
_atom_site_type_symbol
_atom_site_label
_atom_site_fract_x
_atom_site_fract_y
_atom_site_fract_z
Si Si1 0.371869 0.063632 0.418082
Si Si2 0.425749 0.599934 0.643397
Si Si3 0.906700 0.157886 0.237293
Si Si4 0.004857 0.467199 0.667024
Si Si5 0.762300 0.760467 0.040325
Si Si6 0.271223 0.926337 0.304070
Si Si7 0.340028 0.626510 0.065171
O O1 0.504078 0.163937 0.326702
O O2 0.952669 0.116923 0.544029
O O3 0.500000 0.000000 0.500000
O O4 0.519481 0.966274 0.305963
O O5 0.138231 0.726077 0.710714
O O6 0.187920 0.528586 0.685262
O O7 0.716888 0.599372 0.482208
O O8 0.637095 0.552126 0.701629
O O9 0.058782 0.042205 0.280307
O O10 0.144294 0.150738 0.073828
O O11 0.917865 0.371422 0.771203
O O12 0.460978 0.827297 0.190237
O O13 0.635793 0.674533 0.019914
O O14 0.120591 0.699651 0.016825
O O15 0.500000 0.500000 0.000000
#
# Coordination Sequence:
#
# PCOD8017921 Si02
#       7
#     2   2   2   2   2   2   2
#     4   9  22  42  67  93 137 174 226 279 334 400
#     4  10  22  39  68  97 130 171 225 274 342 388
#     4  11  24  41  68  97 138 180 220 284 333 410
#     4  10  22  42  63  97 130 172 225 282 326 402
#     4  12  28  42  73 101 137 183 230 273 344 404
#     4  10  24  44  66 102 135 178 227 280 341 411
#     4  12  26  46  69  97 140 182 228 282 339 405
#
# _framework density 22.656694999999999
#
# number of rings (size 3 to 8) (size 9 to 14) (size 15 to 20)
#    0.000    1.429    0.000    3.429   10.000    2.857 
#    0.000    0.000    0.000    0.000    0.000    0.000 
#    0.000    0.000    0.000    0.000    0.000    0.000 
#
# Total GULP energy -173434.746217 kJ/mol
# GULP energy per Si atom -12388.196158 kJ/mol
# Density = 2.260513 g / cm^3
# Si number density = 22.656695 Si / 1000 Ang^3
#
#
#
# Elastic Constant Matrix: (Units=GPa)
#
#
# Indices 1 2 3 4 5 6 
#
# 1 122.2080 26.3528 33.2516 -9.1658 11.6923 12.8387
# 2 26.3528 71.6112 37.6439 7.2597 2.2195 8.9729
# 3 33.2516 37.6439 120.7004 -11.0947 -3.3103 26.6870
# 4 -9.1658 7.2597 -11.0947 50.1358 9.5781 -6.6654
# 5 11.6923 2.2195 -3.3103 9.5781 26.2303 -1.1263
# 6 12.8387 8.9729 26.6870 -6.6654 -1.1263 33.1367
#
#
#
# Elastic Compliance Matrix: (Units=1/GPa)
#
#
# Indices 1 2 3 4 5 6 
#
# 1 0.010098 -0.002877 -0.001423 0.002789 -0.005525 -0.001614
# 2 -0.002877 0.018248 -0.005174 -0.004522 0.000713 -0.000545
# 3 -0.001423 -0.005174 0.012142 0.001888 0.001597 -0.007393
# 4 0.002789 -0.004522 0.001888 0.023683 -0.009138 0.003077
# 5 -0.005525 0.000713 0.001597 -0.009138 0.044078 0.000321
# 6 -0.001614 -0.000545 -0.007393 0.003077 0.000321 0.037534
#
#
# Mechanical properties :
#
#
# Convention : Reuss Voigt Hill
#
# Bulk Modulus (GPa) = 46.42587 56.55735 51.49161
# Shear Modulus (GPa) = 29.08477 36.38534 32.73506
#
# Velocity S-wave (km/s) = 3.58679 4.01177 3.80521
# Velocity P-wave (km/s) = 6.13913 6.81733 6.48710
#
# Compressibility (1/GPa) = 0.02153971
#
# Stress axis : x y z
#
# Youngs Moduli (GPa) = 99.03295 54.80198 82.35548
#
# Poissons Ratio (x) = 0.15768 0.11717
# Poissons Ratio (y) = 0.28494 0.42611
# Poissons Ratio (z) = 0.14089 0.28355
#
# Static dielectric constant tensor:
#      x y z
#    x 4.884450 0.375250 -0.440790 
#    y 0.375250 3.919050 -0.248720 
#    z -0.440790 -0.248720 4.889260 
# 
# 
# High freq. dielectric constant tensor:
#      x y z
#    x 1.903130 0.014230 0.001240 
#    y 0.014230 1.876050 -0.009200 
#    z 0.001240 -0.009200 1.913400 
# 
# From -- ./inp_files/52909.got.cif
#   From: 2010.06.25/outbox.cif.g09.slc.cpg/sg2_27_cif.got.tgz:52909.got - 2010.06.27 13:26:56.
