data_PCOD8017148
_publ_section_title
;
Structure prediction by ZEFSAII (Michael W. Deem and Ramdas Pophale) SiO2 
 PCOD8017148
Probable space group: P -1
;
_chemical_formula_sum "Si O2"
_cell_formula_units_Z 16
_cell_length_a 11.369196
_cell_length_b 11.946468
_cell_length_c 12.871510
_cell_angle_alpha 61.554793
_cell_angle_beta 54.849737
_cell_angle_gamma 105.865601
_cell_volume 814.362921
_symmetry_space_group_name_H-M "P -1"
_symmetry_group_IT_number 2
_symmetry_cell_setting 'triclinic'
loop_
_space_group_symop_operation_xyz
x,y,z
-x,-y,-z
loop_
_atom_site_type_symbol
_atom_site_label
_atom_site_fract_x
_atom_site_fract_y
_atom_site_fract_z
Si Si1 0.384109 0.006913 0.341930
Si Si2 0.768558 0.556328 0.374583
Si Si3 0.844359 0.064112 0.310974
Si Si4 0.855860 0.241161 0.040208
Si Si5 0.586900 0.365776 0.968952
Si Si6 0.966279 0.438134 0.326501
Si Si7 0.666217 0.590173 0.029383
Si Si8 0.422551 0.339806 0.465975
O O1 0.601474 0.064694 0.209821
O O2 0.408222 0.136468 0.189021
O O3 0.340452 0.038714 0.462327
O O4 0.176295 0.783507 0.513854
O O5 0.826614 0.458664 0.443283
O O6 0.564476 0.397693 0.468990
O O7 0.710296 0.618883 0.464207
O O8 0.989212 0.749566 0.112298
O O9 0.869728 0.210461 0.166449
O O10 0.759336 0.891923 0.358175
O O11 0.082104 0.190971 0.183318
O O12 0.952709 0.450295 0.877638
O O13 0.653573 0.486098 0.985913
O O14 0.485480 0.388552 0.923515
O O15 0.811764 0.451869 0.771713
O O16 0.583015 0.465064 0.230793
#
# Coordination Sequence:
#
# PCOD8017148 Si02
#       8
#     2   2   2   2   2   2   2   2
#     4  11  20  35  59  88 115 148 188 235 293 345
#     4   9  21  41  61  80 119 157 187 231 286 338
#     4  12  22  34  59  91 116 148 191 231 293 348
#     4   9  21  35  54  88 114 148 182 237 281 342
#     4  10  22  38  61  81 118 152 191 240 287 337
#     4   9  19  39  57  82 114 156 186 233 285 338
#     4  11  22  40  56  87 120 148 191 241 286 337
#     4  11  22  40  58  88 116 154 191 233 284 342
#
# _framework density 19.647259999999999
#
# number of rings (size 3 to 8) (size 9 to 14) (size 15 to 20)
#    0.750    1.000    3.750    1.125    0.000    2.500 
#    2.250    0.625    0.000    1.500    0.000    0.000 
#    0.000    0.000    0.000    0.000    0.000    0.000 
#
# Total GULP energy -198295.359333 kJ/mol
# GULP energy per Si atom -12393.459958 kJ/mol
# Density = 1.960254 g / cm^3
# Si number density = 19.647260 Si / 1000 Ang^3
#
#
#
# Elastic Constant Matrix: (Units=GPa)
#
#
# Indices 1 2 3 4 5 6 
#
# 1 72.1957 8.6661 22.5917 -12.3550 -13.9931 -17.9731
# 2 8.6661 48.2285 28.7621 -13.5862 -4.8815 -12.3056
# 3 22.5917 28.7621 99.4397 -19.5524 -11.4608 -5.8107
# 4 -12.3550 -13.5862 -19.5524 30.2479 -8.7350 0.1099
# 5 -13.9931 -4.8815 -11.4608 -8.7350 29.7919 3.8011
# 6 -17.9731 -12.3056 -5.8107 0.1099 3.8011 23.2951
#
#
#
# Elastic Compliance Matrix: (Units=1/GPa)
#
#
# Indices 1 2 3 4 5 6 
#
# 1 0.023811 0.007694 -0.001724 0.016031 0.013975 0.019649
# 2 0.007694 0.033966 -0.005906 0.017189 0.009292 0.020808
# 3 -0.001724 -0.005906 0.014265 0.007663 0.006204 -0.001940
# 4 0.016031 0.017189 0.007663 0.060499 0.028686 0.018394
# 5 0.013975 0.009292 0.006204 0.028686 0.051337 0.008726
# 6 0.019649 0.020808 -0.001940 0.018394 0.008726 0.067085
#
#
# Mechanical properties :
#
#
# Convention : Reuss Voigt Hill
#
# Bulk Modulus (GPa) = 13.85618 37.76708 25.81163
# Shear Modulus (GPa) = 18.18901 27.32323 22.75612
#
# Velocity S-wave (km/s) = 3.04596 3.73324 3.40698
# Velocity P-wave (km/s) = 4.40889 6.15200 5.35189
#
# Compressibility (1/GPa) = 0.07216999
#
# Stress axis : x y z
#
# Youngs Moduli (GPa) = 41.99748 29.44100 70.10381
#
# Poissons Ratio (x) = -0.22651 0.12086
# Poissons Ratio (y) = -0.32312 0.41401
# Poissons Ratio (z) = 0.07240 0.17387
#
# Static dielectric constant tensor:
#      x y z
#    x 3.553010 -0.250740 -0.172110 
#    y -0.250740 3.223930 0.070650 
#    z -0.172110 0.070650 3.659740 
# 
# 
# High freq. dielectric constant tensor:
#      x y z
#    x 1.763260 -0.021470 -0.013780 
#    y -0.021470 1.728240 -0.003380 
#    z -0.013780 -0.003380 1.778050 
# 
# From -- ./inp_files/517828.got.cif
#   From: 2010.06.25/outbox.cif.g09.slc.cpg/sg2_259_cif.got.tgz:517828.got - 2010.06.27 13:26:56.
