data_PCOD8017831
_publ_section_title
;
Structure prediction by ZEFSAII (Michael W. Deem and Ramdas Pophale) SiO2 
 PCOD8017831
Probable space group: P -1
;
_chemical_formula_sum "Si O2"
_cell_formula_units_Z 10
_cell_length_a 9.339196
_cell_length_b 11.741064
_cell_length_c 9.206306
_cell_angle_alpha 48.322995
_cell_angle_beta 44.607988
_cell_angle_gamma 77.227928
_cell_volume 464.208469
_symmetry_space_group_name_H-M "P -1"
_symmetry_group_IT_number 2
_symmetry_cell_setting 'triclinic'
loop_
_space_group_symop_operation_xyz
x,y,z
-x,-y,-z
loop_
_atom_site_type_symbol
_atom_site_label
_atom_site_fract_x
_atom_site_fract_y
_atom_site_fract_z
Si Si1 0.682013 0.444306 0.751433
Si Si2 0.745256 0.508968 0.326723
Si Si3 0.566902 0.915741 0.654719
Si Si4 0.857505 0.231261 0.365458
Si Si5 0.811801 0.709579 0.668601
O O1 0.799251 0.490548 0.470575
O O2 0.849376 0.601584 0.603698
O O3 0.660388 0.260797 0.978339
O O4 0.420392 0.424244 0.958223
O O5 0.500000 0.500000 0.500000
O O6 0.740722 0.353666 0.366966
O O7 0.947376 0.691735 0.966525
O O8 0.767481 0.865033 0.506215
O O9 0.500000 0.000000 0.500000
O O10 0.657194 0.044429 0.617954
O O11 0.965945 0.209870 0.455739
#
# Coordination Sequence:
#
# PCOD8017831 Si02
#       5
#     2   2   2   2   2
#     4   9  21  40  67  87 132 167 204 258 320 367
#     4  11  23  39  66  97 126 166 214 258 314 380
#     4  10  22  39  66  95 131 163 207 270 313 360
#     4  11  24  39  69  93 127 167 213 260 315 371
#     4   9  20  41  67  89 125 169 209 253 311 383
#
# _framework density 21.542045000000002
#
# number of rings (size 3 to 8) (size 9 to 14) (size 15 to 20)
#    1.200    0.800    2.000    0.600    8.400    1.600 
#    0.000    1.000    0.000    0.000    0.000    0.000 
#    0.000    0.000    0.000    0.000    0.000    0.000 
#
# Total GULP energy -123959.444782 kJ/mol
# GULP energy per Si atom -12395.944478 kJ/mol
# Density = 2.149301 g / cm^3
# Si number density = 21.542045 Si / 1000 Ang^3
#
#
#
# Elastic Constant Matrix: (Units=GPa)
#
#
# Indices 1 2 3 4 5 6 
#
# 1 148.7027 63.0319 40.4875 -15.7312 11.0379 4.9880
# 2 63.0319 126.3196 53.7316 -22.6191 5.9340 20.9680
# 3 40.4875 53.7316 58.0765 7.3949 21.3089 0.2926
# 4 -15.7312 -22.6191 7.3949 34.3998 -1.5102 -0.8557
# 5 11.0379 5.9340 21.3089 -1.5102 33.2490 -0.1588
# 6 4.9880 20.9680 0.2926 -0.8557 -0.1588 46.3074
#
#
#
# Elastic Compliance Matrix: (Units=1/GPa)
#
#
# Indices 1 2 3 4 5 6 
#
# 1 0.009490 -0.000282 -0.007933 0.005940 0.002251 -0.000727
# 2 -0.000282 0.033311 -0.043072 0.031697 0.023125 -0.014116
# 3 -0.007933 -0.043072 0.086550 -0.052172 -0.047428 0.018684
# 4 0.005940 0.031697 -0.052172 0.064771 0.028685 -0.013367
# 5 0.002251 0.023125 -0.047428 0.028685 0.056855 -0.009689
# 6 -0.000727 -0.014116 0.018684 -0.013367 -0.009689 0.027666
#
#
# Mechanical properties :
#
#
# Convention : Reuss Voigt Hill
#
# Bulk Modulus (GPa) = 37.34688 71.95564 54.65126
# Shear Modulus (GPa) = 12.81583 34.51440 23.66511
#
# Velocity S-wave (km/s) = 2.44175 4.00708 3.31804
# Velocity P-wave (km/s) = 5.03228 7.40836 6.33276
#
# Compressibility (1/GPa) = 0.02677600
#
# Stress axis : x y z
#
# Youngs Moduli (GPa) = 105.37069 30.02017 11.55408
#
# Poissons Ratio (x) = 0.00848 0.09166
# Poissons Ratio (y) = 0.02976 0.49765
# Poissons Ratio (z) = 0.83593 1.29302
#
# Static dielectric constant tensor:
#      x y z
#    x 3.720310 0.040860 0.114740 
#    y 0.040860 3.904240 -0.005100 
#    z 0.114740 -0.005100 3.656140 
# 
# 
# High freq. dielectric constant tensor:
#      x y z
#    x 1.848310 0.001200 0.001780 
#    y 0.001200 1.851720 -0.002140 
#    z 0.001780 -0.002140 1.815270 
# 
# From -- ./inp_files/147909.got.cif
#   From: 2010.06.25/outbox.cif.g09.slc.cpg/sg2_74_cif.got.tgz:147909.got - 2010.06.27 13:26:56.
