data_PCOD8017878
_publ_section_title
;
Structure prediction by ZEFSAII (Michael W. Deem and Ramdas Pophale) SiO2 
 PCOD8017878
Probable space group: P -1
;
_chemical_formula_sum "Si O2"
_cell_formula_units_Z 14
_cell_length_a 14.908500
_cell_length_b 9.596918
_cell_length_c 21.189932
_cell_angle_alpha 32.822730
_cell_angle_beta 152.142291
_cell_angle_gamma 148.898973
_cell_volume 686.794244
_symmetry_space_group_name_H-M "P -1"
_symmetry_group_IT_number 2
_symmetry_cell_setting 'triclinic'
loop_
_space_group_symop_operation_xyz
x,y,z
-x,-y,-z
loop_
_atom_site_type_symbol
_atom_site_label
_atom_site_fract_x
_atom_site_fract_y
_atom_site_fract_z
Si Si1 0.286867 0.288471 0.023492
Si Si2 0.855640 0.258150 0.787332
Si Si3 0.889910 0.701273 0.834692
Si Si4 0.220115 0.705943 0.588857
Si Si5 0.743849 0.706042 0.142835
Si Si6 0.602162 0.900222 0.657997
Si Si7 0.725447 0.666707 0.610152
O O1 0.215381 0.226253 0.930639
O O2 0.091859 0.299769 0.935064
O O3 0.491092 0.599506 0.041189
O O4 0.314558 0.014069 0.172918
O O5 0.874528 0.566600 0.700683
O O6 0.778320 0.185343 0.694316
O O7 0.729743 0.723269 0.780063
O O8 0.742379 0.585813 0.724509
O O9 0.090477 0.009976 0.825581
O O10 0.000000 0.500000 0.000000
O O11 0.223494 0.569296 0.710949
O O12 0.412506 0.718184 0.658456
O O13 0.000000 0.500000 0.500000
O O14 0.213214 0.002722 0.483819
O O15 0.500000 0.000000 0.500000
O O16 0.500000 0.500000 0.500000
#
# Coordination Sequence:
#
# PCOD8017878 Si02
#       7
#     2   2   2   2   2   2   2
#     4  10  22  39  67  95 133 176 219 276 359 400
#     4  11  22  41  68  97 130 176 227 279 335 417
#     4  12  26  43  71 102 137 178 238 287 337 412
#     4  12  24  43  68  96 133 183 226 279 340 406
#     4  11  21  42  65  94 134 177 222 281 345 403
#     4  12  22  45  71  96 133 188 230 267 348 420
#     4  12  23  42  68 100 136 174 236 282 334 404
#
# _framework density 20.384561999999999
#
# number of rings (size 3 to 8) (size 9 to 14) (size 15 to 20)
#    0.000    0.571    7.143    0.857    2.000    1.143 
#    2.571    2.143    0.000    0.000    0.000    0.000 
#    0.000    0.000    0.000    0.000    0.000    0.000 
#
# Total GULP energy -173450.024622 kJ/mol
# GULP energy per Si atom -12389.287473 kJ/mol
# Density = 2.033817 g / cm^3
# Si number density = 20.384562 Si / 1000 Ang^3
#
#
#
# Elastic Constant Matrix: (Units=GPa)
#
#
# Indices 1 2 3 4 5 6 
#
# 1 89.2634 45.7952 58.9537 -6.4696 9.2026 -13.1006
# 2 45.7952 130.2168 52.5886 4.3159 12.9112 -4.0722
# 3 58.9537 52.5886 150.9166 -14.2362 -3.3745 -14.0391
# 4 -6.4696 4.3159 -14.2362 40.1259 -5.9654 1.5411
# 5 9.2026 12.9112 -3.3745 -5.9654 49.2833 3.3984
# 6 -13.1006 -4.0722 -14.0391 1.5411 3.3984 37.1894
#
#
#
# Elastic Compliance Matrix: (Units=1/GPa)
#
#
# Indices 1 2 3 4 5 6 
#
# 1 0.017420 -0.003672 -0.005138 0.000807 -0.002822 0.004019
# 2 -0.003672 0.010332 -0.002573 -0.002958 -0.002501 -0.000783
# 3 -0.005138 -0.002573 0.010027 0.003347 0.002635 0.001314
# 4 0.000807 -0.002958 0.003347 0.027187 0.004164 -0.000283
# 5 -0.002822 -0.002501 0.002635 0.004164 0.022329 -0.002486
# 6 0.004019 -0.000783 0.001314 -0.000283 -0.002486 0.028954
#
#
# Mechanical properties :
#
#
# Convention : Reuss Voigt Hill
#
# Bulk Modulus (GPa) = 66.62064 76.11909 71.36987
# Shear Modulus (GPa) = 34.71723 39.52367 37.12045
#
# Velocity S-wave (km/s) = 4.13136 4.40807 4.27196
# Velocity P-wave (km/s) = 7.45053 7.95806 7.70847
#
# Compressibility (1/GPa) = 0.01501036
#
# Stress axis : x y z
#
# Youngs Moduli (GPa) = 57.40656 96.78747 99.73085
#
# Poissons Ratio (x) = 0.35544 0.51244
# Poissons Ratio (y) = 0.21082 0.25666
# Poissons Ratio (z) = 0.29497 0.24908
#
# Static dielectric constant tensor:
#      x y z
#    x 3.752200 0.026240 -0.020860 
#    y 0.026240 3.840940 0.272070 
#    z -0.020860 0.272070 4.140330 
# 
# 
# High freq. dielectric constant tensor:
#      x y z
#    x 1.780150 0.000140 -0.008370 
#    y 0.000140 1.796870 0.026740 
#    z -0.008370 0.026740 1.820440 
# 
# From -- ./inp_files/199353.got.cif
#   From: 2010.06.25/outbox.cif.g09.slc.cpg/sg2_100_cif.got.tgz:199353.got - 2010.06.27 13:26:56.
