data_PCOD8017451
_publ_section_title
;
Structure prediction by ZEFSAII (Michael W. Deem and Ramdas Pophale) SiO2 
 PCOD8017451
Probable space group: P -1
;
_chemical_formula_sum "Si O2"
_cell_formula_units_Z 12
_cell_length_a 9.727859
_cell_length_b 11.348878
_cell_length_c 9.397578
_cell_angle_alpha 125.502674
_cell_angle_beta 36.426175
_cell_angle_gamma 117.578939
_cell_volume 501.499855
_symmetry_space_group_name_H-M "P -1"
_symmetry_group_IT_number 2
_symmetry_cell_setting 'triclinic'
loop_
_space_group_symop_operation_xyz
x,y,z
-x,-y,-z
loop_
_atom_site_type_symbol
_atom_site_label
_atom_site_fract_x
_atom_site_fract_y
_atom_site_fract_z
Si Si1 0.226386 0.167156 0.053352
Si Si2 0.651795 0.349065 0.867449
Si Si3 0.924870 0.064122 0.458700
Si Si4 0.651766 0.849080 0.367483
Si Si5 0.924861 0.564126 0.958712
Si Si6 0.226366 0.667170 0.553373
O O1 0.144010 0.049869 0.157030
O O2 0.000033 0.250026 0.250004
O O3 0.403222 0.279529 0.057045
O O4 0.339584 0.094600 0.765728
O O5 0.853467 0.231471 0.650624
O O6 0.699502 0.481811 0.027007
O O7 0.660399 0.405382 0.734272
O O8 0.699489 0.981822 0.527030
O O9 0.000000 0.000000 0.500000
O O10 0.403156 0.779585 0.557117
O O11 0.853392 0.731462 0.150696
O O12 0.144017 0.549897 0.657058
O O13 0.000000 0.500000 0.000000
#
# Coordination Sequence:
#
# PCOD8017451 Si02
#       6
#     2   2   2   2   2   2
#     4   9  21  39  61  84 113 149 191 234 277 333
#     4  10  22  39  60  84 112 151 191 229 279 335
#     4  11  23  38  58  86 117 148 186 233 283 334
#     4  10  22  39  60  84 112 151 191 229 279 335
#     4  11  23  38  58  86 117 148 186 233 283 334
#     4   9  21  39  61  84 113 149 191 234 277 333
#
# _framework density 23.928222999999999
#
# number of rings (size 3 to 8) (size 9 to 14) (size 15 to 20)
#    0.000    2.000    0.000    2.000    0.000   20.000 
#    0.000    0.000    0.000    0.000    0.000    0.000 
#    0.000    0.000    0.000    0.000    0.000    0.000 
#
# Total GULP energy -148815.543710 kJ/mol
# GULP energy per Si atom -12401.295309 kJ/mol
# Density = 2.387376 g / cm^3
# Si number density = 23.928223 Si / 1000 Ang^3
#
#
#
# Elastic Constant Matrix: (Units=GPa)
#
#
# Indices 1 2 3 4 5 6 
#
# 1 151.1695 57.8954 35.9681 -43.7883 23.1344 -1.7707
# 2 57.8954 94.1073 19.2704 -32.5846 19.6329 7.8074
# 3 35.9681 19.2704 60.2505 -35.9776 8.2679 1.4187
# 4 -43.7883 -32.5846 -35.9776 45.4005 2.1751 0.6535
# 5 23.1344 19.6329 8.2679 2.1751 32.6259 -10.6218
# 6 -1.7707 7.8074 1.4187 0.6535 -10.6218 54.1418
#
#
#
# Elastic Compliance Matrix: (Units=1/GPa)
#
#
# Indices 1 2 3 4 5 6 
#
# 1 0.011611 -0.001072 0.002421 0.012828 -0.009565 -0.001560
# 2 -0.001072 0.022455 0.011400 0.025179 -0.019850 -0.007770
# 3 0.002421 0.011400 0.042092 0.045182 -0.024891 -0.008096
# 4 0.012828 0.025179 0.045182 0.090713 -0.046503 -0.014613
# 5 -0.009565 -0.019850 -0.024891 -0.046503 0.064105 0.016339
# 6 -0.001560 -0.007770 -0.008096 -0.014613 0.016339 0.023134
#
#
# Mechanical properties :
#
#
# Convention : Reuss Voigt Hill
#
# Bulk Modulus (GPa) = 9.83711 59.08833 34.46272
# Shear Modulus (GPa) = 19.04782 39.25985 29.15384
#
# Velocity S-wave (km/s) = 2.82448 4.05499 3.49433
# Velocity P-wave (km/s) = 3.84147 6.83166 5.54204
#
# Compressibility (1/GPa) = 0.10165585
#
# Stress axis : x y z
#
# Youngs Moduli (GPa) = 86.12452 44.53257 23.75760
#
# Poissons Ratio (x) = 0.04775 -0.05751
# Poissons Ratio (y) = 0.09236 -0.27084
# Poissons Ratio (z) = -0.20849 -0.50768
#
# Static dielectric constant tensor:
#      x y z
#    x 4.178210 -0.039020 0.125310 
#    y -0.039020 4.412440 -0.636740 
#    z 0.125310 -0.636740 5.133150 
# 
# 
# High freq. dielectric constant tensor:
#      x y z
#    x 1.943330 0.005900 -0.015750 
#    y 0.005900 1.950160 -0.011150 
#    z -0.015750 -0.011150 1.943960 
# 
# From -- ./inp_files/3216.got.cif
#   From: 2010.06.25/outbox.cif.g09.slc.cpg/sg2_2_cif.got.tgz:3216.got - 2010.06.27 13:26:56.
