data_PCOD8017939
_publ_section_title
;
Structure prediction by ZEFSAII (Michael W. Deem and Ramdas Pophale) SiO2 
 PCOD8017939
Probable space group: P -1
;
_chemical_formula_sum "Si O2"
_cell_formula_units_Z 16
_cell_length_a 5.360343
_cell_length_b 17.187988
_cell_length_c 9.252385
_cell_angle_alpha 71.064539
_cell_angle_beta 71.570834
_cell_angle_gamma 60.249057
_cell_volume 687.443204
_symmetry_space_group_name_H-M "P -1"
_symmetry_group_IT_number 2
_symmetry_cell_setting 'triclinic'
loop_
_space_group_symop_operation_xyz
x,y,z
-x,-y,-z
loop_
_atom_site_type_symbol
_atom_site_label
_atom_site_fract_x
_atom_site_fract_y
_atom_site_fract_z
Si Si1 0.014776 0.704272 0.894715
Si Si2 0.204087 0.093673 0.256362
Si Si3 0.097802 0.004489 0.817126
Si Si4 0.851196 0.580698 0.171595
Si Si5 0.397469 0.422037 0.068713
Si Si6 0.048384 0.827795 0.443609
Si Si7 0.445390 0.355398 0.513550
Si Si8 0.042777 0.335698 0.380640
O O1 0.368272 0.664484 0.828560
O O2 0.882614 0.812387 0.872596
O O3 0.863087 0.678354 0.799483
O O4 0.986374 0.653540 0.075353
O O5 0.553780 0.047002 0.233646
O O6 0.055281 0.110083 0.430989
O O7 0.078951 0.033620 0.229132
O O8 0.003813 0.109569 0.725462
O O9 0.000000 0.000000 0.000000
O O10 0.727944 0.593226 0.345098
O O11 0.072849 0.472144 0.173213
O O12 0.601736 0.608086 0.079231
O O13 0.500000 0.500000 0.000000
O O14 0.869820 0.765923 0.506664
O O15 0.392389 0.755482 0.431904
O O16 0.211777 0.382779 0.409579
O O17 0.688109 0.393638 0.417494
#
# Coordination Sequence:
#
# PCOD8017939 Si02
#       8
#     2   2   2   2   2   2   2   2
#     4  10  23  39  69  90 129 164 223 257 321 383
#     4  11  26  41  67  90 128 174 208 260 323 381
#     4  12  27  42  63  97 130 162 220 268 312 367
#     4  10  22  39  69  92 128 168 217 259 323 377
#     4   9  21  40  64  95 127 168 212 260 319 390
#     4   9  24  41  67  86 134 169 218 251 325 380
#     4  10  23  39  65  95 129 166 214 264 318 377
#     4   9  23  39  63  94 129 168 212 264 318 374
#
# _framework density 23.274650999999999
#
# number of rings (size 3 to 8) (size 9 to 14) (size 15 to 20)
#    0.750    1.250    0.000    1.125   14.000    1.000 
#    0.000    1.250    0.000    0.000    0.000    0.000 
#    0.000    0.000    0.000    0.000    0.000    0.000 
#
# Total GULP energy -198270.045064 kJ/mol
# GULP energy per Si atom -12391.877816 kJ/mol
# Density = 2.322168 g / cm^3
# Si number density = 23.274651 Si / 1000 Ang^3
#
#
#
# Elastic Constant Matrix: (Units=GPa)
#
#
# Indices 1 2 3 4 5 6 
#
# 1 128.3292 16.9669 19.8135 12.5092 23.4304 -6.9342
# 2 16.9669 61.5312 6.6677 -6.2698 8.4167 -12.1020
# 3 19.8135 6.6677 82.3446 8.5812 6.0028 1.3296
# 4 12.5092 -6.2698 8.5812 48.1552 -1.4573 1.2728
# 5 23.4304 8.4167 6.0028 -1.4573 32.9192 -6.8272
# 6 -6.9342 -12.1020 1.3296 1.2728 -6.8272 31.5026
#
#
#
# Elastic Compliance Matrix: (Units=1/GPa)
#
#
# Indices 1 2 3 4 5 6 
#
# 1 0.009675 -0.001892 -0.001445 -0.002696 -0.006211 0.000227
# 2 -0.001892 0.018703 -0.001341 0.002945 -0.001748 0.006327
# 3 -0.001445 -0.001341 0.012949 -0.002107 -0.001416 -0.001601
# 4 -0.002696 0.002945 -0.002107 0.022296 0.002597 0.000289
# 5 -0.006211 -0.001748 -0.001416 0.002597 0.036842 0.005900
# 6 0.000227 0.006327 -0.001601 0.000289 0.005900 0.035559
#
#
# Mechanical properties :
#
#
# Convention : Reuss Voigt Hill
#
# Bulk Modulus (GPa) = 31.27763 39.90011 35.58887
# Shear Modulus (GPa) = 32.04411 37.76586 34.90498
#
# Velocity S-wave (km/s) = 3.71453 4.03254 3.87680
# Velocity P-wave (km/s) = 5.64487 6.23396 5.94672
#
# Compressibility (1/GPa) = 0.03197173
#
# Stress axis : x y z
#
# Youngs Moduli (GPa) = 103.36219 53.46873 77.22658
#
# Poissons Ratio (x) = 0.10115 0.11156
# Poissons Ratio (y) = 0.19553 0.10355
# Poissons Ratio (z) = 0.14932 0.07169
#
# Static dielectric constant tensor:
#      x y z
#    x 5.123130 -0.339510 -0.200640 
#    y -0.339510 4.240590 -0.124990 
#    z -0.200640 -0.124990 4.122940 
# 
# 
# High freq. dielectric constant tensor:
#      x y z
#    x 1.932290 0.002540 -0.001670 
#    y 0.002540 1.914240 -0.015570 
#    z -0.001670 -0.015570 1.921880 
# 
# From -- ./inp_files/137611.got.cif
#   From: 2010.06.25/outbox.cif.g09.slc.cpg/sg2_69_cif.got.tgz:137611.got - 2010.06.27 13:26:56.
