data_PCOD8017645
_publ_section_title
;
Structure prediction by ZEFSAII (Michael W. Deem and Ramdas Pophale) SiO2 
 PCOD8017645
Probable space group: P -1
;
_chemical_formula_sum "Si O2"
_cell_formula_units_Z 16
_cell_length_a 27.488969
_cell_length_b 27.602688
_cell_length_c 12.203930
_cell_angle_alpha 154.910039
_cell_angle_beta 154.266923
_cell_angle_gamma 10.474670
_cell_volume 707.489950
_symmetry_space_group_name_H-M "P -1"
_symmetry_group_IT_number 2
_symmetry_cell_setting 'triclinic'
loop_
_space_group_symop_operation_xyz
x,y,z
-x,-y,-z
loop_
_atom_site_type_symbol
_atom_site_label
_atom_site_fract_x
_atom_site_fract_y
_atom_site_fract_z
Si Si1 0.747875 0.641877 0.087769
Si Si2 0.245998 0.014630 0.534193
Si Si3 0.729359 0.242449 0.013974
Si Si4 0.201094 0.409227 0.265014
Si Si5 0.409178 0.313130 0.916967
Si Si6 0.053831 0.776675 0.437754
Si Si7 0.683957 0.776466 0.643154
Si Si8 0.044048 0.087941 0.732739
O O1 0.623737 0.741119 0.158850
O O2 0.050864 0.406097 0.236208
O O3 0.557777 0.907776 0.182654
O O4 0.761664 0.508705 0.778270
O O5 0.962603 0.324055 0.546778
O O6 0.189946 0.019816 0.554200
O O7 0.501436 0.864932 0.751115
O O8 0.328612 0.838881 0.254023
O O9 0.755790 0.293289 0.282272
O O10 0.500000 0.500000 0.000000
O O11 0.000000 0.000000 0.000000
O O12 0.248098 0.349348 0.364919
O O13 0.000000 0.500000 0.000000
O O14 0.409237 0.235709 0.651681
O O15 0.187434 0.617166 0.085319
O O16 0.688281 0.119310 0.090566
O O17 0.929813 0.923888 0.369970
O O18 0.000000 0.000000 0.500000
#
# Coordination Sequence:
#
# PCOD8017645 Si02
#       8
#     2   2   2   2   2   2   2   2
#     4  11  23  42  68  99 127 171 220 266 320 391
#     4  11  24  45  64  94 131 173 220 267 316 390
#     4  10  22  39  63  94 123 162 215 264 314 377
#     4  12  27  42  63  96 132 173 221 266 321 385
#     4  11  24  44  68  98 131 171 219 264 324 395
#     4  10  24  43  70  96 130 171 215 270 327 380
#     4  12  25  43  66  96 135 174 213 272 328 374
#     4  11  25  44  68 101 132 167 215 269 327 392
#
# _framework density 22.615161000000001
#
# number of rings (size 3 to 8) (size 9 to 14) (size 15 to 20)
#    0.000    1.000    0.000    6.750    0.000   15.000 
#    0.000    0.000    0.000    0.000    0.000    0.000 
#    0.000    0.000    0.000    0.000    0.000    0.000 
#
# Total GULP energy -198385.538449 kJ/mol
# GULP energy per Si atom -12399.096153 kJ/mol
# Density = 2.256369 g / cm^3
# Si number density = 22.615161 Si / 1000 Ang^3
#
#
#
# Elastic Constant Matrix: (Units=GPa)
#
#
# Indices 1 2 3 4 5 6 
#
# 1 112.6525 37.1183 64.9699 -4.0157 0.2958 1.8226
# 2 37.1183 153.8617 50.7672 -6.9231 0.1686 5.5497
# 3 64.9699 50.7672 159.1682 -5.5476 -16.3102 5.6518
# 4 -4.0157 -6.9231 -5.5476 39.5716 2.5596 10.8705
# 5 0.2958 0.1686 -16.3102 2.5596 31.7539 -0.6982
# 6 1.8226 5.5497 5.6518 10.8705 -0.6982 34.6872
#
#
#
# Elastic Compliance Matrix: (Units=1/GPa)
#
#
# Indices 1 2 3 4 5 6 
#
# 1 0.012081 -0.001326 -0.004763 0.000449 -0.002585 0.000161
# 2 -0.001326 0.007551 -0.001892 0.001345 -0.001136 -0.001275
# 3 -0.004763 -0.001892 0.009376 0.000471 0.004810 -0.001025
# 4 0.000449 0.001345 0.000471 0.028299 -0.002254 -0.009229
# 5 -0.002585 -0.001136 0.004810 -0.002254 0.034195 0.000928
# 6 0.000161 -0.001275 -0.001025 -0.009229 0.000928 0.032103
#
#
# Mechanical properties :
#
#
# Convention : Reuss Voigt Hill
#
# Bulk Modulus (GPa) = 76.64615 81.26591 78.95603
# Shear Modulus (GPa) = 34.74287 39.39100 37.06693
#
# Velocity S-wave (km/s) = 3.92377 4.17801 4.05289
# Velocity P-wave (km/s) = 7.38194 7.69978 7.54254
#
# Compressibility (1/GPa) = 0.01304697
#
# Stress axis : x y z
#
# Youngs Moduli (GPa) = 82.77446 132.43283 106.65470
#
# Poissons Ratio (x) = 0.17554 0.50804
# Poissons Ratio (y) = 0.10972 0.20175
# Poissons Ratio (z) = 0.39429 0.25051
#
# Static dielectric constant tensor:
#      x y z
#    x 3.883620 -0.230680 0.155400 
#    y -0.230680 3.319580 0.154670 
#    z 0.155400 0.154670 4.634010 
# 
# 
# High freq. dielectric constant tensor:
#      x y z
#    x 1.878220 0.004240 0.005890 
#    y 0.004240 1.910530 -0.002270 
#    z 0.005890 -0.002270 1.909870 
# 
# From -- ./inp_files/477239.got.cif
#   From: 2010.06.25/outbox.cif.g09.slc.cpg/sg2_239_cif.got.tgz:477239.got - 2010.06.27 13:26:56.
