data_PCOD8017393
_publ_section_title
;
Structure prediction by ZEFSAII (Michael W. Deem and Ramdas Pophale) SiO2 
 PCOD8017393
Probable space group: P -1
;
_chemical_formula_sum "Si O2"
_cell_formula_units_Z 12
_cell_length_a 5.440141
_cell_length_b 9.489159
_cell_length_c 14.628809
_cell_angle_alpha 49.925673
_cell_angle_beta 66.999131
_cell_angle_gamma 64.235906
_cell_volume 513.636820
_symmetry_space_group_name_H-M "P -1"
_symmetry_group_IT_number 2
_symmetry_cell_setting 'triclinic'
loop_
_space_group_symop_operation_xyz
x,y,z
-x,-y,-z
loop_
_atom_site_type_symbol
_atom_site_label
_atom_site_fract_x
_atom_site_fract_y
_atom_site_fract_z
Si Si1 0.796682 0.453541 0.432395
Si Si2 0.961570 0.377125 0.240859
Si Si3 0.169929 0.720193 0.018864
Si Si4 0.026499 0.200709 0.662084
Si Si5 0.731680 0.101364 0.901200
Si Si6 0.600176 0.206057 0.225245
O O1 0.500000 0.500000 0.500000
O O2 0.976807 0.266235 0.537201
O O3 0.784752 0.411212 0.344936
O O4 0.921063 0.632598 0.351855
O O5 0.973181 0.576299 0.108186
O O6 0.273642 0.257616 0.272352
O O7 0.798753 0.268378 0.244195
O O8 0.311839 0.714631 0.101136
O O9 0.381484 0.679555 0.919700
O O10 0.017427 0.942119 0.938752
O O11 0.749675 0.162403 0.766622
O O12 0.293687 0.021508 0.701674
O O13 0.500000 0.000000 0.000000
#
# Coordination Sequence:
#
# PCOD8017393 Si02
#       6
#     2   2   2   2   2   2
#     4  11  27  45  77  98 141 193 245 300 339 429
#     4  12  27  47  71 107 144 193 232 296 358 429
#     4  10  23  41  65 108 140 188 233 290 357 426
#     4  10  25  48  68 107 138 189 247 291 355 421
#     4  10  22  38  75 102 142 182 237 301 350 422
#     4  11  28  45  73 104 149 186 234 296 365 423
#
# _framework density 23.362812000000002
#
# number of rings (size 3 to 8) (size 9 to 14) (size 15 to 20)
#    0.000    1.333    1.667    1.000   16.333    1.333 
#    0.000    0.000    0.000    0.000    0.000    0.000 
#    0.000    0.000    0.000    0.000    0.000    0.000 
#
# Total GULP energy -148717.025426 kJ/mol
# GULP energy per Si atom -12393.085452 kJ/mol
# Density = 2.330964 g / cm^3
# Si number density = 23.362812 Si / 1000 Ang^3
#
#
#
# Elastic Constant Matrix: (Units=GPa)
#
#
# Indices 1 2 3 4 5 6 
#
# 1 87.9060 31.2612 14.9194 3.2614 -9.6380 -1.5518
# 2 31.2612 75.2485 58.2865 8.8082 9.1041 -4.8915
# 3 14.9194 58.2865 121.9444 7.3225 -4.0182 -2.6828
# 4 3.2614 8.8082 7.3225 44.3917 -4.8804 -2.6566
# 5 -9.6380 9.1041 -4.0182 -4.8804 34.9164 7.3648
# 6 -1.5518 -4.8915 -2.6828 -2.6566 7.3648 29.1981
#
#
#
# Elastic Compliance Matrix: (Units=1/GPa)
#
#
# Indices 1 2 3 4 5 6 
#
# 1 0.015122 -0.009799 0.002972 0.001048 0.007728 -0.002419
# 2 -0.009799 0.030351 -0.013375 -0.004260 -0.014126 0.006511
# 3 0.002972 -0.013375 0.014355 0.000646 0.006547 -0.002356
# 4 0.001048 -0.004260 0.000646 0.023729 0.004713 0.000372
# 5 0.007728 -0.014126 0.006547 0.004713 0.038090 -0.010533
# 6 -0.002419 0.006511 -0.002356 0.000372 -0.010533 0.037685
#
#
# Mechanical properties :
#
#
# Convention : Reuss Voigt Hill
#
# Bulk Modulus (GPa) = 51.48239 54.89258 53.18748
# Shear Modulus (GPa) = 24.24712 33.74335 28.99524
#
# Velocity S-wave (km/s) = 3.22506 3.80454 3.52673
# Velocity P-wave (km/s) = 5.99599 6.54569 6.27686
#
# Compressibility (1/GPa) = 0.01942412
#
# Stress axis : x y z
#
# Youngs Moduli (GPa) = 66.12917 32.94767 69.66373
#
# Poissons Ratio (x) = 0.32287 -0.20706
# Poissons Ratio (y) = 0.64803 0.93173
# Poissons Ratio (z) = -0.19655 0.44066
#
# Static dielectric constant tensor:
#      x y z
#    x 3.965290 0.135040 0.131580 
#    y 0.135040 2.623890 0.172050 
#    z 0.131580 0.172050 4.647320 
# 
# 
# High freq. dielectric constant tensor:
#      x y z
#    x 1.905390 0.000580 -0.000310 
#    y 0.000580 1.934550 0.002100 
#    z -0.000310 0.002100 1.939500 
# 
# From -- ./inp_files/23037.got.cif
#   From: 2010.06.25/outbox.cif.g09.slc.cpg/sg2_12_cif.got.tgz:23037.got - 2010.06.27 13:26:56.
