data_PCOD8017411
_publ_section_title
;
Structure prediction by ZEFSAII (Michael W. Deem and Ramdas Pophale) SiO2 
 PCOD8017411
Probable space group: P -1
;
_chemical_formula_sum "Si O2"
_cell_formula_units_Z 16
_cell_length_a 8.876328
_cell_length_b 14.375547
_cell_length_c 9.417590
_cell_angle_alpha 106.712801
_cell_angle_beta 46.697228
_cell_angle_gamma 102.872127
_cell_volume 837.023405
_symmetry_space_group_name_H-M "P -1"
_symmetry_group_IT_number 2
_symmetry_cell_setting 'triclinic'
loop_
_space_group_symop_operation_xyz
x,y,z
-x,-y,-z
loop_
_atom_site_type_symbol
_atom_site_label
_atom_site_fract_x
_atom_site_fract_y
_atom_site_fract_z
Si Si1 0.909403 0.862491 0.846612
Si Si2 0.439128 0.993384 0.875612
Si Si3 0.314132 0.503328 0.903263
Si Si4 0.073966 0.846432 0.045181
Si Si5 0.867762 0.991378 0.440376
Si Si6 0.715887 0.454699 0.749295
Si Si7 0.980061 0.647821 0.667559
Si Si8 0.904270 0.370116 0.108038
O O1 0.072797 0.919048 0.662837
O O2 0.880703 0.752307 0.759944
O O3 0.688985 0.910539 0.023107
O O4 0.987035 0.865323 0.955972
O O5 0.626076 0.990928 0.639848
O O6 0.500000 0.000000 0.000000
O O7 0.303664 0.893990 0.910059
O O8 0.528091 0.446192 0.751413
O O9 0.287028 0.574317 0.816129
O O10 0.328993 0.568541 0.066830
O O11 0.125084 0.426103 0.975492
O O12 0.083592 0.732791 0.024503
O O13 0.925362 0.892466 0.279678
O O14 0.000000 0.000000 0.500000
O O15 0.877025 0.374520 0.568440
O O16 0.797802 0.566564 0.748139
O O17 0.129332 0.643647 0.707991
#
# Coordination Sequence:
#
# PCOD8017411 Si02
#       8
#     2   2   2   2   2   2   2   2
#     4  10  22  39  57  86 118 146 188 238 278 338
#     4  11  21  39  61  81 114 150 185 238 286 332
#     4   9  18  35  57  81 111 145 185 223 272 330
#     4  10  22  39  58  85 118 146 191 234 279 339
#     4  11  21  39  60  83 113 150 186 236 286 333
#     4   9  18  35  57  82 110 146 183 223 274 330
#     4   9  19  37  55  79 115 144 180 230 276 324
#     4   9  19  37  55  79 116 145 176 235 274 323
#
# _framework density 19.115355999999998
#
# number of rings (size 3 to 8) (size 9 to 14) (size 15 to 20)
#    0.000    2.250    2.500    1.500    0.000    4.500 
#   13.500    0.000    0.000    0.000    0.000    0.000 
#    0.000    0.000    0.000    0.000    0.000    0.000 
#
# Total GULP energy -198231.848942 kJ/mol
# GULP energy per Si atom -12389.490559 kJ/mol
# Density = 1.907185 g / cm^3
# Si number density = 19.115356 Si / 1000 Ang^3
#
#
#
# Elastic Constant Matrix: (Units=GPa)
#
#
# Indices 1 2 3 4 5 6 
#
# 1 98.5284 30.6203 16.8657 5.8394 -6.5909 -1.1479
# 2 30.6203 75.4167 30.5282 19.1590 4.1226 0.2272
# 3 16.8657 30.5282 110.7632 1.1258 -11.3190 9.8217
# 4 5.8394 19.1590 1.1258 21.6403 4.2704 9.0136
# 5 -6.5909 4.1226 -11.3190 4.2704 26.9638 -3.7814
# 6 -1.1479 0.2272 9.8217 9.0136 -3.7814 21.1631
#
#
#
# Elastic Compliance Matrix: (Units=1/GPa)
#
#
# Indices 1 2 3 4 5 6 
#
# 1 0.012015 -0.004928 -0.000216 -0.000312 0.003878 0.001631
# 2 -0.004928 0.024624 -0.007164 -0.025134 -0.002157 0.013113
# 3 -0.000216 -0.007164 0.012071 0.008654 0.003534 -0.008591
# 4 -0.000312 -0.025134 0.008654 0.088932 -0.012847 -0.043936
# 5 0.003878 -0.002157 0.003534 -0.012847 0.043544 0.011845
# 6 0.001631 0.013113 -0.008591 -0.043936 0.011845 0.072016
#
#
# Mechanical properties :
#
#
# Convention : Reuss Voigt Hill
#
# Bulk Modulus (GPa) = 41.50693 48.97075 45.23884
# Shear Modulus (GPa) = 17.49168 27.73305 22.61237
#
# Velocity S-wave (km/s) = 3.02828 3.81310 3.44312
# Velocity P-wave (km/s) = 5.82995 6.71271 6.28684
#
# Compressibility (1/GPa) = 0.02409236
#
# Stress axis : x y z
#
# Youngs Moduli (GPa) = 83.23028 40.61038 82.84458
#
# Poissons Ratio (x) = 0.20014 0.01792
# Poissons Ratio (y) = 0.41018 0.59352
# Poissons Ratio (z) = 0.01801 0.29094
#
# Static dielectric constant tensor:
#      x y z
#    x 3.598040 -0.150260 0.191650 
#    y -0.150260 3.832420 0.137360 
#    z 0.191650 0.137360 3.605530 
# 
# 
# High freq. dielectric constant tensor:
#      x y z
#    x 1.752350 -0.000240 0.010030 
#    y -0.000240 1.734700 0.006090 
#    z 0.010030 0.006090 1.740450 
# 
# From -- ./inp_files/201128.got.cif
#   From: 2010.06.25/outbox.cif.g09.slc.cpg/sg2_101_cif.got.tgz:201128.got - 2010.06.27 13:26:56.
