data_PCOD8017365
_publ_section_title
;
Structure prediction by ZEFSAII (Michael W. Deem and Ramdas Pophale) SiO2 
 PCOD8017365
Probable space group: P -1
;
_chemical_formula_sum "Si O2"
_cell_formula_units_Z 10
_cell_length_a 9.607534
_cell_length_b 5.191390
_cell_length_c 9.495189
_cell_angle_alpha 76.238448
_cell_angle_beta 112.844786
_cell_angle_gamma 101.375630
_cell_volume 420.989590
_symmetry_space_group_name_H-M "P -1"
_symmetry_group_IT_number 2
_symmetry_cell_setting 'triclinic'
loop_
_space_group_symop_operation_xyz
x,y,z
-x,-y,-z
loop_
_atom_site_type_symbol
_atom_site_label
_atom_site_fract_x
_atom_site_fract_y
_atom_site_fract_z
Si Si1 0.884025 0.346720 0.661177
Si Si2 0.786629 0.405168 0.304112
Si Si3 0.296693 0.022942 0.169111
Si Si4 0.614985 0.507412 0.670820
Si Si5 0.659956 0.919128 0.123614
O O1 0.821474 0.295530 0.485244
O O2 0.846788 0.072211 0.773028
O O3 0.787129 0.563399 0.667843
O O4 0.061215 0.441667 0.724015
O O5 0.735894 0.146074 0.226396
O O6 0.662939 0.622365 0.232736
O O7 0.407435 0.786828 0.228000
O O8 0.404507 0.269297 0.249340
O O9 0.242846 0.094023 0.982537
O O10 0.500000 0.500000 0.500000
O O11 0.500000 0.000000 0.000000
#
# Coordination Sequence:
#
# PCOD8017365 Si02
#       5
#     2   2   2   2   2
#     4   9  26  42  72  94 130 168 228 256 328 372
#     4  11  26  44  67  97 131 173 211 277 314 387
#     4  10  24  41  64  96 125 170 217 257 324 383
#     4  10  22  38  68  95 128 166 221 264 306 383
#     4  12  28  43  66  96 137 169 215 265 335 379
#
# _framework density 23.753558000000002
#
# number of rings (size 3 to 8) (size 9 to 14) (size 15 to 20)
#    1.200    0.400    0.000    2.400   11.200    3.200 
#    0.000    0.000    0.000    0.000    0.000    0.000 
#    0.000    0.000    0.000    0.000    0.000    0.000 
#
# Total GULP energy -123909.494330 kJ/mol
# GULP energy per Si atom -12390.949433 kJ/mol
# Density = 2.369949 g / cm^3
# Si number density = 23.753558 Si / 1000 Ang^3
#
#
#
# Elastic Constant Matrix: (Units=GPa)
#
#
# Indices 1 2 3 4 5 6 
#
# 1 32.9609 5.5497 7.0738 0.8031 9.2487 -7.9676
# 2 5.5497 157.2767 43.5496 33.5257 -10.8902 -0.8164
# 3 7.0738 43.5496 95.1237 18.6621 -13.2091 10.4183
# 4 0.8031 33.5257 18.6621 41.2021 -1.6417 -0.2335
# 5 9.2487 -10.8902 -13.2091 -1.6417 28.4130 -2.5418
# 6 -7.9676 -0.8164 10.4183 -0.2335 -2.5418 26.9352
#
#
#
# Elastic Compliance Matrix: (Units=1/GPa)
#
#
# Indices 1 2 3 4 5 6 
#
# 1 0.039009 -0.001120 -0.006307 0.002489 -0.014791 0.012571
# 2 -0.001120 0.008445 -0.002486 -0.005630 0.002214 0.001046
# 3 -0.006307 -0.002486 0.014706 -0.004273 0.007064 -0.007000
# 4 0.002489 -0.005630 -0.004273 0.030632 -0.002988 0.002202
# 5 -0.014791 0.002214 0.007064 -0.002988 0.043706 -0.002942
# 6 0.012571 0.001046 -0.007000 0.002202 -0.002942 0.043325
#
#
# Mechanical properties :
#
#
# Convention : Reuss Voigt Hill
#
# Bulk Modulus (GPa) = 23.62141 44.18974 33.90557
# Shear Modulus (GPa) = 23.39073 34.58927 28.99000
#
# Velocity S-wave (km/s) = 3.14144 3.82012 3.49728
# Velocity P-wave (km/s) = 4.80876 6.17265 5.53289
#
# Compressibility (1/GPa) = 0.04233448
#
# Stress axis : x y z
#
# Youngs Moduli (GPa) = 25.63488 118.41679 68.00140
#
# Poissons Ratio (x) = 0.13257 0.42891
# Poissons Ratio (y) = 0.02870 0.16903
# Poissons Ratio (z) = 0.16169 0.29434
#
# Static dielectric constant tensor:
#      x y z
#    x 4.355720 -0.130530 -0.386950 
#    y -0.130530 4.200030 -0.073590 
#    z -0.386950 -0.073590 4.517040 
# 
# 
# High freq. dielectric constant tensor:
#      x y z
#    x 1.942120 -0.001550 -0.019160 
#    y -0.001550 1.937080 -0.001980 
#    z -0.019160 -0.001980 1.952730 
# 
# From -- ./inp_files/62349.got.cif
#   From: 2010.06.25/outbox.cif.g09.slc.cpg/sg2_32_cif.got.tgz:62349.got - 2010.06.27 13:26:56.
