data_PCOD8017812
_publ_section_title
;
Structure prediction by ZEFSAII (Michael W. Deem and Ramdas Pophale) SiO2 
 PCOD8017812
Probable space group: P -1
;
_chemical_formula_sum "Si O2"
_cell_formula_units_Z 16
_cell_length_a 11.121797
_cell_length_b 15.280451
_cell_length_c 8.537070
_cell_angle_alpha 127.944420
_cell_angle_beta 43.704720
_cell_angle_gamma 106.947153
_cell_volume 758.721664
_symmetry_space_group_name_H-M "P -1"
_symmetry_group_IT_number 2
_symmetry_cell_setting 'triclinic'
loop_
_space_group_symop_operation_xyz
x,y,z
-x,-y,-z
loop_
_atom_site_type_symbol
_atom_site_label
_atom_site_fract_x
_atom_site_fract_y
_atom_site_fract_z
Si Si1 0.176818 0.066638 0.716315
Si Si2 0.459167 0.982246 0.840344
Si Si3 0.168626 0.826784 0.367532
Si Si4 0.198925 0.834426 0.984570
Si Si5 0.064718 0.441969 0.539365
Si Si6 0.809748 0.820501 0.845680
Si Si7 0.700135 0.412491 0.887552
Si Si8 0.321911 0.585001 0.459398
O O1 0.357172 0.088882 0.496842
O O2 0.201957 0.929781 0.554096
O O3 0.142818 0.120651 0.978386
O O4 0.007340 0.128210 0.835700
O O5 0.311286 0.911982 0.880889
O O6 0.500000 0.000000 0.000000
O O7 0.382120 0.107322 0.966770
O O8 0.309081 0.707198 0.158133
O O9 0.964104 0.819742 0.572036
O O10 0.204270 0.853777 0.185423
O O11 0.292130 0.701970 0.710766
O O12 0.191599 0.310119 0.256975
O O13 0.187259 0.515962 0.583802
O O14 0.000000 0.500000 0.500000
O O15 0.881533 0.445078 0.811588
O O16 0.712639 0.392362 0.667137
O O17 0.528496 0.512749 0.214724
#
# Coordination Sequence:
#
# PCOD8017812 Si02
#       8
#     2   2   2   2   2   2   2   2
#     4  12  24  42  68  95 130 171 219 267 321 386
#     4  12  26  43  62  97 137 173 211 264 328 391
#     4  11  22  41  66  91 136 169 210 269 326 383
#     4  12  25  43  65  96 134 178 211 263 331 390
#     4   9  19  39  62  91 127 157 210 272 317 369
#     4  11  24  42  69 100 128 172 220 270 324 385
#     4   9  21  39  61  93 124 165 217 270 313 376
#     4  10  22  39  66  88 125 170 215 265 319 379
#
# _framework density 21.088101000000002
#
# number of rings (size 3 to 8) (size 9 to 14) (size 15 to 20)
#    0.000    1.250    2.500    4.125    3.500    4.500 
#    0.000    2.500    0.000    0.000    0.000    0.000 
#    0.000    0.000    0.000    0.000    0.000    0.000 
#
# Total GULP energy -198437.475735 kJ/mol
# GULP energy per Si atom -12402.342233 kJ/mol
# Density = 2.104010 g / cm^3
# Si number density = 21.088101 Si / 1000 Ang^3
#
#
#
# Elastic Constant Matrix: (Units=GPa)
#
#
# Indices 1 2 3 4 5 6 
#
# 1 77.6786 36.4574 34.0460 12.2409 -19.5052 -4.6649
# 2 36.4574 110.2304 45.2926 22.3540 -11.5946 -5.5783
# 3 34.0460 45.2926 104.7162 14.1073 -22.8291 1.8751
# 4 12.2409 22.3540 14.1073 40.0019 2.2925 -3.6012
# 5 -19.5052 -11.5946 -22.8291 2.2925 33.9784 3.0158
# 6 -4.6649 -5.5783 1.8751 -3.6012 3.0158 27.3900
#
#
#
# Elastic Compliance Matrix: (Units=1/GPa)
#
#
# Indices 1 2 3 4 5 6 
#
# 1 0.018018 -0.003534 -0.002255 -0.003073 0.007719 0.001249
# 2 -0.003534 0.012818 -0.003822 -0.004579 -0.000062 0.001675
# 3 -0.002255 -0.003822 0.013955 -0.002808 0.007259 -0.003286
# 4 -0.003073 -0.004579 -0.002808 0.030241 -0.007568 0.003546
# 5 0.007719 -0.000062 0.007259 -0.007568 0.039632 -0.004554
# 6 0.001249 0.001675 -0.003286 0.003546 -0.004554 0.038256
#
#
# Mechanical properties :
#
#
# Convention : Reuss Voigt Hill
#
# Bulk Modulus (GPa) = 39.10953 58.24636 48.67794
# Shear Modulus (GPa) = 27.67536 32.06268 29.86902
#
# Velocity S-wave (km/s) = 3.62659 3.90348 3.76758
# Velocity P-wave (km/s) = 6.01018 6.92796 6.48533
#
# Compressibility (1/GPa) = 0.02556922
#
# Stress axis : x y z
#
# Youngs Moduli (GPa) = 55.49935 78.01525 71.65719
#
# Poissons Ratio (x) = 0.27574 0.16160
# Poissons Ratio (y) = 0.19616 0.27385
# Poissons Ratio (z) = 0.12516 0.29815
#
# Static dielectric constant tensor:
#      x y z
#    x 3.710350 0.113010 -0.272770 
#    y 0.113010 4.159380 -0.021930 
#    z -0.272770 -0.021930 3.863260 
# 
# 
# High freq. dielectric constant tensor:
#      x y z
#    x 1.815100 0.001090 -0.021040 
#    y 0.001090 1.838670 0.003760 
#    z -0.021040 0.003760 1.827330 
# 
# From -- ./inp_files/258573.got.cif
#   From: 2010.06.25/outbox.cif.g09.slc.cpg/sg2_130_cif.got.tgz:258573.got - 2010.06.27 13:26:56.
