data_PCOD8017067
_publ_section_title
;
Structure prediction by ZEFSAII (Michael W. Deem and Ramdas Pophale) SiO2 
 PCOD8017067
Probable space group: P -1
;
_chemical_formula_sum "Si O2"
_cell_formula_units_Z 14
_cell_length_a 24.558603
_cell_length_b 7.318060
_cell_length_c 5.454001
_cell_angle_alpha 77.511315
_cell_angle_beta 123.369129
_cell_angle_gamma 135.860594
_cell_volume 542.576869
_symmetry_space_group_name_H-M "P -1"
_symmetry_group_IT_number 2
_symmetry_cell_setting 'triclinic'
loop_
_space_group_symop_operation_xyz
x,y,z
-x,-y,-z
loop_
_atom_site_type_symbol
_atom_site_label
_atom_site_fract_x
_atom_site_fract_y
_atom_site_fract_z
Si Si1 0.036012 0.783295 0.028904
Si Si2 0.211751 0.997709 0.656651
Si Si3 0.409424 0.566381 0.859284
Si Si4 0.489661 0.196520 0.451091
Si Si5 0.820661 0.800140 0.105811
Si Si6 0.316299 0.720414 0.404477
Si Si7 0.164219 0.520362 0.434498
O O1 0.128121 0.972009 0.378719
O O2 0.000000 0.500000 0.000000
O O3 0.940638 0.698552 0.895449
O O4 0.073502 0.946680 0.817012
O O5 0.310640 0.241259 0.687935
O O6 0.220364 0.083679 0.935575
O O7 0.175976 0.709986 0.611077
O O8 0.475199 0.636433 0.767542
O O9 0.389705 0.751774 0.748162
O O10 0.455669 0.612305 0.225169
O O11 0.500000 0.000000 0.500000
O O12 0.375155 0.980247 0.286696
O O13 0.825197 0.657083 0.369035
O O14 0.742481 0.567335 0.786951
O O15 0.247108 0.714995 0.380648
#
# Coordination Sequence:
#
# PCOD8017067 Si02
#       7
#     2   2   2   2   2   2   2
#     4  10  24  44  68  98 140 181 233 289 360 426
#     4  11  24  44  70  98 141 183 240 284 359 422
#     4  11  21  42  70 103 139 194 235 295 357 428
#     4  10  22  37  72 103 140 186 244 287 361 428
#     4  12  23  43  70  97 141 182 234 290 358 419
#     4  11  23  41  67 103 139 178 235 294 351 427
#     4  11  26  42  67 104 137 181 237 295 353 426
#
# _framework density 25.802796000000001
#
# number of rings (size 3 to 8) (size 9 to 14) (size 15 to 20)
#    0.000    1.143    2.857    3.857    2.000    8.000 
#    0.000    1.429    0.000    0.000    0.000    0.000 
#    0.000    0.000    0.000    0.000    0.000    0.000 
#
# Total GULP energy -173443.650824 kJ/mol
# GULP energy per Si atom -12388.832202 kJ/mol
# Density = 2.574407 g / cm^3
# Si number density = 25.802796 Si / 1000 Ang^3
#
#
#
# Elastic Constant Matrix: (Units=GPa)
#
#
# Indices 1 2 3 4 5 6 
#
# 1 139.3775 50.7710 42.2630 15.0479 -16.0973 31.6444
# 2 50.7710 109.1551 34.0376 15.8793 5.2446 32.5600
# 3 42.2630 34.0376 83.7341 10.5566 -20.2785 12.2636
# 4 15.0479 15.8793 10.5566 28.0100 4.5786 -2.3906
# 5 -16.0973 5.2446 -20.2785 4.5786 26.3250 15.2360
# 6 31.6444 32.5600 12.2636 -2.3906 15.2360 57.5841
#
#
#
# Elastic Compliance Matrix: (Units=1/GPa)
#
#
# Indices 1 2 3 4 5 6 
#
# 1 0.013631 -0.002799 0.001936 -0.010588 0.019056 -0.011802
# 2 -0.002799 0.013953 -0.003992 -0.004626 -0.004093 -0.004610
# 3 0.001936 -0.003992 0.022969 -0.013161 0.028834 -0.011874
# 4 -0.010588 -0.004626 -0.013161 0.057513 -0.039651 0.024116
# 5 0.019056 -0.004093 0.028834 -0.039651 0.104846 -0.043685
# 6 -0.011802 -0.004610 -0.011874 0.024116 -0.043685 0.041547
#
#
# Mechanical properties :
#
#
# Convention : Reuss Voigt Hill
#
# Bulk Modulus (GPa) = 24.48350 65.15665 44.82008
# Shear Modulus (GPa) = 17.99977 36.06350 27.03163
#
# Velocity S-wave (km/s) = 2.64406 3.74258 3.24021
# Velocity P-wave (km/s) = 4.33943 6.63193 5.60416
#
# Compressibility (1/GPa) = 0.04084384
#
# Stress axis : x y z
#
# Youngs Moduli (GPa) = 73.36380 71.67073 43.53653
#
# Poissons Ratio (x) = 0.20058 -0.08430
# Poissons Ratio (y) = 0.20532 0.17380
# Poissons Ratio (z) = -0.14205 0.28611
#
# Static dielectric constant tensor:
#      x y z
#    x 4.238340 0.361420 -0.133040 
#    y 0.361420 4.871770 0.155160 
#    z -0.133040 0.155160 4.886630 
# 
# 
# High freq. dielectric constant tensor:
#      x y z
#    x 2.026150 0.014800 -0.002120 
#    y 0.014800 2.043730 0.020200 
#    z -0.002120 0.020200 2.018360 
# 
# From -- ./inp_files/126425.got.cif
#   From: 2010.06.25/outbox.cif.g09.slc.cpg/sg2_64_cif.got.tgz:126425.got - 2010.06.27 13:26:56.
