data_PCOD8017126
_publ_section_title
;
Structure prediction by ZEFSAII (Michael W. Deem and Ramdas Pophale) SiO2 
 PCOD8017126
Probable space group: P -1
;
_chemical_formula_sum "Si O2"
_cell_formula_units_Z 16
_cell_length_a 15.575628
_cell_length_b 9.769549
_cell_length_c 9.398813
_cell_angle_alpha 43.839903
_cell_angle_beta 72.074428
_cell_angle_gamma 98.734321
_cell_volume 776.195438
_symmetry_space_group_name_H-M "P -1"
_symmetry_group_IT_number 2
_symmetry_cell_setting 'triclinic'
loop_
_space_group_symop_operation_xyz
x,y,z
-x,-y,-z
loop_
_atom_site_type_symbol
_atom_site_label
_atom_site_fract_x
_atom_site_fract_y
_atom_site_fract_z
Si Si1 0.333581 0.283693 0.267675
Si Si2 0.132610 0.245305 0.539149
Si Si3 0.513587 0.248552 0.325195
Si Si4 0.968412 0.719162 0.981098
Si Si5 0.235544 0.552345 0.532040
Si Si6 0.398333 0.483400 0.632829
Si Si7 0.001553 0.313416 0.330943
Si Si8 0.246119 0.011272 0.227824
O O1 0.229165 0.228816 0.445458
O O2 0.398779 0.220813 0.388481
O O3 0.300428 0.111825 0.277978
O O4 0.404610 0.562841 0.977243
O O5 0.167835 0.414201 0.530242
O O6 0.095767 0.355936 0.355855
O O7 0.035005 0.974883 0.834414
O O8 0.561163 0.337777 0.390167
O O9 0.500000 0.000000 0.500000
O O10 0.981124 0.768667 0.768738
O O11 0.840876 0.576285 0.193986
O O12 0.015541 0.565899 0.119834
O O13 0.345925 0.561814 0.482357
O O14 0.271236 0.822818 0.303577
O O15 0.500000 0.500000 0.500000
O O16 0.301840 0.216048 0.927754
O O17 0.883504 0.106403 0.609707
#
# Coordination Sequence:
#
# PCOD8017126 Si02
#       8
#     2   2   2   2   2   2   2   2
#     4  10  22  38  60  90 115 155 207 250 298 360
#     4  12  23  37  62  92 127 159 201 253 299 355
#     4  10  22  40  62  85 115 155 205 257 300 354
#     4  10  22  39  62  92 126 161 208 243 295 372
#     4  11  25  39  61  93 125 163 200 251 306 360
#     4  11  24  41  63  87 121 162 202 252 313 361
#     4  10  22  39  64  92 122 169 200 245 302 360
#     4  10  22  42  62  86 125 163 201 248 302 371
#
# _framework density 20.613365000000002
#
# number of rings (size 3 to 8) (size 9 to 14) (size 15 to 20)
#    0.000    1.500    1.250    3.000    3.500    5.500 
#    0.000    0.000    0.000    0.000    0.000    0.000 
#    0.000    0.000    0.000    0.000    0.000    0.000 
#
# Total GULP energy -198492.610590 kJ/mol
# GULP energy per Si atom -12405.788162 kJ/mol
# Density = 2.056645 g / cm^3
# Si number density = 20.613365 Si / 1000 Ang^3
#
#
#
# Elastic Constant Matrix: (Units=GPa)
#
#
# Indices 1 2 3 4 5 6 
#
# 1 139.1699 44.7062 38.7510 -3.8461 3.5856 2.8287
# 2 44.7062 116.5768 52.7335 -20.5298 12.8857 -4.2946
# 3 38.7510 52.7335 69.0705 -8.5928 8.5166 -1.2923
# 4 -3.8461 -20.5298 -8.5928 33.1084 -5.3307 0.4866
# 5 3.5856 12.8857 8.5166 -5.3307 22.1503 3.4345
# 6 2.8287 -4.2946 -1.2923 0.4866 3.4345 29.7536
#
#
#
# Elastic Compliance Matrix: (Units=1/GPa)
#
#
# Indices 1 2 3 4 5 6 
#
# 1 0.008849 -0.002099 -0.003660 -0.001014 0.001172 -0.001422
# 2 -0.002099 0.015056 -0.009043 0.006093 -0.003836 0.002323
# 3 -0.003660 -0.009043 0.023822 -0.000418 -0.003482 0.000486
# 4 -0.001014 0.006093 -0.000418 0.034586 0.005134 -0.000201
# 5 0.001172 -0.003836 -0.003482 0.005134 0.050811 -0.006766
# 6 -0.001422 0.002323 0.000486 -0.000201 -0.006766 0.034885
#
#
# Mechanical properties :
#
#
# Convention : Reuss Voigt Hill
#
# Bulk Modulus (GPa) = 55.17415 66.35541 60.76478
# Shear Modulus (GPa) = 24.55143 29.57753 27.06448
#
# Velocity S-wave (km/s) = 3.45490 3.79208 3.62741
# Velocity P-wave (km/s) = 6.53754 7.17172 6.86196
#
# Compressibility (1/GPa) = 0.01812443
#
# Stress axis : x y z
#
# Youngs Moduli (GPa) = 113.00284 66.41822 41.97825
#
# Poissons Ratio (x) = 0.13938 0.15363
# Poissons Ratio (y) = 0.23714 0.37961
# Poissons Ratio (z) = 0.41357 0.60063
#
# Static dielectric constant tensor:
#      x y z
#    x 3.896820 -0.106630 0.029690 
#    y -0.106630 3.932990 -0.159770 
#    z 0.029690 -0.159770 3.832520 
# 
# 
# High freq. dielectric constant tensor:
#      x y z
#    x 1.816520 -0.003750 -0.000920 
#    y -0.003750 1.809800 -0.009310 
#    z -0.000920 -0.009310 1.806180 
# 
# From -- ./inp_files/187030.got.cif
#   From: 2010.06.25/outbox.cif.g09.slc.cpg/sg2_94_cif.got.tgz:187030.got - 2010.06.27 13:26:56.
