data_PCOD8017214
_publ_section_title
;
Structure prediction by ZEFSAII (Michael W. Deem and Ramdas Pophale) SiO2 
 PCOD8017214
Probable space group: P -1
;
_chemical_formula_sum "Si O2"
_cell_formula_units_Z 16
_cell_length_a 8.176225
_cell_length_b 11.354323
_cell_length_c 14.697792
_cell_angle_alpha 75.815109
_cell_angle_beta 95.619327
_cell_angle_gamma 139.261107
_cell_volume 854.980564
_symmetry_space_group_name_H-M "P -1"
_symmetry_group_IT_number 2
_symmetry_cell_setting 'triclinic'
loop_
_space_group_symop_operation_xyz
x,y,z
-x,-y,-z
loop_
_atom_site_type_symbol
_atom_site_label
_atom_site_fract_x
_atom_site_fract_y
_atom_site_fract_z
Si Si1 0.997610 0.940166 0.109189
Si Si2 0.106525 0.022857 0.721865
Si Si3 0.624304 0.037983 0.334563
Si Si4 0.517676 0.564113 0.388228
Si Si5 0.015764 0.669503 0.559556
Si Si6 0.590969 0.829603 0.774534
Si Si7 0.243675 0.427694 0.769866
Si Si8 0.083740 0.656518 0.374738
O O1 0.851333 0.944528 0.172645
O O2 0.833871 0.724051 0.137819
O O3 0.287668 0.084906 0.133820
O O4 0.000000 0.000000 0.000000
O O5 0.296102 0.216403 0.640877
O O6 0.158921 0.911861 0.720091
O O7 0.820370 0.911204 0.705465
O O8 0.740912 0.127379 0.423364
O O9 0.536766 0.115814 0.271339
O O10 0.386070 0.813553 0.371695
O O11 0.500000 0.500000 0.500000
O O12 0.586577 0.511310 0.320283
O O13 0.231472 0.443701 0.372642
O O14 0.989613 0.691259 0.446735
O O15 0.066228 0.553665 0.586275
O O16 0.375144 0.604883 0.804245
O O17 0.978725 0.321088 0.730622
#
# Coordination Sequence:
#
# PCOD8017214 Si02
#       8
#     2   2   2   2   2   2   2   2
#     4   9  21  42  64  87 116 150 195 248 303 356
#     4   9  22  40  59  87 118 154 197 244 298 349
#     4  12  20  39  59  85 121 156 200 242 291 347
#     4  11  20  37  56  81 121 162 201 244 285 341
#     4  11  23  33  56  82 118 163 203 234 286 340
#     4  10  22  38  63  87 117 153 193 244 303 348
#     4  11  20  39  62  82 119 157 195 241 297 349
#     4  11  21  37  51  83 120 159 199 241 282 340
#
# _framework density 18.713875000000002
#
# number of rings (size 3 to 8) (size 9 to 14) (size 15 to 20)
#    0.750    0.750    5.000    1.125    0.000    0.500 
#    2.250    1.875    0.000    0.750    0.000    0.000 
#    0.000    0.000    0.000    0.000    0.000    0.000 
#
# Total GULP energy -198215.311947 kJ/mol
# GULP energy per Si atom -12388.456997 kJ/mol
# Density = 1.867128 g / cm^3
# Si number density = 18.713875 Si / 1000 Ang^3
#
#
#
# Elastic Constant Matrix: (Units=GPa)
#
#
# Indices 1 2 3 4 5 6 
#
# 1 90.9340 29.9142 19.3772 -2.1546 3.5890 -7.7562
# 2 29.9142 118.2145 38.6753 1.2584 6.3870 -1.1012
# 3 19.3772 38.6753 109.8854 -7.2561 9.8966 -4.8186
# 4 -2.1546 1.2584 -7.2561 20.1779 0.2593 1.8678
# 5 3.5890 6.3870 9.8966 0.2593 15.6245 1.7426
# 6 -7.7562 -1.1012 -4.8186 1.8678 1.7426 27.7582
#
#
#
# Elastic Compliance Matrix: (Units=1/GPa)
#
#
# Indices 1 2 3 4 5 6 
#
# 1 0.012452 -0.002758 -0.000883 0.000903 -0.001552 0.003253
# 2 -0.002758 0.010286 -0.003164 -0.001992 -0.001457 -0.000686
# 3 -0.000883 -0.003164 0.011241 0.004066 -0.005878 0.001674
# 4 0.000903 -0.001992 0.004066 0.051499 -0.002553 -0.002426
# 5 -0.001552 -0.001457 -0.005878 -0.002553 0.069355 -0.005694
# 6 0.003253 -0.000686 0.001674 -0.002426 -0.005694 0.037719
#
#
# Mechanical properties :
#
#
# Convention : Reuss Voigt Hill
#
# Bulk Modulus (GPa) = 49.09394 54.99635 52.04514
# Shear Modulus (GPa) = 23.47946 28.11660 25.79803
#
# Velocity S-wave (km/s) = 3.54595 3.88035 3.71691
# Velocity P-wave (km/s) = 6.56171 7.03761 6.80382
#
# Compressibility (1/GPa) = 0.02036911
#
# Stress axis : x y z
#
# Youngs Moduli (GPa) = 80.30524 97.22157 88.95887
#
# Poissons Ratio (x) = 0.26810 0.07858
# Poissons Ratio (y) = 0.22145 0.28149
# Poissons Ratio (z) = 0.07093 0.30763
#
# Static dielectric constant tensor:
#      x y z
#    x 3.558050 0.060400 0.006710 
#    y 0.060400 3.525000 0.020520 
#    z 0.006710 0.020520 2.992050 
# 
# 
# High freq. dielectric constant tensor:
#      x y z
#    x 1.725720 0.001340 0.006270 
#    y 0.001340 1.740030 -0.000060 
#    z 0.006270 -0.000060 1.681570 
# 
# From -- ./inp_files/272729.got.cif
#   From: 2010.06.25/outbox.cif.g09.slc.cpg/sg2_137_cif.got.tgz:272729.got - 2010.06.27 13:26:56.
