data_PCOD8017517
_publ_section_title
;
Structure prediction by ZEFSAII (Michael W. Deem and Ramdas Pophale) SiO2 
 PCOD8017517
Probable space group: P -1
;
_chemical_formula_sum "Si O2"
_cell_formula_units_Z 14
_cell_length_a 11.416753
_cell_length_b 7.033299
_cell_length_c 10.444445
_cell_angle_alpha 94.007886
_cell_angle_beta 48.919083
_cell_angle_gamma 90.224466
_cell_volume 629.637670
_symmetry_space_group_name_H-M "P -1"
_symmetry_group_IT_number 2
_symmetry_cell_setting 'triclinic'
loop_
_space_group_symop_operation_xyz
x,y,z
-x,-y,-z
loop_
_atom_site_type_symbol
_atom_site_label
_atom_site_fract_x
_atom_site_fract_y
_atom_site_fract_z
Si Si1 0.173057 0.039316 0.913795
Si Si2 0.706956 0.630592 0.308130
Si Si3 0.192204 0.324410 0.276259
Si Si4 0.158070 0.917933 0.204190
Si Si5 0.564174 0.253458 0.317434
Si Si6 0.520518 0.204855 0.053253
Si Si7 0.058443 0.409820 0.641650
O O1 0.209712 0.251036 0.854627
O O2 0.294026 0.891426 0.748095
O O3 0.193436 0.017733 0.049024
O O4 0.000000 0.000000 0.000000
O O5 0.625593 0.465127 0.283901
O O6 0.577753 0.762771 0.482653
O O7 0.835969 0.544447 0.311040
O O8 0.376481 0.342976 0.110035
O O9 0.158534 0.425989 0.441566
O O10 0.084269 0.429903 0.251028
O O11 0.150975 0.100474 0.312636
O O12 0.002055 0.804410 0.312699
O O13 0.302407 0.757266 0.117690
O O14 0.502173 0.204667 0.219589
O O15 0.500000 0.000000 0.000000
#
# Coordination Sequence:
#
# PCOD8017517 Si02
#       7
#     2   2   2   2   2   2   2
#     4  11  23  40  62  94 125 163 205 259 320 373
#     4  11  23  41  66  93 129 167 208 260 315 377
#     4  10  22  40  62  87 122 164 213 253 305 371
#     4  10  22  39  61  91 122 161 207 257 315 364
#     4  10  23  42  64  94 126 167 214 256 313 377
#     4   9  19  41  65  86 126 164 206 256 305 373
#     4  11  22  38  63  92 123 162 206 259 311 368
#
# _framework density 22.235012000000001
#
# number of rings (size 3 to 8) (size 9 to 14) (size 15 to 20)
#    0.000    1.714    2.857    0.857    2.000    3.429 
#    0.000    5.714    0.000    0.000    0.000    0.000 
#    0.000    0.000    0.000    0.000    0.000    0.000 
#
# Total GULP energy -173533.446394 kJ/mol
# GULP energy per Si atom -12395.246171 kJ/mol
# Density = 2.218440 g / cm^3
# Si number density = 22.235012 Si / 1000 Ang^3
#
#
#
# Elastic Constant Matrix: (Units=GPa)
#
#
# Indices 1 2 3 4 5 6 
#
# 1 120.7039 29.3027 47.0226 14.4078 -19.1442 -7.6825
# 2 29.3027 62.3405 26.9452 2.7877 -2.9477 -4.9728
# 3 47.0226 26.9452 72.8762 7.1880 -8.4137 -6.7374
# 4 14.4078 2.7877 7.1880 35.5914 0.0392 -7.3660
# 5 -19.1442 -2.9477 -8.4137 0.0392 38.0377 10.2663
# 6 -7.6825 -4.9728 -6.7374 -7.3660 10.2663 40.8611
#
#
#
# Elastic Compliance Matrix: (Units=1/GPa)
#
#
# Indices 1 2 3 4 5 6 
#
# 1 0.012589 -0.002915 -0.006178 -0.003823 0.005004 -0.000953
# 2 -0.002915 0.019830 -0.005598 0.001077 -0.001584 0.001534
# 3 -0.006178 -0.005598 0.020038 -0.000868 0.000577 0.001160
# 4 -0.003823 0.001077 -0.000868 0.030930 -0.003617 0.005754
# 5 0.005004 -0.001584 0.000577 -0.003617 0.030858 -0.007562
# 6 -0.000953 0.001534 0.001160 0.005754 -0.007562 0.027609
#
#
# Mechanical properties :
#
#
# Convention : Reuss Voigt Hill
#
# Bulk Modulus (GPa) = 43.34017 51.38460 47.36239
# Shear Modulus (GPa) = 27.94428 33.07473 30.50951
#
# Velocity S-wave (km/s) = 3.54894 3.86100 3.70826
# Velocity P-wave (km/s) = 6.02723 6.56021 6.29936
#
# Compressibility (1/GPa) = 0.02307328
#
# Stress axis : x y z
#
# Youngs Moduli (GPa) = 79.43677 50.42795 49.90642
#
# Poissons Ratio (x) = 0.14701 0.30832
# Poissons Ratio (y) = 0.23158 0.27939
# Poissons Ratio (z) = 0.49076 0.28230
#
# Static dielectric constant tensor:
#      x y z
#    x 4.510260 -0.210980 -0.422750 
#    y -0.210980 3.752040 0.266770 
#    z -0.422750 0.266770 4.205000 
# 
# 
# High freq. dielectric constant tensor:
#      x y z
#    x 1.884730 0.003780 -0.018190 
#    y 0.003780 1.856010 0.017340 
#    z -0.018190 0.017340 1.880390 
# 
# From -- ./inp_files/70418.got.cif
#   From: 2010.06.25/outbox.cif.g09.slc.cpg/sg2_36_cif.got.tgz:70418.got - 2010.06.27 13:26:56.
