data_PCOD8017782
_publ_section_title
;
Structure prediction by ZEFSAII (Michael W. Deem and Ramdas Pophale) SiO2 
 PCOD8017782
Probable space group: P -1
;
_chemical_formula_sum "Si O2"
_cell_formula_units_Z 16
_cell_length_a 12.346558
_cell_length_b 9.424597
_cell_length_c 18.037492
_cell_angle_alpha 39.132166
_cell_angle_beta 142.957042
_cell_angle_gamma 140.938586
_cell_volume 726.441697
_symmetry_space_group_name_H-M "P -1"
_symmetry_group_IT_number 2
_symmetry_cell_setting 'triclinic'
loop_
_space_group_symop_operation_xyz
x,y,z
-x,-y,-z
loop_
_atom_site_type_symbol
_atom_site_label
_atom_site_fract_x
_atom_site_fract_y
_atom_site_fract_z
Si Si1 0.807443 0.355060 0.646514
Si Si2 0.907877 0.119884 0.068858
Si Si3 0.403044 0.535967 0.043685
Si Si4 0.748999 0.081282 0.152683
Si Si5 0.156811 0.508699 0.222068
Si Si6 0.689395 0.831124 0.738369
Si Si7 0.217180 0.384826 0.849156
Si Si8 0.556063 0.565068 0.342271
O O1 0.805808 0.344676 0.739167
O O2 0.722817 0.547142 0.493904
O O3 0.031401 0.444916 0.702062
O O4 0.674262 0.085551 0.647921
O O5 0.753134 0.029429 0.088499
O O6 0.114599 0.144407 0.209471
O O7 0.850295 0.909669 0.058870
O O8 0.915605 0.365480 0.934591
O O9 0.393037 0.774635 0.979286
O O10 0.314419 0.530829 0.916572
O O11 0.274666 0.289737 0.117401
O O12 0.621423 0.537633 0.159755
O O13 0.973264 0.241352 0.240589
O O14 0.646904 0.832214 0.245630
O O15 0.364881 0.510871 0.310497
O O16 0.496938 0.646910 0.663854
#
# Coordination Sequence:
#
# PCOD8017782 Si02
#       8
#     2   2   2   2   2   2   2   2
#     4  11  25  47  65  93 134 185 222 264 319 397
#     4  11  21  41  70 100 130 166 219 284 340 375
#     4  11  21  40  65 103 127 164 220 282 341 380
#     4  12  24  42  68 103 135 170 212 281 335 390
#     4  12  23  45  69 100 132 172 222 277 333 388
#     4  11  22  42  69  95 130 171 224 279 325 383
#     4  10  22  39  65  96 132 168 221 272 333 388
#     4  12  27  44  66  97 138 183 222 256 325 406
#
# _framework density 22.025167
#
# number of rings (size 3 to 8) (size 9 to 14) (size 15 to 20)
#    0.000    0.750    3.750    4.125    0.000    5.000 
#    2.250    3.125    0.000    0.000    0.000    0.000 
#    0.000    0.000    0.000    0.000    0.000    0.000 
#
# Total GULP energy -198326.981808 kJ/mol
# GULP energy per Si atom -12395.436363 kJ/mol
# Density = 2.197504 g / cm^3
# Si number density = 22.025167 Si / 1000 Ang^3
#
#
#
# Elastic Constant Matrix: (Units=GPa)
#
#
# Indices 1 2 3 4 5 6 
#
# 1 127.4061 39.3682 46.7195 3.4324 13.4189 6.3907
# 2 39.3682 87.1698 20.9558 -0.0995 6.4408 14.0583
# 3 46.7195 20.9558 102.1024 -1.6511 13.1603 6.7569
# 4 3.4324 -0.0995 -1.6511 29.0543 4.3372 0.5445
# 5 13.4189 6.4408 13.1603 4.3372 30.0543 3.3837
# 6 6.3907 14.0583 6.7569 0.5445 3.3837 32.3576
#
#
#
# Elastic Compliance Matrix: (Units=1/GPa)
#
#
# Indices 1 2 3 4 5 6 
#
# 1 0.010686 -0.003833 -0.003886 -0.001187 -0.002145 0.000611
# 2 -0.003833 0.014268 -0.000750 0.000635 -0.000519 -0.005242
# 3 -0.003886 -0.000750 0.012293 0.001715 -0.003608 -0.001125
# 4 -0.001187 0.000635 0.001715 0.035477 -0.005428 -0.000429
# 5 -0.002145 -0.000519 -0.003608 -0.005428 0.036973 -0.002372
# 6 0.000611 -0.005242 -0.001125 -0.000429 -0.002372 0.033552
#
#
# Mechanical properties :
#
#
# Convention : Reuss Voigt Hill
#
# Bulk Modulus (GPa) = 49.24121 58.97393 54.10757
# Shear Modulus (GPa) = 29.94811 32.26889 31.10850
#
# Velocity S-wave (km/s) = 3.69144 3.83180 3.76228
# Velocity P-wave (km/s) = 6.36980 6.81255 6.59489
#
# Compressibility (1/GPa) = 0.02030819
#
# Stress axis : x y z
#
# Youngs Moduli (GPa) = 93.58425 70.08797 81.34443
#
# Poissons Ratio (x) = 0.26865 0.31609
# Poissons Ratio (y) = 0.35871 0.06104
# Poissons Ratio (z) = 0.36365 0.05259
#
# Static dielectric constant tensor:
#      x y z
#    x 4.246510 0.044600 0.205420 
#    y 0.044600 4.071770 0.133330 
#    z 0.205420 0.133330 3.595300 
# 
# 
# High freq. dielectric constant tensor:
#      x y z
#    x 1.885450 -0.003000 0.017900 
#    y -0.003000 1.880460 0.011400 
#    z 0.017900 0.011400 1.833130 
# 
# From -- ./inp_files/428338.got.cif
#   From: 2010.06.25/outbox.cif.g09.slc.cpg/sg2_215_cif.got.tgz:428338.got - 2010.06.27 13:26:56.
