data_PCOD8017221
_publ_section_title
;
Structure prediction by ZEFSAII (Michael W. Deem and Ramdas Pophale) SiO2 
 PCOD8017221
Probable space group: P -1
;
_chemical_formula_sum "Si O2"
_cell_formula_units_Z 16
_cell_length_a 10.993043
_cell_length_b 9.627553
_cell_length_c 14.368550
_cell_angle_alpha 95.635645
_cell_angle_beta 34.668613
_cell_angle_gamma 106.276792
_cell_volume 805.606039
_symmetry_space_group_name_H-M "P -1"
_symmetry_group_IT_number 2
_symmetry_cell_setting 'triclinic'
loop_
_space_group_symop_operation_xyz
x,y,z
-x,-y,-z
loop_
_atom_site_type_symbol
_atom_site_label
_atom_site_fract_x
_atom_site_fract_y
_atom_site_fract_z
Si Si1 0.578057 0.764865 0.030244
Si Si2 0.804052 0.518579 0.686719
Si Si3 0.986934 0.314262 0.262735
Si Si4 0.601095 0.049081 0.148017
Si Si5 0.891697 0.562048 0.989811
Si Si6 0.522219 0.707013 0.849863
Si Si7 0.912968 0.843720 0.098133
Si Si8 0.492627 0.905887 0.407711
O O1 0.842587 0.777810 0.868008
O O2 0.481304 0.742987 0.984777
O O3 0.426266 0.625637 0.179404
O O4 0.550578 0.910344 0.101778
O O5 0.888784 0.544162 0.741358
O O6 0.750156 0.664334 0.695685
O O7 0.000000 0.500000 0.500000
O O8 0.756635 0.217444 0.452944
O O9 0.929405 0.373474 0.203588
O O10 0.449317 0.146308 0.218939
O O11 0.540001 0.002999 0.290311
O O12 0.870154 0.155085 0.976174
O O13 0.677538 0.434162 0.073946
O O14 0.826279 0.701023 0.076055
O O15 0.000000 0.500000 0.000000
O O16 0.687502 0.833502 0.297200
O O17 0.000000 0.000000 0.000000
O O18 0.500000 0.000000 0.500000
#
# Coordination Sequence:
#
# PCOD8017221 Si02
#       8
#     2   2   2   2   2   2   2   2
#     4  11  21  43  67  91 121 168 219 254 307 380
#     4  11  23  40  65  93 121 165 212 256 308 378
#     4  11  21  40  65  91 122 167 212 255 307 373
#     4  11  22  41  65  93 127 165 210 264 312 362
#     4  12  22  40  66  92 129 162 208 262 316 372
#     4  11  23  41  64  96 125 165 207 262 322 362
#     4  10  22  38  63  91 123 171 209 245 304 375
#     4  11  23  39  62  95 129 169 213 249 306 382
#
# _framework density 19.860824999999998
#
# number of rings (size 3 to 8) (size 9 to 14) (size 15 to 20)
#    0.000    1.000    3.750    5.625    1.750    0.000 
#    0.000   10.000    0.000    0.000    0.000    0.000 
#    0.000    0.000    0.000    0.000    0.000    0.000 
#
# Total GULP energy -198339.848384 kJ/mol
# GULP energy per Si atom -12396.240524 kJ/mol
# Density = 1.981562 g / cm^3
# Si number density = 19.860825 Si / 1000 Ang^3
#
#
#
# Elastic Constant Matrix: (Units=GPa)
#
#
# Indices 1 2 3 4 5 6 
#
# 1 126.1304 59.3376 51.7872 8.4174 12.4364 0.1461
# 2 59.3376 135.1915 57.2232 16.5426 8.6106 7.1654
# 3 51.7872 57.2232 131.9680 13.0818 -5.9261 -7.4382
# 4 8.4174 16.5426 13.0818 31.6714 7.8144 2.1448
# 5 12.4364 8.6106 -5.9261 7.8144 31.5816 -0.6973
# 6 0.1461 7.1654 -7.4382 2.1448 -0.6973 41.6367
#
#
#
# Elastic Compliance Matrix: (Units=1/GPa)
#
#
# Indices 1 2 3 4 5 6 
#
# 1 0.011221 -0.003409 -0.003256 0.001243 -0.004412 -0.000172
# 2 -0.003409 0.010859 -0.003289 -0.002860 -0.001579 -0.002324
# 3 -0.003256 -0.003289 0.011011 -0.003427 0.005155 0.002807
# 4 0.001243 -0.002860 -0.003427 0.036636 -0.009466 -0.002170
# 5 -0.004412 -0.001579 0.005155 -0.009466 0.037193 0.002319
# 6 -0.000172 -0.002324 0.002807 -0.002170 0.002319 0.025070
#
#
# Mechanical properties :
#
#
# Convention : Reuss Voigt Hill
#
# Bulk Modulus (GPa) = 75.85868 81.10955 78.48411
# Shear Modulus (GPa) = 31.99121 35.97406 33.98263
#
# Velocity S-wave (km/s) = 4.01779 4.26056 4.14096
# Velocity P-wave (km/s) = 7.73315 8.07037 7.90356
#
# Compressibility (1/GPa) = 0.01318241
#
# Stress axis : x y z
#
# Youngs Moduli (GPa) = 89.11664 92.08864 90.81665
#
# Poissons Ratio (x) = 0.31391 0.29574
# Poissons Ratio (y) = 0.30378 0.29872
# Poissons Ratio (z) = 0.29020 0.30291
#
# Static dielectric constant tensor:
#      x y z
#    x 4.017800 -0.001040 -0.067550 
#    y -0.001040 3.816690 -0.054060 
#    z -0.067550 -0.054060 4.015360 
# 
# 
# High freq. dielectric constant tensor:
#      x y z
#    x 1.785790 0.018360 -0.002690 
#    y 0.018360 1.780600 0.007320 
#    z -0.002690 0.007320 1.758350 
# 
# From -- ./inp_files/218953.got.cif
#   From: 2010.06.25/outbox.cif.g09.slc.cpg/sg2_110_cif.got.tgz:218953.got - 2010.06.27 13:26:56.
