data_PCOD8017344
_publ_section_title
;
Structure prediction by ZEFSAII (Michael W. Deem and Ramdas Pophale) SiO2 
 PCOD8017344
Probable space group: P -1
;
_chemical_formula_sum "Si O2"
_cell_formula_units_Z 16
_cell_length_a 11.405702
_cell_length_b 20.844539
_cell_length_c 18.249540
_cell_angle_alpha 28.052156
_cell_angle_beta 143.098107
_cell_angle_gamma 157.721713
_cell_volume 770.016600
_symmetry_space_group_name_H-M "P -1"
_symmetry_group_IT_number 2
_symmetry_cell_setting 'triclinic'
loop_
_space_group_symop_operation_xyz
x,y,z
-x,-y,-z
loop_
_atom_site_type_symbol
_atom_site_label
_atom_site_fract_x
_atom_site_fract_y
_atom_site_fract_z
Si Si1 0.648138 0.356793 0.477553
Si Si2 0.356912 0.941291 0.783999
Si Si3 0.626573 0.531959 0.831630
Si Si4 0.683077 0.448942 0.567543
Si Si5 0.144983 0.166200 0.700939
Si Si6 0.681406 0.835460 0.051635
Si Si7 0.725599 0.179397 0.871394
Si Si8 0.301044 0.304255 0.041027
O O1 0.539247 0.410464 0.310326
O O2 0.594827 0.395055 0.492201
O O3 0.000000 0.500000 0.500000
O O4 0.439453 0.110952 0.599948
O O5 0.514153 0.885406 0.895973
O O6 0.992272 0.734309 0.818335
O O7 0.505789 0.076673 0.796071
O O8 0.503316 0.383996 0.990037
O O9 0.545484 0.407404 0.842884
O O10 0.369354 0.284898 0.623851
O O11 0.905677 0.701318 0.438277
O O12 0.855948 0.403623 0.726323
O O13 0.279746 0.159873 0.846259
O O14 0.825790 0.912327 0.775155
O O15 0.000000 0.000000 0.000000
O O16 0.006216 0.232488 0.942391
O O17 0.500000 0.000000 0.000000
O O18 0.500000 0.500000 0.000000
#
# Coordination Sequence:
#
# PCOD8017344 Si02
#       8
#     2   2   2   2   2   2   2   2
#     4  11  23  41  67  96 133 176 224 273 333 397
#     4  11  24  38  63  95 130 170 215 280 329 392
#     4  12  24  41  62  99 133 170 224 275 333 397
#     4  10  22  38  67  95 127 174 222 264 330 396
#     4  11  22  41  65  95 130 174 217 270 331 398
#     4  12  21  42  67  93 129 174 225 269 332 399
#     4  11  19  40  64  91 126 170 222 263 329 399
#     4  12  25  41  66  96 130 172 220 278 333 399
#
# _framework density 20.778773000000001
#
# number of rings (size 3 to 8) (size 9 to 14) (size 15 to 20)
#    0.000    0.750    5.000    3.750    1.750    0.000 
#    0.000    0.625    0.000    0.000    0.000    0.000 
#    0.000    0.000    0.000    0.000    0.000    0.000 
#
# Total GULP energy -198303.002126 kJ/mol
# GULP energy per Si atom -12393.937633 kJ/mol
# Density = 2.073148 g / cm^3
# Si number density = 20.778773 Si / 1000 Ang^3
#
#
#
# Elastic Constant Matrix: (Units=GPa)
#
#
# Indices 1 2 3 4 5 6 
#
# 1 96.6444 41.0552 42.1600 -9.7881 3.4160 12.7697
# 2 41.0552 111.2056 40.9033 -26.5277 8.6199 8.0819
# 3 42.1600 40.9033 139.8724 -29.5577 26.7873 4.9236
# 4 -9.7881 -26.5277 -29.5577 36.9675 -2.6738 0.3047
# 5 3.4160 8.6199 26.7873 -2.6738 47.8782 -0.1714
# 6 12.7697 8.0819 4.9236 0.3047 -0.1714 35.4212
#
#
#
# Elastic Compliance Matrix: (Units=1/GPa)
#
#
# Indices 1 2 3 4 5 6 
#
# 1 0.013882 -0.004161 -0.003586 -0.002030 0.001639 -0.003532
# 2 -0.004161 0.012730 -0.000602 0.007474 -0.001246 -0.001391
# 3 -0.003586 -0.000602 0.010906 0.006953 -0.005350 -0.000172
# 4 -0.002030 0.007474 0.006953 0.037237 -0.003020 -0.002275
# 5 0.001639 -0.001246 -0.005350 -0.003020 0.023820 0.000578
# 6 -0.003532 -0.001391 -0.000172 -0.002275 0.000578 0.029869
#
#
# Mechanical properties :
#
#
# Convention : Reuss Voigt Hill
#
# Bulk Modulus (GPa) = 48.02644 66.21772 57.12208
# Shear Modulus (GPa) = 32.87708 38.96029 35.91869
#
# Velocity S-wave (km/s) = 3.98206 4.33483 4.16218
# Velocity P-wave (km/s) = 6.65626 7.54927 7.11679
#
# Compressibility (1/GPa) = 0.02082187
#
# Stress axis : x y z
#
# Youngs Moduli (GPa) = 72.03468 78.55319 91.69036
#
# Poissons Ratio (x) = 0.32683 0.32881
# Poissons Ratio (y) = 0.29971 0.05517
# Poissons Ratio (z) = 0.25833 0.04727
#
# Static dielectric constant tensor:
#      x y z
#    x 3.767350 -0.245690 0.304850 
#    y -0.245690 3.673150 -0.225890 
#    z 0.304850 -0.225890 4.142200 
# 
# 
# High freq. dielectric constant tensor:
#      x y z
#    x 1.821730 -0.003360 0.007580 
#    y -0.003360 1.783970 -0.018870 
#    z 0.007580 -0.018870 1.838330 
# 
# From -- ./inp_files/419953.got.cif
#   From: 2010.06.25/outbox.cif.g09.slc.cpg/sg2_210_cif.got.tgz:419953.got - 2010.06.27 13:26:56.
