data_PCOD8017436
_publ_section_title
;
Structure prediction by ZEFSAII (Michael W. Deem and Ramdas Pophale) SiO2 
 PCOD8017436
Probable space group: P -1
;
_chemical_formula_sum "Si O2"
_cell_formula_units_Z 14
_cell_length_a 14.103862
_cell_length_b 26.409052
_cell_length_c 14.593006
_cell_angle_alpha 18.607149
_cell_angle_beta 150.946703
_cell_angle_gamma 158.912294
_cell_volume 621.590754
_symmetry_space_group_name_H-M "P -1"
_symmetry_group_IT_number 2
_symmetry_cell_setting 'triclinic'
loop_
_space_group_symop_operation_xyz
x,y,z
-x,-y,-z
loop_
_atom_site_type_symbol
_atom_site_label
_atom_site_fract_x
_atom_site_fract_y
_atom_site_fract_z
Si Si1 0.644612 0.874946 0.830106
Si Si2 0.228469 0.266680 0.973088
Si Si3 0.532569 0.344639 0.753936
Si Si4 0.744034 0.967227 0.447953
Si Si5 0.910630 0.334578 0.288220
Si Si6 0.337617 0.248503 0.431557
Si Si7 0.354005 0.042398 0.965147
O O1 0.737248 0.760763 0.058323
O O2 0.371396 0.773200 0.721039
O O3 0.877419 0.133068 0.571337
O O4 0.568956 0.825066 0.958984
O O5 0.260670 0.120582 0.307340
O O6 0.443964 0.506021 0.778791
O O7 0.941202 0.190102 0.873999
O O8 0.500000 0.500000 0.500000
O O9 0.373813 0.209180 0.761266
O O10 0.842726 0.507654 0.705393
O O11 0.619441 0.782021 0.584301
O O12 0.049592 0.171727 0.330743
O O13 0.576184 0.037240 0.189565
O O14 0.000000 0.500000 0.000000
O O15 0.379407 0.114635 0.758415
#
# Coordination Sequence:
#
# PCOD8017436 Si02
#       7
#     2   2   2   2   2   2   2
#     4  10  22  39  59  89 125 162 211 254 306 375
#     4  11  24  40  66  95 130 165 210 268 316 380
#     4  11  23  39  59  90 130 169 206 257 315 372
#     4  10  24  43  68  94 125 164 218 265 319 388
#     4   9  21  37  59  81 120 164 208 251 301 361
#     4  10  23  46  66  92 128 168 206 271 329 371
#     4  11  25  40  65  97 128 165 218 261 313 386
#
# _framework density 22.522857999999999
#
# number of rings (size 3 to 8) (size 9 to 14) (size 15 to 20)
#    0.000    1.714    0.000    2.571    8.000    7.429 
#    0.000    0.000    0.000    0.000    0.000    0.000 
#    0.000    0.000    0.000    0.000    0.000    0.000 
#
# Total GULP energy -173512.618022 kJ/mol
# GULP energy per Si atom -12393.758430 kJ/mol
# Density = 2.247159 g / cm^3
# Si number density = 22.522858 Si / 1000 Ang^3
#
#
#
# Elastic Constant Matrix: (Units=GPa)
#
#
# Indices 1 2 3 4 5 6 
#
# 1 71.2296 25.2851 11.1141 -6.7040 3.9102 -1.8632
# 2 25.2851 121.3841 40.9572 -18.8117 1.5193 5.4865
# 3 11.1141 40.9572 71.7734 -14.5276 11.7229 13.3165
# 4 -6.7040 -18.8117 -14.5276 52.1691 0.9492 7.6780
# 5 3.9102 1.5193 11.7229 0.9492 26.7311 0.3534
# 6 -1.8632 5.4865 13.3165 7.6780 0.3534 27.6747
#
#
#
# Elastic Compliance Matrix: (Units=1/GPa)
#
#
# Indices 1 2 3 4 5 6 
#
# 1 0.015389 -0.002979 -0.000614 0.000500 -0.001854 0.001807
# 2 -0.002979 0.011109 -0.005814 0.001990 0.002286 -0.000187
# 3 -0.000614 -0.005814 0.022071 0.005758 -0.009318 -0.010987
# 4 0.000500 0.001990 0.005758 0.023009 -0.003403 -0.009471
# 5 -0.001854 0.002286 -0.009318 -0.003403 0.041701 0.004317
# 6 0.001807 -0.000187 -0.010987 -0.009471 0.004317 0.044152
#
#
# Mechanical properties :
#
#
# Convention : Reuss Voigt Hill
#
# Bulk Modulus (GPa) = 33.60848 46.56667 40.08758
# Shear Modulus (GPa) = 26.85795 33.78367 30.32081
#
# Velocity S-wave (km/s) = 3.45697 3.87715 3.67307
# Velocity P-wave (km/s) = 5.55774 6.38461 5.98547
#
# Compressibility (1/GPa) = 0.02975439
#
# Stress axis : x y z
#
# Youngs Moduli (GPa) = 64.98304 90.01849 45.30741
#
# Poissons Ratio (x) = 0.26820 0.02782
# Poissons Ratio (y) = 0.19361 0.26341
# Poissons Ratio (z) = 0.03990 0.52335
#
# Static dielectric constant tensor:
#      x y z
#    x 3.986540 0.219580 -0.179730 
#    y 0.219580 4.759700 0.008470 
#    z -0.179730 0.008470 3.941950 
# 
# 
# High freq. dielectric constant tensor:
#      x y z
#    x 1.872800 0.005050 -0.006970 
#    y 0.005050 1.909710 -0.006470 
#    z -0.006970 -0.006470 1.879390 
# 
# From -- ./inp_files/535620.got.cif
#   From: 2010.06.25/outbox.cif.g09.slc.cpg/sg2_268_cif.got.tgz:535620.got - 2010.06.27 13:26:56.
