data_PCOD8017706
_publ_section_title
;
Structure prediction by ZEFSAII (Michael W. Deem and Ramdas Pophale) SiO2 
 PCOD8017706
Probable space group: P -1
;
_chemical_formula_sum "Si O2"
_cell_formula_units_Z 16
_cell_length_a 12.976432
_cell_length_b 9.024524
_cell_length_c 18.687381
_cell_angle_alpha 118.418137
_cell_angle_beta 30.012232
_cell_angle_gamma 129.966757
_cell_volume 820.308436
_symmetry_space_group_name_H-M "P -1"
_symmetry_group_IT_number 2
_symmetry_cell_setting 'triclinic'
loop_
_space_group_symop_operation_xyz
x,y,z
-x,-y,-z
loop_
_atom_site_type_symbol
_atom_site_label
_atom_site_fract_x
_atom_site_fract_y
_atom_site_fract_z
Si Si1 0.340082 0.398206 0.641728
Si Si2 0.498253 0.841388 0.415952
Si Si3 0.022572 0.721466 0.598604
Si Si4 0.762651 0.332160 0.142587
Si Si5 0.722169 0.277529 0.688696
Si Si6 0.231075 0.989585 0.848019
Si Si7 0.455332 0.986410 0.139221
Si Si8 0.851478 0.017063 0.808021
O O1 0.500000 0.500000 0.500000
O O2 0.448908 0.298029 0.601174
O O3 0.360945 0.569061 0.718506
O O4 0.067486 0.240989 0.743932
O O5 0.236538 0.713503 0.508163
O O6 0.500000 0.000000 0.500000
O O7 0.706825 0.970103 0.263170
O O8 0.791354 0.503412 0.696337
O O9 0.107410 0.766860 0.474839
O O10 0.964489 0.878242 0.703122
O O11 0.828310 0.224224 0.139198
O O12 0.577913 0.181058 0.159927
O O13 0.000000 0.500000 0.000000
O O14 0.444630 0.156537 0.805095
O O15 0.729681 0.207489 0.748341
O O16 0.000000 0.000000 0.000000
O O17 0.289748 0.007053 0.185463
O O18 0.661294 0.955127 0.973102
#
# Coordination Sequence:
#
# PCOD8017706 Si02
#       8
#     2   2   2   2   2   2   2   2
#     4  12  26  41  65  98 128 168 213 264 322 381
#     4  11  22  40  62  89 126 162 206 262 315 369
#     4  10  22  41  64  92 124 162 212 265 310 379
#     4  11  22  42  66  93 129 169 213 258 314 384
#     4   9  22  41  63  91 123 163 214 255 315 378
#     4  10  22  39  64  93 123 164 212 260 307 373
#     4  10  24  43  64  91 128 170 207 261 316 380
#     4  11  24  43  62  94 132 163 211 265 316 374
#
# _framework density 19.504859
#
# number of rings (size 3 to 8) (size 9 to 14) (size 15 to 20)
#    0.000    1.500    2.500    1.500    7.000    5.000 
#    0.000    0.000    0.000    0.000    0.000    0.000 
#    0.000    0.000    0.000    0.000    0.000    0.000 
#
# Total GULP energy -198393.738353 kJ/mol
# GULP energy per Si atom -12399.608647 kJ/mol
# Density = 1.946047 g / cm^3
# Si number density = 19.504859 Si / 1000 Ang^3
#
#
#
# Elastic Constant Matrix: (Units=GPa)
#
#
# Indices 1 2 3 4 5 6 
#
# 1 120.5158 55.5636 68.6584 4.2121 18.9761 -22.0478
# 2 55.5636 119.3314 67.8445 7.9765 9.0153 -12.2994
# 3 68.6584 67.8445 136.9453 6.6612 13.6603 -13.7608
# 4 4.2121 7.9765 6.6612 43.3344 -3.6746 5.6811
# 5 18.9761 9.0153 13.6603 -3.6746 37.0008 -0.4745
# 6 -22.0478 -12.2994 -13.7608 5.6811 -0.4745 35.7828
#
#
#
# Elastic Compliance Matrix: (Units=1/GPa)
#
#
# Indices 1 2 3 4 5 6 
#
# 1 0.014148 -0.002959 -0.004449 -0.001371 -0.004949 0.006141
# 2 -0.002959 0.012550 -0.004568 -0.001445 0.000015 0.000963
# 3 -0.004449 -0.004568 0.011979 -0.000712 -0.001093 0.000394
# 4 -0.001371 -0.001445 -0.000712 0.024616 0.003693 -0.005475
# 5 -0.004949 0.000015 -0.001093 0.003693 0.030285 -0.003650
# 6 0.006141 0.000963 0.000394 -0.005475 -0.003650 0.033033
#
#
# Mechanical properties :
#
#
# Convention : Reuss Voigt Hill
#
# Bulk Modulus (GPa) = 67.92074 84.54728 76.23401
# Shear Modulus (GPa) = 32.16005 35.53866 33.84935
#
# Velocity S-wave (km/s) = 4.06497 4.27317 4.17037
# Velocity P-wave (km/s) = 7.54520 8.23332 7.89676
#
# Compressibility (1/GPa) = 0.01472304
#
# Stress axis : x y z
#
# Youngs Moduli (GPa) = 70.68326 79.68245 83.47697
#
# Poissons Ratio (x) = 0.23580 0.37143
# Poissons Ratio (y) = 0.20917 0.38133
# Poissons Ratio (z) = 0.31450 0.36400
#
# Static dielectric constant tensor:
#      x y z
#    x 3.885250 0.327380 0.382300 
#    y 0.327380 3.816620 -0.000790 
#    z 0.382300 -0.000790 3.665820 
# 
# 
# High freq. dielectric constant tensor:
#      x y z
#    x 1.768340 0.002900 0.011270 
#    y 0.002900 1.763930 -0.004060 
#    z 0.011270 -0.004060 1.771570 
# 
# From -- ./inp_files/500586.got.cif
#   From: 2010.06.25/outbox.cif.g09.slc.cpg/sg2_251_cif.got.tgz:500586.got - 2010.06.27 13:26:56.
