data_PCOD8017228
_publ_section_title
;
Structure prediction by ZEFSAII (Michael W. Deem and Ramdas Pophale) SiO2 
 PCOD8017228
Probable space group: P -1
;
_chemical_formula_sum "Si O2"
_cell_formula_units_Z 16
_cell_length_a 12.002779
_cell_length_b 12.608561
_cell_length_c 12.308325
_cell_angle_alpha 113.082214
_cell_angle_beta 42.115830
_cell_angle_gamma 80.700323
_cell_volume 781.311015
_symmetry_space_group_name_H-M "P -1"
_symmetry_group_IT_number 2
_symmetry_cell_setting 'triclinic'
loop_
_space_group_symop_operation_xyz
x,y,z
-x,-y,-z
loop_
_atom_site_type_symbol
_atom_site_label
_atom_site_fract_x
_atom_site_fract_y
_atom_site_fract_z
Si Si1 0.200566 0.330187 0.102353
Si Si2 0.781185 0.404859 0.491347
Si Si3 0.752170 0.436519 0.778521
Si Si4 0.905956 0.866136 0.428830
Si Si5 0.103391 0.032293 0.027086
Si Si6 0.497005 0.882700 0.017315
Si Si7 0.485137 0.013523 0.644521
Si Si8 0.678952 0.225402 0.039517
O O1 0.281234 0.418478 0.095872
O O2 0.915906 0.440790 0.342206
O O3 0.260911 0.232387 0.131947
O O4 0.355976 0.201709 0.837796
O O5 0.828602 0.389373 0.579524
O O6 0.493647 0.573003 0.735514
O O7 0.884818 0.227451 0.306168
O O8 0.960532 0.286468 0.646882
O O9 0.500000 0.500000 0.000000
O O10 0.723095 0.029350 0.703740
O O11 0.753895 0.873006 0.449312
O O12 0.092333 0.857597 0.233550
O O13 0.325019 0.992077 0.800769
O O14 0.212060 0.891582 0.981791
O O15 0.000000 0.000000 0.000000
O O16 0.499755 0.773802 0.890639
O O17 0.500000 0.000000 0.000000
O O18 0.500000 0.000000 0.500000
#
# Coordination Sequence:
#
# PCOD8017228 Si02
#       8
#     2   2   2   2   2   2   2   2
#     4  10  22  38  63  92 129 169 204 272 326 386
#     4  11  24  41  66  97 132 172 218 264 330 403
#     4  12  22  38  59  99 136 165 209 266 327 383
#     4  11  23  38  63  94 133 168 220 264 327 394
#     4  11  26  46  70  94 127 173 222 279 329 389
#     4  11  21  37  62  95 128 172 217 264 331 392
#     4  10  23  46  68  92 122 170 224 269 330 390
#     4  12  23  41  65  93 133 174 215 271 330 388
#
# _framework density 20.478400000000001
#
# number of rings (size 3 to 8) (size 9 to 14) (size 15 to 20)
#    0.000    1.000    2.500    5.250    3.500    4.500 
#    0.000    0.625    0.000    0.000    0.000    0.000 
#    0.000    0.000    0.000    0.000    0.000    0.000 
#
# Total GULP energy -198283.886515 kJ/mol
# GULP energy per Si atom -12392.742907 kJ/mol
# Density = 2.043179 g / cm^3
# Si number density = 20.478400 Si / 1000 Ang^3
#
#
#
# Elastic Constant Matrix: (Units=GPa)
#
#
# Indices 1 2 3 4 5 6 
#
# 1 117.0234 41.6932 44.3314 13.2657 17.7952 3.4686
# 2 41.6932 112.2772 45.3210 5.9657 11.5060 -5.4174
# 3 44.3314 45.3210 90.8353 8.6225 -3.1578 0.3026
# 4 13.2657 5.9657 8.6225 29.1253 3.2254 -6.3306
# 5 17.7952 11.5060 -3.1578 3.2254 31.9797 -0.1214
# 6 3.4686 -5.4174 0.3026 -6.3306 -0.1214 39.9864
#
#
#
# Elastic Compliance Matrix: (Units=1/GPa)
#
#
# Indices 1 2 3 4 5 6 
#
# 1 0.012579 -0.001851 -0.005100 -0.003531 -0.006489 -0.001882
# 2 -0.001851 0.012246 -0.005429 0.000813 -0.003987 0.001977
# 3 -0.005100 -0.005429 0.016670 -0.002409 0.006677 -0.000780
# 4 -0.003531 0.000813 -0.002409 0.038160 -0.002390 0.006469
# 5 -0.006489 -0.003987 0.006677 -0.002390 0.037214 -0.000293
# 6 -0.001882 0.001977 -0.000780 0.006469 -0.000293 0.026469
#
#
# Mechanical properties :
#
#
# Convention : Reuss Voigt Hill
#
# Bulk Modulus (GPa) = 59.75200 64.75855 62.25528
# Shear Modulus (GPa) = 28.78907 32.80431 30.79669
#
# Velocity S-wave (km/s) = 3.75350 4.00671 3.88217
# Velocity P-wave (km/s) = 6.93011 7.28674 7.11066
#
# Compressibility (1/GPa) = 0.01673584
#
# Stress axis : x y z
#
# Youngs Moduli (GPa) = 79.49451 81.65898 59.98776
#
# Poissons Ratio (x) = 0.15115 0.30593
# Poissons Ratio (y) = 0.14714 0.32568
# Poissons Ratio (z) = 0.40541 0.44333
#
# Static dielectric constant tensor:
#      x y z
#    x 3.732170 0.000890 0.098920 
#    y 0.000890 3.774940 -0.212910 
#    z 0.098920 -0.212910 3.477340 
# 
# 
# High freq. dielectric constant tensor:
#      x y z
#    x 1.796000 -0.000780 -0.009380 
#    y -0.000780 1.803040 -0.003010 
#    z -0.009380 -0.003010 1.815130 
# 
# From -- ./inp_files/170675.got.cif
#   From: 2010.06.25/outbox.cif.g09.slc.cpg/sg2_86_cif.got.tgz:170675.got - 2010.06.27 13:26:56.
