data_PCOD8017729
_publ_section_title
;
Structure prediction by ZEFSAII (Michael W. Deem and Ramdas Pophale) SiO2 
 PCOD8017729
Probable space group: P -1
;
_chemical_formula_sum "Si O2"
_cell_formula_units_Z 14
_cell_length_a 12.709126
_cell_length_b 10.324299
_cell_length_c 9.310299
_cell_angle_alpha 122.139844
_cell_angle_beta 133.311193
_cell_angle_gamma 44.354188
_cell_volume 619.354893
_symmetry_space_group_name_H-M "P -1"
_symmetry_group_IT_number 2
_symmetry_cell_setting 'triclinic'
loop_
_space_group_symop_operation_xyz
x,y,z
-x,-y,-z
loop_
_atom_site_type_symbol
_atom_site_label
_atom_site_fract_x
_atom_site_fract_y
_atom_site_fract_z
Si Si1 0.190796 0.610568 0.112532
Si Si2 0.496596 0.824922 0.361679
Si Si3 0.331068 0.497725 0.865098
Si Si4 0.803591 0.927576 0.953438
Si Si5 0.888624 0.170982 0.342190
Si Si6 0.747038 0.164094 0.488347
Si Si7 0.386964 0.264111 0.277169
O O1 0.259597 0.730561 0.310144
O O2 0.228436 0.456547 0.174291
O O3 0.293843 0.505365 0.002503
O O4 0.983436 0.740730 0.958323
O O5 0.626853 0.693613 0.277397
O O6 0.561127 0.703632 0.495985
O O7 0.500000 0.000000 0.500000
O O8 0.293141 0.919213 0.176393
O O9 0.165121 0.671484 0.731634
O O10 0.500000 0.500000 0.000000
O O11 0.669951 0.878949 0.859210
O O12 0.844561 0.022253 0.172191
O O13 0.787446 0.256113 0.448370
O O14 0.099183 0.056005 0.488148
O O15 0.564564 0.184220 0.303815
#
# Coordination Sequence:
#
# PCOD8017729 Si02
#       7
#     2   2   2   2   2   2   2
#     4  11  24  40  68  98 127 169 224 266 323 377
#     4  10  23  43  64  91 134 171 207 265 331 381
#     4  12  22  39  70  94 128 167 227 264 313 393
#     4  10  23  42  66  93 133 172 214 269 323 388
#     4  10  22  40  64  97 132 167 222 265 323 381
#     4  10  22  39  64  98 130 172 213 274 323 380
#     4  11  22  41  66  89 133 171 215 260 332 383
#
# _framework density 22.604164999999998
#
# number of rings (size 3 to 8) (size 9 to 14) (size 15 to 20)
#    0.000    1.429    1.429    3.429    2.000    1.714 
#    2.571    2.857    0.000    0.000    0.000    0.000 
#    0.000    0.000    0.000    0.000    0.000    0.000 
#
# Total GULP energy -173533.409142 kJ/mol
# GULP energy per Si atom -12395.243510 kJ/mol
# Density = 2.255272 g / cm^3
# Si number density = 22.604165 Si / 1000 Ang^3
#
#
#
# Elastic Constant Matrix: (Units=GPa)
#
#
# Indices 1 2 3 4 5 6 
#
# 1 75.0220 44.0139 34.2509 3.1537 -13.6393 -9.1988
# 2 44.0139 129.8066 55.0068 -9.7835 -15.9510 -6.9391
# 3 34.2509 55.0068 85.7083 -10.2089 -17.1524 -7.8328
# 4 3.1537 -9.7835 -10.2089 52.5811 3.4981 -8.9501
# 5 -13.6393 -15.9510 -17.1524 3.4981 47.5168 -4.1984
# 6 -9.1988 -6.9391 -7.8328 -8.9501 -4.1984 29.7463
#
#
#
# Elastic Compliance Matrix: (Units=1/GPa)
#
#
# Indices 1 2 3 4 5 6 
#
# 1 0.018764 -0.004231 -0.004159 -0.002331 0.002940 0.003434
# 2 -0.004231 0.011661 -0.005446 0.001406 0.000675 0.000496
# 3 -0.004159 -0.005446 0.018278 0.003176 0.003672 0.003731
# 4 -0.002331 0.001406 0.003176 0.021198 -0.000009 0.006820
# 5 0.002940 0.000675 0.003672 -0.000009 0.023919 0.005407
# 6 0.003434 0.000496 0.003731 0.006820 0.005407 0.038593
#
#
# Mechanical properties :
#
#
# Convention : Reuss Voigt Hill
#
# Bulk Modulus (GPa) = 47.54363 61.89779 54.72071
# Shear Modulus (GPa) = 29.92323 36.45320 33.18822
#
# Velocity S-wave (km/s) = 3.64234 4.02017 3.83591
# Velocity P-wave (km/s) = 6.22637 6.99942 6.62418
#
# Compressibility (1/GPa) = 0.02103331
#
# Stress axis : x y z
#
# Youngs Moduli (GPa) = 53.29454 85.75319 54.70969
#
# Poissons Ratio (x) = 0.36281 0.22751
# Poissons Ratio (y) = 0.22548 0.29792
# Poissons Ratio (z) = 0.22163 0.46697
#
# Static dielectric constant tensor:
#      x y z
#    x 3.815190 -0.070850 -0.284170 
#    y -0.070850 4.324840 -0.346420 
#    z -0.284170 -0.346420 4.615810 
# 
# 
# High freq. dielectric constant tensor:
#      x y z
#    x 1.861340 -0.003410 -0.015610 
#    y -0.003410 1.901610 -0.018890 
#    z -0.015610 -0.018890 1.900490 
# 
# From -- ./inp_files/207635.got.cif
#   From: 2010.06.25/outbox.cif.g09.slc.cpg/sg2_104_cif.got.tgz:207635.got - 2010.06.27 13:26:56.
