data_PCOD8017082
_publ_section_title
;
Structure prediction by ZEFSAII (Michael W. Deem and Ramdas Pophale) SiO2 
 PCOD8017082
Probable space group: P -1
;
_chemical_formula_sum "Si O2"
_cell_formula_units_Z 14
_cell_length_a 17.230615
_cell_length_b 15.135927
_cell_length_c 8.765088
_cell_angle_alpha 60.713599
_cell_angle_beta 129.996069
_cell_angle_gamma 157.512457
_cell_volume 625.608746
_symmetry_space_group_name_H-M "P -1"
_symmetry_group_IT_number 2
_symmetry_cell_setting 'triclinic'
loop_
_space_group_symop_operation_xyz
x,y,z
-x,-y,-z
loop_
_atom_site_type_symbol
_atom_site_label
_atom_site_fract_x
_atom_site_fract_y
_atom_site_fract_z
Si Si1 0.748440 0.601869 0.758643
Si Si2 0.675952 0.105475 0.992429
Si Si3 0.556053 0.542158 0.290701
Si Si4 0.258384 0.167416 0.988038
Si Si5 0.166963 0.610935 0.294628
Si Si6 0.199549 0.566340 0.919669
Si Si7 0.557842 0.250784 0.220904
O O1 0.703546 0.594398 0.533778
O O2 0.525809 0.439454 0.720457
O O3 0.753775 0.484955 0.864649
O O4 0.999549 0.875074 0.915410
O O5 0.707173 0.244918 0.831114
O O6 0.418628 0.853472 0.978856
O O7 0.666823 0.011269 0.927778
O O8 0.933268 0.320891 0.225546
O O9 0.315813 0.272554 0.134152
O O10 0.742849 0.752045 0.218783
O O11 0.482749 0.294591 0.133974
O O12 0.063757 0.621076 0.231050
O O13 0.373861 0.749976 0.542328
O O14 0.209767 0.534348 0.784966
#
# Coordination Sequence:
#
# PCOD8017082 Si02
#       7
#     2   2   2   2   2   2   2
#     4  11  22  42  64  89 122 159 192 252 304 350
#     4   9  22  36  57  84 113 157 203 238 286 353
#     4  10  23  42  65  91 117 155 205 242 304 360
#     4  11  22  42  63  91 122 155 199 251 293 361
#     4  11  20  40  60  81 122 159 195 243 294 340
#     4  10  22  39  57  88 122 152 201 244 288 356
#     4  10  22  38  57  89 119 155 198 240 294 352
#
# _framework density 22.378202999999999
#
# number of rings (size 3 to 8) (size 9 to 14) (size 15 to 20)
#    0.857    0.857    1.429    3.000    0.000    3.429 
#    2.571    1.429    0.000    0.000    0.000    0.000 
#    0.000    0.000    0.000    0.000    0.000    0.000 
#
# Total GULP energy -173565.398050 kJ/mol
# GULP energy per Si atom -12397.528432 kJ/mol
# Density = 2.232727 g / cm^3
# Si number density = 22.378203 Si / 1000 Ang^3
#
#
#
# Elastic Constant Matrix: (Units=GPa)
#
#
# Indices 1 2 3 4 5 6 
#
# 1 48.3934 15.9330 35.4772 -6.3960 1.2614 -0.7212
# 2 15.9330 101.5165 22.3421 -8.0718 3.9630 -5.8986
# 3 35.4772 22.3421 104.8306 -19.9411 2.1094 -9.1498
# 4 -6.3960 -8.0718 -19.9411 29.4327 -7.1772 -1.2816
# 5 1.2614 3.9630 2.1094 -7.1772 22.6858 -3.8404
# 6 -0.7212 -5.8986 -9.1498 -1.2816 -3.8404 32.1271
#
#
#
# Elastic Compliance Matrix: (Units=1/GPa)
#
#
# Indices 1 2 3 4 5 6 
#
# 1 0.028284 -0.002573 -0.009505 -0.001398 -0.001145 -0.002737
# 2 -0.002573 0.010718 -0.000954 0.001592 -0.000866 0.001598
# 3 -0.009505 -0.000954 0.014953 0.008691 0.002825 0.004555
# 4 -0.001398 0.001592 0.008691 0.043638 0.013835 0.006131
# 5 -0.001145 -0.000866 0.002825 0.013835 0.049612 0.007102
# 6 -0.002737 0.001598 0.004555 0.006131 0.007102 0.033749
#
#
# Mechanical properties :
#
#
# Convention : Reuss Voigt Hill
#
# Bulk Modulus (GPa) = 35.85359 44.69388 40.27373
# Shear Modulus (GPa) = 23.11453 28.91499 26.01476
#
# Velocity S-wave (km/s) = 3.21737 3.59849 3.41325
# Velocity P-wave (km/s) = 5.46428 6.10581 5.79393
#
# Compressibility (1/GPa) = 0.02789121
#
# Stress axis : x y z
#
# Youngs Moduli (GPa) = 35.35611 93.30458 66.87515
#
# Poissons Ratio (x) = 0.24004 0.63567
# Poissons Ratio (y) = 0.09096 0.06378
# Poissons Ratio (z) = 0.33607 0.08898
#
# Static dielectric constant tensor:
#      x y z
#    x 3.954940 -0.021640 -0.205360 
#    y -0.021640 3.939840 -0.144700 
#    z -0.205360 -0.144700 3.857650 
# 
# 
# High freq. dielectric constant tensor:
#      x y z
#    x 1.886500 -0.001250 -0.016960 
#    y -0.001250 1.881780 -0.009160 
#    z -0.016960 -0.009160 1.868270 
# 
# From -- ./inp_files/347821.got.cif
#   From: 2010.06.25/outbox.cif.g09.slc.cpg/sg2_174_cif.got.tgz:347821.got - 2010.06.27 13:26:56.
