data_PCOD8017380
_publ_section_title
;
Structure prediction by ZEFSAII (Michael W. Deem and Ramdas Pophale) SiO2 
 PCOD8017380
Probable space group: P -1
;
_chemical_formula_sum "Si O2"
_cell_formula_units_Z 16
_cell_length_a 18.647463
_cell_length_b 5.689785
_cell_length_c 11.892942
_cell_angle_alpha 118.584233
_cell_angle_beta 139.328796
_cell_angle_gamma 56.126868
_cell_volume 679.158012
_symmetry_space_group_name_H-M "P -1"
_symmetry_group_IT_number 2
_symmetry_cell_setting 'triclinic'
loop_
_space_group_symop_operation_xyz
x,y,z
-x,-y,-z
loop_
_atom_site_type_symbol
_atom_site_label
_atom_site_fract_x
_atom_site_fract_y
_atom_site_fract_z
Si Si1 0.067316 0.699071 0.067315
Si Si2 0.288227 0.048022 0.431853
Si Si3 0.868341 0.343366 0.629631
Si Si4 0.868318 0.820864 0.107012
Si Si5 0.335532 0.128334 0.978866
Si Si6 0.711737 0.239262 0.855315
Si Si7 0.500017 0.766701 0.266781
Si Si8 0.664486 0.158198 0.307782
O O1 0.141557 0.753555 0.273580
O O2 0.141559 0.489478 0.009542
O O3 0.000000 0.500000 0.000000
O O4 0.000000 0.000000 0.000000
O O5 0.167340 0.314384 0.342202
O O6 0.394490 0.145993 0.536250
O O7 0.275684 0.803366 0.275710
O O8 0.320943 0.953286 0.575021
O O9 0.778484 0.240287 0.427184
O O10 0.000014 0.206740 0.706831
O O11 0.778462 0.942990 0.129746
O O12 0.832616 0.035375 0.007444
O O13 0.344331 0.081144 0.844361
O O14 0.320954 0.445053 0.066965
O O15 0.453678 0.920445 0.128221
O O16 0.605449 0.137649 0.747180
O O17 0.546338 0.428510 0.220876
#
# Coordination Sequence:
#
# PCOD8017380 Si02
#       8
#     2   2   2   2   2   2   2   2
#     4  10  22  38  70 101 138 185 238 288 351 412
#     4  11  24  42  69 101 132 170 223 285 352 411
#     4  10  24  41  66  99 137 180 226 281 344 410
#     4  10  24  41  66  99 137 180 226 281 344 410
#     4  11  26  43  67  96 132 181 227 283 347 421
#     4  11  24  42  69 101 132 170 223 285 352 411
#     4  10  24  46  68  92 130 170 232 282 350 416
#     4  11  26  43  67  96 132 181 227 283 347 421
#
# _framework density 23.558581
#
# number of rings (size 3 to 8) (size 9 to 14) (size 15 to 20)
#    0.000    1.500    1.250    1.500    8.750    9.500 
#    0.000    1.250    0.000    0.000    0.000    0.000 
#    0.000    0.000    0.000    0.000    0.000    0.000 
#
# Total GULP energy -198360.652754 kJ/mol
# GULP energy per Si atom -12397.540797 kJ/mol
# Density = 2.350496 g / cm^3
# Si number density = 23.558581 Si / 1000 Ang^3
#
#
#
# Elastic Constant Matrix: (Units=GPa)
#
#
# Indices 1 2 3 4 5 6 
#
# 1 54.1252 30.6379 39.5652 -4.0748 -5.6031 -11.4654
# 2 30.6379 170.1122 68.5365 -25.4134 -29.9325 -0.9337
# 3 39.5652 68.5365 106.3484 -10.5388 -20.0085 -13.5427
# 4 -4.0748 -25.4134 -10.5388 44.0816 -11.5744 -1.3718
# 5 -5.6031 -29.9325 -20.0085 -11.5744 48.9083 -8.6880
# 6 -11.4654 -0.9337 -13.5427 -1.3718 -8.6880 28.8249
#
#
#
# Elastic Compliance Matrix: (Units=1/GPa)
#
#
# Indices 1 2 3 4 5 6 
#
# 1 0.026677 -0.001533 -0.008101 -0.000155 -0.000036 0.006737
# 2 -0.001533 0.009607 -0.004078 0.005818 0.005355 -0.000324
# 3 -0.008101 -0.004078 0.017124 0.002595 0.005337 0.006423
# 4 -0.000155 0.005818 0.002595 0.030255 0.012953 0.006690
# 5 -0.000036 0.005355 0.005337 0.012953 0.031223 0.012694
# 6 0.006737 -0.000324 0.006423 0.006690 0.012694 0.044524
#
#
# Mechanical properties :
#
#
# Convention : Reuss Voigt Hill
#
# Bulk Modulus (GPa) = 38.48526 67.56279 53.02402
# Shear Modulus (GPa) = 25.57594 37.15270 31.36432
#
# Velocity S-wave (km/s) = 3.29847 3.97550 3.65270
# Velocity P-wave (km/s) = 5.55679 7.05788 6.35184
#
# Compressibility (1/GPa) = 0.02598398
#
# Stress axis : x y z
#
# Youngs Moduli (GPa) = 37.48537 104.08692 58.39689
#
# Poissons Ratio (x) = 0.15960 0.47306
# Poissons Ratio (y) = 0.05748 0.23815
# Poissons Ratio (z) = 0.30366 0.42449
#
# Static dielectric constant tensor:
#      x y z
#    x 4.502350 -0.027920 0.185960 
#    y -0.027920 4.244800 -0.017240 
#    z 0.185960 -0.017240 4.381040 
# 
# 
# High freq. dielectric constant tensor:
#      x y z
#    x 1.942240 0.003220 0.019870 
#    y 0.003220 1.933350 -0.011100 
#    z 0.019870 -0.011100 1.929310 
# 
# From -- ./inp_files/468474.got.cif
#   From: 2010.06.25/outbox.cif.g09.slc.cpg/sg2_235_cif.got.tgz:468474.got - 2010.06.27 13:26:56.
