data_PCOD8017260
_publ_section_title
;
Structure prediction by ZEFSAII (Michael W. Deem and Ramdas Pophale) SiO2 
 PCOD8017260
Probable space group: P -1
;
_chemical_formula_sum "Si O2"
_cell_formula_units_Z 16
_cell_length_a 6.966348
_cell_length_b 7.547685
_cell_length_c 15.711740
_cell_angle_alpha 62.690791
_cell_angle_beta 81.660815
_cell_angle_gamma 104.595899
_cell_volume 676.932146
_symmetry_space_group_name_H-M "P -1"
_symmetry_group_IT_number 2
_symmetry_cell_setting 'triclinic'
loop_
_space_group_symop_operation_xyz
x,y,z
-x,-y,-z
loop_
_atom_site_type_symbol
_atom_site_label
_atom_site_fract_x
_atom_site_fract_y
_atom_site_fract_z
Si Si1 0.750725 0.925039 0.277968
Si Si2 0.188430 0.562277 0.190012
Si Si3 0.816931 0.759115 0.877567
Si Si4 0.998171 0.321325 0.428218
Si Si5 0.505562 0.012000 0.129091
Si Si6 0.656000 0.475910 0.424119
Si Si7 0.713850 0.882370 0.483406
Si Si8 0.950496 0.206173 0.981307
O O1 0.592255 0.005702 0.219470
O O2 0.705893 0.676058 0.313475
O O3 0.714494 0.961876 0.370110
O O4 0.990251 0.044637 0.213909
O O5 0.266985 0.426802 0.146413
O O6 0.381034 0.769652 0.160984
O O7 0.082652 0.412654 0.309419
O O8 0.013419 0.632237 0.136724
O O9 0.901165 0.674578 0.975436
O O10 0.634364 0.842948 0.894765
O O11 0.875677 0.464027 0.445283
O O12 0.180445 0.302290 0.479932
O O13 0.831244 0.079039 0.491767
O O14 0.702142 0.125284 0.031199
O O15 0.500000 0.500000 0.500000
O O16 0.523148 0.245618 0.438877
O O17 0.000000 0.000000 0.000000
#
# Coordination Sequence:
#
# PCOD8017260 Si02
#       8
#     2   2   2   2   2   2   2   2
#     4  10  22  43  64 100 139 176 228 283 338 407
#     4  12  24  46  73 103 138 184 231 285 353 407
#     4  11  24  46  70 105 138 182 231 286 347 412
#     4  11  23  41  66  98 137 176 231 289 336 409
#     4  11  25  45  69 103 139 179 230 285 343 412
#     4  10  22  38  64  94 128 183 225 273 344 398
#     4  10  22  43  63  95 135 178 227 280 342 396
#     4  11  25  48  73 100 145 180 224 290 346 416
#
# _framework density 23.636047000000001
#
# number of rings (size 3 to 8) (size 9 to 14) (size 15 to 20)
#    0.000    1.250    2.500    2.625    1.750    4.500 
#    9.000    0.000    0.000    0.000    0.000    0.000 
#    0.000    0.000    0.000    0.000    0.000    0.000 
#
# Total GULP energy -198290.095550 kJ/mol
# GULP energy per Si atom -12393.130972 kJ/mol
# Density = 2.358225 g / cm^3
# Si number density = 23.636047 Si / 1000 Ang^3
#
#
#
# Elastic Constant Matrix: (Units=GPa)
#
#
# Indices 1 2 3 4 5 6 
#
# 1 138.3276 32.8845 23.6882 -3.8859 5.6830 -12.5761
# 2 32.8845 76.3132 8.5993 2.0042 -7.6373 -8.8704
# 3 23.6882 8.5993 80.1074 -4.1513 18.0666 -3.5801
# 4 -3.8859 2.0042 -4.1513 28.9020 -2.1881 0.5678
# 5 5.6830 -7.6373 18.0666 -2.1881 23.9006 1.2361
# 6 -12.5761 -8.8704 -3.5801 0.5678 1.2361 32.3596
#
#
#
# Elastic Compliance Matrix: (Units=1/GPa)
#
#
# Indices 1 2 3 4 5 6 
#
# 1 0.008652 -0.003513 -0.001573 0.000983 -0.002019 0.002285
# 2 -0.003513 0.015947 -0.002307 -0.001397 0.007418 0.002492
# 3 -0.001573 -0.002307 0.016123 0.001300 -0.012483 0.000994
# 4 0.000983 -0.001397 0.001300 0.035146 0.001583 -0.000534
# 5 -0.002019 0.007418 -0.012483 0.001583 0.054387 -0.002238
# 6 0.002285 0.002492 0.000994 -0.000534 -0.002238 0.032679
#
#
# Mechanical properties :
#
#
# Convention : Reuss Voigt Hill
#
# Bulk Modulus (GPa) = 38.55723 47.23246 42.89485
# Shear Modulus (GPa) = 26.82906 32.33751 29.58328
#
# Velocity S-wave (km/s) = 3.37277 3.70286 3.54166
# Velocity P-wave (km/s) = 5.61389 6.18936 5.90863
#
# Compressibility (1/GPa) = 0.02593547
#
# Stress axis : x y z
#
# Youngs Moduli (GPa) = 115.57834 62.70956 62.02280
#
# Poissons Ratio (x) = 0.22032 0.09755
# Poissons Ratio (y) = 0.40607 0.14308
# Poissons Ratio (z) = 0.18179 0.14467
#
# Static dielectric constant tensor:
#      x y z
#    x 4.557450 0.297980 0.049880 
#    y 0.297980 4.518820 -0.392080 
#    z 0.049880 -0.392080 4.540150 
# 
# 
# High freq. dielectric constant tensor:
#      x y z
#    x 1.946400 0.006800 0.010920 
#    y 0.006800 1.940350 -0.014170 
#    z 0.010920 -0.014170 1.936290 
# 
# From -- ./inp_files/547770.got.cif
#   From: 2010.06.25/outbox.cif.g09.slc.cpg/sg2_274_cif.got.tgz:547770.got - 2010.06.27 13:26:56.
