data_PCOD8017298
_publ_section_title
;
Structure prediction by ZEFSAII (Michael W. Deem and Ramdas Pophale) SiO2 
 PCOD8017298
Probable space group: P -1
;
_chemical_formula_sum "Si O2"
_cell_formula_units_Z 16
_cell_length_a 27.931898
_cell_length_b 12.398791
_cell_length_c 9.920974
_cell_angle_alpha 142.058067
_cell_angle_beta 152.076302
_cell_angle_gamma 28.104355
_cell_volume 757.296625
_symmetry_space_group_name_H-M "P -1"
_symmetry_group_IT_number 2
_symmetry_cell_setting 'triclinic'
loop_
_space_group_symop_operation_xyz
x,y,z
-x,-y,-z
loop_
_atom_site_type_symbol
_atom_site_label
_atom_site_fract_x
_atom_site_fract_y
_atom_site_fract_z
Si Si1 0.779115 0.638207 0.302853
Si Si2 0.917785 0.764815 0.404267
Si Si3 0.647708 0.678974 0.277671
Si Si4 0.435811 0.213620 0.297519
Si Si5 0.476411 0.542503 0.641291
Si Si6 0.796733 0.983568 0.600430
Si Si7 0.754820 0.618446 0.776869
Si Si8 0.041436 0.903060 0.158841
O O1 0.759995 0.573828 0.338183
O O2 0.740337 0.887852 0.457429
O O3 0.929506 0.459126 0.449706
O O4 0.683503 0.645321 0.967655
O O5 0.874113 0.809736 0.495654
O O6 0.905362 0.976839 0.520014
O O7 0.824744 0.731822 0.059613
O O8 0.723141 0.603324 0.531355
O O9 0.541873 0.950497 0.260613
O O10 0.575832 0.571925 0.983237
O O11 0.504194 0.329556 0.578368
O O12 0.381269 0.225289 0.321503
O O13 0.500000 0.500000 0.500000
O O14 0.323448 0.766317 0.507699
O O15 0.901767 0.982034 0.950114
O O16 0.847331 0.368693 0.827550
O O17 0.000000 0.000000 0.000000
#
# Coordination Sequence:
#
# PCOD8017298 Si02
#       8
#     2   2   2   2   2   2   2   2
#     4  12  21  41  70  93 131 173 223 267 320 387
#     4  11  22  40  68  96 131 169 216 276 326 377
#     4  12  28  43  62 100 138 173 217 268 332 394
#     4  12  23  43  72  94 126 179 224 266 323 390
#     4  12  24  42  70  97 132 172 220 277 322 381
#     4  11  20  39  69 101 124 165 232 277 308 381
#     4  12  25  44  66  99 136 171 215 274 333 385
#     4  10  22  38  66 100 125 164 221 268 314 384
#
# _framework density 21.127784999999999
#
# number of rings (size 3 to 8) (size 9 to 14) (size 15 to 20)
#    0.000    0.500    5.000    5.625    0.000    2.000 
#    0.000    0.625    0.000    0.000    0.000    0.000 
#    0.000    0.000    0.000    0.000    0.000    0.000 
#
# Total GULP energy -198412.548879 kJ/mol
# GULP energy per Si atom -12400.784305 kJ/mol
# Density = 2.107970 g / cm^3
# Si number density = 21.127785 Si / 1000 Ang^3
#
#
#
# Elastic Constant Matrix: (Units=GPa)
#
#
# Indices 1 2 3 4 5 6 
#
# 1 101.1991 31.1899 58.3944 -0.1869 1.1627 -1.8094
# 2 31.1899 66.1151 50.8391 15.9251 10.8088 -2.0847
# 3 58.3944 50.8391 150.0544 25.8291 18.3979 13.1555
# 4 -0.1869 15.9251 25.8291 35.3050 12.2318 14.1609
# 5 1.1627 10.8088 18.3979 12.2318 40.8407 8.3745
# 6 -1.8094 -2.0847 13.1555 14.1609 8.3745 27.5285
#
#
#
# Elastic Compliance Matrix: (Units=1/GPa)
#
#
# Indices 1 2 3 4 5 6 
#
# 1 0.014151 -0.004226 -0.005157 0.005278 0.001476 -0.000090
# 2 -0.004226 0.024613 -0.005474 -0.010249 -0.002987 0.010383
# 3 -0.005157 -0.005474 0.011765 -0.004061 -0.001716 -0.003765
# 4 0.005278 -0.010249 -0.004061 0.045988 -0.005163 -0.020575
# 5 0.001476 -0.002987 -0.001716 -0.005163 0.028654 -0.005370
# 6 -0.000090 0.010383 -0.003765 -0.020575 -0.005370 0.051123
#
#
# Mechanical properties :
#
#
# Convention : Reuss Voigt Hill
#
# Bulk Modulus (GPa) = 48.04273 66.46840 57.25556
# Shear Modulus (GPa) = 23.48018 32.53118 28.00568
#
# Velocity S-wave (km/s) = 3.33730 3.92820 3.64474
# Velocity P-wave (km/s) = 6.13503 7.21823 6.69856
#
# Compressibility (1/GPa) = 0.02081480
#
# Stress axis : x y z
#
# Youngs Moduli (GPa) = 70.66783 40.62970 84.99667
#
# Poissons Ratio (x) = 0.17170 0.43831
# Poissons Ratio (y) = 0.29864 0.46528
# Poissons Ratio (z) = 0.36442 0.22241
#
# Static dielectric constant tensor:
#      x y z
#    x 3.945780 0.034670 0.628060 
#    y 0.034670 3.907420 0.371180 
#    z 0.628060 0.371180 4.219560 
# 
# 
# High freq. dielectric constant tensor:
#      x y z
#    x 1.819870 -0.003460 0.035610 
#    y -0.003460 1.834040 0.018770 
#    z 0.035610 0.018770 1.825790 
# 
# From -- ./inp_files/357102.got.cif
#   From: 2010.06.25/outbox.cif.g09.slc.cpg/sg2_179_cif.got.tgz:357102.got - 2010.06.27 13:26:56.
