data_PCOD8017839
_publ_section_title
;
Structure prediction by ZEFSAII (Michael W. Deem and Ramdas Pophale) SiO2 
 PCOD8017839
Probable space group: P -1
;
_chemical_formula_sum "Si O2"
_cell_formula_units_Z 14
_cell_length_a 12.496604
_cell_length_b 9.541429
_cell_length_c 9.228238
_cell_angle_alpha 46.238266
_cell_angle_beta 121.964214
_cell_angle_gamma 124.897436
_cell_volume 634.967308
_symmetry_space_group_name_H-M "P -1"
_symmetry_group_IT_number 2
_symmetry_cell_setting 'triclinic'
loop_
_space_group_symop_operation_xyz
x,y,z
-x,-y,-z
loop_
_atom_site_type_symbol
_atom_site_label
_atom_site_fract_x
_atom_site_fract_y
_atom_site_fract_z
Si Si1 0.391630 0.029654 0.006876
Si Si2 0.075703 0.234169 0.844924
Si Si3 0.616731 0.575772 0.148230
Si Si4 0.376023 0.847054 0.438059
Si Si5 0.837674 0.233107 0.151797
Si Si6 0.900724 0.675581 0.897592
Si Si7 0.146156 0.903521 0.419913
O O1 0.387723 0.900595 0.240395
O O2 0.250098 0.946821 0.884883
O O3 0.500000 0.000000 0.000000
O O4 0.426310 0.271290 0.887968
O O5 0.236284 0.297489 0.901062
O O6 0.001899 0.250878 0.628207
O O7 0.046988 0.353891 0.880363
O O8 0.000000 0.000000 0.000000
O O9 0.626711 0.385543 0.382999
O O10 0.500000 0.500000 0.000000
O O11 0.243408 0.873071 0.388772
O O12 0.500000 0.000000 0.500000
O O13 0.815424 0.167159 0.349446
O O14 0.988304 0.264120 0.190556
O O15 0.802037 0.444256 0.953472
O O16 0.833040 0.852463 0.727991
#
# Coordination Sequence:
#
# PCOD8017839 Si02
#       7
#     2   2   2   2   2   2   2
#     4  12  27  46  69 103 149 185 241 302 365 434
#     4  10  22  43  73 105 138 188 245 300 350 429
#     4  12  27  47  78 105 145 194 247 299 364 434
#     4  12  26  45  74 104 139 194 246 297 361 437
#     4  11  24  40  64 105 144 182 229 298 362 427
#     4  10  22  39  66  96 142 182 227 288 364 414
#     4  11  23  42  71 101 142 184 243 294 358 429
#
# _framework density 22.048376999999999
#
# number of rings (size 3 to 8) (size 9 to 14) (size 15 to 20)
#    0.000    0.857    1.429    6.429    2.000    6.286 
#    0.000    0.000    0.000    0.000    0.000    0.000 
#    0.000    0.000    0.000    0.000    0.000    0.000 
#
# Total GULP energy -173504.185561 kJ/mol
# GULP energy per Si atom -12393.156112 kJ/mol
# Density = 2.199819 g / cm^3
# Si number density = 22.048377 Si / 1000 Ang^3
#
#
#
# Elastic Constant Matrix: (Units=GPa)
#
#
# Indices 1 2 3 4 5 6 
#
# 1 132.7224 56.4970 59.5679 -4.2914 -7.4226 -12.0063
# 2 56.4970 151.6218 55.9714 -13.7898 3.3476 -1.0702
# 3 59.5679 55.9714 132.4929 -14.6922 -10.8737 -5.5977
# 4 -4.2914 -13.7898 -14.6922 51.0041 -11.4838 15.0544
# 5 -7.4226 3.3476 -10.8737 -11.4838 34.5038 4.8005
# 6 -12.0063 -1.0702 -5.5977 15.0544 4.8005 44.4531
#
#
#
# Elastic Compliance Matrix: (Units=1/GPa)
#
#
# Indices 1 2 3 4 5 6 
#
# 1 0.010548 -0.002736 -0.003609 -0.001622 0.000464 0.002828
# 2 -0.002736 0.008676 -0.002460 0.001386 -0.001586 -0.001138
# 3 -0.003609 -0.002460 0.010892 0.003511 0.004246 -0.001310
# 4 -0.001622 0.001386 0.003511 0.026228 0.010745 -0.010005
# 5 0.000464 -0.001586 0.004246 0.010745 0.035097 -0.006807
# 6 0.002828 -0.001138 -0.001310 -0.010005 -0.006807 0.027191
#
#
# Mechanical properties :
#
#
# Convention : Reuss Voigt Hill
#
# Bulk Modulus (GPa) = 79.95699 84.54550 82.25125
# Shear Modulus (GPa) = 35.61011 42.31225 38.96118
#
# Velocity S-wave (km/s) = 4.02318 4.38547 4.20822
# Velocity P-wave (km/s) = 7.61080 8.00448 7.81013
#
# Compressibility (1/GPa) = 0.01250672
#
# Stress axis : x y z
#
# Youngs Moduli (GPa) = 94.80265 115.26301 91.81386
#
# Poissons Ratio (x) = 0.31536 0.33134
# Poissons Ratio (y) = 0.25938 0.22582
# Poissons Ratio (z) = 0.34213 0.28349
#
# Static dielectric constant tensor:
#      x y z
#    x 3.955010 -0.151830 0.088560 
#    y -0.151830 4.915040 0.305050 
#    z 0.088560 0.305050 4.198800 
# 
# 
# High freq. dielectric constant tensor:
#      x y z
#    x 1.868090 -0.008590 -0.009340 
#    y -0.008590 1.889940 -0.003630 
#    z -0.009340 -0.003630 1.864530 
# 
# From -- ./inp_files/242300.got.cif
#   From: 2010.06.25/outbox.cif.g09.slc.cpg/sg2_122_cif.got.tgz:242300.got - 2010.06.27 13:26:56.
