data_PCOD8017615
_publ_section_title
;
Structure prediction by ZEFSAII (Michael W. Deem and Ramdas Pophale) SiO2 
 PCOD8017615
Probable space group: P -1
;
_chemical_formula_sum "Si O2"
_cell_formula_units_Z 14
_cell_length_a 7.409271
_cell_length_b 8.221723
_cell_length_c 11.430688
_cell_angle_alpha 80.106182
_cell_angle_beta 105.522800
_cell_angle_gamma 81.926821
_cell_volume 648.073196
_symmetry_space_group_name_H-M "P -1"
_symmetry_group_IT_number 2
_symmetry_cell_setting 'triclinic'
loop_
_space_group_symop_operation_xyz
x,y,z
-x,-y,-z
loop_
_atom_site_type_symbol
_atom_site_label
_atom_site_fract_x
_atom_site_fract_y
_atom_site_fract_z
Si Si1 0.231190 0.648075 0.527388
Si Si2 0.657488 0.335456 0.059382
Si Si3 0.351227 0.437188 0.360796
Si Si4 0.015652 0.695474 0.717519
Si Si5 0.999600 0.921801 0.284219
Si Si6 0.698774 0.216678 0.821642
Si Si7 0.575790 0.004058 0.143669
O O1 0.282242 0.480458 0.477109
O O2 0.440858 0.688565 0.592318
O O3 0.111616 0.613995 0.624188
O O4 0.101131 0.798319 0.416498
O O5 0.843856 0.384660 0.143769
O O6 0.575704 0.201793 0.145267
O O7 0.500000 0.500000 0.000000
O O8 0.722294 0.247020 0.958999
O O9 0.375149 0.605889 0.276206
O O10 0.189365 0.350742 0.285747
O O11 0.991910 0.895354 0.687854
O O12 0.101357 0.879395 0.182715
O O13 0.786912 0.898529 0.220392
O O14 0.556422 0.087630 0.786746
O O15 0.500000 0.000000 0.000000
#
# Coordination Sequence:
#
# PCOD8017615 Si02
#       7
#     2   2   2   2   2   2   2
#     4  10  22  41  59  86 123 157 201 244 292 356
#     4  10  22  39  63  91 119 157 197 245 302 349
#     4  10  23  39  62  90 117 159 199 244 301 346
#     4  11  23  39  61  90 122 155 199 248 296 352
#     4  10  23  39  63  91 116 160 200 241 300 348
#     4  10  22  41  61  87 124 157 198 242 291 358
#     4   9  21  40  62  86 119 157 194 240 293 352
#
# _framework density 21.602495999999999
#
# number of rings (size 3 to 8) (size 9 to 14) (size 15 to 20)
#    0.000    2.000    0.000    1.714    0.000   20.000 
#    0.000    1.429    0.000    0.000    0.000    0.000 
#    0.000    0.000    0.000    0.000    0.000    0.000 
#
# Total GULP energy -173522.477100 kJ/mol
# GULP energy per Si atom -12394.462650 kJ/mol
# Density = 2.155333 g / cm^3
# Si number density = 21.602496 Si / 1000 Ang^3
#
#
#
# Elastic Constant Matrix: (Units=GPa)
#
#
# Indices 1 2 3 4 5 6 
#
# 1 137.3223 37.6935 60.8339 -18.3594 30.4103 9.6605
# 2 37.6935 57.5103 29.7559 -12.8617 8.3829 -1.6715
# 3 60.8339 29.7559 100.8386 -10.3613 18.3625 1.4522
# 4 -18.3594 -12.8617 -10.3613 27.1069 -10.6582 6.9691
# 5 30.4103 8.3829 18.3625 -10.6582 49.9083 1.8263
# 6 9.6605 -1.6715 1.4522 6.9691 1.8263 36.5305
#
#
#
# Elastic Compliance Matrix: (Units=1/GPa)
#
#
# Indices 1 2 3 4 5 6 
#
# 1 0.012310 -0.004131 -0.005029 0.003856 -0.003995 -0.003781
# 2 -0.004131 0.023596 -0.004021 0.007246 0.001549 0.000872
# 3 -0.005029 -0.004021 0.014368 -0.000705 -0.001726 0.000796
# 4 0.003856 0.007246 -0.000705 0.048193 0.007359 -0.010222
# 5 -0.003995 0.001549 -0.001726 0.007359 0.024470 -0.001431
# 6 -0.003781 0.000872 0.000796 -0.010222 -0.001431 0.030404
#
#
# Mechanical properties :
#
#
# Convention : Reuss Voigt Hill
#
# Bulk Modulus (GPa) = 41.82052 61.35975 51.59014
# Shear Modulus (GPa) = 26.64193 33.86830 30.25512
#
# Velocity S-wave (km/s) = 3.51562 3.96384 3.74644
# Velocity P-wave (km/s) = 5.99004 7.02958 6.53053
#
# Compressibility (1/GPa) = 0.02391170
#
# Stress axis : x y z
#
# Youngs Moduli (GPa) = 81.23235 42.37947 69.60034
#
# Poissons Ratio (x) = 0.17509 0.35004
# Poissons Ratio (y) = 0.33561 0.27983
# Poissons Ratio (z) = 0.40855 0.17039
#
# Static dielectric constant tensor:
#      x y z
#    x 4.210410 0.057430 0.094770 
#    y 0.057430 3.892920 0.048470 
#    z 0.094770 0.048470 3.995470 
# 
# 
# High freq. dielectric constant tensor:
#      x y z
#    x 1.856460 -0.002750 0.013400 
#    y -0.002750 1.838020 -0.001450 
#    z 0.013400 -0.001450 1.853920 
# 
# From -- ./inp_files/28118.got.cif
#   From: 2010.06.25/outbox.cif.g09.slc.cpg/sg2_15_cif.got.tgz:28118.got - 2010.06.27 13:26:56.
