data_PCOD8017308
_publ_section_title
;
Structure prediction by ZEFSAII (Michael W. Deem and Ramdas Pophale) SiO2 
 PCOD8017308
Probable space group: P -1
;
_chemical_formula_sum "Si O2"
_cell_formula_units_Z 14
_cell_length_a 9.294149
_cell_length_b 12.689864
_cell_length_c 21.122724
_cell_angle_alpha 152.019535
_cell_angle_beta 145.299698
_cell_angle_gamma 33.674416
_cell_volume 610.569485
_symmetry_space_group_name_H-M "P -1"
_symmetry_group_IT_number 2
_symmetry_cell_setting 'triclinic'
loop_
_space_group_symop_operation_xyz
x,y,z
-x,-y,-z
loop_
_atom_site_type_symbol
_atom_site_label
_atom_site_fract_x
_atom_site_fract_y
_atom_site_fract_z
Si Si1 0.851962 0.867633 0.016068
Si Si2 0.717329 0.029371 0.184070
Si Si3 0.743514 0.251649 0.529037
Si Si4 0.846097 0.533266 0.178677
Si Si5 0.167598 0.515544 0.508559
Si Si6 0.536155 0.990920 0.227709
Si Si7 0.940717 0.282255 0.198728
O O1 0.909931 0.852624 0.105097
O O2 0.576092 0.823533 0.878334
O O3 0.807459 0.137019 0.116839
O O4 0.107157 0.654389 0.961952
O O5 0.848453 0.210639 0.353777
O O6 0.675519 0.884449 0.153854
O O7 0.488052 0.318671 0.521948
O O8 0.863046 0.461747 0.688599
O O9 0.620500 0.218951 0.398837
O O10 0.000000 0.000000 0.500000
O O11 0.631503 0.792295 0.213484
O O12 0.734989 0.437442 0.149794
O O13 0.015457 0.470087 0.368132
O O14 0.000000 0.500000 0.500000
O O15 0.207842 0.085930 0.154558
#
# Coordination Sequence:
#
# PCOD8017308 Si02
#       7
#     2   2   2   2   2   2   2
#     4  11  23  38  61  88 131 161 201 254 321 370
#     4  11  22  40  61  91 123 167 204 257 310 378
#     4   9  19  37  62  92 123 158 208 261 308 370
#     4  11  21  38  65  90 124 165 204 257 319 365
#     4  11  20  38  68  92 120 167 214 256 314 370
#     4  10  22  38  66  90 121 160 219 253 303 377
#     4  11  22  40  63  94 121 160 209 265 301 370
#
# _framework density 22.929413
#
# number of rings (size 3 to 8) (size 9 to 14) (size 15 to 20)
#    0.000    1.429    4.286    1.286    0.000    3.429 
#    0.000    0.000    6.286    6.000    0.000    0.000 
#    0.000    0.000    0.000    0.000    0.000    0.000 
#
# Total GULP energy -173489.279225 kJ/mol
# GULP energy per Si atom -12392.091373 kJ/mol
# Density = 2.287722 g / cm^3
# Si number density = 22.929413 Si / 1000 Ang^3
#
#
#
# Elastic Constant Matrix: (Units=GPa)
#
#
# Indices 1 2 3 4 5 6 
#
# 1 139.4010 27.0684 21.6766 -2.5870 -20.7957 24.2106
# 2 27.0684 51.4130 7.5984 -3.1406 -7.4981 15.5737
# 3 21.6766 7.5984 85.4251 6.3200 -10.1690 5.4326
# 4 -2.5870 -3.1406 6.3200 19.5558 -0.8876 0.6388
# 5 -20.7957 -7.4981 -10.1690 -0.8876 37.5888 -2.0608
# 6 24.2106 15.5737 5.4326 0.6388 -2.0608 32.8163
#
#
#
# Elastic Compliance Matrix: (Units=1/GPa)
#
#
# Indices 1 2 3 4 5 6 
#
# 1 0.009446 -0.002436 -0.001479 0.001697 0.004087 -0.005344
# 2 -0.002436 0.024447 -0.000930 0.004346 0.002856 -0.009556
# 3 -0.001479 -0.000930 0.012787 -0.004360 0.002333 -0.000353
# 4 0.001697 0.004346 -0.004360 0.053660 0.001699 -0.003530
# 5 0.004087 0.002856 0.002333 0.001699 0.029946 -0.002909
# 6 -0.005344 -0.009556 -0.000353 -0.003530 -0.002909 0.038895
#
#
# Mechanical properties :
#
#
# Convention : Reuss Voigt Hill
#
# Bulk Modulus (GPa) = 27.03537 43.21400 35.12469
# Shear Modulus (GPa) = 26.15046 32.65189 29.40118
#
# Velocity S-wave (km/s) = 3.38076 3.77771 3.58473
# Velocity P-wave (km/s) = 5.20151 6.15756 5.69962
#
# Compressibility (1/GPa) = 0.03698858
#
# Stress axis : x y z
#
# Youngs Moduli (GPa) = 105.86587 40.90486 78.20431
#
# Poissons Ratio (x) = 0.09965 0.11569
# Poissons Ratio (y) = 0.25789 0.07275
# Poissons Ratio (z) = 0.15662 0.03805
#
# Static dielectric constant tensor:
#      x y z
#    x 4.279880 0.037060 -0.053170 
#    y 0.037060 3.545960 -0.124600 
#    z -0.053170 -0.124600 4.798410 
# 
# 
# High freq. dielectric constant tensor:
#      x y z
#    x 1.904410 0.009750 -0.005420 
#    y 0.009750 1.858320 -0.007730 
#    z -0.005420 -0.007730 1.933360 
# 
# From -- ./inp_files/225007.got.cif
#   From: 2010.06.25/outbox.cif.g09.slc.cpg/sg2_113_cif.got.tgz:225007.got - 2010.06.27 13:26:56.
