data_PCOD8017419
_publ_section_title
;
Structure prediction by ZEFSAII (Michael W. Deem and Ramdas Pophale) SiO2 
 PCOD8017419
Probable space group: P -1
;
_chemical_formula_sum "Si O2"
_cell_formula_units_Z 16
_cell_length_a 9.243761
_cell_length_b 14.384547
_cell_length_c 13.810318
_cell_angle_alpha 30.826982
_cell_angle_beta 84.316656
_cell_angle_gamma 104.692346
_cell_volume 700.047462
_symmetry_space_group_name_H-M "P -1"
_symmetry_group_IT_number 2
_symmetry_cell_setting 'triclinic'
loop_
_space_group_symop_operation_xyz
x,y,z
-x,-y,-z
loop_
_atom_site_type_symbol
_atom_site_label
_atom_site_fract_x
_atom_site_fract_y
_atom_site_fract_z
Si Si1 0.424044 0.339047 0.912604
Si Si2 0.336005 0.420037 0.510282
Si Si3 0.631227 0.350530 0.243093
Si Si4 0.981237 0.953691 0.251659
Si Si5 0.722473 0.239647 0.758645
Si Si6 0.992991 0.429589 0.402083
Si Si7 0.556956 0.155971 0.217841
Si Si8 0.034525 0.683002 0.990780
O O1 0.576882 0.471768 0.698120
O O2 0.446770 0.530256 0.810237
O O3 0.467212 0.193223 0.101494
O O4 0.211562 0.164717 0.033066
O O5 0.500000 0.500000 0.500000
O O6 0.147859 0.133547 0.761544
O O7 0.253580 0.528440 0.470156
O O8 0.538203 0.259316 0.224237
O O9 0.866683 0.540501 0.047776
O O10 0.567517 0.129084 0.511487
O O11 0.934236 0.710445 0.514213
O O12 0.906873 0.056280 0.233277
O O13 0.843043 0.311399 0.785750
O O14 0.816573 0.228016 0.667459
O O15 0.500000 0.000000 0.000000
O O16 0.930653 0.508114 0.248633
O O17 0.781821 0.287904 0.072030
#
# Coordination Sequence:
#
# PCOD8017419 Si02
#       8
#     2   2   2   2   2   2   2   2
#     4  11  23  43  66  91 131 173 208 263 325 377
#     4  11  25  40  62  94 128 167 220 264 312 382
#     4  10  24  41  66 100 128 165 213 266 322 390
#     4  10  23  42  60  91 127 167 210 261 315 371
#     4  10  22  39  58  86 122 164 214 261 313 364
#     4  10  22  40  59  87 123 166 211 256 311 378
#     4  11  22  42  69  97 129 165 214 264 323 389
#     4  11  23  39  68  92 130 169 207 263 324 378
#
# _framework density 22.855594
#
# number of rings (size 3 to 8) (size 9 to 14) (size 15 to 20)
#    0.000    1.500    0.000    4.500    5.250    1.500 
#    0.000    0.000    0.000   10.500    0.000    0.000 
#    0.000    0.000    0.000    0.000    0.000    0.000 
#
# Total GULP energy -198230.424406 kJ/mol
# GULP energy per Si atom -12389.401525 kJ/mol
# Density = 2.280357 g / cm^3
# Si number density = 22.855594 Si / 1000 Ang^3
#
#
#
# Elastic Constant Matrix: (Units=GPa)
#
#
# Indices 1 2 3 4 5 6 
#
# 1 99.5674 28.5217 25.8829 -0.2933 2.3368 4.9134
# 2 28.5217 67.8177 37.4858 -4.1159 11.1032 3.4197
# 3 25.8829 37.4858 87.6974 -12.7859 -3.2412 0.2005
# 4 -0.2933 -4.1159 -12.7859 32.4035 4.7041 -2.4609
# 5 2.3368 11.1032 -3.2412 4.7041 34.5662 -11.0822
# 6 4.9134 3.4197 0.2005 -2.4609 -11.0822 36.9566
#
#
#
# Elastic Compliance Matrix: (Units=1/GPa)
#
#
# Indices 1 2 3 4 5 6 
#
# 1 0.011722 -0.003841 -0.001999 -0.001270 0.000019 -0.001271
# 2 -0.003841 0.023165 -0.009054 0.000379 -0.009494 -0.004406
# 3 -0.001999 -0.009054 0.016758 0.004954 0.004836 0.002793
# 4 -0.001270 0.000379 0.004954 0.033487 -0.003739 0.001216
# 5 0.000019 -0.009494 0.004836 -0.003739 0.036658 0.011593
# 6 -0.001271 -0.004406 0.002793 0.001216 0.011593 0.031178
#
#
# Mechanical properties :
#
#
# Convention : Reuss Voigt Hill
#
# Bulk Modulus (GPa) = 45.75312 48.76259 47.25785
# Shear Modulus (GPa) = 26.31028 31.66474 28.98751
#
# Velocity S-wave (km/s) = 3.39655 3.72617 3.56517
# Velocity P-wave (km/s) = 5.95347 6.31616 6.13749
#
# Compressibility (1/GPa) = 0.02185643
#
# Stress axis : x y z
#
# Youngs Moduli (GPa) = 85.30999 43.16939 59.67470
#
# Poissons Ratio (x) = 0.16580 0.11932
# Poissons Ratio (y) = 0.32766 0.54027
# Poissons Ratio (z) = 0.17057 0.39084
#
# Static dielectric constant tensor:
#      x y z
#    x 4.254720 -0.015090 0.168070 
#    y -0.015090 4.170960 -0.211230 
#    z 0.168070 -0.211230 4.175580 
# 
# 
# High freq. dielectric constant tensor:
#      x y z
#    x 1.919800 -0.000890 -0.009300 
#    y -0.000890 1.900350 -0.029490 
#    z -0.009300 -0.029490 1.888880 
# 
# From -- ./inp_files/504981.got.cif
#   From: 2010.06.25/outbox.cif.g09.slc.cpg/sg2_253_cif.got.tgz:504981.got - 2010.06.27 13:26:56.
