data_PCOD8017332
_publ_section_title
;
Structure prediction by ZEFSAII (Michael W. Deem and Ramdas Pophale) SiO2 
 PCOD8017332
Probable space group: P -1
;
_chemical_formula_sum "Si O2"
_cell_formula_units_Z 16
_cell_length_a 15.329206
_cell_length_b 11.086340
_cell_length_c 8.879272
_cell_angle_alpha 115.778805
_cell_angle_beta 68.809151
_cell_angle_gamma 151.625735
_cell_volume 644.955609
_symmetry_space_group_name_H-M "P -1"
_symmetry_group_IT_number 2
_symmetry_cell_setting 'triclinic'
loop_
_space_group_symop_operation_xyz
x,y,z
-x,-y,-z
loop_
_atom_site_type_symbol
_atom_site_label
_atom_site_fract_x
_atom_site_fract_y
_atom_site_fract_z
Si Si1 0.353802 0.710151 0.496858
Si Si2 0.885927 0.440659 0.228716
Si Si3 0.150388 0.538528 0.070039
Si Si4 0.897233 0.009108 0.082619
Si Si5 0.387288 0.499609 0.175023
Si Si6 0.522486 0.747160 0.673087
Si Si7 0.677990 0.749792 0.360975
Si Si8 0.473273 0.142401 0.953417
O O1 0.154911 0.523540 0.575317
O O2 0.297132 0.527875 0.309257
O O3 0.448674 0.764191 0.612641
O O4 0.500000 0.000000 0.500000
O O5 0.080368 0.599953 0.202396
O O6 0.705283 0.123994 0.169148
O O7 0.881644 0.521440 0.121022
O O8 0.361175 0.764053 0.102914
O O9 0.015505 0.276075 0.099044
O O10 0.726670 0.772754 0.948268
O O11 0.855367 0.977640 0.268907
O O12 0.000000 0.000000 0.000000
O O13 0.513027 0.604249 0.286015
O O14 0.474589 0.652403 0.044276
O O15 0.688640 0.862104 0.560567
O O16 0.357002 0.444145 0.664809
O O17 0.593430 0.915755 0.865311
#
# Coordination Sequence:
#
# PCOD8017332 Si02
#       8
#     2   2   2   2   2   2   2   2
#     4  11  23  42  68  99 137 180 229 289 343 401
#     4  11  25  44  71  98 139 183 234 287 336 413
#     4  11  25  42  67 105 134 181 233 282 342 411
#     4  12  23  41  67  96 143 175 221 289 341 413
#     4  11  23  40  70 103 126 183 228 275 350 406
#     4  10  22  38  67 101 134 174 227 283 341 402
#     4  10  22  41  66 100 135 176 229 278 341 418
#     4  12  21  44  73  99 134 182 234 279 343 408
#
# _framework density 24.80791
#
# number of rings (size 3 to 8) (size 9 to 14) (size 15 to 20)
#    0.000    1.000    5.000    1.500    3.500    0.000 
#    0.000    3.750    0.000    0.000    0.000    0.000 
#    0.000    0.000    0.000    0.000    0.000    0.000 
#
# Total GULP energy -198239.992537 kJ/mol
# GULP energy per Si atom -12389.999534 kJ/mol
# Density = 2.475145 g / cm^3
# Si number density = 24.807910 Si / 1000 Ang^3
#
#
#
# Elastic Constant Matrix: (Units=GPa)
#
#
# Indices 1 2 3 4 5 6 
#
# 1 92.8350 17.5720 15.5862 -13.9150 1.2238 -2.8950
# 2 17.5720 59.0414 23.9542 -34.1858 -6.7101 -1.1042
# 3 15.5862 23.9542 136.2461 -33.0762 -18.8506 -4.4282
# 4 -13.9150 -34.1858 -33.0762 42.5161 2.5348 2.9049
# 5 1.2238 -6.7101 -18.8506 2.5348 41.1371 -12.4035
# 6 -2.8950 -1.1042 -4.4282 2.9049 -12.4035 37.9425
#
#
#
# Elastic Compliance Matrix: (Units=1/GPa)
#
#
# Indices 1 2 3 4 5 6 
#
# 1 0.011584 -0.002575 -0.000721 0.001205 -0.001086 0.000278
# 2 -0.002575 0.033028 0.001627 0.026669 0.004702 0.000450
# 3 -0.000721 0.001627 0.009918 0.008347 0.004960 0.002132
# 4 0.001205 0.026669 0.008347 0.051603 0.004796 -0.000541
# 5 -0.001086 0.004702 0.004960 0.004796 0.030136 0.010117
# 6 0.000278 0.000450 0.002132 -0.000541 0.010117 0.029988
#
#
# Mechanical properties :
#
#
# Convention : Reuss Voigt Hill
#
# Bulk Modulus (GPa) = 19.53443 44.70526 32.11985
# Shear Modulus (GPa) = 26.78688 39.71982 33.25335
#
# Velocity S-wave (km/s) = 3.28955 4.00571 3.66516
# Velocity P-wave (km/s) = 4.72436 6.28124 5.55759
#
# Compressibility (1/GPa) = 0.05119166
#
# Stress axis : x y z
#
# Youngs Moduli (GPa) = 86.32632 30.27748 100.82686
#
# Poissons Ratio (x) = 0.07798 0.07269
# Poissons Ratio (y) = 0.22232 -0.16407
# Poissons Ratio (z) = 0.06224 -0.04927
#
# Static dielectric constant tensor:
#      x y z
#    x 4.598080 -0.098470 -0.409580 
#    y -0.098470 4.226520 -0.590370 
#    z -0.409580 -0.590370 4.809160 
# 
# 
# High freq. dielectric constant tensor:
#      x y z
#    x 1.999750 -0.017750 -0.009750 
#    y -0.017750 1.965940 -0.027400 
#    z -0.009750 -0.027400 2.002390 
# 
# From -- ./inp_files/307995.got.cif
#   From: 2010.06.25/outbox.cif.g09.slc.cpg/sg2_154_cif.got.tgz:307995.got - 2010.06.27 13:26:56.
