data_PCOD8017725
_publ_section_title
;
Structure prediction by ZEFSAII (Michael W. Deem and Ramdas Pophale) SiO2 
 PCOD8017725
Probable space group: P -1
;
_chemical_formula_sum "Si O2"
_cell_formula_units_Z 14
_cell_length_a 13.855370
_cell_length_b 24.987685
_cell_length_c 24.398382
_cell_angle_alpha 168.463849
_cell_angle_beta 21.836610
_cell_angle_gamma 157.098242
_cell_volume 620.561469
_symmetry_space_group_name_H-M "P -1"
_symmetry_group_IT_number 2
_symmetry_cell_setting 'triclinic'
loop_
_space_group_symop_operation_xyz
x,y,z
-x,-y,-z
loop_
_atom_site_type_symbol
_atom_site_label
_atom_site_fract_x
_atom_site_fract_y
_atom_site_fract_z
Si Si1 0.131025 0.824544 0.820159
Si Si2 0.632770 0.806615 0.593561
Si Si3 0.104596 0.636140 0.025329
Si Si4 0.325091 0.221915 0.330710
Si Si5 0.785417 0.251645 0.419533
Si Si6 0.736181 0.091404 0.509775
Si Si7 0.693814 0.596656 0.109542
O O1 0.329689 0.839197 0.780900
O O2 0.289457 0.874338 0.728372
O O3 0.956429 0.541214 0.618467
O O4 0.951445 0.044345 0.152221
O O5 0.726595 0.812799 0.612316
O O6 0.812507 0.039026 0.695194
O O7 0.644038 0.508299 0.264554
O O8 0.895255 0.537814 0.990309
O O9 0.000000 0.500000 0.000000
O O10 0.500000 0.500000 0.500000
O O11 0.028409 0.204006 0.442929
O O12 0.500000 0.000000 0.000000
O O13 0.538983 0.282482 0.617020
O O14 0.500000 0.000000 0.500000
O O15 0.805907 0.829602 0.241901
O O16 0.624033 0.314026 0.830089
#
# Coordination Sequence:
#
# PCOD8017725 Si02
#       7
#     2   2   2   2   2   2   2
#     4  10  22  40  62  97 141 180 228 276 345 425
#     4  12  24  44  67  98 139 178 233 288 346 423
#     4  12  24  41  71 104 139 180 223 279 357 426
#     4  12  26  47  73  98 138 186 242 302 364 418
#     4  10  22  39  64  96 138 183 223 281 346 429
#     4  12  27  48  72 102 142 186 244 313 363 429
#     4  12  23  45  70 100 141 179 236 291 361 422
#
# _framework density 22.560213999999998
#
# number of rings (size 3 to 8) (size 9 to 14) (size 15 to 20)
#    0.000    0.571    2.857    5.143    0.000    6.857 
#    0.000    0.000    0.000    0.000    0.000    0.000 
#    0.000    0.000    0.000    0.000    0.000    0.000 
#
# Total GULP energy -173482.601138 kJ/mol
# GULP energy per Si atom -12391.614367 kJ/mol
# Density = 2.250887 g / cm^3
# Si number density = 22.560214 Si / 1000 Ang^3
#
#
#
# Elastic Constant Matrix: (Units=GPa)
#
#
# Indices 1 2 3 4 5 6 
#
# 1 32.9997 2.0800 -9.5226 30.1781 -49.2137 4.4038
# 2 2.0800 81.1560 5.7757 11.3702 -33.5212 5.6019
# 3 -9.5226 5.7757 131.2854 6.9163 -27.4091 -1.2336
# 4 30.1781 11.3702 6.9163 42.5374 7.4955 -3.9648
# 5 -49.2137 -33.5212 -27.4091 7.4955 16.6968 -3.2535
# 6 4.4038 5.6019 -1.2336 -3.9648 -3.2535 39.2867
#
#
#
# Elastic Compliance Matrix: (Units=1/GPa)
#
#
# Indices 1 2 3 4 5 6 
#
# 1 0.001720 -0.007135 -0.003196 0.004071 -0.016373 -0.000221
# 2 -0.007135 0.011305 -0.001668 0.002663 -0.002421 -0.000796
# 3 -0.003196 -0.001668 0.006896 0.002060 -0.002210 0.000837
# 4 0.004071 0.002663 0.002060 0.017422 0.013314 0.002089
# 5 -0.016373 -0.002421 -0.002210 0.013314 -0.002196 0.003273
# 6 -0.000221 -0.000796 0.000837 0.002089 0.003273 0.026100
#
#
# Mechanical properties :
#
#
# Convention : Reuss Voigt Hill
#
# Bulk Modulus (GPa) = -245.30023 26.90081 -109.19971
# Shear Modulus (GPa) = 59.60422 36.17805 47.89114
#
# Velocity S-wave (km/s) = 5.14562 4.00887 4.61240
# Velocity P-wave (km/s) = 8.58278 5.77736 4.48811
#
# Compressibility (1/GPa) = -0.00407664
#
# Stress axis : x y z
#
# Youngs Moduli (GPa) = 581.56215 88.45509 145.00157
#
# Poissons Ratio (x) = 0.63108 0.46345
# Poissons Ratio (y) = 4.14917 0.24189
# Poissons Ratio (z) = 1.85879 0.14756
#
# Static dielectric constant tensor:
#      x y z
#    x 4.086240 0.042010 -0.161050 
#    y 0.042010 4.174280 -0.320590 
#    z -0.161050 -0.320590 5.044390 
# 
# 
# High freq. dielectric constant tensor:
#      x y z
#    x 1.882090 0.006430 -0.007680 
#    y 0.006430 1.886410 -0.000260 
#    z -0.007680 -0.000260 1.918190 
# 
# From -- ./inp_files/533780.got.cif
#   From: 2010.06.25/outbox.cif.g09.slc.cpg/sg2_267_cif.got.tgz:533780.got - 2010.06.27 13:26:56.
