data_PCOD8017191
_publ_section_title
;
Structure prediction by ZEFSAII (Michael W. Deem and Ramdas Pophale) SiO2 
 PCOD8017191
Probable space group: P -1
;
_chemical_formula_sum "Si O2"
_cell_formula_units_Z 12
_cell_length_a 8.990301
_cell_length_b 11.487752
_cell_length_c 5.183295
_cell_angle_alpha 71.406481
_cell_angle_beta 74.213945
_cell_angle_gamma 65.900672
_cell_volume 456.889401
_symmetry_space_group_name_H-M "P -1"
_symmetry_group_IT_number 2
_symmetry_cell_setting 'triclinic'
loop_
_space_group_symop_operation_xyz
x,y,z
-x,-y,-z
loop_
_atom_site_type_symbol
_atom_site_label
_atom_site_fract_x
_atom_site_fract_y
_atom_site_fract_z
Si Si1 0.249964 0.439368 0.953680
Si Si2 0.644316 0.024069 0.579448
Si Si3 0.552272 0.178684 0.016389
Si Si4 0.127040 0.572927 0.411274
Si Si5 0.911842 0.760657 0.727968
Si Si6 0.117292 0.881037 0.870951
O O1 0.421930 0.322576 0.003419
O O2 0.254425 0.508300 0.631086
O O3 0.227846 0.548835 0.111980
O O4 0.105802 0.375458 0.072399
O O5 0.538035 0.110372 0.802329
O O6 0.809654 0.061738 0.445915
O O7 0.539810 0.070502 0.320924
O O8 0.726852 0.866860 0.706798
O O9 0.727219 0.199256 0.962001
O O10 0.000000 0.500000 0.500000
O O11 0.020202 0.725992 0.432808
O O12 0.016180 0.793011 0.882894
O O13 0.000000 0.000000 0.000000
#
# Coordination Sequence:
#
# PCOD8017191 Si02
#       6
#     2   2   2   2   2   2
#     4  11  24  43  62  91 126 162 204 256 302 355
#     4  10  22  38  62  91 124 156 200 247 313 359
#     4  10  23  40  61  87 137 153 194 255 313 359
#     4  10  23  42  63  91 122 162 211 254 294 355
#     4  11  21  39  67  92 117 165 210 252 299 363
#     4  10  22  40  62  94 125 160 201 250 306 370
#
# _framework density 26.264562999999999
#
# number of rings (size 3 to 8) (size 9 to 14) (size 15 to 20)
#    1.000    0.667    1.667    3.500    0.000    9.333 
#    0.000    1.667    0.000    0.000    0.000    0.000 
#    0.000    0.000    0.000    0.000    0.000    0.000 
#
# Total GULP energy -148767.939900 kJ/mol
# GULP energy per Si atom -12397.328325 kJ/mol
# Density = 2.620478 g / cm^3
# Si number density = 26.264563 Si / 1000 Ang^3
#
#
#
# Elastic Constant Matrix: (Units=GPa)
#
#
# Indices 1 2 3 4 5 6 
#
# 1 91.9936 34.5403 38.0358 16.5176 22.5201 -12.7452
# 2 34.5403 133.6558 54.8076 37.2850 11.1376 -32.4720
# 3 38.0358 54.8076 165.7233 37.3130 24.9969 -16.0538
# 4 16.5176 37.2850 37.3130 58.6316 -1.6267 -0.6984
# 5 22.5201 11.1376 24.9969 -1.6267 37.4850 4.4955
# 6 -12.7452 -32.4720 -16.0538 -0.6984 4.4955 37.5656
#
#
#
# Elastic Compliance Matrix: (Units=1/GPa)
#
#
# Indices 1 2 3 4 5 6 
#
# 1 0.014991 -0.000505 -0.000474 -0.003794 -0.009364 0.005497
# 2 -0.000505 0.013276 -0.000643 -0.007891 -0.004930 0.011473
# 3 -0.000474 -0.000643 0.008788 -0.005175 -0.006049 0.003667
# 4 -0.003794 -0.007891 -0.005175 0.026596 0.010559 -0.011089
# 5 -0.009364 -0.004930 -0.006049 0.010559 0.040012 -0.014616
# 6 0.005497 0.011473 0.003667 -0.011089 -0.014616 0.041512
#
#
# Mechanical properties :
#
#
# Convention : Reuss Voigt Hill
#
# Bulk Modulus (GPa) = 29.57716 71.79336 50.68526
# Shear Modulus (GPa) = 31.31044 44.33571 37.82307
#
# Velocity S-wave (km/s) = 3.45645 4.11304 3.79896
# Velocity P-wave (km/s) = 5.21681 7.06754 6.21149
#
# Compressibility (1/GPa) = 0.03380988
#
# Stress axis : x y z
#
# Youngs Moduli (GPa) = 66.70540 75.32667 113.78837
#
# Poissons Ratio (x) = 0.03807 0.05398
# Poissons Ratio (y) = 0.03372 0.07314
# Poissons Ratio (z) = 0.03165 0.04841
#
# Static dielectric constant tensor:
#      x y z
#    x 4.430870 -0.760660 -0.108830 
#    y -0.760660 3.677370 0.257070 
#    z -0.108830 0.257070 5.266000 
# 
# 
# High freq. dielectric constant tensor:
#      x y z
#    x 2.065870 -0.011490 0.004610 
#    y -0.011490 2.059400 0.007310 
#    z 0.004610 0.007310 2.058720 
# 
# From -- ./inp_files/25151.got.cif
#   From: 2010.06.25/outbox.cif.g09.slc.cpg/sg2_13_cif.got.tgz:25151.got - 2010.06.27 13:26:56.
