data_PCOD8017705
_publ_section_title
;
Structure prediction by ZEFSAII (Michael W. Deem and Ramdas Pophale) SiO2 
 PCOD8017705
Probable space group: P -1
;
_chemical_formula_sum "Si O2"
_cell_formula_units_Z 16
_cell_length_a 12.947971
_cell_length_b 15.182646
_cell_length_c 8.811578
_cell_angle_alpha 110.253903
_cell_angle_beta 69.220505
_cell_angle_gamma 151.006370
_cell_volume 782.549588
_symmetry_space_group_name_H-M "P -1"
_symmetry_group_IT_number 2
_symmetry_cell_setting 'triclinic'
loop_
_space_group_symop_operation_xyz
x,y,z
-x,-y,-z
loop_
_atom_site_type_symbol
_atom_site_label
_atom_site_fract_x
_atom_site_fract_y
_atom_site_fract_z
Si Si1 0.397018 0.025478 0.896591
Si Si2 0.792010 0.799213 0.914981
Si Si3 0.647818 0.026680 0.756954
Si Si4 0.473553 0.257651 0.487495
Si Si5 0.456134 0.685203 0.166386
Si Si6 0.714070 0.713619 0.555122
Si Si7 0.077298 0.320557 0.559069
Si Si8 0.052617 0.291212 0.208687
O O1 0.523687 0.207993 0.881606
O O2 0.508289 0.013449 0.764984
O O3 0.155605 0.859036 0.872001
O O4 0.394673 0.022598 0.075700
O O5 0.752470 0.780936 0.744701
O O6 0.810697 0.703415 0.884709
O O7 0.580690 0.687907 0.033335
O O8 0.000000 0.000000 0.000000
O O9 0.568493 0.877678 0.623119
O O10 0.897405 0.232000 0.711950
O O11 0.456837 0.239415 0.664929
O O12 0.285938 0.193548 0.494878
O O13 0.701402 0.459074 0.420133
O O14 0.202558 0.483245 0.184036
O O15 0.500000 0.500000 0.500000
O O16 0.897301 0.770187 0.457337
O O17 0.987639 0.257558 0.397187
#
# Coordination Sequence:
#
# PCOD8017705 Si02
#       8
#     2   2   2   2   2   2   2   2
#     4  11  25  43  59  90 119 161 214 257 317 370
#     4  11  21  37  65  96 132 168 209 256 307 379
#     4  11  25  41  63  85 121 161 209 268 309 368
#     4  10  22  39  64  93 123 162 205 252 313 375
#     4  11  23  41  64  91 128 164 203 257 314 377
#     4   9  20  39  61  92 132 165 205 252 306 378
#     4   9  21  41  62  91 121 161 206 249 308 374
#     4  10  22  40  64  91 124 162 204 250 311 375
#
# _framework density 20.445989000000001
#
# number of rings (size 3 to 8) (size 9 to 14) (size 15 to 20)
#    0.000    1.750    1.250    2.625    1.750    7.500 
#    0.000    5.000    0.000    0.000    0.000    0.000 
#    0.000    0.000    0.000    0.000    0.000    0.000 
#
# Total GULP energy -198326.109834 kJ/mol
# GULP energy per Si atom -12395.381865 kJ/mol
# Density = 2.039945 g / cm^3
# Si number density = 20.445989 Si / 1000 Ang^3
#
#
#
# Elastic Constant Matrix: (Units=GPa)
#
#
# Indices 1 2 3 4 5 6 
#
# 1 155.3829 50.8478 65.4048 -19.3139 0.9893 33.5147
# 2 50.8478 76.3712 45.5197 -3.5591 9.0405 10.6118
# 3 65.4048 45.5197 98.1434 -6.7844 2.6149 39.0491
# 4 -19.3139 -3.5591 -6.7844 31.4646 8.8799 7.5019
# 5 0.9893 9.0405 2.6149 8.8799 29.7018 5.4938
# 6 33.5147 10.6118 39.0491 7.5019 5.4938 71.3080
#
#
#
# Elastic Compliance Matrix: (Units=1/GPa)
#
#
# Indices 1 2 3 4 5 6 
#
# 1 0.010770 -0.004386 -0.003465 0.006109 0.000039 -0.003157
# 2 -0.004386 0.021110 -0.008470 -0.001469 -0.005865 0.004165
# 3 -0.003465 -0.008470 0.019933 0.002753 0.001678 -0.008445
# 4 0.006109 -0.001469 0.002753 0.040823 -0.010794 -0.007623
# 5 0.000039 -0.005865 0.001678 -0.010794 0.038887 -0.001925
# 6 -0.003157 0.004165 -0.008445 -0.007623 -0.001925 0.020463
#
#
# Mechanical properties :
#
#
# Convention : Reuss Voigt Hill
#
# Bulk Modulus (GPa) = 52.16817 72.60468 62.38642
# Shear Modulus (GPa) = 26.17545 37.70325 31.93935
#
# Velocity S-wave (km/s) = 3.58190 4.29889 3.95667
# Velocity P-wave (km/s) = 6.53278 7.76068 7.17305
#
# Compressibility (1/GPa) = 0.01916878
#
# Stress axis : x y z
#
# Youngs Moduli (GPa) = 92.85177 47.37101 50.16829
#
# Poissons Ratio (x) = 0.20778 0.17386
# Poissons Ratio (y) = 0.40727 0.42494
# Poissons Ratio (z) = 0.32177 0.40124
#
# Static dielectric constant tensor:
#      x y z
#    x 4.054750 -0.023320 0.010640 
#    y -0.023320 3.694430 0.069710 
#    z 0.010640 0.069710 3.892880 
# 
# 
# High freq. dielectric constant tensor:
#      x y z
#    x 1.805530 -0.001000 0.002420 
#    y -0.001000 1.803110 0.005670 
#    z 0.002420 0.005670 1.800990 
# 
# From -- ./inp_files/272746.got.cif
#   From: 2010.06.25/outbox.cif.g09.slc.cpg/sg2_137_cif.got.tgz:272746.got - 2010.06.27 13:26:56.
