data_PCOD8017836
_publ_section_title
;
Structure prediction by ZEFSAII (Michael W. Deem and Ramdas Pophale) SiO2 
 PCOD8017836
Probable space group: P -1
;
_chemical_formula_sum "Si O2"
_cell_formula_units_Z 14
_cell_length_a 14.063150
_cell_length_b 18.405238
_cell_length_c 7.595179
_cell_angle_alpha 115.453101
_cell_angle_beta 65.310635
_cell_angle_gamma 159.343558
_cell_volume 625.438982
_symmetry_space_group_name_H-M "P -1"
_symmetry_group_IT_number 2
_symmetry_cell_setting 'triclinic'
loop_
_space_group_symop_operation_xyz
x,y,z
-x,-y,-z
loop_
_atom_site_type_symbol
_atom_site_label
_atom_site_fract_x
_atom_site_fract_y
_atom_site_fract_z
Si Si1 0.970691 0.584113 0.429216
Si Si2 0.654442 0.296861 0.695484
Si Si3 0.729954 0.854461 0.606429
Si Si4 0.721132 0.452901 0.131636
Si Si5 0.019256 0.207791 0.838171
Si Si6 0.919485 0.162640 0.263670
Si Si7 0.526247 0.477652 0.648522
O O1 0.739555 0.390221 0.538131
O O2 0.831469 0.479299 0.237042
O O3 0.225979 0.705954 0.360752
O O4 0.086435 0.752632 0.565216
O O5 0.332207 0.064991 0.703535
O O6 0.763289 0.436446 0.901237
O O7 0.600655 0.756433 0.803296
O O8 0.501518 0.641596 0.452968
O O9 0.000000 0.000000 0.500000
O O10 0.799372 0.998559 0.679119
O O11 0.901006 0.660958 0.207876
O O12 0.288321 0.345784 0.815404
O O13 0.896849 0.150454 0.057137
O O14 0.183067 0.298887 0.260893
O O15 0.500000 0.500000 0.500000
#
# Coordination Sequence:
#
# PCOD8017836 Si02
#       7
#     2   2   2   2   2   2   2
#     4  11  25  46  69 100 134 178 233 286 339 395
#     4  11  26  46  70  99 137 175 232 287 340 399
#     4  10  22  39  66  96 133 177 225 268 331 404
#     4  12  22  46  71  98 138 180 225 282 336 404
#     4  11  23  41  66  99 136 177 224 273 335 410
#     4  12  23  44  67  97 140 177 220 282 344 399
#     4  11  22  42  65  97 137 176 227 272 327 417
#
# _framework density 22.38428
#
# number of rings (size 3 to 8) (size 9 to 14) (size 15 to 20)
#    0.000    0.857    5.714    1.286    0.000    3.429 
#    0.000    2.143    0.000    0.000    0.000    0.000 
#    0.000    0.000    0.000    0.000    0.000    0.000 
#
# Total GULP energy -173469.988994 kJ/mol
# GULP energy per Si atom -12390.713500 kJ/mol
# Density = 2.233333 g / cm^3
# Si number density = 22.384280 Si / 1000 Ang^3
#
#
#
# Elastic Constant Matrix: (Units=GPa)
#
#
# Indices 1 2 3 4 5 6 
#
# 1 75.0055 36.0641 29.6071 10.9341 9.1012 -9.6022
# 2 36.0641 148.5556 37.2400 6.5674 6.0392 -11.3840
# 3 29.6071 37.2400 85.3418 6.7334 -5.3848 -2.0115
# 4 10.9341 6.5674 6.7334 37.3777 -4.1594 -6.1081
# 5 9.1012 6.0392 -5.3848 -4.1594 29.9107 5.9680
# 6 -9.6022 -11.3840 -2.0115 -6.1081 5.9680 27.1858
#
#
#
# Elastic Compliance Matrix: (Units=1/GPa)
#
#
# Indices 1 2 3 4 5 6 
#
# 1 0.019018 -0.002200 -0.005687 -0.004039 -0.008178 0.006263
# 2 -0.002200 0.008313 -0.002926 -0.000046 -0.002130 0.002945
# 3 -0.005687 -0.002926 0.015285 -0.000509 0.005694 -0.003467
# 4 -0.004039 -0.000046 -0.000509 0.029195 0.004386 0.004114
# 5 -0.008178 -0.002130 0.005694 0.004386 0.040222 -0.011203
# 6 0.006263 0.002945 -0.003467 0.004114 -0.011203 0.043356
#
#
# Mechanical properties :
#
#
# Convention : Reuss Voigt Hill
#
# Bulk Modulus (GPa) = 47.64232 57.19170 52.41701
# Shear Modulus (GPa) = 27.17203 32.62761 29.89982
#
# Velocity S-wave (km/s) = 3.48787 3.82201 3.65876
# Velocity P-wave (km/s) = 6.12783 6.71435 6.42778
#
# Compressibility (1/GPa) = 0.02098974
#
# Stress axis : x y z
#
# Youngs Moduli (GPa) = 52.58134 120.28914 65.42347
#
# Poissons Ratio (x) = 0.26467 0.37209
# Poissons Ratio (y) = 0.11569 0.19141
# Poissons Ratio (z) = 0.29905 0.35192
#
# Static dielectric constant tensor:
#      x y z
#    x 3.748760 -0.045420 -0.319100 
#    y -0.045420 4.454840 -0.058310 
#    z -0.319100 -0.058310 4.172650 
# 
# 
# High freq. dielectric constant tensor:
#      x y z
#    x 1.850850 -0.008850 -0.020230 
#    y -0.008850 1.902600 -0.006380 
#    z -0.020230 -0.006380 1.892930 
# 
# From -- ./inp_files/317780.got.cif
#   From: 2010.06.25/outbox.cif.g09.slc.cpg/sg2_159_cif.got.tgz:317780.got - 2010.06.27 13:26:56.
