data_PCOD8017533
_publ_section_title
;
Structure prediction by ZEFSAII (Michael W. Deem and Ramdas Pophale) SiO2 
 PCOD8017533
Probable space group: P -1
;
_chemical_formula_sum "Si O2"
_cell_formula_units_Z 16
_cell_length_a 18.671904
_cell_length_b 20.957580
_cell_length_c 9.164430
_cell_angle_alpha 153.332286
_cell_angle_beta 37.445798
_cell_angle_gamma 152.848342
_cell_volume 734.498446
_symmetry_space_group_name_H-M "P -1"
_symmetry_group_IT_number 2
_symmetry_cell_setting 'triclinic'
loop_
_space_group_symop_operation_xyz
x,y,z
-x,-y,-z
loop_
_atom_site_type_symbol
_atom_site_label
_atom_site_fract_x
_atom_site_fract_y
_atom_site_fract_z
Si Si1 0.442579 0.605423 0.858358
Si Si2 0.035984 0.371402 0.727508
Si Si3 0.705242 0.128221 0.837970
Si Si4 0.129474 0.452311 0.066222
Si Si5 0.212347 0.787048 0.804745
Si Si6 0.460231 0.281162 0.757026
Si Si7 0.314018 0.449060 0.277699
Si Si8 0.518685 0.200454 0.093954
O O1 0.500000 0.500000 0.500000
O O2 0.453862 0.743670 0.006487
O O3 0.260236 0.437553 0.858084
O O4 0.543252 0.738330 0.103742
O O5 0.139980 0.365400 0.430501
O O6 0.860891 0.166428 0.608968
O O7 0.130189 0.461100 0.907930
O O8 0.000000 0.500000 0.000000
O O9 0.577961 0.905525 0.627828
O O10 0.745856 0.239397 0.153725
O O11 0.643869 0.189107 0.939017
O O12 0.199530 0.651786 0.432193
O O13 0.959029 0.273991 0.038742
O O14 0.340481 0.004498 0.994063
O O15 0.633780 0.464789 0.794324
O O16 0.326053 0.288633 0.945609
O O17 0.452705 0.627216 0.518207
#
# Coordination Sequence:
#
# PCOD8017533 Si02
#       8
#     2   2   2   2   2   2   2   2
#     4  12  24  43  64  90 133 172 207 259 323 383
#     4  11  21  39  64  93 133 166 209 269 315 375
#     4  11  23  38  68 100 127 164 216 267 315 373
#     4  10  22  39  61  95 130 169 203 262 332 364
#     4  10  23  39  64  97 132 159 212 271 314 372
#     4  11  25  42  67  94 127 173 211 261 321 378
#     4  11  23  43  65  95 127 167 219 252 318 389
#     4  12  22  41  65  95 126 162 218 262 305 381
#
# _framework density 21.783570999999998
#
# number of rings (size 3 to 8) (size 9 to 14) (size 15 to 20)
#    0.000    1.000    5.000    1.125    1.750    4.500 
#    0.000    0.625    0.000    0.000    0.000    0.000 
#    0.000    0.000    0.000    0.000    0.000    0.000 
#
# Total GULP energy -198261.080372 kJ/mol
# GULP energy per Si atom -12391.317523 kJ/mol
# Density = 2.173399 g / cm^3
# Si number density = 21.783571 Si / 1000 Ang^3
#
#
#
# Elastic Constant Matrix: (Units=GPa)
#
#
# Indices 1 2 3 4 5 6 
#
# 1 94.8766 36.3343 33.5828 -5.5775 -7.5361 -7.7552
# 2 36.3343 110.8248 17.5594 -17.9640 -8.2321 12.9927
# 3 33.5828 17.5594 72.1699 -13.4520 -3.2350 3.5314
# 4 -5.5775 -17.9640 -13.4520 41.1614 6.7511 -2.6950
# 5 -7.5361 -8.2321 -3.2350 6.7511 30.0264 -5.5712
# 6 -7.7552 12.9927 3.5314 -2.6950 -5.5712 34.6461
#
#
#
# Elastic Compliance Matrix: (Units=1/GPa)
#
#
# Indices 1 2 3 4 5 6 
#
# 1 0.015384 -0.004864 -0.006564 -0.002347 0.003521 0.006320
# 2 -0.004864 0.011868 0.000439 0.004298 0.000144 -0.005227
# 3 -0.006564 0.000439 0.017863 0.005150 -0.001368 -0.003274
# 4 -0.002347 0.004298 0.005150 0.028346 -0.005477 -0.001338
# 5 0.003521 0.000144 -0.001368 -0.005477 0.036483 0.006314
# 6 0.006320 -0.005227 -0.003274 -0.001338 0.006314 0.033483
#
#
# Mechanical properties :
#
#
# Convention : Reuss Voigt Hill
#
# Bulk Modulus (GPa) = 43.21992 50.31382 46.76687
# Shear Modulus (GPa) = 28.88190 33.85975 31.37082
#
# Velocity S-wave (km/s) = 3.64518 3.94683 3.79900
# Velocity P-wave (km/s) = 6.13190 6.62701 6.38425
#
# Compressibility (1/GPa) = 0.02313748
#
# Stress axis : x y z
#
# Youngs Moduli (GPa) = 65.00065 84.25688 55.98230
#
# Poissons Ratio (x) = 0.40979 0.36749
# Poissons Ratio (y) = 0.31614 -0.02457
# Poissons Ratio (z) = 0.42669 -0.03698
#
# Static dielectric constant tensor:
#      x y z
#    x 4.211640 0.175150 0.301070 
#    y 0.175150 4.948230 -0.293920 
#    z 0.301070 -0.293920 3.921530 
# 
# 
# High freq. dielectric constant tensor:
#      x y z
#    x 1.855000 0.002980 0.010170 
#    y 0.002980 1.865980 -0.023460 
#    z 0.010170 -0.023460 1.841070 
# 
# From -- ./inp_files/338229.got.cif
#   From: 2010.06.25/outbox.cif.g09.slc.cpg/sg2_170_cif.got.tgz:338229.got - 2010.06.27 13:26:56.
