data_PCOD8017242
_publ_section_title
;
Structure prediction by ZEFSAII (Michael W. Deem and Ramdas Pophale) SiO2 
 PCOD8017242
Probable space group: P -1
;
_chemical_formula_sum "Si O2"
_cell_formula_units_Z 16
_cell_length_a 9.555161
_cell_length_b 13.727182
_cell_length_c 11.692102
_cell_angle_alpha 32.450371
_cell_angle_beta 84.533056
_cell_angle_gamma 98.121224
_cell_volume 745.269886
_symmetry_space_group_name_H-M "P -1"
_symmetry_group_IT_number 2
_symmetry_cell_setting 'triclinic'
loop_
_space_group_symop_operation_xyz
x,y,z
-x,-y,-z
loop_
_atom_site_type_symbol
_atom_site_label
_atom_site_fract_x
_atom_site_fract_y
_atom_site_fract_z
Si Si1 0.905339 0.793690 0.362065
Si Si2 0.556705 0.586311 0.664517
Si Si3 0.364515 0.772472 0.627584
Si Si4 0.441963 0.783290 0.859077
Si Si5 0.983926 0.758809 0.141350
Si Si6 0.317563 0.832267 0.049389
Si Si7 0.549627 0.256249 0.672494
Si Si8 0.153521 0.643620 0.574822
O O1 0.742043 0.685771 0.544682
O O2 0.884278 0.739487 0.282617
O O3 0.019526 0.715867 0.492870
O O4 0.972854 0.032451 0.134314
O O5 0.500746 0.728427 0.601914
O O6 0.477882 0.564437 0.564958
O O7 0.494639 0.373464 0.942374
O O8 0.344590 0.702392 0.830488
O O9 0.199040 0.659127 0.690370
O O10 0.411894 0.009960 0.381749
O O11 0.328395 0.809903 0.935468
O O12 0.889803 0.582823 0.236568
O O13 0.138349 0.736656 0.192254
O O14 0.391284 0.060781 0.858450
O O15 0.404526 0.711079 0.228755
O O16 0.689294 0.215739 0.643208
#
# Coordination Sequence:
#
# PCOD8017242 Si02
#       8
#     2   2   2   2   2   2   2   2
#     4  11  23  39  63  94 130 172 206 247 325 392
#     4  11  22  41  64  96 125 162 214 267 310 376
#     4  10  24  46  62  95 125 163 224 270 301 376
#     4  11  22  40  73  87 122 175 214 260 327 357
#     4  11  23  38  63  90 140 170 198 254 328 379
#     4  11  20  41  63  94 129 171 200 263 318 375
#     4  10  22  38  63  95 134 152 211 271 304 374
#     4  11  22  41  61  92 130 163 210 264 311 374
#
# _framework density 21.468734000000001
#
# number of rings (size 3 to 8) (size 9 to 14) (size 15 to 20)
#    0.000    1.250    5.000    1.500    1.750    2.500 
#    2.250    2.500    0.000    4.500    0.000    0.000 
#    0.000    0.000    0.000    0.000    0.000    0.000 
#
# Total GULP energy -198379.926621 kJ/mol
# GULP energy per Si atom -12398.745414 kJ/mol
# Density = 2.141987 g / cm^3
# Si number density = 21.468734 Si / 1000 Ang^3
#
#
#
# Elastic Constant Matrix: (Units=GPa)
#
#
# Indices 1 2 3 4 5 6 
#
# 1 106.0723 36.4778 38.0658 4.6821 11.3866 6.2739
# 2 36.4778 105.8908 48.3679 7.7854 10.9738 24.1896
# 3 38.0658 48.3679 123.1491 2.3572 29.3418 10.4520
# 4 4.6821 7.7854 2.3572 38.4017 0.6649 1.5340
# 5 11.3866 10.9738 29.3418 0.6649 36.1484 3.9855
# 6 6.2739 24.1896 10.4520 1.5340 3.9855 26.0802
#
#
#
# Elastic Compliance Matrix: (Units=1/GPa)
#
#
# Indices 1 2 3 4 5 6 
#
# 1 0.011309 -0.003018 -0.002153 -0.000663 -0.001011 0.001135
# 2 -0.003018 0.015112 -0.004245 -0.001990 0.001129 -0.011644
# 3 -0.002153 -0.004245 0.012316 0.000478 -0.008120 0.000732
# 4 -0.000663 -0.001990 0.000478 0.026486 -0.000093 0.000269
# 5 -0.001011 0.001129 -0.008120 -0.000093 0.034543 -0.002823
# 6 0.001135 -0.011644 0.000732 0.000269 -0.002823 0.048993
#
#
# Mechanical properties :
#
#
# Convention : Reuss Voigt Hill
#
# Bulk Modulus (GPa) = 50.23917 64.54836 57.39376
# Shear Modulus (GPa) = 28.69837 34.27278 31.48558
#
# Velocity S-wave (km/s) = 3.66013 3.99984 3.83375
# Velocity P-wave (km/s) = 6.42759 7.17378 6.81091
#
# Compressibility (1/GPa) = 0.01990479
#
# Stress axis : x y z
#
# Youngs Moduli (GPa) = 88.42736 66.17399 81.19288
#
# Poissons Ratio (x) = 0.19972 0.17480
# Poissons Ratio (y) = 0.26688 0.34467
# Poissons Ratio (z) = 0.19037 0.28091
#
# Static dielectric constant tensor:
#      x y z
#    x 3.789760 0.102320 0.179490 
#    y 0.102320 3.921160 0.064000 
#    z 0.179490 0.064000 4.005230 
# 
# 
# High freq. dielectric constant tensor:
#      x y z
#    x 1.834060 0.005380 0.012090 
#    y 0.005380 1.830890 -0.003200 
#    z 0.012090 -0.003200 1.846020 
# 
# From -- ./inp_files/398184.got.cif
#   From: 2010.06.25/outbox.cif.g09.slc.cpg/sg2_200_cif.got.tgz:398184.got - 2010.06.27 13:26:56.
