data_PCOD8017945
_publ_section_title
;
Structure prediction by ZEFSAII (Michael W. Deem and Ramdas Pophale) SiO2 
 PCOD8017945
Probable space group: P -1
;
_chemical_formula_sum "Si O2"
_cell_formula_units_Z 14
_cell_length_a 9.547667
_cell_length_b 8.858366
_cell_length_c 20.243513
_cell_angle_alpha 148.512275
_cell_angle_beta 52.278856
_cell_angle_gamma 111.755996
_cell_volume 658.379760
_symmetry_space_group_name_H-M "P -1"
_symmetry_group_IT_number 2
_symmetry_cell_setting 'triclinic'
loop_
_space_group_symop_operation_xyz
x,y,z
-x,-y,-z
loop_
_atom_site_type_symbol
_atom_site_label
_atom_site_fract_x
_atom_site_fract_y
_atom_site_fract_z
Si Si1 0.548284 0.273334 0.342217
Si Si2 0.935731 0.206696 0.401551
Si Si3 0.315769 0.901617 0.239287
Si Si4 0.460855 0.288173 0.028014
Si Si5 0.703932 0.158239 0.034051
Si Si6 0.929119 0.862431 0.138048
Si Si7 0.478114 0.670563 0.387050
O O1 0.500000 0.500000 0.500000
O O2 0.590338 0.452934 0.334103
O O3 0.351327 0.209072 0.367164
O O4 0.728598 0.966053 0.195573
O O5 0.744146 0.275250 0.523982
O O6 0.000000 0.500000 0.500000
O O7 0.913771 0.085808 0.289208
O O8 0.106406 0.938748 0.289234
O O9 0.361023 0.661059 0.197720
O O10 0.470150 0.793665 0.096446
O O11 0.637176 0.155243 0.976848
O O12 0.308559 0.130249 0.029069
O O13 0.570340 0.487274 0.225752
O O14 0.924528 0.105699 0.946910
O O15 0.000000 0.500000 0.000000
O O16 0.500000 0.000000 0.500000
#
# Coordination Sequence:
#
# PCOD8017945 Si02
#       7
#     2   2   2   2   2   2   2
#     4  12  25  46  68 102 143 185 231 287 353 429
#     4  12  23  46  71 101 135 192 235 284 347 433
#     4  11  22  43  72  98 130 182 240 280 342 425
#     4  10  22  39  69  99 133 169 230 301 339 389
#     4  11  23  44  66 101 140 172 230 296 348 403
#     4  12  26  43  75 104 140 188 240 288 357 429
#     4  12  27  45  68 101 150 184 225 295 368 411
#
# _framework density 21.264323999999998
#
# number of rings (size 3 to 8) (size 9 to 14) (size 15 to 20)
#    0.000    0.571    5.714    1.714    6.000    1.714 
#    0.000    0.714    0.000    0.000    0.000    0.000 
#    0.000    0.000    0.000    0.000    0.000    0.000 
#
# Total GULP energy -173544.971856 kJ/mol
# GULP energy per Si atom -12396.069418 kJ/mol
# Density = 2.121593 g / cm^3
# Si number density = 21.264324 Si / 1000 Ang^3
#
#
#
# Elastic Constant Matrix: (Units=GPa)
#
#
# Indices 1 2 3 4 5 6 
#
# 1 107.2187 40.9060 21.4720 0.8359 -12.7049 5.5782
# 2 40.9060 114.4848 44.4767 16.6531 -6.6798 7.5791
# 3 21.4720 44.4767 73.4751 1.1422 8.1841 6.9109
# 4 0.8359 16.6531 1.1422 46.2198 6.0581 -9.9447
# 5 -12.7049 -6.6798 8.1841 6.0581 44.6127 3.6757
# 6 5.5782 7.5791 6.9109 -9.9447 3.6757 36.3920
#
#
#
# Elastic Compliance Matrix: (Units=1/GPa)
#
#
# Indices 1 2 3 4 5 6 
#
# 1 0.011286 -0.003227 -0.001601 0.000393 0.003050 -0.000955
# 2 -0.003227 0.014140 -0.007649 -0.005972 0.003660 -0.002999
# 3 -0.001601 -0.007649 0.019320 0.002927 -0.005504 -0.000475
# 4 0.000393 -0.005972 0.002927 0.026237 -0.005571 0.008360
# 5 0.003050 0.003660 -0.005504 -0.005571 0.025954 -0.004328
# 6 -0.000955 -0.002999 -0.000475 0.008360 -0.004328 0.031061
#
#
# Mechanical properties :
#
#
# Convention : Reuss Voigt Hill
#
# Bulk Modulus (GPa) = 50.52270 56.54309 53.53290
# Shear Modulus (GPa) = 31.33777 37.99984 34.66880
#
# Velocity S-wave (km/s) = 3.84308 4.23191 4.04217
# Velocity P-wave (km/s) = 6.59570 7.10824 6.85676
#
# Compressibility (1/GPa) = 0.01979308
#
# Stress axis : x y z
#
# Youngs Moduli (GPa) = 88.60193 70.72041 51.75852
#
# Poissons Ratio (x) = 0.22819 0.08287
# Poissons Ratio (y) = 0.28589 0.39591
# Poissons Ratio (z) = 0.14187 0.54096
#
# Static dielectric constant tensor:
#      x y z
#    x 6.015790 1.478050 -0.514700 
#    y 1.478050 4.733520 -0.139980 
#    z -0.514700 -0.139980 4.100710 
# 
# 
# High freq. dielectric constant tensor:
#      x y z
#    x 1.838340 0.001740 0.001060 
#    y 0.001740 1.836570 0.011220 
#    z 0.001060 0.011220 1.840860 
# 
# From -- ./inp_files/207633.got.cif
#   From: 2010.06.25/outbox.cif.g09.slc.cpg/sg2_104_cif.got.tgz:207633.got - 2010.06.27 13:26:56.
