data_PCOD8017358
_publ_section_title
;
Structure prediction by ZEFSAII (Michael W. Deem and Ramdas Pophale) SiO2 
 PCOD8017358
Probable space group: P -1
;
_chemical_formula_sum "Si O2"
_cell_formula_units_Z 14
_cell_length_a 12.460072
_cell_length_b 8.956128
_cell_length_c 9.213554
_cell_angle_alpha 47.927538
_cell_angle_beta 107.927026
_cell_angle_gamma 117.177277
_cell_volume 678.950905
_symmetry_space_group_name_H-M "P -1"
_symmetry_group_IT_number 2
_symmetry_cell_setting 'triclinic'
loop_
_space_group_symop_operation_xyz
x,y,z
-x,-y,-z
loop_
_atom_site_type_symbol
_atom_site_label
_atom_site_fract_x
_atom_site_fract_y
_atom_site_fract_z
Si Si1 0.132105 0.160339 0.485012
Si Si2 0.121759 0.261702 0.746888
Si Si3 0.458155 0.699204 0.375304
Si Si4 0.701723 0.270555 0.462668
Si Si5 0.853157 0.115853 0.828550
Si Si6 0.226509 0.632196 0.137054
Si Si7 0.310700 0.922513 0.716237
O O1 0.152806 0.222352 0.621464
O O2 0.158978 0.376329 0.261426
O O3 0.225923 0.050673 0.546605
O O4 0.000000 0.000000 0.500000
O O5 0.185542 0.509195 0.653064
O O6 0.979650 0.202719 0.741830
O O7 0.172503 0.122055 0.965558
O O8 0.500000 0.500000 0.500000
O O9 0.405818 0.686865 0.524322
O O10 0.359131 0.692372 0.219831
O O11 0.570216 0.920239 0.257165
O O12 0.747261 0.103946 0.679602
O O13 0.651332 0.176059 0.346974
O O14 0.855783 0.275586 0.858056
O O15 0.237185 0.730968 0.917531
#
# Coordination Sequence:
#
# PCOD8017358 Si02
#       7
#     2   2   2   2   2   2   2
#     4  12  25  41  68  99 135 171 220 270 321 389
#     4  11  21  42  63  94 131 176 215 265 318 390
#     4  11  22  47  71  90 130 177 221 269 326 383
#     4  11  24  41  67  95 131 168 216 269 332 375
#     4  10  22  38  68  91 128 177 218 254 328 391
#     4  11  24  43  69  97 129 179 215 266 335 383
#     4  12  25  43  66 101 133 168 222 274 320 389
#
# _framework density 20.620048000000001
#
# number of rings (size 3 to 8) (size 9 to 14) (size 15 to 20)
#    0.000    0.857    5.714    2.143    2.000    4.000 
#    0.000    0.714    0.000    0.000    0.000    0.000 
#    0.000    0.000    0.000    0.000    0.000    0.000 
#
# Total GULP energy -173694.818631 kJ/mol
# GULP energy per Si atom -12406.772759 kJ/mol
# Density = 2.057312 g / cm^3
# Si number density = 20.620048 Si / 1000 Ang^3
#
#
#
# Elastic Constant Matrix: (Units=GPa)
#
#
# Indices 1 2 3 4 5 6 
#
# 1 88.6627 19.1838 21.5403 -4.7928 2.1718 -17.7547
# 2 19.1838 100.9507 32.7348 -6.7668 -1.5363 2.4264
# 3 21.5403 32.7348 100.4492 -16.9335 -10.3419 -12.2578
# 4 -4.7928 -6.7668 -16.9335 26.7696 -0.2349 -9.7801
# 5 2.1718 -1.5363 -10.3419 -0.2349 30.9243 0.6424
# 6 -17.7547 2.4264 -12.2578 -9.7801 0.6424 40.8655
#
#
#
# Elastic Compliance Matrix: (Units=1/GPa)
#
#
# Indices 1 2 3 4 5 6 
#
# 1 0.013547 -0.002218 -0.000893 0.003721 -0.001470 0.006663
# 2 -0.002218 0.011589 -0.003910 -0.001067 -0.000520 -0.003072
# 3 -0.000893 -0.003910 0.014471 0.010463 0.004650 0.006616
# 4 0.003721 -0.001067 0.010463 0.050562 0.003219 0.016869
# 5 -0.001470 -0.000520 0.004650 0.003219 0.033973 0.001023
# 6 0.006663 -0.003072 0.006616 0.016869 0.001023 0.033553
#
#
# Mechanical properties :
#
#
# Convention : Reuss Voigt Hill
#
# Bulk Modulus (GPa) = 39.11424 48.55336 43.83380
# Shear Modulus (GPa) = 27.73787 34.15211 30.94499
#
# Velocity S-wave (km/s) = 3.67166 4.07413 3.87812
# Velocity P-wave (km/s) = 6.08153 6.76233 6.43095
#
# Compressibility (1/GPa) = 0.02556613
#
# Stress axis : x y z
#
# Youngs Moduli (GPa) = 73.81669 86.28594 69.10443
#
# Poissons Ratio (x) = 0.19137 0.06173
# Poissons Ratio (y) = 0.16371 0.27017
# Poissons Ratio (z) = 0.06594 0.33734
#
# Static dielectric constant tensor:
#      x y z
#    x 3.933450 -0.048920 0.026600 
#    y -0.048920 3.760940 -0.142840 
#    z 0.026600 -0.142840 3.857650 
# 
# 
# High freq. dielectric constant tensor:
#      x y z
#    x 1.818720 -0.008010 -0.002980 
#    y -0.008010 1.800090 -0.011160 
#    z -0.002980 -0.011160 1.809750 
# 
# From -- ./inp_files/175801.got.cif
#   From: 2010.06.25/outbox.cif.g09.slc.cpg/sg2_88_cif.got.tgz:175801.got - 2010.06.27 13:26:56.
