data_PCOD8017855
_publ_section_title
;
Structure prediction by ZEFSAII (Michael W. Deem and Ramdas Pophale) SiO2 
 PCOD8017855
Probable space group: P -1
;
_chemical_formula_sum "Si O2"
_cell_formula_units_Z 14
_cell_length_a 5.468605
_cell_length_b 11.882577
_cell_length_c 11.777901
_cell_angle_alpha 84.952125
_cell_angle_beta 72.975730
_cell_angle_gamma 125.447760
_cell_volume 562.567523
_symmetry_space_group_name_H-M "P -1"
_symmetry_group_IT_number 2
_symmetry_cell_setting 'triclinic'
loop_
_space_group_symop_operation_xyz
x,y,z
-x,-y,-z
loop_
_atom_site_type_symbol
_atom_site_label
_atom_site_fract_x
_atom_site_fract_y
_atom_site_fract_z
Si Si1 0.465842 0.949815 0.880766
Si Si2 0.792780 0.911907 0.242078
Si Si3 0.834007 0.535035 0.372439
Si Si4 0.327986 0.384313 0.278065
Si Si5 0.683222 0.332836 0.074458
Si Si6 0.231547 0.723862 0.493010
Si Si7 0.448695 0.649560 0.146863
O O1 0.217510 0.771826 0.919477
O O2 0.305069 0.003460 0.822956
O O3 0.821475 0.997710 0.788700
O O4 0.500000 0.000000 0.000000
O O5 0.599149 0.867185 0.393767
O O6 0.693354 0.772120 0.196016
O O7 0.489501 0.475114 0.366994
O O8 0.754959 0.403517 0.469126
O O9 0.002977 0.677885 0.415250
O O10 0.073723 0.582102 0.228938
O O11 0.468285 0.306534 0.217348
O O12 0.425437 0.506959 0.162710
O O13 0.936833 0.259866 0.376395
O O14 0.451320 0.280573 0.998461
O O15 0.000000 0.500000 0.000000
#
# Coordination Sequence:
#
# PCOD8017855 Si02
#       7
#     2   2   2   2   2   2   2
#     4  12  28  50  72 106 142 186 244 290 350 436
#     4  11  26  46  77 101 142 190 239 290 357 415
#     4   9  18  37  59 103 137 176 238 286 343 409
#     4  11  22  37  68 102 145 178 236 292 351 421
#     4  12  26  45  70 105 141 189 232 298 361 421
#     4   9  21  38  64 101 136 186 231 292 340 421
#     4  10  22  39  67 106 137 188 231 295 353 414
#
# _framework density 24.885899999999999
#
# number of rings (size 3 to 8) (size 9 to 14) (size 15 to 20)
#    0.000    1.429    2.857    2.143    8.000    1.143 
#    0.000    1.429    0.000    0.000    0.000    0.000 
#    0.000    0.000    0.000    0.000    0.000    0.000 
#
# Total GULP energy -173450.815996 kJ/mol
# GULP energy per Si atom -12389.344000 kJ/mol
# Density = 2.482926 g / cm^3
# Si number density = 24.885900 Si / 1000 Ang^3
#
#
#
# Elastic Constant Matrix: (Units=GPa)
#
#
# Indices 1 2 3 4 5 6 
#
# 1 73.5573 4.6322 24.3571 -1.3721 -19.0535 -4.2310
# 2 4.6322 90.8856 24.7873 -6.0576 -21.9885 -18.4722
# 3 24.3571 24.7873 95.4966 -12.4936 -11.3740 -7.6239
# 4 -1.3721 -6.0576 -12.4936 22.3152 3.3051 -7.3844
# 5 -19.0535 -21.9885 -11.3740 3.3051 29.0748 2.2438
# 6 -4.2310 -18.4722 -7.6239 -7.3844 2.2438 30.0873
#
#
#
# Elastic Compliance Matrix: (Units=1/GPa)
#
#
# Indices 1 2 3 4 5 6 
#
# 1 0.018228 0.003808 -0.004013 -0.001182 0.013188 0.002611
# 2 0.003808 0.017160 -0.002317 0.005218 0.013141 0.010784
# 3 -0.004013 -0.002317 0.013337 0.007732 -0.000299 0.003313
# 4 -0.001182 0.005218 0.007732 0.057080 -0.001769 0.019138
# 5 0.013188 0.013141 -0.000299 -0.001769 0.052636 0.005487
# 6 0.002611 0.010784 0.003313 0.019138 0.005487 0.045352
#
#
# Mechanical properties :
#
#
# Convention : Reuss Voigt Hill
#
# Bulk Modulus (GPa) = 22.89294 40.83250 31.86272
# Shear Modulus (GPa) = 22.38178 30.03964 26.21071
#
# Velocity S-wave (km/s) = 3.00221 3.47810 3.24888
# Velocity P-wave (km/s) = 4.60835 5.70728 5.18700
#
# Compressibility (1/GPa) = 0.04368158
#
# Stress axis : x y z
#
# Youngs Moduli (GPa) = 54.86013 58.27674 74.98045
#
# Poissons Ratio (x) = -0.22192 0.30090
# Poissons Ratio (y) = -0.20891 0.17369
# Poissons Ratio (z) = 0.22016 0.13500
#
# Static dielectric constant tensor:
#      x y z
#    x 4.468460 0.017160 -0.093250 
#    y 0.017160 4.241860 -0.076470 
#    z -0.093250 -0.076470 4.731800 
# 
# 
# High freq. dielectric constant tensor:
#      x y z
#    x 1.985900 -0.005630 -0.012090 
#    y -0.005630 1.957400 -0.003700 
#    z -0.012090 -0.003700 2.005200 
# 
# From -- ./inp_files/65444.got.cif
#   From: 2010.06.25/outbox.cif.g09.slc.cpg/sg2_33_cif.got.tgz:65444.got - 2010.06.27 13:26:56.
