data_PCOD8017851
_publ_section_title
;
Structure prediction by ZEFSAII (Michael W. Deem and Ramdas Pophale) SiO2 
 PCOD8017851
Probable space group: P -1
;
_chemical_formula_sum "Si O2"
_cell_formula_units_Z 16
_cell_length_a 19.929858
_cell_length_b 8.083521
_cell_length_c 5.444001
_cell_angle_alpha 80.955705
_cell_angle_beta 50.193294
_cell_angle_gamma 66.448737
_cell_volume 611.548698
_symmetry_space_group_name_H-M "P -1"
_symmetry_group_IT_number 2
_symmetry_cell_setting 'triclinic'
loop_
_space_group_symop_operation_xyz
x,y,z
-x,-y,-z
loop_
_atom_site_type_symbol
_atom_site_label
_atom_site_fract_x
_atom_site_fract_y
_atom_site_fract_z
Si Si1 0.005240 0.656482 0.283843
Si Si2 0.179172 0.029953 0.369624
Si Si3 0.542866 0.235206 0.775348
Si Si4 0.701595 0.862555 0.328425
Si Si5 0.280060 0.722568 0.548547
Si Si6 0.867653 0.242635 0.726504
Si Si7 0.452198 0.211282 0.508796
Si Si8 0.811195 0.519667 0.423671
O O1 0.036267 0.795731 0.339775
O O2 0.000000 0.500000 0.500000
O O3 0.900594 0.777708 0.389257
O O4 0.082819 0.567645 0.914924
O O5 0.257561 0.915101 0.411819
O O6 0.118918 0.903467 0.486147
O O7 0.231810 0.067516 0.002262
O O8 0.609240 0.351899 0.611689
O O9 0.471932 0.308356 0.687298
O O10 0.611957 0.023843 0.620413
O O11 0.490631 0.261099 0.152823
O O12 0.660372 0.742533 0.279128
O O13 0.763393 0.735580 0.437268
O O14 0.261275 0.567458 0.482973
O O15 0.215375 0.780659 0.922524
O O16 0.829943 0.456014 0.676883
O O17 0.500000 0.000000 0.500000
#
# Coordination Sequence:
#
# PCOD8017851 Si02
#       8
#     2   2   2   2   2   2   2   2
#     4  11  23  41  62  97 131 168 219 274 335 381
#     4  11  22  40  67  90 129 176 228 265 323 403
#     4  11  22  43  71  98 133 173 230 278 334 405
#     4  11  21  42  66 100 127 173 221 276 343 388
#     4  10  22  41  66  94 126 181 218 271 328 403
#     4  10  23  42  61  90 130 175 219 268 325 401
#     4  10  22  39  67 103 134 168 221 289 332 401
#     4  10  24  43  62  94 138 170 215 280 333 396
#
# _framework density 26.163084000000001
#
# number of rings (size 3 to 8) (size 9 to 14) (size 15 to 20)
#    0.000    1.500    2.500    3.375    1.750    7.000 
#   13.500    1.250    0.000    0.000    0.000    0.000 
#    0.000    0.000    0.000    0.000    0.000    0.000 
#
# Total GULP energy -198255.888560 kJ/mol
# GULP energy per Si atom -12390.993035 kJ/mol
# Density = 2.610354 g / cm^3
# Si number density = 26.163084 Si / 1000 Ang^3
#
#
#
# Elastic Constant Matrix: (Units=GPa)
#
#
# Indices 1 2 3 4 5 6 
#
# 1 69.5467 -11.9996 54.8502 -14.4663 -14.5256 -18.8348
# 2 -11.9996 81.7400 41.5718 -14.2635 -3.2482 -27.9965
# 3 54.8502 41.5718 69.5474 -29.5744 2.4415 3.9684
# 4 -14.4663 -14.2635 -29.5744 37.3356 -0.5466 -0.8584
# 5 -14.5256 -3.2482 2.4415 -0.5466 38.6707 -10.8052
# 6 -18.8348 -27.9965 3.9684 -0.8584 -10.8052 33.1152
#
#
#
# Elastic Compliance Matrix: (Units=1/GPa)
#
#
# Indices 1 2 3 4 5 6 
#
# 1 -0.003561 -0.012601 0.013155 0.003727 -0.007845 -0.016718
# 2 -0.012601 0.001397 0.011998 0.004809 -0.008082 -0.009936
# 3 0.013155 0.011998 -0.000670 0.009835 0.012268 0.021964
# 4 0.003727 0.004809 0.009835 0.038076 0.003737 0.007213
# 5 -0.007845 -0.008082 0.012268 0.003737 0.019775 -0.006215
# 6 -0.016718 -0.009936 0.021964 0.007213 -0.006215 0.007816
#
#
# Mechanical properties :
#
#
# Convention : Reuss Voigt Hill
#
# Bulk Modulus (GPa) = 44.90156 43.29765 44.09960
# Shear Modulus (GPa) = 110.74083 30.91843 70.82963
#
# Velocity S-wave (km/s) = 6.51299 3.44140 5.20875
# Velocity P-wave (km/s) = 8.58826 5.68999 7.28472
#
# Compressibility (1/GPa) = 0.02227094
#
# Stress axis : x y z
#
# Youngs Moduli (GPa) = -280.80521 716.00397 -1492.18834
#
# Poissons Ratio (x) = 9.02206 19.62970
# Poissons Ratio (y) = -3.53831 17.90391
# Poissons Ratio (z) = 3.69399 -8.59092
#
# Static dielectric constant tensor:
#      x y z
#    x 5.736620 -0.077260 -0.172340 
#    y -0.077260 4.611710 -0.287390 
#    z -0.172340 -0.287390 4.342870 
# 
# 
# High freq. dielectric constant tensor:
#      x y z
#    x 2.071210 0.004820 -0.011510 
#    y 0.004820 2.045550 -0.021340 
#    z -0.011510 -0.021340 2.028450 
# 
# From -- ./inp_files/116882.got.cif
#   From: 2010.06.25/outbox.cif.g09.slc.cpg/sg2_59_cif.got.tgz:116882.got - 2010.06.27 13:26:56.
