data_PCOD8017596
_publ_section_title
;
Structure prediction by ZEFSAII (Michael W. Deem and Ramdas Pophale) SiO2 
 PCOD8017596
Probable space group: P -1
;
_chemical_formula_sum "Si O2"
_cell_formula_units_Z 14
_cell_length_a 6.955272
_cell_length_b 11.513750
_cell_length_c 11.764575
_cell_angle_alpha 48.682829
_cell_angle_beta 118.240769
_cell_angle_gamma 112.547026
_cell_volume 619.765802
_symmetry_space_group_name_H-M "P -1"
_symmetry_group_IT_number 2
_symmetry_cell_setting 'triclinic'
loop_
_space_group_symop_operation_xyz
x,y,z
-x,-y,-z
loop_
_atom_site_type_symbol
_atom_site_label
_atom_site_fract_x
_atom_site_fract_y
_atom_site_fract_z
Si Si1 0.358053 0.696345 0.360940
Si Si2 0.912619 0.522945 0.292715
Si Si3 0.741607 0.974413 0.941168
Si Si4 0.666461 0.215570 0.457149
Si Si5 0.457636 0.308412 0.809405
Si Si6 0.722480 0.875997 0.751068
Si Si7 0.048256 0.636947 0.013315
O O1 0.447001 0.738519 0.484420
O O2 0.523973 0.629891 0.358583
O O3 0.127563 0.588810 0.381309
O O4 0.331971 0.854746 0.180791
O O5 0.877962 0.335359 0.407404
O O6 0.692068 0.574883 0.250416
O O7 0.931579 0.582250 0.132334
O O8 0.662625 0.884482 0.861681
O O9 0.652652 0.869019 0.091248
O O10 0.000000 0.000000 0.000000
O O11 0.483215 0.219331 0.307034
O O12 0.762236 0.050039 0.599106
O O13 0.693134 0.324180 0.925535
O O14 0.940341 0.791208 0.843767
O O15 0.000000 0.500000 0.000000
#
# Coordination Sequence:
#
# PCOD8017596 Si02
#       7
#     2   2   2   2   2   2   2
#     4  10  22  39  62  98 130 171 223 258 320 391
#     4  11  22  42  68  97 127 173 217 271 327 374
#     4  11  19  39  69  95 128 169 218 274 319 378
#     4  10  23  41  68  88 139 182 205 263 327 392
#     4  11  22  38  70  97 129 165 219 277 324 366
#     4  10  22  43  66  95 129 173 218 257 330 389
#     4  11  24  41  68 101 129 162 225 272 320 388
#
# _framework density 22.589179999999999
#
# number of rings (size 3 to 8) (size 9 to 14) (size 15 to 20)
#    0.000    1.429    2.857    2.571    2.000    1.714 
#    0.000    2.143    6.286    0.000    0.000    0.000 
#    0.000    0.000    0.000    0.000    0.000    0.000 
#
# Total GULP energy -173600.745302 kJ/mol
# GULP energy per Si atom -12400.053236 kJ/mol
# Density = 2.253777 g / cm^3
# Si number density = 22.589180 Si / 1000 Ang^3
#
#
#
# Elastic Constant Matrix: (Units=GPa)
#
#
# Indices 1 2 3 4 5 6 
#
# 1 129.5399 47.6163 33.1503 3.2982 -7.3521 6.0779
# 2 47.6163 129.3778 32.0682 10.0565 -12.1957 14.3867
# 3 33.1503 32.0682 71.4720 5.5101 -8.2298 17.9747
# 4 3.2982 10.0565 5.5101 48.3556 2.2170 -9.4949
# 5 -7.3521 -12.1957 -8.2298 2.2170 26.4489 -9.7502
# 6 6.0779 14.3867 17.9747 -9.4949 -9.7502 32.8952
#
#
#
# Elastic Compliance Matrix: (Units=1/GPa)
#
#
# Indices 1 2 3 4 5 6 
#
# 1 0.009630 -0.002825 -0.003626 0.000675 0.000888 0.001896
# 2 -0.002825 0.009975 -0.002041 -0.002284 0.002383 -0.002678
# 3 -0.003626 -0.002041 0.019421 -0.003507 0.000762 -0.009836
# 4 0.000675 -0.002284 -0.003507 0.023376 -0.000449 0.009405
# 5 0.000888 0.002383 0.000762 -0.000449 0.043541 0.011153
# 6 0.001896 -0.002678 -0.009836 0.009405 0.011153 0.042616
#
#
# Mechanical properties :
#
#
# Convention : Reuss Voigt Hill
#
# Bulk Modulus (GPa) = 45.36767 61.78436 53.57602
# Shear Modulus (GPa) = 28.92012 36.04360 32.48186
#
# Velocity S-wave (km/s) = 3.58196 3.99885 3.79613
# Velocity P-wave (km/s) = 6.10202 6.98081 6.55616
#
# Compressibility (1/GPa) = 0.02204213
#
# Stress axis : x y z
#
# Youngs Moduli (GPa) = 103.83982 100.25015 51.49131
#
# Poissons Ratio (x) = 0.28323 0.18669
# Poissons Ratio (y) = 0.29337 0.10510
# Poissons Ratio (z) = 0.37648 0.20463
#
# Static dielectric constant tensor:
#      x y z
#    x 4.191280 -0.568690 -0.311550 
#    y -0.568690 5.323610 0.214880 
#    z -0.311550 0.214880 4.521500 
# 
# 
# High freq. dielectric constant tensor:
#      x y z
#    x 1.877970 -0.006950 -0.004890 
#    y -0.006950 1.905520 -0.009090 
#    z -0.004890 -0.009090 1.903310 
# 
# From -- ./inp_files/69439.got.cif
#   From: 2010.06.25/outbox.cif.g09.slc.cpg/sg2_35_cif.got.tgz:69439.got - 2010.06.27 13:26:56.
