data_PCOD8017784
_publ_section_title
;
Structure prediction by ZEFSAII (Michael W. Deem and Ramdas Pophale) SiO2 
 PCOD8017784
Probable space group: P -1
;
_chemical_formula_sum "Si O2"
_cell_formula_units_Z 14
_cell_length_a 8.818310
_cell_length_b 11.332677
_cell_length_c 7.701901
_cell_angle_alpha 83.137028
_cell_angle_beta 126.700644
_cell_angle_gamma 102.596650
_cell_volume 602.201447
_symmetry_space_group_name_H-M "P -1"
_symmetry_group_IT_number 2
_symmetry_cell_setting 'triclinic'
loop_
_space_group_symop_operation_xyz
x,y,z
-x,-y,-z
loop_
_atom_site_type_symbol
_atom_site_label
_atom_site_fract_x
_atom_site_fract_y
_atom_site_fract_z
Si Si1 0.166329 0.985488 0.304693
Si Si2 0.437124 0.832874 0.069681
Si Si3 0.502224 0.053208 0.269121
Si Si4 0.916345 0.359578 0.485704
Si Si5 0.998944 0.794930 0.742541
Si Si6 0.906070 0.749067 0.060066
Si Si7 0.496098 0.637830 0.941441
O O1 0.286527 0.897771 0.510693
O O2 0.987124 0.895196 0.107579
O O3 0.320259 0.061446 0.263227
O O4 0.094757 0.084973 0.360965
O O5 0.534515 0.885933 0.946125
O O6 0.475791 0.695225 0.111659
O O7 0.218786 0.845837 0.920712
O O8 0.524905 0.911228 0.279691
O O9 0.686410 0.338186 0.300611
O O10 0.000000 0.500000 0.500000
O O11 0.026546 0.286132 0.435469
O O12 0.963704 0.321508 0.718963
O O13 0.920675 0.715132 0.872950
O O14 0.683736 0.707755 0.962247
O O15 0.500000 0.500000 0.000000
#
# Coordination Sequence:
#
# PCOD8017784 Si02
#       7
#     2   2   2   2   2   2   2
#     4  11  23  40  64 105 139 178 223 274 344 409
#     4  10  22  40  63  96 134 177 224 278 338 400
#     4  10  22  39  65  96 143 177 217 277 337 415
#     4  11  26  50  71  99 136 179 236 286 342 400
#     4  11  25  43  69 105 135 180 228 276 346 413
#     4  12  25  45  72  99 143 181 223 291 336 407
#     4  11  24  45  70  95 133 180 232 288 337 401
#
# _framework density 23.248034000000001
#
# number of rings (size 3 to 8) (size 9 to 14) (size 15 to 20)
#    0.000    1.143    2.857    3.000    6.000    2.857 
#    0.000    0.714    0.000    0.000    0.000    0.000 
#    0.000    0.000    0.000    0.000    0.000    0.000 
#
# Total GULP energy -173471.484620 kJ/mol
# GULP energy per Si atom -12390.820330 kJ/mol
# Density = 2.319512 g / cm^3
# Si number density = 23.248034 Si / 1000 Ang^3
#
#
#
# Elastic Constant Matrix: (Units=GPa)
#
#
# Indices 1 2 3 4 5 6 
#
# 1 115.4347 48.9028 31.9139 -5.2309 19.6177 -2.0709
# 2 48.9028 99.4706 2.7273 -3.2618 13.7185 -10.9386
# 3 31.9139 2.7273 62.9071 -5.5459 12.6168 2.1046
# 4 -5.2309 -3.2618 -5.5459 35.0408 5.6214 2.9629
# 5 19.6177 13.7185 12.6168 5.6214 40.0097 2.9637
# 6 -2.0709 -10.9386 2.1046 2.9629 2.9637 35.9051
#
#
#
# Elastic Compliance Matrix: (Units=1/GPa)
#
#
# Indices 1 2 3 4 5 6 
#
# 1 0.013343 -0.006058 -0.005856 0.000986 -0.002714 -0.000590
# 2 -0.006058 0.013845 0.003075 0.001055 -0.003181 0.003864
# 3 -0.005856 0.003075 0.020043 0.003416 -0.004950 -0.000449
# 4 0.000986 0.001055 0.003416 0.030452 -0.006065 -0.001834
# 5 -0.002714 -0.003181 -0.004950 -0.006065 0.030037 -0.002814
# 6 -0.000590 0.003864 -0.000449 -0.001834 -0.002814 0.029404
#
#
# Mechanical properties :
#
#
# Convention : Reuss Voigt Hill
#
# Bulk Modulus (GPa) = 33.83639 49.43338 41.63488
# Shear Modulus (GPa) = 30.36665 35.14236 32.75450
#
# Velocity S-wave (km/s) = 3.61806 3.89218 3.75762
# Velocity P-wave (km/s) = 5.66039 6.44270 6.06417
#
# Compressibility (1/GPa) = 0.02955398
#
# Stress axis : x y z
#
# Youngs Moduli (GPa) = 74.94305 72.22670 49.89294
#
# Poissons Ratio (x) = 0.43753 0.29216
# Poissons Ratio (y) = 0.45399 -0.15340
# Poissons Ratio (z) = 0.43885 -0.22207
#
# Static dielectric constant tensor:
#      x y z
#    x 4.418800 -0.142990 -0.055980 
#    y -0.142990 4.559690 0.163070 
#    z -0.055980 0.163070 4.307140 
# 
# 
# High freq. dielectric constant tensor:
#      x y z
#    x 1.929150 -0.003650 0.017190 
#    y -0.003650 1.915920 0.003960 
#    z 0.017190 0.003960 1.921300 
# 
# From -- ./inp_files/178407.got.cif
#   From: 2010.06.25/outbox.cif.g09.slc.cpg/sg2_90_cif.got.tgz:178407.got - 2010.06.27 13:26:56.
