data_PCOD8017582
_publ_section_title
;
Structure prediction by ZEFSAII (Michael W. Deem and Ramdas Pophale) SiO2 
 PCOD8017582
Probable space group: P -1
;
_chemical_formula_sum "Si O2"
_cell_formula_units_Z 16
_cell_length_a 20.387906
_cell_length_b 17.591249
_cell_length_c 8.461173
_cell_angle_alpha 39.063796
_cell_angle_beta 145.693643
_cell_angle_gamma 154.245642
_cell_volume 736.611609
_symmetry_space_group_name_H-M "P -1"
_symmetry_group_IT_number 2
_symmetry_cell_setting 'triclinic'
loop_
_space_group_symop_operation_xyz
x,y,z
-x,-y,-z
loop_
_atom_site_type_symbol
_atom_site_label
_atom_site_fract_x
_atom_site_fract_y
_atom_site_fract_z
Si Si1 0.535416 0.387152 0.934289
Si Si2 0.424379 0.764663 0.207807
Si Si3 0.694887 0.565684 0.647153
Si Si4 0.705657 0.091390 0.411924
Si Si5 0.995531 0.537197 0.611312
Si Si6 0.633191 0.991409 0.779631
Si Si7 0.993343 0.700227 0.847021
Si Si8 0.237349 0.535475 0.495283
O O1 0.678204 0.535157 0.851281
O O2 0.381954 0.365553 0.670352
O O3 0.624843 0.454153 0.176570
O O4 0.457031 0.198260 0.035028
O O5 0.412874 0.622449 0.345465
O O6 0.327411 0.696865 0.294027
O O7 0.621963 0.942142 0.355559
O O8 0.368914 0.827166 0.873643
O O9 0.892173 0.714287 0.741414
O O10 0.903627 0.261120 0.491068
O O11 0.695098 0.023916 0.671386
O O12 0.000000 0.500000 0.500000
O O13 0.814763 0.425456 0.515587
O O14 0.078863 0.487604 0.948592
O O15 0.500000 0.000000 0.500000
O O16 0.802584 0.138072 0.990087
O O17 0.920846 0.656562 0.593189
#
# Coordination Sequence:
#
# PCOD8017582 Si02
#       8
#     2   2   2   2   2   2   2   2
#     4  11  24  43  70  93 126 175 219 267 315 397
#     4  10  22  39  62  94 129 164 211 272 316 380
#     4  10  23  46  68  90 127 173 225 258 325 383
#     4  11  22  36  60  95 129 168 203 262 327 375
#     4  12  22  36  60  90 131 170 207 260 321 383
#     4  12  25  40  66 100 134 169 212 267 328 383
#     4  11  24  39  64  95 129 172 212 271 317 380
#     4  11  23  39  62  97 124 169 219 260 324 379
#
# _framework density 21.721079
#
# number of rings (size 3 to 8) (size 9 to 14) (size 15 to 20)
#    0.000    1.000    5.000    2.625    0.000    4.500 
#    0.000    0.000    0.000    2.250    0.000    0.000 
#    0.000    0.000    0.000    0.000    0.000    0.000 
#
# Total GULP energy -198245.089657 kJ/mol
# GULP energy per Si atom -12390.318104 kJ/mol
# Density = 2.167164 g / cm^3
# Si number density = 21.721079 Si / 1000 Ang^3
#
#
#
# Elastic Constant Matrix: (Units=GPa)
#
#
# Indices 1 2 3 4 5 6 
#
# 1 71.0785 10.5175 30.9006 3.5862 3.5586 12.2164
# 2 10.5175 98.5173 46.2770 21.7433 1.0636 -10.8864
# 3 30.9006 46.2770 124.5673 6.1864 -3.6670 0.8710
# 4 3.5862 21.7433 6.1864 37.7755 -6.1483 -0.0290
# 5 3.5586 1.0636 -3.6670 -6.1483 38.3005 0.7883
# 6 12.2164 -10.8864 0.8710 -0.0290 0.7883 24.9970
#
#
#
# Elastic Compliance Matrix: (Units=1/GPa)
#
#
# Indices 1 2 3 4 5 6 
#
# 1 0.017573 -0.000711 -0.004046 -0.000924 -0.001970 -0.008696
# 2 -0.000711 0.015340 -0.005231 -0.008281 -0.002340 0.007275
# 3 -0.004046 -0.005231 0.010941 0.001911 0.001891 -0.000739
# 4 -0.000924 -0.008281 0.001911 0.031938 0.005695 -0.003364
# 5 -0.001970 -0.002340 0.001891 0.005695 0.027473 -0.000982
# 6 -0.008696 0.007275 -0.000739 -0.003364 -0.000982 0.047476
#
#
# Mechanical properties :
#
#
# Convention : Reuss Voigt Hill
#
# Bulk Modulus (GPa) = 41.88104 52.17259 47.02681
# Shear Modulus (GPa) = 27.98346 33.97913 30.98129
#
# Velocity S-wave (km/s) = 3.59320 3.95946 3.78077
# Velocity P-wave (km/s) = 6.04466 6.70631 6.38406
#
# Compressibility (1/GPa) = 0.02387716
#
# Stress axis : x y z
#
# Youngs Moduli (GPa) = 56.90516 65.18709 91.40061
#
# Poissons Ratio (x) = 0.04636 0.36984
# Poissons Ratio (y) = 0.04047 0.47812
# Poissons Ratio (z) = 0.23026 0.34100
#
# Static dielectric constant tensor:
#      x y z
#    x 3.882980 0.194730 -0.223290 
#    y 0.194730 4.051830 0.115230 
#    z -0.223290 0.115230 3.962910 
# 
# 
# High freq. dielectric constant tensor:
#      x y z
#    x 1.843530 0.011540 -0.022100 
#    y 0.011540 1.847640 0.017460 
#    z -0.022100 0.017460 1.847110 
# 
# From -- ./inp_files/348859.got.cif
#   From: 2010.06.25/outbox.cif.g09.slc.cpg/sg2_175_cif.got.tgz:348859.got - 2010.06.27 13:26:56.
