data_PCOD8017172
_publ_section_title
;
Structure prediction by ZEFSAII (Michael W. Deem and Ramdas Pophale) SiO2 
 PCOD8017172
Probable space group: P -1
;
_chemical_formula_sum "Si O2"
_cell_formula_units_Z 16
_cell_length_a 5.173001
_cell_length_b 20.525880
_cell_length_c 5.918640
_cell_angle_alpha 98.928481
_cell_angle_beta 88.199232
_cell_angle_gamma 81.585723
_cell_volume 613.202928
_symmetry_space_group_name_H-M "P -1"
_symmetry_group_IT_number 2
_symmetry_cell_setting 'triclinic'
loop_
_space_group_symop_operation_xyz
x,y,z
-x,-y,-z
loop_
_atom_site_type_symbol
_atom_site_label
_atom_site_fract_x
_atom_site_fract_y
_atom_site_fract_z
Si Si1 0.566472 0.867427 0.667510
Si Si2 0.667943 0.398610 0.929922
Si Si3 0.745361 0.158617 0.732955
Si Si4 0.974090 0.078325 0.065160
Si Si5 0.069514 0.251587 0.546939
Si Si6 0.058117 0.366895 0.300631
Si Si7 0.414642 0.283469 0.936686
Si Si8 0.703518 0.511415 0.689294
O O1 0.459199 0.881753 0.417682
O O2 0.690853 0.788587 0.631247
O O3 0.800507 0.907537 0.760490
O O4 0.320991 0.890233 0.845406
O O5 0.567008 0.331899 0.800447
O O6 0.807913 0.437826 0.751624
O O7 0.420619 0.446412 0.070148
O O8 0.867328 0.371440 0.101165
O O9 0.594072 0.212528 0.943210
O O10 0.980789 0.111010 0.830692
O O11 0.861442 0.200608 0.552780
O O12 0.000000 0.000000 0.000000
O O13 0.953070 0.323076 0.477488
O O14 0.159566 0.268852 0.802969
O O15 0.087008 0.444589 0.405326
O O16 0.335081 0.324053 0.191730
O O17 0.500000 0.500000 0.500000
#
# Coordination Sequence:
#
# PCOD8017172 Si02
#       8
#     2   2   2   2   2   2   2   2
#     4  11  26  48  74 110 149 189 247 294 358 429
#     4  10  22  38  61  92 124 172 228 286 346 424
#     4  11  26  46  74 104 148 186 240 298 361 428
#     4  12  28  49  77 109 148 197 241 295 360 426
#     4  11  24  42  67 104 136 184 229 297 355 420
#     4  11  23  39  65  94 132 172 230 287 356 421
#     4  10  23  40  65  96 133 178 228 288 359 423
#     4  10  22  40  59  86 129 173 223 285 350 420
#
# _framework density 26.092507000000001
#
# number of rings (size 3 to 8) (size 9 to 14) (size 15 to 20)
#    0.000    1.250    1.250    3.000    7.000    7.500 
#    0.000    0.000    0.000    0.000    0.000    0.000 
#    0.000    0.000    0.000    0.000    0.000    0.000 
#
# Total GULP energy -198226.710883 kJ/mol
# GULP energy per Si atom -12389.169430 kJ/mol
# Density = 2.603312 g / cm^3
# Si number density = 26.092507 Si / 1000 Ang^3
#
#
#
# Elastic Constant Matrix: (Units=GPa)
#
#
# Indices 1 2 3 4 5 6 
#
# 1 83.8082 30.3917 7.1411 2.8617 25.4633 11.0517
# 2 30.3917 174.3051 50.5144 -5.2544 21.2246 6.2201
# 3 7.1411 50.5144 47.5797 2.4354 26.9487 5.8060
# 4 2.8617 -5.2544 2.4354 44.7737 4.4241 7.2007
# 5 25.4633 21.2246 26.9487 4.4241 37.0278 4.6005
# 6 11.0517 6.2201 5.8060 7.2007 4.6005 35.9294
#
#
#
# Elastic Compliance Matrix: (Units=1/GPa)
#
#
# Indices 1 2 3 4 5 6 
#
# 1 0.019300 -0.004880 0.014413 0.000204 -0.020386 -0.004852
# 2 -0.004880 0.009777 -0.014285 0.001322 0.007885 0.000842
# 3 0.014413 -0.014285 0.060038 -0.000513 -0.044632 -0.005845
# 4 0.000204 0.001322 -0.000513 0.023512 -0.002766 -0.004567
# 5 -0.020386 0.007885 -0.044632 -0.002766 0.068840 0.003858
# 6 -0.004852 0.000842 -0.005845 -0.004567 0.003858 0.030545
#
#
# Mechanical properties :
#
#
# Convention : Reuss Voigt Hill
#
# Bulk Modulus (GPa) = 12.56095 53.53195 33.04645
# Shear Modulus (GPa) = 20.15686 38.05590 29.10638
#
# Velocity S-wave (km/s) = 2.78243 3.82317 3.34354
# Velocity P-wave (km/s) = 3.89192 6.32848 5.25341
#
# Compressibility (1/GPa) = 0.07961184
#
# Stress axis : x y z
#
# Youngs Moduli (GPa) = 51.81218 102.27707 16.65604
#
# Poissons Ratio (x) = 0.49916 -0.24006
# Poissons Ratio (y) = 0.25287 0.23793
# Poissons Ratio (z) = -0.74677 1.46099
#
# Static dielectric constant tensor:
#      x y z
#    x 4.997530 0.104230 -0.201920 
#    y 0.104230 5.151110 0.202050 
#    z -0.201920 0.202050 4.658050 
# 
# 
# High freq. dielectric constant tensor:
#      x y z
#    x 2.044550 -0.005560 -0.005220 
#    y -0.005560 2.050430 0.016530 
#    z -0.005220 0.016530 2.040400 
# 
# From -- ./inp_files/11385.got.cif
#   From: 2010.06.25/outbox.cif.g09.slc.cpg/sg2_6_cif.got.tgz:11385.got - 2010.06.27 13:26:56.
