data_PCOD8017820
_publ_section_title
;
Structure prediction by ZEFSAII (Michael W. Deem and Ramdas Pophale) SiO2 
 PCOD8017820
Probable space group: P -1
;
_chemical_formula_sum "Si O2"
_cell_formula_units_Z 12
_cell_length_a 9.395073
_cell_length_b 11.736902
_cell_length_c 6.766326
_cell_angle_alpha 56.299817
_cell_angle_beta 84.104152
_cell_angle_gamma 102.874033
_cell_volume 581.086282
_symmetry_space_group_name_H-M "P -1"
_symmetry_group_IT_number 2
_symmetry_cell_setting 'triclinic'
loop_
_space_group_symop_operation_xyz
x,y,z
-x,-y,-z
loop_
_atom_site_type_symbol
_atom_site_label
_atom_site_fract_x
_atom_site_fract_y
_atom_site_fract_z
Si Si1 0.816884 0.313842 0.339285
Si Si2 0.783305 0.843854 0.149877
Si Si3 0.545673 0.167712 0.791805
Si Si4 0.975103 0.084872 0.614065
Si Si5 0.890574 0.596315 0.318713
Si Si6 0.211672 0.641119 0.153796
O O1 0.654871 0.215726 0.542026
O O2 0.936905 0.227872 0.417176
O O3 0.877427 0.471589 0.279857
O O4 0.788761 0.349167 0.087202
O O5 0.605405 0.795065 0.267775
O O6 0.811446 0.711044 0.154904
O O7 0.872103 0.870050 0.320303
O O8 0.836370 0.983695 0.865070
O O9 0.628724 0.250287 0.896001
O O10 0.500000 0.000000 0.000000
O O11 0.000000 0.000000 0.500000
O O12 0.814767 0.523160 0.607175
O O13 0.072322 0.684175 0.231936
#
# Coordination Sequence:
#
# PCOD8017820 Si02
#       6
#     2   2   2   2   2   2
#     4  11  23  42  67  94 125 166 212 253 311 373
#     4  11  24  42  61  92 130 159 211 258 308 371
#     4  11  24  41  62  91 131 171 197 255 322 368
#     4  11  24  39  65  94 121 165 212 261 303 361
#     4  10  22  42  67  91 125 168 207 260 308 362
#     4  10  22  39  66  93 124 164 210 251 310 370
#
# _framework density 20.650977000000001
#
# number of rings (size 3 to 8) (size 9 to 14) (size 15 to 20)
#    0.000    1.333    1.667    4.500    4.667    6.000 
#    0.000    1.667    0.000    0.000    0.000    0.000 
#    0.000    0.000    0.000    0.000    0.000    0.000 
#
# Total GULP energy -148778.251442 kJ/mol
# GULP energy per Si atom -12398.187620 kJ/mol
# Density = 2.060397 g / cm^3
# Si number density = 20.650977 Si / 1000 Ang^3
#
#
#
# Elastic Constant Matrix: (Units=GPa)
#
#
# Indices 1 2 3 4 5 6 
#
# 1 140.2267 60.7132 22.3931 -0.2351 1.5628 14.5097
# 2 60.7132 124.9447 51.4609 4.4560 8.6965 -3.3513
# 3 22.3931 51.4609 103.1920 21.1281 12.0930 15.6489
# 4 -0.2351 4.4560 21.1281 35.4907 3.3972 2.4205
# 5 1.5628 8.6965 12.0930 3.3972 26.7684 -6.4139
# 6 14.5097 -3.3513 15.6489 2.4205 -6.4139 34.5563
#
#
#
# Elastic Compliance Matrix: (Units=1/GPa)
#
#
# Indices 1 2 3 4 5 6 
#
# 1 0.009857 -0.005495 0.001463 0.000338 -0.000814 -0.005509
# 2 -0.005495 0.013689 -0.007128 0.001978 0.000475 0.006812
# 3 0.001463 -0.007128 0.016752 -0.007778 -0.006646 -0.009581
# 4 0.000338 0.001978 -0.007778 0.032583 -0.001020 0.001101
# 5 -0.000814 0.000475 -0.006646 -0.001020 0.043132 0.011475
# 6 -0.005509 0.006812 -0.009581 0.001101 0.011475 0.038303
#
#
# Mechanical properties :
#
#
# Convention : Reuss Voigt Hill
#
# Bulk Modulus (GPa) = 55.62448 70.83311 63.22879
# Shear Modulus (GPa) = 27.37806 34.94948 31.16377
#
# Velocity S-wave (km/s) = 3.64504 4.11833 3.88889
# Velocity P-wave (km/s) = 6.68648 7.54909 7.13084
#
# Compressibility (1/GPa) = 0.01797770
#
# Stress axis : x y z
#
# Youngs Moduli (GPa) = 101.45477 73.05342 59.69451
#
# Poissons Ratio (x) = 0.40145 -0.08735
# Poissons Ratio (y) = 0.55753 0.42548
# Poissons Ratio (z) = -0.14845 0.52070
#
# Static dielectric constant tensor:
#      x y z
#    x 4.024380 0.178320 -0.089850 
#    y 0.178320 3.810270 -0.167020 
#    z -0.089850 -0.167020 3.973490 
# 
# 
# High freq. dielectric constant tensor:
#      x y z
#    x 1.802920 0.004280 0.004250 
#    y 0.004280 1.812180 -0.009550 
#    z 0.004250 -0.009550 1.816990 
# 
# From -- ./inp_files/26244.got.cif
#   From: 2010.06.25/outbox.cif.g09.slc.cpg/sg2_14_cif.got.tgz:26244.got - 2010.06.27 13:26:56.
