data_PCOD8017927
_publ_section_title
;
Structure prediction by ZEFSAII (Michael W. Deem and Ramdas Pophale) SiO2 
 PCOD8017927
Probable space group: P -1
;
_chemical_formula_sum "Si O2"
_cell_formula_units_Z 16
_cell_length_a 16.935521
_cell_length_b 11.506713
_cell_length_c 14.218483
_cell_angle_alpha 130.094118
_cell_angle_beta 30.269307
_cell_angle_gamma 147.712679
_cell_volume 706.892061
_symmetry_space_group_name_H-M "P -1"
_symmetry_group_IT_number 2
_symmetry_cell_setting 'triclinic'
loop_
_space_group_symop_operation_xyz
x,y,z
-x,-y,-z
loop_
_atom_site_type_symbol
_atom_site_label
_atom_site_fract_x
_atom_site_fract_y
_atom_site_fract_z
Si Si1 0.618437 0.352329 0.812025
Si Si2 0.090057 0.504025 0.244768
Si Si3 0.779693 0.700941 0.408249
Si Si4 0.524658 0.275238 0.179788
Si Si5 0.167889 0.194258 0.247480
Si Si6 0.581207 0.067817 0.559339
Si Si7 0.042615 0.794676 0.364322
Si Si8 0.726964 0.350694 0.199987
O O1 0.771573 0.359994 0.729366
O O2 0.778518 0.616935 0.767919
O O3 0.553260 0.215132 0.712178
O O4 0.380777 0.230022 0.044936
O O5 0.992993 0.590450 0.347351
O O6 0.860941 0.231286 0.358098
O O7 0.259816 0.538976 0.016411
O O8 0.562137 0.621955 0.644419
O O9 0.689995 0.505631 0.329095
O O10 0.960802 0.746951 0.316610
O O11 0.930199 0.938233 0.319723
O O12 0.618141 0.237821 0.150534
O O13 0.320818 0.030805 0.210891
O O14 0.114330 0.196849 0.412415
O O15 0.500000 0.000000 0.500000
O O16 0.424255 0.838603 0.661748
O O17 0.000000 0.500000 0.000000
#
# Coordination Sequence:
#
# PCOD8017927 Si02
#       8
#     2   2   2   2   2   2   2   2
#     4  11  23  42  69  99 135 176 219 276 340 398
#     4  12  24  42  68 101 135 172 227 278 331 396
#     4  11  23  42  68  97 137 175 228 272 335 397
#     4  11  24  42  67 100 136 175 227 273 338 396
#     4  10  22  39  68  99 134 168 224 275 336 388
#     4  12  26  44  67  98 138 176 224 274 338 397
#     4  11  21  40  68 100 132 171 225 282 328 393
#     4  12  26  45  69  94 135 185 228 275 333 403
#
# _framework density 22.634291000000001
#
# number of rings (size 3 to 8) (size 9 to 14) (size 15 to 20)
#    0.000    0.750    1.250    7.875    3.500    0.000 
#    0.000    0.625    0.000    0.000    0.000    0.000 
#    0.000    0.000    0.000    0.000    0.000    0.000 
#
# Total GULP energy -198406.191964 kJ/mol
# GULP energy per Si atom -12400.386998 kJ/mol
# Density = 2.258277 g / cm^3
# Si number density = 22.634291 Si / 1000 Ang^3
#
#
#
# Elastic Constant Matrix: (Units=GPa)
#
#
# Indices 1 2 3 4 5 6 
#
# 1 109.5516 22.2893 27.6631 -3.1600 0.8656 16.6754
# 2 22.2893 115.5642 55.3508 -8.4819 7.6190 -3.0931
# 3 27.6631 55.3508 168.2066 -19.8190 7.8993 0.1818
# 4 -3.1600 -8.4819 -19.8190 34.8514 -6.6226 2.6996
# 5 0.8656 7.6190 7.8993 -6.6226 30.3995 -1.8963
# 6 16.6754 -3.0931 0.1818 2.6996 -1.8963 31.8097
#
#
#
# Elastic Compliance Matrix: (Units=1/GPa)
#
#
# Indices 1 2 3 4 5 6 
#
# 1 0.010640 -0.001627 -0.001170 0.000374 0.000131 -0.005753
# 2 -0.001627 0.010640 -0.003134 0.000208 -0.001649 0.001789
# 3 -0.001170 -0.003134 0.007585 0.003368 -0.000421 -0.000045
# 4 0.000374 0.000208 0.003368 0.032008 0.005875 -0.002561
# 5 0.000131 -0.001649 -0.000421 0.005875 0.034778 0.001348
# 6 -0.005753 0.001789 -0.000045 -0.002561 0.001348 0.034925
#
#
# Mechanical properties :
#
#
# Convention : Reuss Voigt Hill
#
# Bulk Modulus (GPa) = 58.81123 67.10322 62.95722
# Shear Modulus (GPa) = 33.75958 38.61340 36.18649
#
# Velocity S-wave (km/s) = 3.86621 4.13482 4.00277
# Velocity P-wave (km/s) = 6.78010 7.24615 7.01700
#
# Compressibility (1/GPa) = 0.01700356
#
# Stress axis : x y z
#
# Youngs Moduli (GPa) = 93.98383 93.98740 131.83176
#
# Poissons Ratio (x) = 0.15290 0.15430
# Poissons Ratio (y) = 0.15289 0.41311
# Poissons Ratio (z) = 0.11000 0.29452
#
# Static dielectric constant tensor:
#      x y z
#    x 3.914380 0.058050 0.039640 
#    y 0.058050 4.133460 -0.122560 
#    z 0.039640 -0.122560 4.314220 
# 
# 
# High freq. dielectric constant tensor:
#      x y z
#    x 1.885810 0.001400 0.001810 
#    y 0.001400 1.886610 -0.006940 
#    z 0.001810 -0.006940 1.912790 
# 
# From -- ./inp_files/186841.got.cif
#   From: 2010.06.25/outbox.cif.g09.slc.cpg/sg2_94_cif.got.tgz:186841.got - 2010.06.27 13:26:56.
