data_PCOD8017950
_publ_section_title
;
Structure prediction by ZEFSAII (Michael W. Deem and Ramdas Pophale) SiO2 
 PCOD8017950
Probable space group: P -1
;
_chemical_formula_sum "Si O2"
_cell_formula_units_Z 16
_cell_length_a 9.908296
_cell_length_b 16.064361
_cell_length_c 12.437690
_cell_angle_alpha 145.440074
_cell_angle_beta 120.621663
_cell_angle_gamma 41.114134
_cell_volume 704.953487
_symmetry_space_group_name_H-M "P -1"
_symmetry_group_IT_number 2
_symmetry_cell_setting 'triclinic'
loop_
_space_group_symop_operation_xyz
x,y,z
-x,-y,-z
loop_
_atom_site_type_symbol
_atom_site_label
_atom_site_fract_x
_atom_site_fract_y
_atom_site_fract_z
Si Si1 0.805681 0.045113 0.849162
Si Si2 0.254199 0.116784 0.926118
Si Si3 0.120759 0.509049 0.966276
Si Si4 0.304865 0.394794 0.329493
Si Si5 0.746608 0.114417 0.138526
Si Si6 0.589337 0.711356 0.507904
Si Si7 0.173166 0.269948 0.555436
Si Si8 0.504645 0.520338 0.896697
O O1 0.728904 0.956348 0.650750
O O2 0.065603 0.884173 0.782960
O O3 0.727127 0.059537 0.953045
O O4 0.709526 0.257455 0.990667
O O5 0.188195 0.048474 0.920835
O O6 0.407066 0.943586 0.715596
O O7 0.363812 0.187862 0.102004
O O8 0.037221 0.301266 0.973725
O O9 0.250374 0.304419 0.730512
O O10 0.290244 0.513410 0.090946
O O11 0.000000 0.500000 0.000000
O O12 0.519850 0.340449 0.316030
O O13 0.283640 0.428026 0.484402
O O14 0.085686 0.583309 0.385652
O O15 0.763936 0.675511 0.464605
O O16 0.478371 0.645932 0.332731
O O17 0.500000 0.500000 0.000000
#
# Coordination Sequence:
#
# PCOD8017950 Si02
#       8
#     2   2   2   2   2   2   2   2
#     4  11  26  40  71  99 141 175 229 283 341 408
#     4  10  22  45  70 101 138 176 225 286 345 413
#     4  11  27  45  70  99 141 182 234 287 336 402
#     4  10  22  39  70 101 141 166 226 281 349 409
#     4  10  22  42  65 102 139 174 214 289 353 402
#     4  11  23  42  74  99 132 187 227 276 349 410
#     4  11  24  42  69 101 131 184 228 282 341 409
#     4  12  27  48  67  98 142 185 231 285 330 412
#
# _framework density 22.696532999999999
#
# number of rings (size 3 to 8) (size 9 to 14) (size 15 to 20)
#    0.000    1.250    1.250    4.125   10.500    4.500 
#    0.000    0.000    0.000    0.000    0.000    0.000 
#    0.000    0.000    0.000    0.000    0.000    0.000 
#
# Total GULP energy -198415.542483 kJ/mol
# GULP energy per Si atom -12400.971405 kJ/mol
# Density = 2.264487 g / cm^3
# Si number density = 22.696533 Si / 1000 Ang^3
#
#
#
# Elastic Constant Matrix: (Units=GPa)
#
#
# Indices 1 2 3 4 5 6 
#
# 1 116.7393 29.4241 37.3002 -3.3976 -20.4280 0.7732
# 2 29.4241 68.2023 28.0759 -8.2803 -1.9858 1.0534
# 3 37.3002 28.0759 145.1689 -19.8527 6.8839 7.4410
# 4 -3.3976 -8.2803 -19.8527 26.9695 -0.0942 1.1429
# 5 -20.4280 -1.9858 6.8839 -0.0942 34.1864 -4.9246
# 6 0.7732 1.0534 7.4410 1.1429 -4.9246 33.6890
#
#
#
# Elastic Compliance Matrix: (Units=1/GPa)
#
#
# Indices 1 2 3 4 5 6 
#
# 1 0.011772 -0.003889 -0.002990 -0.001957 0.007649 0.001696
# 2 -0.003889 0.017504 -0.001840 0.003540 -0.000972 -0.000314
# 3 -0.002990 -0.001840 0.009152 0.005895 -0.004108 -0.002696
# 4 -0.001957 0.003540 0.005895 0.042384 -0.002491 -0.003170
# 5 0.007649 -0.000972 -0.004108 -0.002491 0.035455 0.006029
# 6 0.001696 -0.000314 -0.002696 -0.003170 0.006029 0.031238
#
#
# Mechanical properties :
#
#
# Convention : Reuss Voigt Hill
#
# Bulk Modulus (GPa) = 47.64129 57.74565 52.69347
# Shear Modulus (GPa) = 29.08006 34.65634 31.86820
#
# Velocity S-wave (km/s) = 3.58335 3.91185 3.75120
# Velocity P-wave (km/s) = 6.17710 6.77504 6.48297
#
# Compressibility (1/GPa) = 0.02099019
#
# Stress axis : x y z
#
# Youngs Moduli (GPa) = 84.94712 57.13075 109.26831
#
# Poissons Ratio (x) = 0.22218 0.32671
# Poissons Ratio (y) = 0.33036 0.20102
# Poissons Ratio (z) = 0.25399 0.10510
#
# Static dielectric constant tensor:
#      x y z
#    x 4.076540 -0.108540 0.014010 
#    y -0.108540 3.944940 -0.159860 
#    z 0.014010 -0.159860 4.277900 
# 
# 
# High freq. dielectric constant tensor:
#      x y z
#    x 1.904540 -0.004660 -0.001770 
#    y -0.004660 1.885760 -0.006150 
#    z -0.001770 -0.006150 1.903470 
# 
# From -- ./inp_files/399824.got.cif
#   From: 2010.06.25/outbox.cif.g09.slc.cpg/sg2_200_cif.got.tgz:399824.got - 2010.06.27 13:26:56.
