data_PCOD8017641
_publ_section_title
;
Structure prediction by ZEFSAII (Michael W. Deem and Ramdas Pophale) SiO2 
 PCOD8017641
Probable space group: P -1
;
_chemical_formula_sum "Si O2"
_cell_formula_units_Z 14
_cell_length_a 7.050054
_cell_length_b 18.987760
_cell_length_c 27.209170
_cell_angle_alpha 17.364094
_cell_angle_beta 131.616636
_cell_angle_gamma 139.669119
_cell_volume 664.504170
_symmetry_space_group_name_H-M "P -1"
_symmetry_group_IT_number 2
_symmetry_cell_setting 'triclinic'
loop_
_space_group_symop_operation_xyz
x,y,z
-x,-y,-z
loop_
_atom_site_type_symbol
_atom_site_label
_atom_site_fract_x
_atom_site_fract_y
_atom_site_fract_z
Si Si1 0.221751 0.379712 0.175288
Si Si2 0.275464 0.056428 0.069372
Si Si3 0.583209 0.822069 0.099746
Si Si4 0.654966 0.377645 0.578359
Si Si5 0.321667 0.570117 0.959722
Si Si6 0.358972 0.800818 0.408262
Si Si7 0.153047 0.152672 0.475663
O O1 0.980595 0.461445 0.094403
O O2 0.553801 0.615459 0.100087
O O3 0.232154 0.365260 0.127856
O O4 0.107431 0.058755 0.387610
O O5 0.429752 0.920341 0.214922
O O6 0.351763 0.061216 0.022144
O O7 0.905465 0.873534 0.139124
O O8 0.280849 0.488814 0.273508
O O9 0.500000 0.000000 0.000000
O O10 0.500000 0.500000 0.500000
O O11 0.568998 0.341815 0.529404
O O12 0.013081 0.611823 0.492000
O O13 0.563240 0.899398 0.799162
O O14 0.500000 0.500000 0.000000
O O15 0.550741 0.848224 0.458980
O O16 0.000000 0.000000 0.500000
#
# Coordination Sequence:
#
# PCOD8017641 Si02
#       7
#     2   2   2   2   2   2   2
#     4  10  22  41  65  92 132 172 216 276 330 403
#     4  11  23  45  67  95 134 173 231 279 335 406
#     4  11  26  45  70  96 133 181 229 283 336 406
#     4  11  24  39  70  99 135 177 221 282 347 395
#     4  10  22  39  63  93 132 171 212 268 343 400
#     4  10  23  41  62  99 135 169 225 284 328 412
#     4  11  22  45  68  92 139 181 221 280 342 398
#
# _framework density 21.068339000000002
#
# number of rings (size 3 to 8) (size 9 to 14) (size 15 to 20)
#    0.000    1.429    4.286    0.000    4.000    1.143 
#    0.000    0.714    0.000    0.000    0.000    0.000 
#    0.000    0.000    0.000    0.000    0.000    0.000 
#
# Total GULP energy -173503.483252 kJ/mol
# GULP energy per Si atom -12393.105947 kJ/mol
# Density = 2.102039 g / cm^3
# Si number density = 21.068339 Si / 1000 Ang^3
#
#
#
# Elastic Constant Matrix: (Units=GPa)
#
#
# Indices 1 2 3 4 5 6 
#
# 1 144.8512 46.6504 47.8390 -0.8824 6.8464 -13.0106
# 2 46.6504 117.8113 42.6132 -8.4738 -0.9427 -11.7765
# 3 47.8390 42.6132 134.4625 -18.0957 -12.0680 -3.2428
# 4 -0.8824 -8.4738 -18.0957 42.0789 -1.3225 -4.2036
# 5 6.8464 -0.9427 -12.0680 -1.3225 27.9108 0.0955
# 6 -13.0106 -11.7765 -3.2428 -4.2036 0.0955 13.7279
#
#
#
# Elastic Compliance Matrix: (Units=1/GPa)
#
#
# Indices 1 2 3 4 5 6 
#
# 1 0.009262 -0.002104 -0.002952 -0.001016 -0.003688 0.005991
# 2 -0.002104 0.011051 -0.002316 0.001936 -0.000046 0.007532
# 3 -0.002952 -0.002316 0.010186 0.003895 0.005239 -0.001222
# 4 -0.001016 0.001936 0.003895 0.026892 0.003239 0.009830
# 5 -0.003688 -0.000046 0.005239 0.003239 0.039156 -0.001578
# 6 0.005991 0.007532 -0.001222 0.009830 -0.001578 0.087716
#
#
# Mechanical properties :
#
#
# Convention : Reuss Voigt Hill
#
# Bulk Modulus (GPa) = 63.46577 74.59226 69.02902
# Shear Modulus (GPa) = 24.47899 34.07835 29.27867
#
# Velocity S-wave (km/s) = 3.41234 4.02620 3.73191
# Velocity P-wave (km/s) = 6.76126 7.55615 7.16973
#
# Compressibility (1/GPa) = 0.01575652
#
# Stress axis : x y z
#
# Youngs Moduli (GPa) = 107.96473 90.49340 98.17447
#
# Poissons Ratio (x) = 0.19037 0.28981
# Poissons Ratio (y) = 0.22712 0.22732
# Poissons Ratio (z) = 0.31871 0.20954
#
# Static dielectric constant tensor:
#      x y z
#    x 3.483760 -0.038810 -0.319380 
#    y -0.038810 3.666390 -0.080440 
#    z -0.319380 -0.080440 4.212420 
# 
# 
# High freq. dielectric constant tensor:
#      x y z
#    x 1.797090 -0.005180 -0.027680 
#    y -0.005180 1.834460 -0.010580 
#    z -0.027680 -0.010580 1.842760 
# 
# From -- ./inp_files/615795.got.cif
#   From: 2010.06.25/outbox.cif.g09.slc.cpg/sg2_308_cif.got.tgz:615795.got - 2010.06.27 13:26:56.
