data_PCOD8017030
_publ_section_title
;
Structure prediction by ZEFSAII (Michael W. Deem and Ramdas Pophale) SiO2 
 PCOD8017030
Probable space group: P -1
;
_chemical_formula_sum "Si O2"
_cell_formula_units_Z 16
_cell_length_a 8.572456
_cell_length_b 13.082330
_cell_length_c 13.169640
_cell_angle_alpha 41.413399
_cell_angle_beta 50.060453
_cell_angle_gamma 59.290395
_cell_volume 747.827284
_symmetry_space_group_name_H-M "P -1"
_symmetry_group_IT_number 2
_symmetry_cell_setting 'triclinic'
loop_
_space_group_symop_operation_xyz
x,y,z
-x,-y,-z
loop_
_atom_site_type_symbol
_atom_site_label
_atom_site_fract_x
_atom_site_fract_y
_atom_site_fract_z
Si Si1 0.899487 0.845919 0.435951
Si Si2 0.412454 0.332799 0.643960
Si Si3 0.098090 0.813386 0.758296
Si Si4 0.512693 0.712181 0.764129
Si Si5 0.023963 0.333898 0.663285
Si Si6 0.393954 0.625697 0.090080
Si Si7 0.731531 0.625011 0.119771
Si Si8 0.186266 0.720299 0.578260
O O1 0.659439 0.841051 0.565965
O O2 0.950178 0.796293 0.336939
O O3 0.021473 0.733560 0.547720
O O4 0.959724 0.021960 0.289633
O O5 0.500000 0.500000 0.500000
O O6 0.343964 0.272386 0.827527
O O7 0.597809 0.228380 0.595155
O O8 0.223828 0.331787 0.648827
O O9 0.298165 0.728252 0.785484
O O10 0.127734 0.836707 0.607968
O O11 0.916853 0.701417 0.932319
O O12 0.627195 0.547338 0.813409
O O13 0.477003 0.730348 0.886522
O O14 0.827322 0.302400 0.837146
O O15 0.000000 0.500000 0.500000
O O16 0.543996 0.621574 0.124918
O O17 0.805396 0.453763 0.252632
#
# Coordination Sequence:
#
# PCOD8017030 Si02
#       8
#     2   2   2   2   2   2   2   2
#     4  12  26  42  66  96 135 173 213 263 330 389
#     4  10  22  37  65  97 126 162 216 272 316 370
#     4  12  25  43  64  97 135 174 211 267 328 383
#     4  11  24  40  63  96 131 166 215 267 324 380
#     4  12  21  41  65  95 129 169 218 266 318 382
#     4  11  23  39  69  99 124 165 221 273 313 373
#     4  11  22  42  66  97 128 170 221 268 313 380
#     4  11  22  41  65  96 129 173 220 263 315 382
#
# _framework density 21.395315
#
# number of rings (size 3 to 8) (size 9 to 14) (size 15 to 20)
#    0.000    0.750    2.500    7.125    3.500    0.000 
#    0.000    6.250    0.000    0.000    0.000    0.000 
#    0.000    0.000    0.000    0.000    0.000    0.000 
#
# Total GULP energy -198458.579270 kJ/mol
# GULP energy per Si atom -12403.661204 kJ/mol
# Density = 2.134662 g / cm^3
# Si number density = 21.395315 Si / 1000 Ang^3
#
#
#
# Elastic Constant Matrix: (Units=GPa)
#
#
# Indices 1 2 3 4 5 6 
#
# 1 130.9638 43.3932 29.5089 20.1325 -5.7618 14.3269
# 2 43.3932 121.8081 48.6718 31.4542 -4.3005 15.3812
# 3 29.5089 48.6718 64.6896 30.3823 -4.6830 -1.2758
# 4 20.1325 31.4542 30.3823 41.5628 4.4022 2.8969
# 5 -5.7618 -4.3005 -4.6830 4.4022 31.2055 13.2266
# 6 14.3269 15.3812 -1.2758 2.8969 13.2266 30.2919
#
#
#
# Elastic Compliance Matrix: (Units=1/GPa)
#
#
# Indices 1 2 3 4 5 6 
#
# 1 0.009656 -0.001067 -0.002431 -0.002119 0.003968 -0.005658
# 2 -0.001067 0.014154 -0.007978 -0.004269 0.004860 -0.008732
# 3 -0.002431 -0.007978 0.030180 -0.015568 0.002212 0.006995
# 4 -0.002119 -0.004269 -0.015568 0.040576 -0.010382 0.003167
# 5 0.003968 0.004860 0.002212 -0.010382 0.044943 -0.022882
# 6 -0.005658 -0.008732 0.006995 0.003167 -0.022882 0.050105
#
#
# Mechanical properties :
#
#
# Convention : Reuss Voigt Hill
#
# Bulk Modulus (GPa) = 32.21930 62.28993 47.25462
# Shear Modulus (GPa) = 22.43021 33.67120 28.05070
#
# Velocity S-wave (km/s) = 3.24137 3.97137 3.62479
# Velocity P-wave (km/s) = 5.39447 7.08563 6.29708
#
# Compressibility (1/GPa) = 0.03103729
#
# Stress axis : x y z
#
# Youngs Moduli (GPa) = 103.56024 70.65038 33.13448
#
# Poissons Ratio (x) = 0.07537 0.08057
# Poissons Ratio (y) = 0.11048 0.26436
# Poissons Ratio (z) = 0.25180 0.56367
#
# Static dielectric constant tensor:
#      x y z
#    x 3.913020 0.062040 -0.034920 
#    y 0.062040 4.087900 0.645450 
#    z -0.034920 0.645450 4.054850 
# 
# 
# High freq. dielectric constant tensor:
#      x y z
#    x 1.855970 0.008700 -0.005790 
#    y 0.008700 1.832780 0.034710 
#    z -0.005790 0.034710 1.833600 
# 
# From -- ./inp_files/243736.got.cif
#   From: 2010.06.25/outbox.cif.g09.slc.cpg/sg2_122_cif.got.tgz:243736.got - 2010.06.27 13:26:56.
