data_PCOD8017070
_publ_section_title
;
Structure prediction by ZEFSAII (Michael W. Deem and Ramdas Pophale) SiO2 
 PCOD8017070
Probable space group: P -1
;
_chemical_formula_sum "Si O2"
_cell_formula_units_Z 16
_cell_length_a 11.566139
_cell_length_b 8.094922
_cell_length_c 8.094905
_cell_angle_alpha 89.999900
_cell_angle_beta 89.999808
_cell_angle_gamma 89.999922
_cell_volume 757.901614
_symmetry_space_group_name_H-M "P -1"
_symmetry_group_IT_number 2
_symmetry_cell_setting 'triclinic'
loop_
_space_group_symop_operation_xyz
x,y,z
-x,-y,-z
loop_
_atom_site_type_symbol
_atom_site_label
_atom_site_fract_x
_atom_site_fract_y
_atom_site_fract_z
Si Si1 0.305990 0.999999 0.000001
Si Si2 0.130192 0.590870 0.744110
Si Si3 0.130190 0.755889 0.090868
Si Si4 0.500000 0.575451 0.263825
Si Si5 0.869808 0.590869 0.744110
Si Si6 0.694010 0.499998 0.500001
Si Si7 0.130193 0.244112 0.909132
Si Si8 0.500001 0.763826 0.924547
O O1 0.222896 0.899910 0.127974
O O2 0.386150 0.874546 0.895360
O O3 0.222898 0.100091 0.872026
O O4 0.386151 0.125449 0.104644
O O5 0.222897 0.627977 0.600089
O O6 0.151448 0.400164 0.793518
O O7 0.000000 0.614878 0.676639
O O8 0.151444 0.706487 0.900160
O O9 0.151446 0.599838 0.206482
O O10 0.999998 0.823358 0.114880
O O11 0.613849 0.604638 0.374549
O O12 0.386150 0.604642 0.374544
O O13 0.500004 0.702349 0.114050
O O14 0.499998 0.385949 0.202350
O O15 0.777103 0.627973 0.600088
O O16 0.848554 0.706485 0.900160
#
# Coordination Sequence:
#
# PCOD8017070 Si02
#       8
#     2   2   2   2   2   2   2   2
#     4  11  19  30  56  82  99 129 172 216 256 297
#     4   9  18  33  54  80 107 134 167 207 249 298
#     4   9  18  33  54  80 107 134 167 207 249 298
#     4  10  22  38  54  74 100 132 174 220 258 296
#     4   9  18  33  54  80 107 134 167 207 249 298
#     4  11  19  30  56  82  99 129 172 216 256 297
#     4   9  18  33  54  80 107 134 167 207 249 298
#     4  10  22  38  54  74 100 132 174 220 258 296
#
# _framework density 21.110918999999999
#
# number of rings (size 3 to 8) (size 9 to 14) (size 15 to 20)
#    0.000    2.250    0.000    5.250    0.000    4.000 
#    0.000    0.000    0.000   61.500    0.000   28.000 
#    0.000    0.000    0.000    0.000    0.000    0.000 
#
# Total GULP energy -198325.615486 kJ/mol
# GULP energy per Si atom -12395.350968 kJ/mol
# Density = 2.106287 g / cm^3
# Si number density = 21.110919 Si / 1000 Ang^3
#
#
#
# Elastic Constant Matrix: (Units=GPa)
#
#
# Indices 1 2 3 4 5 6 
#
# 1 166.7152 47.1340 47.1331 0.0001 0.0019 0.0003
# 2 47.1340 87.0074 10.5128 -4.2941 0.0014 0.0008
# 3 47.1331 10.5128 87.0051 4.2951 0.0012 -0.0008
# 4 0.0001 -4.2941 4.2951 10.6221 -0.0007 0.0001
# 5 0.0019 0.0014 0.0012 -0.0007 28.2722 0.0000
# 6 0.0003 0.0008 -0.0008 0.0001 0.0000 28.2705
#
#
#
# Elastic Compliance Matrix: (Units=1/GPa)
#
#
# Indices 1 2 3 4 5 6 
#
# 1 0.008254 -0.003989 -0.003989 0.000000 0.000000 0.000000
# 2 -0.003989 0.013903 0.000208 0.005536 0.000000 0.000000
# 3 -0.003989 0.000208 0.013903 -0.005538 0.000000 0.000000
# 4 0.000000 0.005536 -0.005538 0.098620 0.000002 -0.000001
# 5 0.000000 0.000000 0.000000 0.000002 0.035370 0.000000
# 6 0.000000 0.000000 0.000000 -0.000001 0.000000 0.035373
#
#
# Mechanical properties :
#
#
# Convention : Reuss Voigt Hill
#
# Bulk Modulus (GPa) = 48.73770 61.14306 54.94038
# Shear Modulus (GPa) = 21.94872 29.16281 25.55577
#
# Velocity S-wave (km/s) = 3.22791 3.72076 3.48307
# Velocity P-wave (km/s) = 6.08516 6.89089 6.50052
#
# Compressibility (1/GPa) = 0.02051800
#
# Stress axis : x y z
#
# Youngs Moduli (GPa) = 121.15332 71.92950 71.92697
#
# Poissons Ratio (x) = 0.28695 0.28695
# Poissons Ratio (y) = 0.48332 -0.01496
# Poissons Ratio (z) = 0.48333 -0.01496
#
# Static dielectric constant tensor:
#      x y z
#    x 4.245770 0.000000 0.000000 
#    y 0.000000 3.563460 0.000000 
#    z 0.000000 0.000000 3.563460 
# 
# 
# High freq. dielectric constant tensor:
#      x y z
#    x 1.863660 0.000000 0.000000 
#    y 0.000000 1.792670 0.000000 
#    z 0.000000 0.000000 1.792670 
# 
# From -- ./inp_files/205491.got.cif
#   From: 2010.06.25/outbox.cif.g09.slc.cpg/sg2_103_cif.got.tgz:205491.got - 2010.06.27 13:26:56.
