data_PCOD8017551
_publ_section_title
;
Structure prediction by ZEFSAII (Michael W. Deem and Ramdas Pophale) SiO2 
 PCOD8017551
Probable space group: P -1
;
_chemical_formula_sum "Si O2"
_cell_formula_units_Z 14
_cell_length_a 6.930275
_cell_length_b 8.080529
_cell_length_c 15.878493
_cell_angle_alpha 74.433718
_cell_angle_beta 95.862086
_cell_angle_gamma 127.889524
_cell_volume 673.712781
_symmetry_space_group_name_H-M "P -1"
_symmetry_group_IT_number 2
_symmetry_cell_setting 'triclinic'
loop_
_space_group_symop_operation_xyz
x,y,z
-x,-y,-z
loop_
_atom_site_type_symbol
_atom_site_label
_atom_site_fract_x
_atom_site_fract_y
_atom_site_fract_z
Si Si1 0.994697 0.747297 0.802529
Si Si2 0.451039 0.999222 0.238965
Si Si3 0.302625 0.747860 0.101110
Si Si4 0.652274 0.453742 0.454647
Si Si5 0.779968 0.190652 0.580014
Si Si6 0.845761 0.036149 0.049473
Si Si7 0.632226 0.759884 0.682346
O O1 0.891007 0.502602 0.850095
O O2 0.841040 0.739557 0.719238
O O3 0.994838 0.861262 0.872139
O O4 0.267772 0.901183 0.758927
O O5 0.331686 0.903090 0.156020
O O6 0.291226 0.803909 0.326373
O O7 0.454326 0.203159 0.237779
O O8 0.571061 0.810476 0.084125
O O9 0.192358 0.792027 0.011497
O O10 0.500000 0.500000 0.500000
O O11 0.621582 0.236105 0.509713
O O12 0.577695 0.446591 0.354290
O O13 0.936130 0.645399 0.450629
O O14 0.720132 0.956994 0.594541
O O15 0.000000 0.000000 0.000000
#
# Coordination Sequence:
#
# PCOD8017551 Si02
#       7
#     2   2   2   2   2   2   2
#     4  11  23  38  63  93 116 159 199 240 298 349
#     4   9  23  39  60  86 124 153 196 248 294 343
#     4  10  22  39  62  89 119 157 201 241 288 350
#     4  11  24  40  64  87 115 160 201 242 298 355
#     4   9  24  42  59  86 120 154 200 242 299 349
#     4  10  22  41  61  86 125 158 193 244 291 346
#     4  10  24  38  60  88 120 154 194 244 300 349
#
# _framework density 20.780370000000001
#
# number of rings (size 3 to 8) (size 9 to 14) (size 15 to 20)
#    0.857    1.143    0.000    1.714    6.000    4.571 
#    0.000    0.000    0.000    0.000    0.000    0.000 
#    0.000    0.000    0.000    0.000    0.000    0.000 
#
# Total GULP energy -173448.519372 kJ/mol
# GULP energy per Si atom -12389.179955 kJ/mol
# Density = 2.073307 g / cm^3
# Si number density = 20.780370 Si / 1000 Ang^3
#
#
#
# Elastic Constant Matrix: (Units=GPa)
#
#
# Indices 1 2 3 4 5 6 
#
# 1 93.2423 33.7983 33.6273 3.4854 -6.6266 9.9325
# 2 33.7983 44.6239 20.3391 3.6100 -0.1025 -0.2961
# 3 33.6273 20.3391 72.8626 5.6968 2.2157 13.5295
# 4 3.4854 3.6100 5.6968 35.1951 0.6607 2.0630
# 5 -6.6266 -0.1025 2.2157 0.6607 46.5558 0.3774
# 6 9.9325 -0.2961 13.5295 2.0630 0.3774 22.3841
#
#
#
# Elastic Compliance Matrix: (Units=1/GPa)
#
#
# Indices 1 2 3 4 5 6 
#
# 1 0.016863 -0.011107 -0.003782 0.000350 0.002595 -0.005420
# 2 -0.011107 0.033661 -0.005762 -0.001927 -0.001279 0.009056
# 3 -0.003782 -0.005762 0.019049 -0.001521 -0.001357 -0.009748
# 4 0.000350 -0.001927 -0.001521 0.028940 -0.000277 -0.001924
# 5 0.002595 -0.001279 -0.001357 -0.000277 0.021920 -0.000692
# 6 -0.005420 0.009056 -0.009748 -0.001924 -0.000692 0.053280
#
#
# Mechanical properties :
#
#
# Convention : Reuss Voigt Hill
#
# Bulk Modulus (GPa) = 35.37233 42.91759 39.14496
# Shear Modulus (GPa) = 22.27757 29.02461 25.65109
#
# Velocity S-wave (km/s) = 3.27777 3.74134 3.51720
# Velocity P-wave (km/s) = 5.60214 6.27386 5.94749
#
# Compressibility (1/GPa) = 0.02827068
#
# Stress axis : x y z
#
# Youngs Moduli (GPa) = 59.29991 29.70765 52.49655
#
# Poissons Ratio (x) = 0.32996 0.19856
# Poissons Ratio (y) = 0.65864 0.30250
# Poissons Ratio (z) = 0.22429 0.17119
#
# Static dielectric constant tensor:
#      x y z
#    x 3.643300 0.041480 0.019360 
#    y 0.041480 3.640110 0.041370 
#    z 0.019360 0.041370 3.774880 
# 
# 
# High freq. dielectric constant tensor:
#      x y z
#    x 1.812120 0.008710 0.003250 
#    y 0.008710 1.802840 0.008300 
#    z 0.003250 0.008300 1.817810 
# 
# From -- ./inp_files/547168.got.cif
#   From: 2010.06.25/outbox.cif.g09.slc.cpg/sg2_274_cif.got.tgz:547168.got - 2010.06.27 13:26:56.
