data_PCOD8017668
_publ_section_title
;
Structure prediction by ZEFSAII (Michael W. Deem and Ramdas Pophale) SiO2 
 PCOD8017668
Probable space group: P -1
;
_chemical_formula_sum "Si O2"
_cell_formula_units_Z 14
_cell_length_a 15.673791
_cell_length_b 15.023849
_cell_length_c 10.964513
_cell_angle_alpha 54.172979
_cell_angle_beta 128.107671
_cell_angle_gamma 161.103849
_cell_volume 657.930245
_symmetry_space_group_name_H-M "P -1"
_symmetry_group_IT_number 2
_symmetry_cell_setting 'triclinic'
loop_
_space_group_symop_operation_xyz
x,y,z
-x,-y,-z
loop_
_atom_site_type_symbol
_atom_site_label
_atom_site_fract_x
_atom_site_fract_y
_atom_site_fract_z
Si Si1 0.604824 0.427637 0.354428
Si Si2 0.125393 0.373015 0.318050
Si Si3 0.987748 0.031938 0.827220
Si Si4 0.828430 0.283978 0.264645
Si Si5 0.693046 0.388528 0.955920
Si Si6 0.396051 0.821955 0.449125
Si Si7 0.132328 0.957771 0.862424
O O1 0.717883 0.536340 0.504727
O O2 0.815495 0.681078 0.245161
O O3 0.571516 0.272975 0.399992
O O4 0.319523 0.223710 0.269641
O O5 0.335016 0.625155 0.205320
O O6 0.915949 0.271058 0.259117
O O7 0.956969 0.123746 0.294430
O O8 0.093639 0.040657 0.818518
O O9 0.000000 0.000000 0.000000
O O10 0.080341 0.552175 0.358340
O O11 0.576516 0.003395 0.342979
O O12 0.723653 0.289961 0.091940
O O13 0.953554 0.700140 0.982373
O O14 0.441288 0.207817 0.949143
O O15 0.500000 0.000000 0.500000
#
# Coordination Sequence:
#
# PCOD8017668 Si02
#       7
#     2   2   2   2   2   2   2
#     4  11  25  45  71  92 130 171 210 280 323 380
#     4   9  24  40  67  99 136 162 224 254 341 381
#     4  12  27  47  67  94 127 174 224 267 327 381
#     4  11  22  39  68  96 138 173 209 264 327 384
#     4  10  22  39  63  99 136 168 208 266 321 384
#     4  11  25  43  65 101 129 174 221 257 319 392
#     4  10  24  40  64  97 131 167 226 262 316 383
#
# _framework density 21.278851
#
# number of rings (size 3 to 8) (size 9 to 14) (size 15 to 20)
#    0.857    0.571    0.000    4.714    6.000    5.143 
#    0.000    0.000    0.000    0.000    0.000    0.000 
#    0.000    0.000    0.000    0.000    0.000    0.000 
#
# Total GULP energy -173582.833670 kJ/mol
# GULP energy per Si atom -12398.773834 kJ/mol
# Density = 2.123042 g / cm^3
# Si number density = 21.278851 Si / 1000 Ang^3
#
#
#
# Elastic Constant Matrix: (Units=GPa)
#
#
# Indices 1 2 3 4 5 6 
#
# 1 102.9593 25.1639 58.0440 7.6942 -1.6685 -10.7484
# 2 25.1639 107.5342 51.2686 -19.7612 2.5813 23.2071
# 3 58.0440 51.2686 136.8747 -15.4468 12.7576 12.6325
# 4 7.6942 -19.7612 -15.4468 37.8362 3.4349 8.6710
# 5 -1.6685 2.5813 12.7576 3.4349 18.5434 7.2433
# 6 -10.7484 23.2071 12.6325 8.6710 7.2433 41.7628
#
#
#
# Elastic Compliance Matrix: (Units=1/GPa)
#
#
# Indices 1 2 3 4 5 6 
#
# 1 0.018569 -0.005269 -0.009171 -0.013654 0.006481 0.012192
# 2 -0.005269 0.015975 -0.001385 0.011603 0.000944 -0.012387
# 3 -0.009171 -0.001385 0.014230 0.009239 -0.009742 -0.006124
# 4 -0.013654 0.011603 0.009239 0.044567 -0.009502 -0.020361
# 5 0.006481 0.000944 -0.009742 -0.009502 0.064868 -0.005188
# 6 0.012192 -0.012387 -0.006124 -0.020361 -0.005188 0.040945
#
#
# Mechanical properties :
#
#
# Convention : Reuss Voigt Hill
#
# Bulk Modulus (GPa) = 58.39645 68.48012 63.43829
# Shear Modulus (GPa) = 21.14067 33.82128 27.48098
#
# Velocity S-wave (km/s) = 3.15541 3.99109 3.59760
# Velocity P-wave (km/s) = 6.38581 7.31372 6.86546
#
# Compressibility (1/GPa) = 0.01712433
#
# Stress axis : x y z
#
# Youngs Moduli (GPa) = 53.85412 62.59643 70.27603
#
# Poissons Ratio (x) = 0.32980 0.64451
# Poissons Ratio (y) = 0.28374 0.09733
# Poissons Ratio (z) = 0.49390 0.08669
#
# Static dielectric constant tensor:
#      x y z
#    x 3.737120 0.072080 -0.017030 
#    y 0.072080 4.078400 0.066220 
#    z -0.017030 0.066220 4.184340 
# 
# 
# High freq. dielectric constant tensor:
#      x y z
#    x 1.835630 0.007390 0.005470 
#    y 0.007390 1.850880 -0.004770 
#    z 0.005470 -0.004770 1.826840 
# 
# From -- ./inp_files/454660.got.cif
#   From: 2010.06.25/outbox.cif.g09.slc.cpg/sg2_228_cif.got.tgz:454660.got - 2010.06.27 13:26:56.
