data_PCOD8017101
_publ_section_title
;
Structure prediction by ZEFSAII (Michael W. Deem and Ramdas Pophale) SiO2 
 PCOD8017101
Probable space group: P -1
;
_chemical_formula_sum "Si O2"
_cell_formula_units_Z 16
_cell_length_a 14.316803
_cell_length_b 12.304529
_cell_length_c 14.495517
_cell_angle_alpha 132.175561
_cell_angle_beta 150.054338
_cell_angle_gamma 38.705905
_cell_volume 796.992219
_symmetry_space_group_name_H-M "P -1"
_symmetry_group_IT_number 2
_symmetry_cell_setting 'triclinic'
loop_
_space_group_symop_operation_xyz
x,y,z
-x,-y,-z
loop_
_atom_site_type_symbol
_atom_site_label
_atom_site_fract_x
_atom_site_fract_y
_atom_site_fract_z
Si Si1 0.205674 0.580867 0.860685
Si Si2 0.346793 0.978004 0.737518
Si Si3 0.700630 0.336740 0.199736
Si Si4 0.435964 0.322880 0.382005
Si Si5 0.962323 0.621382 0.843136
Si Si6 0.958055 0.648815 0.379523
Si Si7 0.771195 0.989932 0.143908
Si Si8 0.812723 0.357024 0.773083
O O1 0.176546 0.697341 0.813823
O O2 0.025990 0.699695 0.854976
O O3 0.161706 0.428880 0.706755
O O4 0.448366 0.494572 0.064001
O O5 0.198719 0.144831 0.642638
O O6 0.395181 0.813087 0.625949
O O7 0.213662 0.985442 0.719524
O O8 0.580553 0.952249 0.944899
O O9 0.714138 0.162687 0.140691
O O10 0.812518 0.397082 0.404209
O O11 0.586521 0.359735 0.598572
O O12 0.239705 0.496989 0.264030
O O13 0.299225 0.255629 0.283649
O O14 0.001905 0.435469 0.737110
O O15 0.123005 0.590975 0.047675
O O16 0.997047 0.830394 0.206840
#
# Coordination Sequence:
#
# PCOD8017101 Si02
#       8
#     2   2   2   2   2   2   2   2
#     4   9  23  39  63  96 118 161 204 256 302 352
#     4  11  23  39  62  95 121 162 204 248 315 353
#     4  11  21  41  66  92 121 160 209 254 299 355
#     4  11  24  38  62  85 126 162 204 245 302 375
#     4  10  22  38  59  87 123 156 194 252 303 353
#     4  10  22  38  65  91 125 154 203 255 302 358
#     4  11  23  39  64  87 130 161 200 258 298 365
#     4  11  24  39  58  90 122 166 202 242 308 367
#
# _framework density 20.075476999999999
#
# number of rings (size 3 to 8) (size 9 to 14) (size 15 to 20)
#    0.750    0.750    2.500    2.250    7.000    3.000 
#    0.000    0.625    0.000    1.500    0.000    0.000 
#    0.000    0.000    0.000    0.000    0.000    0.000 
#
# Total GULP energy -198316.173066 kJ/mol
# GULP energy per Si atom -12394.760817 kJ/mol
# Density = 2.002978 g / cm^3
# Si number density = 20.075477 Si / 1000 Ang^3
#
#
#
# Elastic Constant Matrix: (Units=GPa)
#
#
# Indices 1 2 3 4 5 6 
#
# 1 123.6948 23.6865 33.8682 1.8946 -0.3190 2.2987
# 2 23.6865 51.2408 15.2156 -0.6880 -9.4322 3.3515
# 3 33.8682 15.2156 120.0766 13.1123 -10.1767 -7.1654
# 4 1.8946 -0.6880 13.1123 17.6668 -0.5731 -1.2192
# 5 -0.3190 -9.4322 -10.1767 -0.5731 16.4823 6.1526
# 6 2.2987 3.3515 -7.1654 -1.2192 6.1526 29.3930
#
#
#
# Elastic Compliance Matrix: (Units=1/GPa)
#
#
# Indices 1 2 3 4 5 6 
#
# 1 0.009603 -0.004384 -0.002543 0.000559 -0.003859 -0.000040
# 2 -0.004384 0.025284 -0.001248 0.002479 0.015971 -0.006085
# 3 -0.002543 -0.001248 0.010510 -0.007309 0.004883 0.001578
# 4 0.000559 0.002479 -0.007309 0.062075 -0.001192 0.000716
# 5 -0.003859 0.015971 0.004883 -0.001192 0.079025 -0.016920
# 6 -0.000040 -0.006085 0.001578 0.000716 -0.016920 0.038675
#
#
# Mechanical properties :
#
#
# Convention : Reuss Voigt Hill
#
# Bulk Modulus (GPa) = 34.42780 48.95031 41.68905
# Shear Modulus (GPa) = 19.90423 27.52456 23.71439
#
# Velocity S-wave (km/s) = 3.15218 3.70679 3.44068
# Velocity P-wave (km/s) = 5.51677 6.53884 6.04943
#
# Compressibility (1/GPa) = 0.02904629
#
# Stress axis : x y z
#
# Youngs Moduli (GPa) = 104.13953 39.55108 95.15125
#
# Poissons Ratio (x) = 0.17338 0.24201
# Poissons Ratio (y) = 0.45652 0.11871
# Poissons Ratio (z) = 0.26487 0.04934
#
# Static dielectric constant tensor:
#      x y z
#    x 3.753830 -0.004470 0.107280 
#    y -0.004470 3.299720 0.061930 
#    z 0.107280 0.061930 3.813170 
# 
# 
# High freq. dielectric constant tensor:
#      x y z
#    x 1.783140 -0.004200 0.012970 
#    y -0.004200 1.749840 0.006600 
#    z 0.012970 0.006600 1.803820 
# 
# From -- ./inp_files/531972.got.cif
#   From: 2010.06.25/outbox.cif.g09.slc.cpg/sg2_266_cif.got.tgz:531972.got - 2010.06.27 13:26:56.
