data_PCOD8017507
_publ_section_title
;
Structure prediction by ZEFSAII (Michael W. Deem and Ramdas Pophale) SiO2 
 PCOD8017507
Probable space group: P -1
;
_chemical_formula_sum "Si O2"
_cell_formula_units_Z 16
_cell_length_a 7.763506
_cell_length_b 15.068273
_cell_length_c 11.394209
_cell_angle_alpha 48.670877
_cell_angle_beta 133.036645
_cell_angle_gamma 103.702902
_cell_volume 673.810727
_symmetry_space_group_name_H-M "P -1"
_symmetry_group_IT_number 2
_symmetry_cell_setting 'triclinic'
loop_
_space_group_symop_operation_xyz
x,y,z
-x,-y,-z
loop_
_atom_site_type_symbol
_atom_site_label
_atom_site_fract_x
_atom_site_fract_y
_atom_site_fract_z
Si Si1 0.089007 0.123538 0.635286
Si Si2 0.284225 0.375654 0.986469
Si Si3 0.746999 0.123189 0.794975
Si Si4 0.551765 0.121252 0.465029
Si Si5 0.534296 0.140478 0.943128
Si Si6 0.179533 0.627657 0.843256
Si Si7 0.173269 0.630341 0.336102
Si Si8 0.619137 0.383478 0.815331
O O1 0.240740 0.151523 0.793066
O O2 0.833791 0.108924 0.570553
O O3 0.035409 0.238727 0.417222
O O4 0.280862 0.986724 0.789308
O O5 0.338241 0.251541 0.201894
O O6 0.542010 0.378603 0.053787
O O7 0.131371 0.507834 0.870761
O O8 0.112071 0.368078 0.802329
O O9 0.539404 0.127001 0.595914
O O10 0.628120 0.126886 0.863655
O O11 0.822001 0.245484 0.706126
O O12 0.000000 0.000000 0.000000
O O13 0.500000 0.000000 0.500000
O O14 0.545673 0.261606 0.908398
O O15 0.171790 0.619294 0.987963
O O16 0.361878 0.509538 0.602124
O O17 0.256093 0.621170 0.247446
#
# Coordination Sequence:
#
# PCOD8017507 Si02
#       8
#     2   2   2   2   2   2   2   2
#     4  10  22  42  59  90 123 163 204 254 304 364
#     4  10  22  39  61  89 125 163 201 255 306 364
#     4  11  21  39  63  89 121 162 207 252 309 361
#     4  11  23  40  63  91 126 160 203 258 309 365
#     4  10  22  41  62  89 124 162 207 258 298 369
#     4  10  22  40  60  90 127 161 203 252 310 367
#     4  10  22  39  63  90 123 160 208 253 300 372
#     4  10  22  39  62  91 123 161 205 252 308 364
#
# _framework density 23.745539999999998
#
# number of rings (size 3 to 8) (size 9 to 14) (size 15 to 20)
#    0.000    1.750    1.250    2.250    1.750    3.500 
#    9.000    0.000    0.000    0.000    0.000    0.000 
#    0.000    0.000    0.000    0.000    0.000    0.000 
#
# Total GULP energy -198390.922361 kJ/mol
# GULP energy per Si atom -12399.432648 kJ/mol
# Density = 2.369149 g / cm^3
# Si number density = 23.745540 Si / 1000 Ang^3
#
#
#
# Elastic Constant Matrix: (Units=GPa)
#
#
# Indices 1 2 3 4 5 6 
#
# 1 29.2277 18.3570 18.1199 -2.1593 4.3650 1.8285
# 2 18.3570 183.8865 63.6569 -18.2631 -1.1400 7.2140
# 3 18.1199 63.6569 171.9829 -26.0203 2.7713 -3.2602
# 4 -2.1593 -18.2631 -26.0203 50.3037 2.9719 -2.7642
# 5 4.3650 -1.1400 2.7713 2.9719 29.3126 7.2648
# 6 1.8285 7.2140 -3.2602 -2.7642 7.2648 29.2552
#
#
#
# Elastic Compliance Matrix: (Units=1/GPa)
#
#
# Indices 1 2 3 4 5 6 
#
# 1 0.038704 -0.002880 -0.003045 -0.000688 -0.005322 -0.000792
# 2 -0.002880 0.006619 -0.002044 0.001045 0.001242 -0.001890
# 3 -0.003045 -0.002044 0.007428 0.003155 -0.001171 0.002111
# 4 -0.000688 0.001045 0.003155 0.022213 -0.003155 0.003019
# 5 -0.005322 0.001242 -0.001171 -0.003155 0.037813 -0.009792
# 6 -0.000792 -0.001890 0.002111 0.003019 -0.009792 0.037650
#
#
# Mechanical properties :
#
#
# Convention : Reuss Voigt Hill
#
# Bulk Modulus (GPa) = 27.16462 65.04053 46.10258
# Shear Modulus (GPa) = 27.98968 40.77184 34.38076
#
# Velocity S-wave (km/s) = 3.43699 4.14820 3.80923
# Velocity P-wave (km/s) = 5.21683 7.09884 6.22932
#
# Compressibility (1/GPa) = 0.03681259
#
# Stress axis : x y z
#
# Youngs Moduli (GPa) = 25.83691 151.08286 134.62201
#
# Poissons Ratio (x) = 0.43510 0.40997
# Poissons Ratio (y) = 0.07441 0.27520
# Poissons Ratio (z) = 0.07868 0.30885
#
# Static dielectric constant tensor:
#      x y z
#    x 3.942130 0.163890 0.002300 
#    y 0.163890 4.560410 -0.061440 
#    z 0.002300 -0.061440 4.676650 
# 
# 
# High freq. dielectric constant tensor:
#      x y z
#    x 1.919720 0.013210 0.004280 
#    y 0.013210 1.952490 -0.008810 
#    z 0.004280 -0.008810 1.955670 
# 
# From -- ./inp_files/398686.got.cif
#   From: 2010.06.25/outbox.cif.g09.slc.cpg/sg2_200_cif.got.tgz:398686.got - 2010.06.27 13:26:56.
