data_PCOD8017633
_publ_section_title
;
Structure prediction by ZEFSAII (Michael W. Deem and Ramdas Pophale) SiO2 
 PCOD8017633
Probable space group: P -1
;
_chemical_formula_sum "Si O2"
_cell_formula_units_Z 16
_cell_length_a 16.106825
_cell_length_b 16.570809
_cell_length_c 14.852077
_cell_angle_alpha 132.114416
_cell_angle_beta 151.893248
_cell_angle_gamma 27.126818
_cell_volume 720.647783
_symmetry_space_group_name_H-M "P -1"
_symmetry_group_IT_number 2
_symmetry_cell_setting 'triclinic'
loop_
_space_group_symop_operation_xyz
x,y,z
-x,-y,-z
loop_
_atom_site_type_symbol
_atom_site_label
_atom_site_fract_x
_atom_site_fract_y
_atom_site_fract_z
Si Si1 0.428698 0.927322 0.924905
Si Si2 0.167448 0.797139 0.565576
Si Si3 0.514771 0.411438 0.663225
Si Si4 0.932194 0.981510 0.206626
Si Si5 0.777288 0.611756 0.501931
Si Si6 0.864065 0.523599 0.980390
Si Si7 0.469115 0.177427 0.757049
Si Si8 0.877253 0.754778 0.835362
O O1 0.264120 0.019231 0.935395
O O2 0.774239 0.675367 0.070848
O O3 0.150776 0.009810 0.658935
O O4 0.500000 0.000000 0.000000
O O5 0.191970 0.654522 0.505089
O O6 0.112227 0.890307 0.676649
O O7 0.513981 0.640585 0.725379
O O8 0.415821 0.370277 0.606491
O O9 0.682790 0.259607 0.624384
O O10 0.781259 0.353206 0.921736
O O11 0.747549 0.098057 0.021635
O O12 0.525466 0.775479 0.302268
O O13 0.884782 0.666410 0.694612
O O14 0.103572 0.378785 0.602213
O O15 0.000000 0.500000 0.000000
O O16 0.142597 0.303748 0.133484
O O17 0.554906 0.003411 0.705969
#
# Coordination Sequence:
#
# PCOD8017633 Si02
#       8
#     2   2   2   2   2   2   2   2
#     4  11  25  39  63  91 128 171 210 264 321 385
#     4  10  23  44  61  92 133 166 215 268 318 383
#     4  10  24  40  68  95 126 171 216 261 322 385
#     4  10  22  44  61  90 129 168 209 269 316 378
#     4  11  23  42  67  99 125 171 217 265 327 383
#     4  10  22  39  63  93 125 170 215 262 318 380
#     4  10  23  42  68  94 132 163 215 270 321 388
#     4  10  23  43  63  93 137 166 213 271 316 383
#
# _framework density 22.202245999999999
#
# number of rings (size 3 to 8) (size 9 to 14) (size 15 to 20)
#    0.000    1.750    0.000    4.125    8.750    5.500 
#    0.000    5.625    0.000    0.000    0.000    0.000 
#    0.000    0.000    0.000    0.000    0.000    0.000 
#
# Total GULP energy -198316.229186 kJ/mol
# GULP energy per Si atom -12394.764324 kJ/mol
# Density = 2.215171 g / cm^3
# Si number density = 22.202246 Si / 1000 Ang^3
#
#
#
# Elastic Constant Matrix: (Units=GPa)
#
#
# Indices 1 2 3 4 5 6 
#
# 1 119.1778 60.7456 3.4685 -5.1088 7.9817 -0.9598
# 2 60.7456 151.9120 18.9897 -18.7331 1.0019 9.0441
# 3 3.4685 18.9897 31.7518 9.6775 -10.2407 -0.8400
# 4 -5.1088 -18.7331 9.6775 33.5227 8.0906 -4.0210
# 5 7.9817 1.0019 -10.2407 8.0906 34.0322 -0.6461
# 6 -0.9598 9.0441 -0.8400 -4.0210 -0.6461 33.1805
#
#
#
# Elastic Compliance Matrix: (Units=1/GPa)
#
#
# Indices 1 2 3 4 5 6 
#
# 1 0.010829 -0.004649 0.001256 -0.000689 -0.001833 0.001493
# 2 -0.004649 0.011092 -0.010563 0.009386 -0.004691 -0.002379
# 3 0.001256 -0.010563 0.052821 -0.026124 0.022150 0.001518
# 4 -0.000689 0.009386 -0.026124 0.047403 -0.019205 0.002131
# 5 -0.001833 -0.004691 0.022150 -0.019205 0.041188 0.000261
# 6 0.001493 -0.002379 0.001518 0.002131 0.000261 0.031132
#
#
# Mechanical properties :
#
#
# Convention : Reuss Voigt Hill
#
# Bulk Modulus (GPa) = 21.35397 52.13879 36.74638
# Shear Modulus (GPa) = 21.00958 34.78959 27.89959
#
# Velocity S-wave (km/s) = 3.07951 3.96275 3.54872
# Velocity P-wave (km/s) = 4.72052 6.66877 5.77736
#
# Compressibility (1/GPa) = 0.04682970
#
# Stress axis : x y z
#
# Youngs Moduli (GPa) = 92.34333 90.15327 18.93196
#
# Poissons Ratio (x) = 0.41912 -0.02377
# Poissons Ratio (y) = 0.42930 0.19998
# Poissons Ratio (z) = -0.11595 0.95228
#
# Static dielectric constant tensor:
#      x y z
#    x 4.020580 0.127270 -0.131200 
#    y 0.127270 4.560440 -0.015570 
#    z -0.131200 -0.015570 4.157240 
# 
# 
# High freq. dielectric constant tensor:
#      x y z
#    x 1.870820 0.008530 -0.004530 
#    y 0.008530 1.895580 -0.006070 
#    z -0.004530 -0.006070 1.860020 
# 
# From -- ./inp_files/534382.got.cif
#   From: 2010.06.25/outbox.cif.g09.slc.cpg/sg2_268_cif.got.tgz:534382.got - 2010.06.27 13:26:56.
