data_PCOD8017054
_publ_section_title
;
Structure prediction by ZEFSAII (Michael W. Deem and Ramdas Pophale) SiO2 
 PCOD8017054
Probable space group: P -1
;
_chemical_formula_sum "Si O2"
_cell_formula_units_Z 14
_cell_length_a 11.510410
_cell_length_b 11.931179
_cell_length_c 11.499545
_cell_angle_alpha 155.880175
_cell_angle_beta 61.778831
_cell_angle_gamma 115.911681
_cell_volume 568.581891
_symmetry_space_group_name_H-M "P -1"
_symmetry_group_IT_number 2
_symmetry_cell_setting 'triclinic'
loop_
_space_group_symop_operation_xyz
x,y,z
-x,-y,-z
loop_
_atom_site_type_symbol
_atom_site_label
_atom_site_fract_x
_atom_site_fract_y
_atom_site_fract_z
Si Si1 0.455260 0.563494 0.395704
Si Si2 0.900403 0.873616 0.210830
Si Si3 0.845563 0.304498 0.812979
Si Si4 0.654759 0.787967 0.693136
Si Si5 0.432425 0.716268 0.132271
Si Si6 0.169567 0.694967 0.913737
Si Si7 0.663268 0.148505 0.458191
O O1 0.539402 0.764253 0.629633
O O2 0.410109 0.288905 0.224646
O O3 0.323624 0.698947 0.529109
O O4 0.545764 0.519674 0.197253
O O5 0.037235 0.793430 0.003460
O O6 0.941967 0.101292 0.504920
O O7 0.801311 0.013440 0.298331
O O8 0.834258 0.601402 0.038945
O O9 0.702967 0.147666 0.721675
O O10 0.886038 0.338783 0.960252
O O11 0.705884 0.100201 0.967422
O O12 0.779481 0.595882 0.428597
O O13 0.394208 0.639009 0.212987
O O14 0.554356 0.919091 0.267981
#
# Coordination Sequence:
#
# PCOD8017054 Si02
#       7
#     2   2   2   2   2   2   2
#     4  11  24  43  66  98 131 171 217 285 315 397
#     4  11  25  40  65  97 135 170 220 259 337 388
#     4  11  22  39  66  99 129 171 211 278 329 386
#     4  11  27  42  72  94 128 178 230 260 334 368
#     4  10  22  37  67  96 133 160 217 265 345 376
#     4  12  23  46  64  95 132 177 221 274 308 399
#     4  10  24  39  66 101 133 174 206 276 334 401
#
# _framework density 24.622662999999999
#
# number of rings (size 3 to 8) (size 9 to 14) (size 15 to 20)
#    0.000    1.143    1.429    3.857   12.000    1.143 
#    0.000    1.429    0.000    0.000    0.000    0.000 
#    0.000    0.000    0.000    0.000    0.000    0.000 
#
# Total GULP energy -173471.056680 kJ/mol
# GULP energy per Si atom -12390.789763 kJ/mol
# Density = 2.456662 g / cm^3
# Si number density = 24.622663 Si / 1000 Ang^3
#
#
#
# Elastic Constant Matrix: (Units=GPa)
#
#
# Indices 1 2 3 4 5 6 
#
# 1 113.0805 37.7924 16.9751 -18.5456 -16.4764 -15.5431
# 2 37.7924 68.8884 9.6584 6.0146 -12.2159 -12.6635
# 3 16.9751 9.6584 63.0026 3.3719 -10.8710 -7.2807
# 4 -18.5456 6.0146 3.3719 26.2953 9.3610 -0.9064
# 5 -16.4764 -12.2159 -10.8710 9.3610 27.3106 1.2833
# 6 -15.5431 -12.6635 -7.2807 -0.9064 1.2833 32.1022
#
#
#
# Elastic Compliance Matrix: (Units=1/GPa)
#
#
# Indices 1 2 3 4 5 6 
#
# 1 0.014510 -0.008124 -0.003060 0.012843 -0.000665 0.003516
# 2 -0.008124 0.022805 0.001920 -0.014936 0.010965 0.004638
# 3 -0.003060 0.001920 0.018754 -0.008153 0.009135 0.002934
# 4 0.012843 -0.014936 -0.008153 0.059659 -0.022677 0.001068
# 5 -0.000665 0.010965 0.009135 -0.022677 0.052371 0.003341
# 6 0.003516 0.004638 0.002934 0.001068 0.003341 0.035244
#
#
# Mechanical properties :
#
#
# Convention : Reuss Voigt Hill
#
# Bulk Modulus (GPa) = 26.63704 41.53590 34.08647
# Shear Modulus (GPa) = 21.33234 29.17798 25.25516
#
# Velocity S-wave (km/s) = 2.94661 3.44612 3.20611
# Velocity P-wave (km/s) = 4.73479 5.72188 5.25158
#
# Compressibility (1/GPa) = 0.03754171
#
# Stress axis : x y z
#
# Youngs Moduli (GPa) = 68.91611 43.84978 53.32201
#
# Poissons Ratio (x) = 0.35625 0.16316
# Poissons Ratio (y) = 0.55990 -0.10239
# Poissons Ratio (z) = 0.21088 -0.08420
#
# Static dielectric constant tensor:
#      x y z
#    x 4.749980 -0.299090 -0.117710 
#    y -0.299090 4.302280 -0.083780 
#    z -0.117710 -0.083780 4.399870 
# 
# 
# High freq. dielectric constant tensor:
#      x y z
#    x 1.995250 -0.007790 -0.011700 
#    y -0.007790 1.951040 0.006460 
#    z -0.011700 0.006460 1.980880 
# 
# From -- ./inp_files/429208.got.cif
#   From: 2010.06.25/outbox.cif.g09.slc.cpg/sg2_215_cif.got.tgz:429208.got - 2010.06.27 13:26:56.
