data_PCOD8017018
_publ_section_title
;
Structure prediction by ZEFSAII (Michael W. Deem and Ramdas Pophale) SiO2 
 PCOD8017018
Probable space group: P -1
;
_chemical_formula_sum "Si O2"
_cell_formula_units_Z 16
_cell_length_a 12.346280
_cell_length_b 9.138031
_cell_length_c 18.051850
_cell_angle_alpha 66.686832
_cell_angle_beta 150.111510
_cell_angle_gamma 126.117538
_cell_volume 785.483774
_symmetry_space_group_name_H-M "P -1"
_symmetry_group_IT_number 2
_symmetry_cell_setting 'triclinic'
loop_
_space_group_symop_operation_xyz
x,y,z
-x,-y,-z
loop_
_atom_site_type_symbol
_atom_site_label
_atom_site_fract_x
_atom_site_fract_y
_atom_site_fract_z
Si Si1 0.819941 0.113772 0.241653
Si Si2 0.716908 0.572267 0.459160
Si Si3 0.743367 0.009397 0.058301
Si Si4 0.772704 0.674420 0.153898
Si Si5 0.668966 0.709351 0.253661
Si Si6 0.877407 0.384671 0.023340
Si Si7 0.330324 0.776416 0.429161
Si Si8 0.623131 0.408167 0.638853
O O1 0.906664 0.111187 0.209560
O O2 0.015824 0.303284 0.363624
O O3 0.786379 0.929258 0.299150
O O4 0.560839 0.114816 0.080675
O O5 0.755509 0.614926 0.385908
O O6 0.601102 0.349330 0.451899
O O7 0.527555 0.641249 0.361944
O O8 0.802110 0.171552 0.001634
O O9 0.818519 0.864388 0.103913
O O10 0.766315 0.684904 0.237236
O O11 0.022754 0.674781 0.277393
O O12 0.500000 0.500000 0.000000
O O13 0.359453 0.602576 0.091292
O O14 0.074195 0.457369 0.193850
O O15 0.000000 0.500000 0.000000
O O16 0.406069 0.765139 0.391227
O O17 0.500000 0.000000 0.500000
O O18 0.500000 0.500000 0.500000
#
# Coordination Sequence:
#
# PCOD8017018 Si02
#       8
#     2   2   2   2   2   2   2   2
#     4   9  18  35  60  93 115 150 212 260 302 363
#     4  11  21  39  64  90 124 160 203 267 313 361
#     4   9  19  34  61  86 118 161 205 255 301 364
#     4  11  23  41  63  83 125 172 208 248 308 390
#     4  10  22  37  64  94 119 159 208 261 318 362
#     4  11  20  37  61  96 124 150 206 267 310 358
#     4  11  26  40  60  92 127 166 213 251 308 382
#     4  10  22  38  64  87 118 164 207 252 307 364
#
# _framework density 20.369612
#
# number of rings (size 3 to 8) (size 9 to 14) (size 15 to 20)
#    0.000    1.750    1.250    4.125    7.000    0.500 
#    0.000    1.250    0.000    3.000    0.000    0.000 
#    0.000    0.000    0.000    0.000    0.000    0.000 
#
# Total GULP energy -198247.975216 kJ/mol
# GULP energy per Si atom -12390.498451 kJ/mol
# Density = 2.032325 g / cm^3
# Si number density = 20.369612 Si / 1000 Ang^3
#
#
#
# Elastic Constant Matrix: (Units=GPa)
#
#
# Indices 1 2 3 4 5 6 
#
# 1 87.6116 41.9914 23.3268 -4.4596 8.3688 -6.4789
# 2 41.9914 120.8701 34.0918 -0.9953 -9.7736 0.0993
# 3 23.3268 34.0918 96.1194 9.4491 1.0552 -4.9841
# 4 -4.4596 -0.9953 9.4491 32.6658 0.1424 -1.7297
# 5 8.3688 -9.7736 1.0552 0.1424 26.6758 -1.9903
# 6 -6.4789 0.0993 -4.9841 -1.7297 -1.9903 31.1896
#
#
#
# Elastic Compliance Matrix: (Units=1/GPa)
#
#
# Indices 1 2 3 4 5 6 
#
# 1 0.015434 -0.005333 -0.001907 0.002665 -0.006537 0.002649
# 2 -0.005333 0.011431 -0.002925 0.000376 0.005884 -0.001215
# 3 -0.001907 -0.002925 0.012360 -0.003851 -0.000843 0.001321
# 4 0.002665 0.000376 -0.003851 0.032194 -0.000592 0.001685
# 5 -0.006537 0.005884 -0.000843 -0.000592 0.041814 0.001124
# 6 0.002649 -0.001215 0.001321 0.001685 0.001124 0.032992
#
#
# Mechanical properties :
#
#
# Convention : Reuss Voigt Hill
#
# Bulk Modulus (GPa) = 52.92174 55.93566 54.42870
# Shear Modulus (GPa) = 28.92637 31.78564 30.35600
#
# Velocity S-wave (km/s) = 3.77248 3.95453 3.86458
# Velocity P-wave (km/s) = 6.70914 6.95493 6.83314
#
# Compressibility (1/GPa) = 0.01889583
#
# Stress axis : x y z
#
# Youngs Moduli (GPa) = 64.79359 87.48305 80.90479
#
# Poissons Ratio (x) = 0.46652 0.15428
# Poissons Ratio (y) = 0.34553 0.23662
# Poissons Ratio (z) = 0.12356 0.25586
#
# Static dielectric constant tensor:
#      x y z
#    x 3.904910 0.052810 0.131350 
#    y 0.052810 3.722680 -0.017590 
#    z 0.131350 -0.017590 3.762280 
# 
# 
# High freq. dielectric constant tensor:
#      x y z
#    x 1.778460 0.007540 0.010180 
#    y 0.007540 1.793250 -0.000310 
#    z 0.010180 -0.000310 1.800750 
# 
# From -- ./inp_files/392865.got.cif
#   From: 2010.06.25/outbox.cif.g09.slc.cpg/sg2_197_cif.got.tgz:392865.got - 2010.06.27 13:26:56.
