data_PCOD8017787
_publ_section_title
;
Structure prediction by ZEFSAII (Michael W. Deem and Ramdas Pophale) SiO2 
 PCOD8017787
Probable space group: P -1
;
_chemical_formula_sum "Si O2"
_cell_formula_units_Z 16
_cell_length_a 19.168596
_cell_length_b 8.538885
_cell_length_c 12.418426
_cell_angle_alpha 46.677955
_cell_angle_beta 49.459113
_cell_angle_gamma 30.975433
_cell_volume 750.654550
_symmetry_space_group_name_H-M "P -1"
_symmetry_group_IT_number 2
_symmetry_cell_setting 'triclinic'
loop_
_space_group_symop_operation_xyz
x,y,z
-x,-y,-z
loop_
_atom_site_type_symbol
_atom_site_label
_atom_site_fract_x
_atom_site_fract_y
_atom_site_fract_z
Si Si1 0.972413 0.693681 0.183873
Si Si2 0.755642 0.914178 0.435071
Si Si3 0.792357 0.151408 0.965381
Si Si4 0.508479 0.902199 0.418121
Si Si5 0.503575 0.730343 0.931056
Si Si6 0.794881 0.734878 0.009452
Si Si7 0.215646 0.703249 0.670385
Si Si8 0.070027 0.688524 0.315356
O O1 0.864031 0.696811 0.329436
O O2 0.031784 0.717598 0.214854
O O3 0.098988 0.378402 0.136050
O O4 0.880836 0.009590 0.051845
O O5 0.831280 0.674670 0.574102
O O6 0.606566 0.079359 0.485261
O O7 0.731738 0.210898 0.337024
O O8 0.636511 0.504819 0.981801
O O9 0.851995 0.222036 0.788941
O O10 0.799034 0.903234 0.021780
O O11 0.662247 0.539025 0.423261
O O12 0.500000 0.000000 0.500000
O O13 0.481754 0.131495 0.248560
O O14 0.359498 0.018881 0.001678
O O15 0.500000 0.500000 0.000000
O O16 0.831677 0.436934 0.160074
O O17 0.074225 0.044937 0.598711
#
# Coordination Sequence:
#
# PCOD8017787 Si02
#       8
#     2   2   2   2   2   2   2   2
#     4  11  23  39  66  94 123 169 220 250 316 390
#     4  11  25  44  64  92 134 171 205 265 322 375
#     4  11  21  40  67  90 129 166 209 269 317 366
#     4  11  24  43  67  96 125 168 219 254 321 387
#     4   9  21  42  61  88 131 158 199 267 317 359
#     4  10  22  39  65  97 124 165 216 266 311 371
#     4  10  22  42  66  89 132 168 208 265 312 374
#     4  11  23  44  62  94 131 168 212 265 317 375
#
# _framework density 21.314730999999998
#
# number of rings (size 3 to 8) (size 9 to 14) (size 15 to 20)
#    0.000    1.500    2.500    2.625    7.000    0.000 
#    9.000    4.375    0.000    0.000    0.000    0.000 
#    0.000    0.000    0.000    0.000    0.000    0.000 
#
# Total GULP energy -198217.846360 kJ/mol
# GULP energy per Si atom -12388.615398 kJ/mol
# Density = 2.126622 g / cm^3
# Si number density = 21.314731 Si / 1000 Ang^3
#
#
#
# Elastic Constant Matrix: (Units=GPa)
#
#
# Indices 1 2 3 4 5 6 
#
# 1 61.0423 36.0024 31.1665 5.9134 -9.6273 -3.9659
# 2 36.0024 110.2172 31.9923 18.9376 12.7918 -15.2080
# 3 31.1665 31.9923 86.0559 13.5394 -11.8676 5.1041
# 4 5.9134 18.9376 13.5394 40.0869 -1.8498 -11.0362
# 5 -9.6273 12.7918 -11.8676 -1.8498 40.9739 -4.6996
# 6 -3.9659 -15.2080 5.1041 -11.0362 -4.6996 34.4659
#
#
#
# Elastic Compliance Matrix: (Units=1/GPa)
#
#
# Indices 1 2 3 4 5 6 
#
# 1 0.024604 -0.007279 -0.005837 0.002718 0.006746 0.002274
# 2 -0.007279 0.014398 -0.003282 -0.003887 -0.006893 0.003817
# 3 -0.005837 -0.003282 0.016486 -0.004510 0.003592 -0.005515
# 4 0.002718 -0.003887 -0.004510 0.030657 0.003019 0.009494
# 5 0.006746 -0.006893 0.003592 0.003019 0.029572 0.002202
# 6 0.002274 0.003817 -0.005515 0.009494 0.002202 0.035117
#
#
# Mechanical properties :
#
#
# Convention : Reuss Voigt Hill
#
# Bulk Modulus (GPa) = 44.06685 50.62640 47.34662
# Shear Modulus (GPa) = 26.15156 33.64894 29.90025
#
# Velocity S-wave (km/s) = 3.50655 3.97756 3.74946
# Velocity P-wave (km/s) = 6.09211 6.70060 6.40358
#
# Compressibility (1/GPa) = 0.02269280
#
# Stress axis : x y z
#
# Youngs Moduli (GPa) = 40.64453 69.45520 60.65640
#
# Poissons Ratio (x) = 0.50555 0.35404
# Poissons Ratio (y) = 0.29584 0.19907
# Poissons Ratio (z) = 0.23723 0.22795
#
# Static dielectric constant tensor:
#      x y z
#    x 3.969910 -0.614720 -0.360510 
#    y -0.614720 4.555390 0.056230 
#    z -0.360510 0.056230 3.853730 
# 
# 
# High freq. dielectric constant tensor:
#      x y z
#    x 1.829080 -0.024260 -0.032760 
#    y -0.024260 1.849830 -0.000450 
#    z -0.032760 -0.000450 1.825720 
# 
# From -- ./inp_files/469227.got.cif
#   From: 2010.06.25/outbox.cif.g09.slc.cpg/sg2_235_cif.got.tgz:469227.got - 2010.06.27 13:26:56.
