data_PCOD8017210
_publ_section_title
;
Structure prediction by ZEFSAII (Michael W. Deem and Ramdas Pophale) SiO2 
 PCOD8017210
Probable space group: P -1
;
_chemical_formula_sum "Si O2"
_cell_formula_units_Z 12
_cell_length_a 19.257010
_cell_length_b 12.491895
_cell_length_c 22.106696
_cell_angle_alpha 20.001459
_cell_angle_beta 17.548281
_cell_angle_gamma 27.110527
_cell_volume 547.557870
_symmetry_space_group_name_H-M "P -1"
_symmetry_group_IT_number 2
_symmetry_cell_setting 'triclinic'
loop_
_space_group_symop_operation_xyz
x,y,z
-x,-y,-z
loop_
_atom_site_type_symbol
_atom_site_label
_atom_site_fract_x
_atom_site_fract_y
_atom_site_fract_z
Si Si1 0.708265 0.470715 0.797832
Si Si2 0.816228 0.365082 0.360275
Si Si3 0.623988 0.631692 0.647492
Si Si4 0.869893 0.147003 0.086602
Si Si5 0.085671 0.895046 0.325376
Si Si6 0.700447 0.780454 0.128248
O O1 0.664676 0.643401 0.679296
O O2 0.935786 0.633277 0.551554
O O3 0.500000 0.500000 0.000000
O O4 0.740422 0.103342 0.960021
O O5 0.786657 0.499061 0.246079
O O6 0.564188 0.279221 0.641224
O O7 0.951963 0.041661 0.414736
O O8 0.945693 0.605468 0.169606
O O9 0.353346 0.672731 0.842852
O O10 0.688576 0.294650 0.743931
O O11 0.788241 0.893365 0.339070
O O12 0.000000 0.000000 0.000000
O O13 0.156680 0.195541 0.065195
#
# Coordination Sequence:
#
# PCOD8017210 Si02
#       6
#     2   2   2   2   2   2
#     4  11  21  40  70  97 128 167 209 266 321 379
#     4  11  23  39  62  97 129 167 210 263 326 373
#     4  10  25  43  66  96 123 175 220 254 323 381
#     4  11  26  45  66  89 131 177 216 263 311 388
#     4  11  22  40  66  94 131 159 213 274 314 378
#     4  10  22  38  63 100 128 164 209 263 329 375
#
# _framework density 21.915490999999999
#
# number of rings (size 3 to 8) (size 9 to 14) (size 15 to 20)
#    0.000    1.333    1.667    4.500    4.667    3.333 
#    0.000    5.833    0.000    0.000    0.000    0.000 
#    0.000    0.000    0.000    0.000    0.000    0.000 
#
# Total GULP energy -148769.479556 kJ/mol
# GULP energy per Si atom -12397.456630 kJ/mol
# Density = 2.186561 g / cm^3
# Si number density = 21.915491 Si / 1000 Ang^3
#
#
#
# Elastic Constant Matrix: (Units=GPa)
#
#
# Indices 1 2 3 4 5 6 
#
# 1 69.0537 51.1295 34.0316 7.5188 -6.1948 9.5676
# 2 51.1295 145.1825 40.0254 18.8851 -11.7748 -0.0595
# 3 34.0316 40.0254 125.6059 15.8490 -15.1545 6.5223
# 4 7.5188 18.8851 15.8490 31.0973 1.4377 -0.2978
# 5 -6.1948 -11.7748 -15.1545 1.4377 39.3063 -5.9910
# 6 9.5676 -0.0595 6.5223 -0.2978 -5.9910 23.2437
#
#
#
# Elastic Compliance Matrix: (Units=1/GPa)
#
#
# Indices 1 2 3 4 5 6 
#
# 1 0.022564 -0.007148 -0.003639 0.000719 -0.001328 -0.008618
# 2 -0.007148 0.010359 -0.000728 -0.004268 0.002423 0.003743
# 3 -0.003639 -0.000728 0.010091 -0.003973 0.003157 -0.000573
# 4 0.000719 -0.004268 -0.003973 0.036787 -0.004005 0.000247
# 5 -0.001328 0.002423 0.003157 -0.004005 0.028378 0.006930
# 6 -0.008618 0.003743 -0.000573 0.000247 0.006930 0.048529
#
#
# Mechanical properties :
#
#
# Convention : Reuss Voigt Hill
#
# Bulk Modulus (GPa) = 50.03889 65.57944 57.80916
# Shear Modulus (GPa) = 26.82396 33.03983 29.93189
#
# Velocity S-wave (km/s) = 3.50233 3.88700 3.69966
# Velocity P-wave (km/s) = 6.26397 7.08052 6.68472
#
# Compressibility (1/GPa) = 0.01998446
#
# Stress axis : x y z
#
# Youngs Moduli (GPa) = 44.31797 96.53392 99.09560
#
# Poissons Ratio (x) = 0.69002 0.36063
# Poissons Ratio (y) = 0.31678 0.07213
# Poissons Ratio (z) = 0.16128 0.07026
#
# Static dielectric constant tensor:
#      x y z
#    x 4.043940 -0.246130 -0.024690 
#    y -0.246130 4.235040 0.237900 
#    z -0.024690 0.237900 4.269980 
# 
# 
# High freq. dielectric constant tensor:
#      x y z
#    x 1.835790 -0.004280 0.007160 
#    y -0.004280 1.882450 0.012730 
#    z 0.007160 0.012730 1.878640 
# 
# From -- ./inp_files/175954.got.cif
#   From: 2010.06.25/outbox.cif.g09.slc.cpg/sg2_88_cif.got.tgz:175954.got - 2010.06.27 13:26:56.
