data_PCOD8017485
_publ_section_title
;
Structure prediction by ZEFSAII (Michael W. Deem and Ramdas Pophale) SiO2 
 PCOD8017485
Probable space group: P -1
;
_chemical_formula_sum "Si O2"
_cell_formula_units_Z 16
_cell_length_a 11.055148
_cell_length_b 11.684451
_cell_length_c 11.059867
_cell_angle_alpha 76.758455
_cell_angle_beta 113.394165
_cell_angle_gamma 145.319801
_cell_volume 732.959098
_symmetry_space_group_name_H-M "P -1"
_symmetry_group_IT_number 2
_symmetry_cell_setting 'triclinic'
loop_
_space_group_symop_operation_xyz
x,y,z
-x,-y,-z
loop_
_atom_site_type_symbol
_atom_site_label
_atom_site_fract_x
_atom_site_fract_y
_atom_site_fract_z
Si Si1 0.007346 0.144757 0.985008
Si Si2 0.871155 0.988962 0.211694
Si Si3 0.960452 0.305706 0.520892
Si Si4 0.054247 0.347317 0.284394
Si Si5 0.649328 0.271464 0.323652
Si Si6 0.654945 0.211478 0.073575
Si Si7 0.368614 0.569943 0.135801
Si Si8 0.183156 0.000002 0.301739
O O1 0.255605 0.383070 0.056510
O O2 0.843662 0.045049 0.061420
O O3 0.921017 0.137860 0.827397
O O4 0.000000 0.000000 0.000000
O O5 0.642293 0.747509 0.205629
O O6 0.091975 0.065524 0.269313
O O7 0.917089 0.122755 0.296163
O O8 0.108450 0.415952 0.428511
O O9 0.120497 0.480981 0.644441
O O10 0.720592 0.200016 0.431593
O O11 0.891983 0.126418 0.579773
O O12 0.282737 0.501627 0.257023
O O13 0.905089 0.340297 0.165328
O O14 0.557594 0.183541 0.172018
O O15 0.456494 0.197188 0.344127
O O16 0.684642 0.342443 0.963660
O O17 0.500000 0.000000 0.000000
#
# Coordination Sequence:
#
# PCOD8017485 Si02
#       8
#     2   2   2   2   2   2   2   2
#     4   9  21  37  59  92 128 161 206 254 312 378
#     4  10  22  39  60  95 127 162 212 260 314 378
#     4  10  23  43  61  89 123 165 217 255 307 378
#     4  10  23  41  60  93 128 164 215 259 306 378
#     4  10  23  42  62  90 124 158 207 269 313 372
#     4  11  21  40  68  95 125 159 209 267 318 377
#     4  11  21  38  63  92 130 167 205 259 327 366
#     4  11  22  38  64  87 122 168 205 256 317 372
#
# _framework density 21.829321
#
# number of rings (size 3 to 8) (size 9 to 14) (size 15 to 20)
#    0.000    1.750    1.250    2.250    1.750    6.500 
#    6.750    1.250    0.000    0.000    0.000    0.000 
#    0.000    0.000    0.000    0.000    0.000    0.000 
#
# Total GULP energy -198308.347276 kJ/mol
# GULP energy per Si atom -12394.271705 kJ/mol
# Density = 2.177964 g / cm^3
# Si number density = 21.829321 Si / 1000 Ang^3
#
#
#
# Elastic Constant Matrix: (Units=GPa)
#
#
# Indices 1 2 3 4 5 6 
#
# 1 98.5905 34.3224 31.8320 0.1523 1.1866 2.5973
# 2 34.3224 111.5600 31.2692 -0.8322 -3.0804 -3.5856
# 3 31.8320 31.2692 84.4642 -2.9972 -2.7424 4.5220
# 4 0.1523 -0.8322 -2.9972 29.3028 -5.1004 -1.6176
# 5 1.1866 -3.0804 -2.7424 -5.1004 26.8945 1.1586
# 6 2.5973 -3.5856 4.5220 -1.6176 1.1586 39.5100
#
#
#
# Elastic Compliance Matrix: (Units=1/GPa)
#
#
# Indices 1 2 3 4 5 6 
#
# 1 0.012341 -0.002842 -0.003637 -0.000790 -0.001363 -0.000645
# 2 -0.002842 0.010741 -0.002941 0.000283 0.001046 0.001479
# 3 -0.003637 -0.002941 0.014500 0.001619 0.001681 -0.001670
# 4 -0.000790 0.000283 0.001619 0.035574 0.006929 0.001146
# 5 -0.001363 0.001046 0.001681 0.006929 0.038885 -0.000864
# 6 -0.000645 0.001479 -0.001670 0.001146 -0.000864 0.025750
#
#
# Mechanical properties :
#
#
# Convention : Reuss Voigt Hill
#
# Bulk Modulus (GPa) = 53.35072 54.38464 53.86768
# Shear Modulus (GPa) = 30.69814 32.28753 31.49283
#
# Velocity S-wave (km/s) = 3.75411 3.85007 3.80239
# Velocity P-wave (km/s) = 6.57907 6.68817 6.63384
#
# Compressibility (1/GPa) = 0.01874389
#
# Stress axis : x y z
#
# Youngs Moduli (GPa) = 81.03031 93.10295 68.96579
#
# Poissons Ratio (x) = 0.26458 0.25080
# Poissons Ratio (y) = 0.23027 0.20280
# Poissons Ratio (z) = 0.29468 0.27377
#
# Static dielectric constant tensor:
#      x y z
#    x 3.936470 -0.058180 -0.188770 
#    y -0.058180 3.766210 -0.059250 
#    z -0.188770 -0.059250 4.129820 
# 
# 
# High freq. dielectric constant tensor:
#      x y z
#    x 1.858640 -0.004840 -0.007170 
#    y -0.004840 1.846940 -0.003370 
#    z -0.007170 -0.003370 1.855190 
# 
# From -- ./inp_files/428023.got.cif
#   From: 2010.06.25/outbox.cif.g09.slc.cpg/sg2_215_cif.got.tgz:428023.got - 2010.06.27 13:26:56.
