data_PCOD8017688
_publ_section_title
;
Structure prediction by ZEFSAII (Michael W. Deem and Ramdas Pophale) SiO2 
 PCOD8017688
Probable space group: P -1
;
_chemical_formula_sum "Si O2"
_cell_formula_units_Z 16
_cell_length_a 12.456466
_cell_length_b 10.697809
_cell_length_c 9.591552
_cell_angle_alpha 94.572588
_cell_angle_beta 56.378482
_cell_angle_gamma 131.099196
_cell_volume 715.031283
_symmetry_space_group_name_H-M "P -1"
_symmetry_group_IT_number 2
_symmetry_cell_setting 'triclinic'
loop_
_space_group_symop_operation_xyz
x,y,z
-x,-y,-z
loop_
_atom_site_type_symbol
_atom_site_label
_atom_site_fract_x
_atom_site_fract_y
_atom_site_fract_z
Si Si1 0.155237 0.572932 0.714482
Si Si2 0.084328 0.040651 0.597532
Si Si3 0.713611 0.606251 0.336983
Si Si4 0.785223 0.307748 0.611956
Si Si5 0.594218 0.854684 0.069508
Si Si6 0.751015 0.235166 0.056634
Si Si7 0.158613 0.176093 0.995656
Si Si8 0.641628 0.934802 0.737734
O O1 0.270917 0.527509 0.647875
O O2 0.247603 0.713127 0.532061
O O3 0.175852 0.684569 0.834832
O O4 0.929220 0.380743 0.835556
O O5 0.143813 0.212183 0.647740
O O6 0.272042 0.088685 0.449107
O O7 0.000000 0.000000 0.500000
O O8 0.933519 0.857123 0.789698
O O9 0.500000 0.500000 0.500000
O O10 0.767348 0.654936 0.136915
O O11 0.636446 0.300956 0.784617
O O12 0.746095 0.143372 0.687520
O O13 0.000000 0.500000 0.500000
O O14 0.660374 0.785882 0.109238
O O15 0.677542 0.040992 0.092650
O O16 0.677043 0.894505 0.857939
O O17 0.584094 0.211291 0.134009
O O18 0.000000 0.000000 0.000000
#
# Coordination Sequence:
#
# PCOD8017688 Si02
#       8
#     2   2   2   2   2   2   2   2
#     4  11  23  40  64  91 131 162 209 265 315 379
#     4  11  23  41  67  94 126 170 216 262 314 379
#     4  11  24  43  67  93 133 172 211 265 324 377
#     4  11  24  38  63  93 123 167 207 262 327 373
#     4  11  21  41  64  90 129 163 212 263 315 379
#     4  10  22  39  64  91 122 168 207 256 322 374
#     4  10  22  40  66  94 124 172 215 256 324 378
#     4  11  23  40  65  91 128 165 211 260 319 383
#
# _framework density 22.376643999999999
#
# number of rings (size 3 to 8) (size 9 to 14) (size 15 to 20)
#    0.000    1.250    1.250    6.000    1.750    7.000 
#    0.000    1.875    0.000    0.000    0.000    0.000 
#    0.000    0.000    0.000    0.000    0.000    0.000 
#
# Total GULP energy -198381.582817 kJ/mol
# GULP energy per Si atom -12398.848926 kJ/mol
# Density = 2.232571 g / cm^3
# Si number density = 22.376644 Si / 1000 Ang^3
#
#
#
# Elastic Constant Matrix: (Units=GPa)
#
#
# Indices 1 2 3 4 5 6 
#
# 1 91.4547 10.0534 33.2716 -1.3239 -2.6319 9.2839
# 2 10.0534 47.0990 15.6914 -0.8839 -4.1812 16.2870
# 3 33.2716 15.6914 137.2982 2.1379 1.8450 12.6965
# 4 -1.3239 -0.8839 2.1379 32.8198 2.4385 -7.1627
# 5 -2.6319 -4.1812 1.8450 2.4385 52.6543 3.2888
# 6 9.2839 16.2870 12.6965 -7.1627 3.2888 20.0115
#
#
#
# Elastic Compliance Matrix: (Units=1/GPa)
#
#
# Indices 1 2 3 4 5 6 
#
# 1 0.012348 -0.000261 -0.002587 -0.000317 0.000961 -0.004146
# 2 -0.000261 0.031424 -0.000958 -0.005444 0.004488 -0.027533
# 3 -0.002587 -0.000958 0.008403 -0.001506 -0.000189 -0.003859
# 4 -0.000317 -0.005444 -0.001506 0.034672 -0.003154 0.018462
# 5 0.000961 0.004488 -0.000189 -0.003154 0.020074 -0.008406
# 6 -0.004146 -0.027533 -0.003859 0.018462 -0.008406 0.084741
#
#
# Mechanical properties :
#
#
# Convention : Reuss Voigt Hill
#
# Bulk Modulus (GPa) = 22.43967 43.76496 33.10231
# Shear Modulus (GPa) = 23.35062 35.55283 29.45173
#
# Velocity S-wave (km/s) = 3.23387 3.99035 3.63186
# Velocity P-wave (km/s) = 4.89835 6.38993 5.69320
#
# Compressibility (1/GPa) = 0.04456394
#
# Stress axis : x y z
#
# Youngs Moduli (GPa) = 80.98335 31.82301 119.00962
#
# Poissons Ratio (x) = 0.00829 0.30789
# Poissons Ratio (y) = 0.02111 0.11397
# Poissons Ratio (z) = 0.20951 0.03047
#
# Static dielectric constant tensor:
#      x y z
#    x 4.115530 0.115940 0.061800 
#    y 0.115940 3.765320 -0.132500 
#    z 0.061800 -0.132500 4.797660 
# 
# 
# High freq. dielectric constant tensor:
#      x y z
#    x 1.890910 0.015570 -0.003110 
#    y 0.015570 1.852760 -0.002750 
#    z -0.003110 -0.002750 1.906060 
# 
# From -- ./inp_files/262518.got.cif
#   From: 2010.06.25/outbox.cif.g09.slc.cpg/sg2_132_cif.got.tgz:262518.got - 2010.06.27 13:26:56.
