data_PCOD8017444
_publ_section_title
;
Structure prediction by ZEFSAII (Michael W. Deem and Ramdas Pophale) SiO2 
 PCOD8017444
Probable space group: P -1
;
_chemical_formula_sum "Si O2"
_cell_formula_units_Z 16
_cell_length_a 5.133886
_cell_length_b 25.459741
_cell_length_c 5.622360
_cell_angle_alpha 126.818290
_cell_angle_beta 88.240622
_cell_angle_gamma 92.966696
_cell_volume 587.515701
_symmetry_space_group_name_H-M "P -1"
_symmetry_group_IT_number 2
_symmetry_cell_setting 'triclinic'
loop_
_space_group_symop_operation_xyz
x,y,z
-x,-y,-z
loop_
_atom_site_type_symbol
_atom_site_label
_atom_site_fract_x
_atom_site_fract_y
_atom_site_fract_z
Si Si1 0.815337 0.218527 0.683957
Si Si2 0.779216 0.009531 0.342681
Si Si3 0.586521 0.756059 0.628826
Si Si4 0.518263 0.871420 0.244829
Si Si5 0.010957 0.422904 0.774900
Si Si6 0.892719 0.897197 0.730483
Si Si7 0.488096 0.637569 0.613656
Si Si8 0.130266 0.335638 0.925383
O O1 0.579231 0.242835 0.603075
O O2 0.737465 0.172307 0.786662
O O3 0.988591 0.171870 0.377674
O O4 0.954321 0.286824 0.969820
O O5 0.548607 0.051227 0.591531
O O6 0.871571 0.053524 0.233305
O O7 0.000000 0.000000 0.500000
O O8 0.721236 0.935539 0.038276
O O9 0.461004 0.712964 0.732658
O O10 0.833577 0.715291 0.433709
O O11 0.641755 0.832159 0.913412
O O12 0.718420 0.872806 0.453370
O O13 0.303948 0.403483 0.650792
O O14 0.965909 0.393339 0.964141
O O15 0.799049 0.397789 0.512656
O O16 0.000000 0.500000 0.000000
O O17 0.602172 0.637751 0.881717
#
# Coordination Sequence:
#
# PCOD8017444 Si02
#       8
#     2   2   2   2   2   2   2   2
#     4  11  22  40  64  93 134 175 231 288 358 422
#     4  10  22  40  61  86 126 172 220 285 357 423
#     4  11  23  40  63 100 136 178 232 290 358 419
#     4  11  24  39  65  94 130 173 231 288 357 421
#     4  11  26  48  75 112 150 192 244 296 357 431
#     4  10  22  39  59  92 124 169 227 285 351 429
#     4  11  25  44  75 105 149 191 242 297 359 428
#     4  11  26  44  71 102 146 187 236 294 358 426
#
# _framework density 27.233314
#
# number of rings (size 3 to 8) (size 9 to 14) (size 15 to 20)
#    0.000    1.250    1.250    3.750    3.500    5.500 
#    0.000    0.000    0.000    0.000    0.000    0.000 
#    0.000    0.000    0.000    0.000    0.000    0.000 
#
# Total GULP energy -198242.471269 kJ/mol
# GULP energy per Si atom -12390.154454 kJ/mol
# Density = 2.717133 g / cm^3
# Si number density = 27.233314 Si / 1000 Ang^3
#
#
#
# Elastic Constant Matrix: (Units=GPa)
#
#
# Indices 1 2 3 4 5 6 
#
# 1 48.6912 12.4816 4.0830 9.9704 15.9833 -15.2683
# 2 12.4816 159.8792 44.3173 48.9708 10.1811 -13.4624
# 3 4.0830 44.3173 119.9177 28.2200 18.2282 -6.6942
# 4 9.9704 48.9708 28.2200 55.3219 -7.2026 5.6874
# 5 15.9833 10.1811 18.2282 -7.2026 50.2515 3.0180
# 6 -15.2683 -13.4624 -6.6942 5.6874 3.0180 36.5454
#
#
#
# Elastic Compliance Matrix: (Units=1/GPa)
#
#
# Indices 1 2 3 4 5 6 
#
# 1 0.034807 0.003846 0.005134 -0.016709 -0.017364 0.020934
# 2 0.003846 0.010458 -0.000058 -0.011415 -0.005418 0.007673
# 3 0.005134 -0.000058 0.011638 -0.008412 -0.007419 0.006177
# 4 -0.016709 -0.011415 -0.008412 0.039873 0.017618 -0.020387
# 5 -0.017364 -0.005418 -0.007419 0.017618 0.032701 -0.016052
# 6 0.020934 0.007673 0.006177 -0.020387 -0.016052 0.044565
#
#
# Mechanical properties :
#
#
# Convention : Reuss Voigt Hill
#
# Bulk Modulus (GPa) = 13.37843 50.02799 31.70321
# Shear Modulus (GPa) = 27.60702 46.26418 36.93560
#
# Velocity S-wave (km/s) = 3.18735 4.12613 3.68675
# Velocity P-wave (km/s) = 4.29754 6.41171 5.45797
#
# Compressibility (1/GPa) = 0.07474717
#
# Stress axis : x y z
#
# Youngs Moduli (GPa) = 28.72988 95.61989 85.92819
#
# Poissons Ratio (x) = -0.36776 -0.44113
# Poissons Ratio (y) = -0.11050 0.00495
# Poissons Ratio (z) = -0.14749 0.00551
#
# Static dielectric constant tensor:
#      x y z
#    x 5.490980 0.119750 -0.801020 
#    y 0.119750 5.416950 0.397110 
#    z -0.801020 0.397110 5.538930 
# 
# 
# High freq. dielectric constant tensor:
#      x y z
#    x 2.094500 0.003170 -0.021140 
#    y 0.003170 2.111040 0.016250 
#    z -0.021140 0.016250 2.103240 
# 
# From -- ./inp_files/10973.got.cif
#   From: 2010.06.25/outbox.cif.g09.slc.cpg/sg2_6_cif.got.tgz:10973.got - 2010.06.27 13:26:56.
