data_PCOD8017833
_publ_section_title
;
Structure prediction by ZEFSAII (Michael W. Deem and Ramdas Pophale) SiO2 
 PCOD8017833
Probable space group: P -1
;
_chemical_formula_sum "Si O2"
_cell_formula_units_Z 14
_cell_length_a 9.254043
_cell_length_b 10.296740
_cell_length_c 11.341026
_cell_angle_alpha 116.756784
_cell_angle_beta 139.918266
_cell_angle_gamma 72.779707
_cell_volume 619.096318
_symmetry_space_group_name_H-M "P -1"
_symmetry_group_IT_number 2
_symmetry_cell_setting 'triclinic'
loop_
_space_group_symop_operation_xyz
x,y,z
-x,-y,-z
loop_
_atom_site_type_symbol
_atom_site_label
_atom_site_fract_x
_atom_site_fract_y
_atom_site_fract_z
Si Si1 0.969393 0.829717 0.434379
Si Si2 0.585639 0.335674 0.617041
Si Si3 0.135107 0.643419 0.788199
Si Si4 0.812853 0.632879 0.786820
Si Si5 0.001678 0.182983 0.810293
Si Si6 0.714595 0.621656 0.345529
Si Si7 0.265429 0.909967 0.844176
O O1 0.954061 0.749864 0.266173
O O2 0.751163 0.768527 0.348521
O O3 0.192470 0.805339 0.642789
O O4 0.000000 0.000000 0.500000
O O5 0.741826 0.467742 0.711517
O O6 0.374700 0.296933 0.382508
O O7 0.512529 0.377667 0.720588
O O8 0.734693 0.197008 0.669693
O O9 0.297137 0.516631 0.807074
O O10 0.275539 0.800473 0.916314
O O11 0.051397 0.637318 0.868785
O O12 0.914733 0.615922 0.560423
O O13 0.842363 0.726554 0.961992
O O14 0.066790 0.016181 0.789421
O O15 0.500000 0.000000 0.000000
#
# Coordination Sequence:
#
# PCOD8017833 Si02
#       7
#     2   2   2   2   2   2   2
#     4   9  20  41  62  89 129 163 207 262 310 374
#     4  10  22  39  66  96 128 165 207 260 327 372
#     4   9  19  39  63  92 125 164 218 255 308 380
#     4  10  22  40  63  95 130 168 201 262 327 373
#     4  11  23  40  63  92 130 163 210 263 312 380
#     4   9  18  37  67  91 121 167 210 261 311 374
#     4  10  23  40  66  91 124 172 216 259 316 371
#
# _framework density 22.613603999999999
#
# number of rings (size 3 to 8) (size 9 to 14) (size 15 to 20)
#    0.000    2.286    0.000    1.286    4.000    2.857 
#    5.143   12.857    0.000    0.000    0.000    0.000 
#    0.000    0.000    0.000    0.000    0.000    0.000 
#
# Total GULP energy -173449.904439 kJ/mol
# GULP energy per Si atom -12389.278889 kJ/mol
# Density = 2.256213 g / cm^3
# Si number density = 22.613604 Si / 1000 Ang^3
#
#
#
# Elastic Constant Matrix: (Units=GPa)
#
#
# Indices 1 2 3 4 5 6 
#
# 1 182.2845 68.6693 51.0654 7.2070 -1.4745 13.4431
# 2 68.6693 113.9396 29.9292 5.2967 13.7987 0.3536
# 3 51.0654 29.9292 96.0163 2.1576 -13.8312 -4.8052
# 4 7.2070 5.2967 2.1576 22.1109 -5.3923 10.4163
# 5 -1.4745 13.7987 -13.8312 -5.3923 36.3876 6.3514
# 6 13.4431 0.3536 -4.8052 10.4163 6.3514 40.8086
#
#
#
# Elastic Compliance Matrix: (Units=1/GPa)
#
#
# Indices 1 2 3 4 5 6 
#
# 1 0.008202 -0.004375 -0.002960 0.000657 0.001561 -0.003423
# 2 -0.004375 0.013224 -0.002594 -0.004948 -0.007514 0.003454
# 3 -0.002960 -0.002594 0.013706 0.001041 0.005981 0.001415
# 4 0.000657 -0.004948 0.001041 0.057378 0.013740 -0.016835
# 5 0.001561 -0.007514 0.005981 0.013740 0.036257 -0.008895
# 6 -0.003423 0.003454 0.001415 -0.016835 -0.008895 0.031451
#
#
# Mechanical properties :
#
#
# Convention : Reuss Voigt Hill
#
# Bulk Modulus (GPa) = 65.46222 76.84091 71.15156
# Shear Modulus (GPa) = 27.00277 36.03319 31.51798
#
# Velocity S-wave (km/s) = 3.45932 3.99611 3.73736
# Velocity P-wave (km/s) = 6.70573 7.43946 7.08210
#
# Compressibility (1/GPa) = 0.01527599
#
# Stress axis : x y z
#
# Youngs Moduli (GPa) = 121.91715 75.62133 72.95832
#
# Poissons Ratio (x) = 0.33083 0.21594
# Poissons Ratio (y) = 0.53337 0.18922
# Poissons Ratio (z) = 0.36085 0.19613
#
# Static dielectric constant tensor:
#      x y z
#    x 4.606940 0.122420 -0.464770 
#    y 0.122420 4.025350 -0.153170 
#    z -0.464770 -0.153170 4.168900 
# 
# 
# High freq. dielectric constant tensor:
#      x y z
#    x 1.897140 0.008490 -0.014650 
#    y 0.008490 1.877170 -0.005140 
#    z -0.014650 -0.005140 1.883110 
# 
# From -- ./inp_files/391230.got.cif
#   From: 2010.06.25/outbox.cif.g09.slc.cpg/sg2_196_cif.got.tgz:391230.got - 2010.06.27 13:26:56.
