data_PCOD8017637
_publ_section_title
;
Structure prediction by ZEFSAII (Michael W. Deem and Ramdas Pophale) SiO2 
 PCOD8017637
Probable space group: P -1
;
_chemical_formula_sum "Si O2"
_cell_formula_units_Z 16
_cell_length_a 10.840575
_cell_length_b 10.897222
_cell_length_c 12.129519
_cell_angle_alpha 108.176564
_cell_angle_beta 79.418704
_cell_angle_gamma 46.628821
_cell_volume 808.924274
_symmetry_space_group_name_H-M "P -1"
_symmetry_group_IT_number 2
_symmetry_cell_setting 'triclinic'
loop_
_space_group_symop_operation_xyz
x,y,z
-x,-y,-z
loop_
_atom_site_type_symbol
_atom_site_label
_atom_site_fract_x
_atom_site_fract_y
_atom_site_fract_z
Si Si1 0.350298 0.257118 0.414341
Si Si2 0.256367 0.234745 0.209637
Si Si3 0.213382 0.527242 0.941046
Si Si4 0.834848 0.623879 0.288440
Si Si5 0.804183 0.886416 0.234175
Si Si6 0.755791 0.219186 0.081362
Si Si7 0.501259 0.211068 0.004438
Si Si8 0.566443 0.321766 0.373466
O O1 0.191278 0.325915 0.371639
O O2 0.313314 0.254275 0.547021
O O3 0.357771 0.405689 0.436248
O O4 0.578544 0.013194 0.272663
O O5 0.392143 0.240523 0.138664
O O6 0.050155 0.379395 0.214556
O O7 0.372359 0.005060 0.135300
O O8 0.257209 0.381627 0.800995
O O9 0.291959 0.600017 0.906000
O O10 0.331142 0.401598 0.999932
O O11 0.966259 0.737982 0.065981
O O12 0.878805 0.738040 0.283313
O O13 0.760137 0.075487 0.323080
O O14 0.663507 0.190190 0.003734
O O15 0.625976 0.315253 0.240573
O O16 0.000000 0.000000 0.000000
O O17 0.500000 0.500000 0.500000
#
# Coordination Sequence:
#
# PCOD8017637 Si02
#       8
#     2   2   2   2   2   2   2   2
#     4  10  22  41  62  92 132 165 214 261 319 375
#     4  11  23  39  66  93 133 168 212 267 319 376
#     4  12  24  40  66  98 130 167 214 264 316 380
#     4  12  23  39  69  98 128 168 213 261 326 378
#     4  10  22  39  63  93 129 163 211 260 315 375
#     4  12  22  42  67  92 126 170 218 259 315 380
#     4  11  24  40  64  96 132 167 211 267 320 370
#     4  10  22  40  63  90 126 167 212 257 316 377
#
# _framework density 19.779354999999999
#
# number of rings (size 3 to 8) (size 9 to 14) (size 15 to 20)
#    0.750    0.250    3.750    3.750    3.500    0.000 
#    0.000    0.000    0.000    1.500    0.000    0.000 
#    0.000    0.000    0.000    0.000    0.000    0.000 
#
# Total GULP energy -198242.012718 kJ/mol
# GULP energy per Si atom -12390.125795 kJ/mol
# Density = 1.973434 g / cm^3
# Si number density = 19.779355 Si / 1000 Ang^3
#
#
#
# Elastic Constant Matrix: (Units=GPa)
#
#
# Indices 1 2 3 4 5 6 
#
# 1 98.2706 40.7282 55.6249 -9.4810 9.0713 15.0181
# 2 40.7282 96.1161 50.2037 3.1855 13.3820 23.0428
# 3 55.6249 50.2037 121.0290 -20.9906 12.7075 17.1178
# 4 -9.4810 3.1855 -20.9906 25.6998 3.6072 -2.0599
# 5 9.0713 13.3820 12.7075 3.6072 33.1239 -6.1820
# 6 15.0181 23.0428 17.1178 -2.0599 -6.1820 40.7672
#
#
#
# Elastic Compliance Matrix: (Units=1/GPa)
#
#
# Indices 1 2 3 4 5 6 
#
# 1 0.014782 -0.003266 -0.004666 0.002117 -0.001498 -0.001760
# 2 -0.003266 0.017324 -0.005531 -0.007827 -0.004501 -0.007344
# 3 -0.004666 -0.005531 0.015438 0.012007 -0.004024 -0.001641
# 4 0.002117 -0.007827 0.012007 0.051543 -0.007628 0.000050
# 5 -0.001498 -0.004501 -0.004024 -0.007628 0.036651 0.009958
# 6 -0.001760 -0.007344 -0.001641 0.000050 0.009958 0.031531
#
#
# Mechanical properties :
#
#
# Convention : Reuss Voigt Hill
#
# Bulk Modulus (GPa) = 48.50091 67.61436 58.05764
# Shear Modulus (GPa) = 24.86720 31.17543 28.02131
#
# Velocity S-wave (km/s) = 3.54959 3.97440 3.76798
# Velocity P-wave (km/s) = 6.43224 7.43772 6.95317
#
# Compressibility (1/GPa) = 0.02061817
#
# Stress axis : x y z
#
# Youngs Moduli (GPa) = 67.64912 57.72381 64.77479
#
# Poissons Ratio (x) = 0.18855 0.30221
# Poissons Ratio (y) = 0.22097 0.35827
# Poissons Ratio (z) = 0.31562 0.31927
#
# Static dielectric constant tensor:
#      x y z
#    x 3.687670 0.159170 -0.065950 
#    y 0.159170 3.701030 -0.069380 
#    z -0.065950 -0.069380 3.567540 
# 
# 
# High freq. dielectric constant tensor:
#      x y z
#    x 1.763220 0.015920 -0.008840 
#    y 0.015920 1.776840 -0.000810 
#    z -0.008840 -0.000810 1.770350 
# 
# From -- ./inp_files/425953.got.cif
#   From: 2010.06.25/outbox.cif.g09.slc.cpg/sg2_213_cif.got.tgz:425953.got - 2010.06.27 13:26:56.
