data_PCOD8017942
_publ_section_title
;
Structure prediction by ZEFSAII (Michael W. Deem and Ramdas Pophale) SiO2 
 PCOD8017942
Probable space group: P -1
;
_chemical_formula_sum "Si O2"
_cell_formula_units_Z 12
_cell_length_a 9.969871
_cell_length_b 8.351710
_cell_length_c 14.635961
_cell_angle_alpha 106.349242
_cell_angle_beta 137.933979
_cell_angle_gamma 104.687251
_cell_volume 544.179529
_symmetry_space_group_name_H-M "P -1"
_symmetry_group_IT_number 2
_symmetry_cell_setting 'triclinic'
loop_
_space_group_symop_operation_xyz
x,y,z
-x,-y,-z
loop_
_atom_site_type_symbol
_atom_site_label
_atom_site_fract_x
_atom_site_fract_y
_atom_site_fract_z
Si Si1 0.725460 0.265297 0.555521
Si Si2 0.332438 0.754749 0.930919
Si Si3 0.611785 0.105045 0.273302
Si Si4 0.175157 0.011128 0.339668
Si Si5 0.415448 0.303502 0.093710
Si Si6 0.867400 0.796142 0.473483
O O1 0.584887 0.099929 0.367674
O O2 0.854158 0.193123 0.669448
O O3 0.985608 0.549767 0.710479
O O4 0.481798 0.220810 0.479244
O O5 0.451554 0.652297 0.933367
O O6 0.500000 0.000000 0.000000
O O7 0.414157 0.832347 0.091292
O O8 0.501316 0.209946 0.191921
O O9 0.940983 0.258775 0.435367
O O10 0.145232 0.131433 0.421772
O O11 0.927845 0.886874 0.118666
O O12 0.547333 0.553864 0.239856
O O13 0.000000 0.000000 0.500000
#
# Coordination Sequence:
#
# PCOD8017942 Si02
#       6
#     2   2   2   2   2   2
#     4  11  25  45  64  96 141 172 212 281 334 382
#     4  10  22  39  69  97 125 173 222 268 319 389
#     4  11  23  41  69  96 130 172 221 269 328 385
#     4  11  26  43  64 100 138 172 215 274 337 388
#     4  11  24  40  68  98 131 169 223 276 319 393
#     4  12  23  40  71 102 126 175 228 271 319 396
#
# _framework density 22.051545999999998
#
# number of rings (size 3 to 8) (size 9 to 14) (size 15 to 20)
#    0.000    1.000    5.000    0.500    4.667    3.333 
#    0.000    9.167    0.000    0.000    0.000    0.000 
#    0.000    0.000    0.000    0.000    0.000    0.000 
#
# Total GULP energy -148783.821995 kJ/mol
# GULP energy per Si atom -12398.651833 kJ/mol
# Density = 2.200136 g / cm^3
# Si number density = 22.051546 Si / 1000 Ang^3
#
#
#
# Elastic Constant Matrix: (Units=GPa)
#
#
# Indices 1 2 3 4 5 6 
#
# 1 103.4648 24.2875 49.3383 -6.6084 7.3294 4.7349
# 2 24.2875 72.7327 56.5275 -1.8547 14.5999 -1.5027
# 3 49.3383 56.5275 155.7139 2.5332 -0.3954 0.7460
# 4 -6.6084 -1.8547 2.5332 34.1731 -4.4270 1.2225
# 5 7.3294 14.5999 -0.3954 -4.4270 41.9818 3.3486
# 6 4.7349 -1.5027 0.7460 1.2225 3.3486 23.4373
#
#
#
# Elastic Compliance Matrix: (Units=1/GPa)
#
#
# Indices 1 2 3 4 5 6 
#
# 1 0.011893 -0.001032 -0.003425 0.002410 -0.001312 -0.002298
# 2 -0.001032 0.021536 -0.007531 0.000444 -0.007564 0.002887
# 3 -0.003425 -0.007531 0.010275 -0.001399 0.003207 -0.000503
# 4 0.002410 0.000444 -0.001399 0.030305 0.002798 -0.002394
# 5 -0.001312 -0.007564 0.003207 0.002798 0.027354 -0.004376
# 6 -0.002298 0.002887 -0.000503 -0.002394 -0.004376 0.044083
#
#
# Mechanical properties :
#
#
# Convention : Reuss Voigt Hill
#
# Bulk Modulus (GPa) = 50.69280 65.80201 58.24740
# Shear Modulus (GPa) = 28.40954 33.36897 30.88926
#
# Velocity S-wave (km/s) = 3.59322 3.89424 3.74675
# Velocity P-wave (km/s) = 6.34454 7.07990 6.72228
#
# Compressibility (1/GPa) = 0.01972667
#
# Stress axis : x y z
#
# Youngs Moduli (GPa) = 84.08499 46.43341 97.32647
#
# Poissons Ratio (x) = 0.04791 0.33336
# Poissons Ratio (y) = 0.08677 0.73301
# Poissons Ratio (z) = 0.28801 0.34971
#
# Static dielectric constant tensor:
#      x y z
#    x 4.228670 -0.125380 -0.319170 
#    y -0.125380 3.663970 -0.024050 
#    z -0.319170 -0.024050 4.367560 
# 
# 
# High freq. dielectric constant tensor:
#      x y z
#    x 1.863280 -0.011330 -0.017800 
#    y -0.011330 1.847440 -0.003820 
#    z -0.017800 -0.003820 1.882710 
# 
# From -- ./inp_files/159029.got.cif
#   From: 2010.06.25/outbox.cif.g09.slc.cpg/sg2_80_cif.got.tgz:159029.got - 2010.06.27 13:26:56.
