data_PCOD8017674
_publ_section_title
;
Structure prediction by ZEFSAII (Michael W. Deem and Ramdas Pophale) SiO2 
 PCOD8017674
Probable space group: P -1
;
_chemical_formula_sum "Si O2"
_cell_formula_units_Z 16
_cell_length_a 15.883394
_cell_length_b 15.582483
_cell_length_c 5.298306
_cell_angle_alpha 55.030247
_cell_angle_beta 81.711418
_cell_angle_gamma 48.402573
_cell_volume 741.434983
_symmetry_space_group_name_H-M "P -1"
_symmetry_group_IT_number 2
_symmetry_cell_setting 'triclinic'
loop_
_space_group_symop_operation_xyz
x,y,z
-x,-y,-z
loop_
_atom_site_type_symbol
_atom_site_label
_atom_site_fract_x
_atom_site_fract_y
_atom_site_fract_z
Si Si1 0.572008 0.035519 0.826033
Si Si2 0.368935 0.854718 0.977234
Si Si3 0.587898 0.689165 0.863214
Si Si4 0.930750 0.381491 0.905793
Si Si5 0.831044 0.569373 0.126437
Si Si6 0.725290 0.407511 0.016418
Si Si7 0.201263 0.165393 0.228527
Si Si8 0.644031 0.363665 0.633404
O O1 0.712240 0.885404 0.961340
O O2 0.492062 0.136982 0.447365
O O3 0.500000 0.000000 0.000000
O O4 0.569573 0.137271 0.836165
O O5 0.486618 0.707978 0.015252
O O6 0.268142 0.018455 0.616012
O O7 0.309422 0.796060 0.177719
O O8 0.701294 0.624467 0.095597
O O9 0.635985 0.588109 0.759033
O O10 0.893787 0.485563 0.506606
O O11 0.911610 0.461354 0.038209
O O12 0.861933 0.330637 0.040891
O O13 0.074377 0.229469 0.077197
O O14 0.817718 0.705194 0.851612
O O15 0.702581 0.378869 0.353954
O O16 0.699185 0.351283 0.898077
O O17 0.500000 0.500000 0.500000
#
# Coordination Sequence:
#
# PCOD8017674 Si02
#       8
#     2   2   2   2   2   2   2   2
#     4  11  24  40  68  95 141 176 217 269 341 401
#     4  11  25  40  66  98 137 176 220 275 340 398
#     4  10  22  39  64 101 132 169 218 278 337 401
#     4  11  26  45  70  98 135 178 230 272 326 397
#     4  11  24  42  72  99 135 176 224 272 332 394
#     4  11  24  42  68  98 130 171 222 283 332 385
#     4  11  26  43  64  99 136 182 224 270 329 404
#     4  12  24  42  70  98 133 168 224 279 342 391
#
# _framework density 21.579775999999999
#
# number of rings (size 3 to 8) (size 9 to 14) (size 15 to 20)
#    0.000    1.000    1.250    4.875   14.000    2.000 
#    0.000    1.250    0.000    0.000    0.000    0.000 
#    0.000    0.000    0.000    0.000    0.000    0.000 
#
# Total GULP energy -198232.851262 kJ/mol
# GULP energy per Si atom -12389.553204 kJ/mol
# Density = 2.153066 g / cm^3
# Si number density = 21.579776 Si / 1000 Ang^3
#
#
#
# Elastic Constant Matrix: (Units=GPa)
#
#
# Indices 1 2 3 4 5 6 
#
# 1 140.9217 60.1749 53.3547 -13.6396 -5.7940 -6.5459
# 2 60.1749 84.4418 38.7297 8.9298 4.2003 -9.7959
# 3 53.3547 38.7297 94.5144 0.1363 4.7424 -13.2089
# 4 -13.6396 8.9298 0.1363 33.1269 0.1879 5.0614
# 5 -5.7940 4.2003 4.7424 0.1879 32.3260 -7.4731
# 6 -6.5459 -9.7959 -13.2089 5.0614 -7.4731 43.9636
#
#
#
# Elastic Compliance Matrix: (Units=1/GPa)
#
#
# Indices 1 2 3 4 5 6 
#
# 1 0.013342 -0.008724 -0.004376 0.008081 0.003758 -0.001563
# 2 -0.008724 0.021007 -0.003090 -0.009690 -0.003079 0.003046
# 3 -0.004376 -0.003090 0.014827 -0.001473 -0.001863 0.002968
# 4 0.008081 -0.009690 -0.001473 0.036950 0.001459 -0.005404
# 5 0.003758 -0.003079 -0.001863 0.001459 0.033388 0.004821
# 6 -0.001563 0.003046 0.002968 -0.005404 0.004821 0.025525
#
#
# Mechanical properties :
#
#
# Convention : Reuss Voigt Hill
#
# Bulk Modulus (GPa) = 59.52914 69.37739 64.45326
# Shear Modulus (GPa) = 27.31997 33.05787 30.18892
#
# Velocity S-wave (km/s) = 3.56195 3.91818 3.74431
# Velocity P-wave (km/s) = 6.67549 7.25869 6.97319
#
# Compressibility (1/GPa) = 0.01679850
#
# Stress axis : x y z
#
# Youngs Moduli (GPa) = 74.95170 47.60238 67.44481
#
# Poissons Ratio (x) = 0.41526 0.29512
# Poissons Ratio (y) = 0.65385 0.20837
# Poissons Ratio (z) = 0.32797 0.14707
#
# Static dielectric constant tensor:
#      x y z
#    x 4.013880 0.000610 0.120410 
#    y 0.000610 3.881010 -0.166680 
#    z 0.120410 -0.166680 3.265370 
# 
# 
# High freq. dielectric constant tensor:
#      x y z
#    x 1.858820 -0.001850 -0.008250 
#    y -0.001850 1.843500 0.004770 
#    z -0.008250 0.004770 1.845740 
# 
# From -- ./inp_files/97491.got.cif
#   From: 2010.06.25/outbox.cif.g09.slc.cpg/sg2_49_cif.got.tgz:97491.got - 2010.06.27 13:26:56.
