data_PCOD8017372
_publ_section_title
;
Structure prediction by ZEFSAII (Michael W. Deem and Ramdas Pophale) SiO2 
 PCOD8017372
Probable space group: P -1
;
_chemical_formula_sum "Si O2"
_cell_formula_units_Z 16
_cell_length_a 20.627793
_cell_length_b 14.565286
_cell_length_c 9.124004
_cell_angle_alpha 132.026356
_cell_angle_beta 48.456529
_cell_angle_gamma 159.808230
_cell_volume 696.344280
_symmetry_space_group_name_H-M "P -1"
_symmetry_group_IT_number 2
_symmetry_cell_setting 'triclinic'
loop_
_space_group_symop_operation_xyz
x,y,z
-x,-y,-z
loop_
_atom_site_type_symbol
_atom_site_label
_atom_site_fract_x
_atom_site_fract_y
_atom_site_fract_z
Si Si1 0.971683 0.536095 0.428432
Si Si2 0.732745 0.878166 0.094945
Si Si3 0.258395 0.902989 0.908658
Si Si4 0.650966 0.325934 0.699302
Si Si5 0.281956 0.343067 0.588508
Si Si6 0.913729 0.786195 0.000181
Si Si7 0.291628 0.067762 0.340934
Si Si8 0.647320 0.524506 0.691377
O O1 0.932104 0.392021 0.197039
O O2 0.776873 0.364279 0.552687
O O3 0.000000 0.500000 0.500000
O O4 0.155462 0.851771 0.448607
O O5 0.573479 0.722641 0.282422
O O6 0.696188 0.908633 0.034971
O O7 0.713427 0.708081 0.908438
O O8 0.944156 0.153756 0.141868
O O9 0.429770 0.022525 0.745186
O O10 0.239075 0.909221 0.115631
O O11 0.716670 0.496775 0.916101
O O12 0.672843 0.421180 0.610862
O O13 0.252604 0.160579 0.461438
O O14 0.487595 0.660294 0.658855
O O15 0.233112 0.315504 0.465182
O O16 0.122252 0.208998 0.778299
O O17 0.000000 0.000000 0.000000
#
# Coordination Sequence:
#
# PCOD8017372 Si02
#       8
#     2   2   2   2   2   2   2   2
#     4  12  28  48  73  99 136 189 244 281 333 415
#     4  10  22  38  69 101 140 182 221 278 358 408
#     4  11  23  48  70  96 142 185 230 282 341 415
#     4  11  24  44  70 105 133 183 235 287 350 406
#     4  11  25  41  70 108 146 173 227 294 356 411
#     4  12  23  38  63 100 142 179 223 284 347 414
#     4  11  25  44  69 104 139 183 229 288 350 407
#     4  10  22  40  68 103 143 176 221 285 354 416
#
# _framework density 22.977139999999999
#
# number of rings (size 3 to 8) (size 9 to 14) (size 15 to 20)
#    0.000    1.000    3.750    2.250    8.750    1.500 
#    0.000    1.875    0.000    0.000    0.000    0.000 
#    0.000    0.000    0.000    0.000    0.000    0.000 
#
# Total GULP energy -198341.305699 kJ/mol
# GULP energy per Si atom -12396.331606 kJ/mol
# Density = 2.292484 g / cm^3
# Si number density = 22.977140 Si / 1000 Ang^3
#
#
#
# Elastic Constant Matrix: (Units=GPa)
#
#
# Indices 1 2 3 4 5 6 
#
# 1 123.3475 42.9971 40.6907 -17.0010 2.0233 0.7343
# 2 42.9971 102.0226 33.8194 -3.7451 3.6227 -2.1653
# 3 40.6907 33.8194 94.4032 -10.1079 11.6710 -8.6143
# 4 -17.0010 -3.7451 -10.1079 43.9642 1.2845 2.8753
# 5 2.0233 3.6227 11.6710 1.2845 33.2063 -6.7461
# 6 0.7343 -2.1653 -8.6143 2.8753 -6.7461 34.5875
#
#
#
# Elastic Compliance Matrix: (Units=1/GPa)
#
#
# Indices 1 2 3 4 5 6 
#
# 1 0.010822 -0.003399 -0.003289 0.003220 0.000450 -0.001442
# 2 -0.003399 0.012194 -0.002992 -0.000975 0.000001 0.000172
# 3 -0.003289 -0.002992 0.013970 0.001640 -0.003948 0.002456
# 4 0.003220 -0.000975 0.001640 0.024486 -0.002052 -0.002157
# 5 0.000450 0.000001 -0.003948 -0.002052 0.032682 0.005552
# 6 -0.001442 0.000172 0.002456 -0.002157 0.005552 0.030827
#
#
# Mechanical properties :
#
#
# Convention : Reuss Voigt Hill
#
# Bulk Modulus (GPa) = 56.73660 61.64309 59.18984
# Shear Modulus (GPa) = 33.28489 35.83599 34.56044
#
# Velocity S-wave (km/s) = 3.81019 3.95351 3.88251
# Velocity P-wave (km/s) = 6.64101 6.90844 6.77604
#
# Compressibility (1/GPa) = 0.01762531
#
# Stress axis : x y z
#
# Youngs Moduli (GPa) = 92.40274 82.00806 71.58001
#
# Poissons Ratio (x) = 0.27874 0.23546
# Poissons Ratio (y) = 0.31407 0.21418
# Poissons Ratio (z) = 0.30395 0.24539
#
# Static dielectric constant tensor:
#      x y z
#    x 4.019640 0.247590 0.068360 
#    y 0.247590 4.397080 0.116780 
#    z 0.068360 0.116780 4.157240 
# 
# 
# High freq. dielectric constant tensor:
#      x y z
#    x 1.901830 0.013580 0.008080 
#    y 0.013580 1.913130 0.005320 
#    z 0.008080 0.005320 1.907610 
# 
# From -- ./inp_files/319487.got.cif
#   From: 2010.06.25/outbox.cif.g09.slc.cpg/sg2_160_cif.got.tgz:319487.got - 2010.06.27 13:26:56.
