data_PCOD8017698
_publ_section_title
;
Structure prediction by ZEFSAII (Michael W. Deem and Ramdas Pophale) SiO2 
 PCOD8017698
Probable space group: P -1
;
_chemical_formula_sum "Si O2"
_cell_formula_units_Z 12
_cell_length_a 20.670713
_cell_length_b 11.621612
_cell_length_c 18.467068
_cell_angle_alpha 28.612337
_cell_angle_beta 159.850900
_cell_angle_gamma 158.960016
_cell_volume 548.582945
_symmetry_space_group_name_H-M "P -1"
_symmetry_group_IT_number 2
_symmetry_cell_setting 'triclinic'
loop_
_space_group_symop_operation_xyz
x,y,z
-x,-y,-z
loop_
_atom_site_type_symbol
_atom_site_label
_atom_site_fract_x
_atom_site_fract_y
_atom_site_fract_z
Si Si1 0.664998 0.851137 0.299811
Si Si2 0.284934 0.153496 0.218411
Si Si3 0.912350 0.256694 0.978368
Si Si4 0.266435 0.847322 0.936534
Si Si5 0.900780 0.901387 0.278205
Si Si6 0.565589 0.195090 0.355404
O O1 0.450855 0.487975 0.249924
O O2 0.542362 0.973853 0.144444
O O3 0.845868 0.869383 0.535293
O O4 0.822167 0.089520 0.264847
O O5 0.402750 0.217256 0.227642
O O6 0.290868 0.904298 0.403019
O O7 0.000000 0.000000 0.000000
O O8 0.077476 0.464512 0.966456
O O9 0.952094 0.018517 0.183126
O O10 0.000000 0.500000 0.000000
O O11 0.622126 0.055440 0.765600
O O12 0.282950 0.052061 0.906202
O O13 0.778577 0.537077 0.353105
#
# Coordination Sequence:
#
# PCOD8017698 Si02
#       6
#     2   2   2   2   2   2
#     4  11  23  39  66  94 124 165 210 255 311 364
#     4  11  24  39  64  94 128 160 207 261 310 365
#     4  10  22  42  65  88 127 170 207 250 312 375
#     4  10  22  39  64  92 125 164 211 250 305 368
#     4  11  23  40  66  93 129 165 205 256 310 372
#     4  11  24  39  63  94 126 162 208 259 310 365
#
# _framework density 21.874541000000001
#
# number of rings (size 3 to 8) (size 9 to 14) (size 15 to 20)
#    0.000    1.333    1.667    4.000    9.333    0.667 
#    0.000    3.333    0.000    8.000    0.000    0.000 
#    0.000    0.000    0.000    0.000    0.000    0.000 
#
# Total GULP energy -148784.876101 kJ/mol
# GULP energy per Si atom -12398.739675 kJ/mol
# Density = 2.182475 g / cm^3
# Si number density = 21.874541 Si / 1000 Ang^3
#
#
#
# Elastic Constant Matrix: (Units=GPa)
#
#
# Indices 1 2 3 4 5 6 
#
# 1 38.3256 30.1234 36.9166 -2.1094 0.3482 6.5412
# 2 30.1234 149.6742 57.0178 -1.6223 -16.8411 25.9553
# 3 36.9166 57.0178 119.7509 4.5671 -11.4682 10.9652
# 4 -2.1094 -1.6223 4.5671 43.9275 -1.5273 -15.8199
# 5 0.3482 -16.8411 -11.4682 -1.5273 30.1650 -9.9604
# 6 6.5412 25.9553 10.9652 -15.8199 -9.9604 42.2838
#
#
#
# Elastic Compliance Matrix: (Units=1/GPa)
#
#
# Indices 1 2 3 4 5 6 
#
# 1 0.040800 -0.004541 -0.011075 0.002070 -0.007668 -0.001684
# 2 -0.004541 0.009590 -0.002451 -0.001023 0.003030 -0.004217
# 3 -0.011075 -0.002451 0.013369 -0.001916 0.003715 -0.000091
# 4 0.002070 -0.001023 -0.001916 0.027505 0.004048 0.012049
# 5 -0.007668 0.003030 0.003715 0.004048 0.039587 0.009202
# 6 -0.001684 -0.004217 -0.000091 0.012049 0.009202 0.033198
#
#
# Mechanical properties :
#
#
# Convention : Reuss Voigt Hill
#
# Bulk Modulus (GPa) = 36.19796 61.76292 48.98044
# Shear Modulus (GPa) = 23.87880 35.52147 29.70013
#
# Velocity S-wave (km/s) = 3.30756 4.03410 3.68876
# Velocity P-wave (km/s) = 5.58306 7.07071 6.37046
#
# Compressibility (1/GPa) = 0.02762587
#
# Stress axis : x y z
#
# Youngs Moduli (GPa) = 24.50993 104.27585 74.80041
#
# Poissons Ratio (x) = 0.47349 0.82839
# Poissons Ratio (y) = 0.11129 0.18333
# Poissons Ratio (z) = 0.27144 0.25558
#
# Static dielectric constant tensor:
#      x y z
#    x 4.041780 0.394270 -0.271920 
#    y 0.394270 4.294010 -0.367780 
#    z -0.271920 -0.367780 4.004550 
# 
# 
# High freq. dielectric constant tensor:
#      x y z
#    x 1.840650 0.010900 -0.013520 
#    y 0.010900 1.875160 -0.013220 
#    z -0.013520 -0.013220 1.857980 
# 
# From -- ./inp_files/173703.got.cif
#   From: 2010.06.25/outbox.cif.g09.slc.cpg/sg2_87_cif.got.tgz:173703.got - 2010.06.27 13:26:56.
