data_PCOD8017006
_publ_section_title
;
Structure prediction by ZEFSAII (Michael W. Deem and Ramdas Pophale) SiO2 
 PCOD8017006
Probable space group: P -1
;
_chemical_formula_sum "Si O2"
_cell_formula_units_Z 14
_cell_length_a 14.977519
_cell_length_b 15.286947
_cell_length_c 8.736722
_cell_angle_alpha 56.628066
_cell_angle_beta 75.099464
_cell_angle_gamma 29.094210
_cell_volume 678.159757
_symmetry_space_group_name_H-M "P -1"
_symmetry_group_IT_number 2
_symmetry_cell_setting 'triclinic'
loop_
_space_group_symop_operation_xyz
x,y,z
-x,-y,-z
loop_
_atom_site_type_symbol
_atom_site_label
_atom_site_fract_x
_atom_site_fract_y
_atom_site_fract_z
Si Si1 0.612977 0.488099 0.025090
Si Si2 0.727088 0.753508 0.228828
Si Si3 0.486753 0.618397 0.295496
Si Si4 0.200190 0.306288 0.397532
Si Si5 0.518588 0.159850 0.388492
Si Si6 0.311041 0.432291 0.514958
Si Si7 0.008932 0.884350 0.014264
O O1 0.620074 0.467815 0.223925
O O2 0.858025 0.240435 0.083717
O O3 0.500000 0.500000 0.000000
O O4 0.480163 0.732037 0.810279
O O5 0.709062 0.807870 0.360400
O O6 0.795552 0.561752 0.374538
O O7 0.938279 0.595978 0.216122
O O8 0.500000 0.000000 0.000000
O O9 0.500000 0.500000 0.500000
O O10 0.599353 0.595286 0.357576
O O11 0.233557 0.908952 0.106428
O O12 0.313851 0.295747 0.294965
O O13 0.263406 0.134835 0.444311
O O14 0.506801 0.201304 0.533448
O O15 0.122035 0.684080 0.264091
O O16 0.000000 0.000000 0.000000
#
# Coordination Sequence:
#
# PCOD8017006 Si02
#       7
#     2   2   2   2   2   2   2
#     4  11  23  39  67  97 126 173 217 262 326 392
#     4  10  22  37  63  97 126 161 219 265 320 388
#     4  12  24  42  65  93 133 168 213 271 321 386
#     4   9  20  41  65  86 126 176 206 266 325 375
#     4   9  20  42  64  90 128 169 220 259 323 392
#     4  10  23  41  60  97 128 164 214 270 318 380
#     4  11  22  44  65  89 132 176 214 266 324 381
#
# _framework density 20.644103999999999
#
# number of rings (size 3 to 8) (size 9 to 14) (size 15 to 20)
#    0.000    1.714    2.857    0.857    4.000    4.000 
#    2.571    6.429    0.000    0.000    0.000    0.000 
#    0.000    0.000    0.000    0.000    0.000    0.000 
#
# Total GULP energy -173529.540999 kJ/mol
# GULP energy per Si atom -12394.967214 kJ/mol
# Density = 2.059712 g / cm^3
# Si number density = 20.644104 Si / 1000 Ang^3
#
#
#
# Elastic Constant Matrix: (Units=GPa)
#
#
# Indices 1 2 3 4 5 6 
#
# 1 104.0157 40.0710 44.7856 4.1253 -9.8413 12.7756
# 2 40.0710 116.6793 55.6352 -0.3515 9.1169 5.2694
# 3 44.7856 55.6352 104.5729 -4.9039 9.1539 -2.4608
# 4 4.1253 -0.3515 -4.9039 33.8029 -2.4943 5.5045
# 5 -9.8413 9.1169 9.1539 -2.4943 43.6322 -1.7056
# 6 12.7756 5.2694 -2.4608 5.5045 -1.7056 42.2699
#
#
#
# Elastic Compliance Matrix: (Units=1/GPa)
#
#
# Indices 1 2 3 4 5 6 
#
# 1 0.013700 -0.002449 -0.005112 -0.001499 0.004442 -0.003758
# 2 -0.002449 0.012133 -0.005268 -0.000307 -0.002044 -0.001121
# 3 -0.005112 -0.005268 0.014975 0.002086 -0.002970 0.002682
# 4 -0.001499 -0.000307 0.002086 0.030678 0.000911 -0.003345
# 5 0.004442 -0.002044 -0.002970 0.000911 0.025008 -0.000370
# 6 -0.003758 -0.001121 0.002682 -0.003345 -0.000370 0.025510
#
#
# Mechanical properties :
#
#
# Convention : Reuss Voigt Hill
#
# Bulk Modulus (GPa) = 66.00534 67.36128 66.68331
# Shear Modulus (GPa) = 32.74134 36.25940 34.50037
#
# Velocity S-wave (km/s) = 3.98677 4.19549 4.09246
# Velocity P-wave (km/s) = 7.29622 7.49468 7.39611
#
# Compressibility (1/GPa) = 0.01515029
#
# Stress axis : x y z
#
# Youngs Moduli (GPa) = 72.99419 82.42019 66.77610
#
# Poissons Ratio (x) = 0.20188 0.34133
# Poissons Ratio (y) = 0.17879 0.35177
# Poissons Ratio (z) = 0.37312 0.43418
#
# Static dielectric constant tensor:
#      x y z
#    x 4.005320 0.030570 -0.021200 
#    y 0.030570 3.618180 0.401860 
#    z -0.021200 0.401860 3.331400 
# 
# 
# High freq. dielectric constant tensor:
#      x y z
#    x 1.822690 0.006600 -0.011980 
#    y 0.006600 1.816740 0.001060 
#    z -0.011980 0.001060 1.784790 
# 
# From -- ./inp_files/312691.got.cif
#   From: 2010.06.25/outbox.cif.g09.slc.cpg/sg2_157_cif.got.tgz:312691.got - 2010.06.27 13:26:56.
