data_PCOD8017664
_publ_section_title
;
Structure prediction by ZEFSAII (Michael W. Deem and Ramdas Pophale) SiO2 
 PCOD8017664
Probable space group: P -1
;
_chemical_formula_sum "Si O2"
_cell_formula_units_Z 16
_cell_length_a 6.942105
_cell_length_b 19.325397
_cell_length_c 11.470157
_cell_angle_alpha 150.818979
_cell_angle_beta 79.561221
_cell_angle_gamma 100.520326
_cell_volume 736.911725
_symmetry_space_group_name_H-M "P -1"
_symmetry_group_IT_number 2
_symmetry_cell_setting 'triclinic'
loop_
_space_group_symop_operation_xyz
x,y,z
-x,-y,-z
loop_
_atom_site_type_symbol
_atom_site_label
_atom_site_fract_x
_atom_site_fract_y
_atom_site_fract_z
Si Si1 0.705584 0.939083 0.353370
Si Si2 0.869070 0.629284 0.732018
Si Si3 0.616705 0.198287 0.218815
Si Si4 0.484017 0.703878 0.882272
Si Si5 0.055620 0.152736 0.586086
Si Si6 0.001978 0.704818 0.594594
Si Si7 0.914106 0.383784 0.086817
Si Si8 0.233682 0.113286 0.264656
O O1 0.806693 0.894137 0.394591
O O2 0.500000 0.000000 0.500000
O O3 0.650492 0.815798 0.084537
O O4 0.860495 0.050506 0.437870
O O5 0.635990 0.575431 0.668135
O O6 0.944387 0.683577 0.929914
O O7 0.000000 0.500000 0.500000
O O8 0.908862 0.738622 0.781232
O O9 0.592075 0.240366 0.149287
O O10 0.764815 0.307967 0.431688
O O11 0.418016 0.202127 0.318952
O O12 0.725913 0.050886 0.993664
O O13 0.309395 0.667708 0.936144
O O14 0.197630 0.156286 0.464632
O O15 0.978657 0.310664 0.852187
O O16 0.925583 0.553797 0.325706
O O17 0.955520 0.837219 0.712342
#
# Coordination Sequence:
#
# PCOD8017664 Si02
#       8
#     2   2   2   2   2   2   2   2
#     4  11  23  40  67 101 130 171 217 278 336 387
#     4  10  22  39  63  97 132 170 212 270 328 387
#     4  11  25  44  67 101 130 174 230 272 329 397
#     4  12  22  40  73 101 133 167 220 285 337 384
#     4  11  25  43  66  98 136 172 224 272 330 401
#     4  11  24  43  67  95 138 177 218 272 335 391
#     4  11  24  43  67 103 133 171 223 277 335 396
#     4  11  26  44  66  93 137 182 223 269 325 400
#
# _framework density 21.712233000000001
#
# number of rings (size 3 to 8) (size 9 to 14) (size 15 to 20)
#    0.000    1.000    5.000    1.125    3.500    7.500 
#    0.000    0.625    0.000    0.000    0.000    0.000 
#    0.000    0.000    0.000    0.000    0.000    0.000 
#
# Total GULP energy -198276.140074 kJ/mol
# GULP energy per Si atom -12392.258755 kJ/mol
# Density = 2.166281 g / cm^3
# Si number density = 21.712233 Si / 1000 Ang^3
#
#
#
# Elastic Constant Matrix: (Units=GPa)
#
#
# Indices 1 2 3 4 5 6 
#
# 1 141.4314 21.7249 39.1769 0.5078 1.2283 0.1794
# 2 21.7249 71.2734 38.6422 -13.6832 -5.3066 -3.1488
# 3 39.1769 38.6422 73.1225 -7.8502 0.1343 5.3088
# 4 0.5078 -13.6832 -7.8502 28.4148 3.8958 -9.9375
# 5 1.2283 -5.3066 0.1343 3.8958 36.1796 -1.9587
# 6 0.1794 -3.1488 5.3088 -9.9375 -1.9587 40.7197
#
#
#
# Elastic Compliance Matrix: (Units=1/GPa)
#
#
# Indices 1 2 3 4 5 6 
#
# 1 0.008371 -0.000457 -0.004416 -0.001524 -0.000164 0.000124
# 2 -0.000457 0.022352 -0.010975 0.009324 0.002632 0.005563
# 3 -0.004416 -0.010975 0.022101 -0.000208 -0.001728 -0.003844
# 4 -0.001524 0.009324 -0.000208 0.043997 -0.002702 0.011362
# 5 -0.000164 0.002632 -0.001728 -0.002702 0.028390 0.001136
# 6 0.000124 0.005563 -0.003844 0.011362 0.001136 0.028317
#
#
# Mechanical properties :
#
#
# Convention : Reuss Voigt Hill
#
# Bulk Modulus (GPa) = 47.32832 53.87947 50.60390
# Shear Modulus (GPa) = 26.00569 33.48171 29.74370
#
# Velocity S-wave (km/s) = 3.46460 3.93118 3.70524
# Velocity P-wave (km/s) = 6.15223 6.74349 6.45463
#
# Compressibility (1/GPa) = 0.02112900
#
# Stress axis : x y z
#
# Youngs Moduli (GPa) = 119.46573 44.73902 45.24628
#
# Poissons Ratio (x) = 0.02043 0.19979
# Poissons Ratio (y) = 0.05456 0.49658
# Poissons Ratio (z) = 0.52752 0.49101
#
# Static dielectric constant tensor:
#      x y z
#    x 4.570280 -0.142940 0.029970 
#    y -0.142940 4.139330 -0.281980 
#    z 0.029970 -0.281980 4.283270 
# 
# 
# High freq. dielectric constant tensor:
#      x y z
#    x 1.883300 -0.001070 -0.010950 
#    y -0.001070 1.833390 -0.001770 
#    z -0.010950 -0.001770 1.854070 
# 
# From -- ./inp_files/370517.got.cif
#   From: 2010.06.25/outbox.cif.g09.slc.cpg/sg2_186_cif.got.tgz:370517.got - 2010.06.27 13:26:56.
