data_PCOD8017027
_publ_section_title
;
Structure prediction by ZEFSAII (Michael W. Deem and Ramdas Pophale) SiO2 
 PCOD8017027
Probable space group: P -1
;
_chemical_formula_sum "Si O2"
_cell_formula_units_Z 16
_cell_length_a 10.879872
_cell_length_b 12.181460
_cell_length_c 8.192267
_cell_angle_alpha 107.906551
_cell_angle_beta 112.266650
_cell_angle_gamma 123.163840
_cell_volume 628.584145
_symmetry_space_group_name_H-M "P -1"
_symmetry_group_IT_number 2
_symmetry_cell_setting 'triclinic'
loop_
_space_group_symop_operation_xyz
x,y,z
-x,-y,-z
loop_
_atom_site_type_symbol
_atom_site_label
_atom_site_fract_x
_atom_site_fract_y
_atom_site_fract_z
Si Si1 0.281568 0.468134 0.058293
Si Si2 0.350896 0.136445 0.543516
Si Si3 0.128207 0.178936 0.291178
Si Si4 0.796300 0.249980 0.217914
Si Si5 0.814844 0.565287 0.378644
Si Si6 0.107664 0.834218 0.073971
Si Si7 0.603253 0.896177 0.081238
Si Si8 0.409649 0.326622 0.216654
O O1 0.268518 0.487087 0.869225
O O2 0.064367 0.331309 0.971506
O O3 0.436479 0.663792 0.302310
O O4 0.374021 0.401635 0.096921
O O5 0.148879 0.077323 0.363398
O O6 0.333296 0.100069 0.706963
O O7 0.313292 0.996255 0.352700
O O8 0.081350 0.245137 0.433245
O O9 0.343635 0.322704 0.362875
O O10 0.965653 0.094145 0.024081
O O11 0.007195 0.413521 0.495917
O O12 0.676750 0.072843 0.173597
O O13 0.840359 0.236145 0.051322
O O14 0.648089 0.265697 0.138258
O O15 0.644650 0.447077 0.380550
O O16 0.698846 0.864960 0.988188
#
# Coordination Sequence:
#
# PCOD8017027 Si02
#       8
#     2   2   2   2   2   2   2   2
#     4  11  23  40  67 106 136 167 211 271 334 400
#     4  12  22  40  67  97 135 171 214 268 333 392
#     4  10  22  37  65 100 131 171 206 266 334 395
#     4  10  25  46  65  91 128 174 232 274 315 389
#     4  11  20  39  66  91 134 167 209 270 324 383
#     4  10  24  43  66  96 136 177 214 267 331 389
#     4  11  24  44  67  92 125 180 225 269 331 378
#     4  11  21  39  65  97 136 167 210 264 332 397
#
# _framework density 25.454031000000001
#
# number of rings (size 3 to 8) (size 9 to 14) (size 15 to 20)
#    0.000    1.250    2.500    3.375    3.500    4.000 
#    0.000    8.125    0.000    0.000    0.000    0.000 
#    0.000    0.000    0.000    0.000    0.000    0.000 
#
# Total GULP energy -198252.590031 kJ/mol
# GULP energy per Si atom -12390.786877 kJ/mol
# Density = 2.539610 g / cm^3
# Si number density = 25.454031 Si / 1000 Ang^3
#
#
#
# Elastic Constant Matrix: (Units=GPa)
#
#
# Indices 1 2 3 4 5 6 
#
# 1 109.4620 20.3954 31.6298 -16.0818 12.4698 10.8784
# 2 20.3954 67.4497 17.8874 -9.2348 6.7984 12.5305
# 3 31.6298 17.8874 107.3784 13.7297 -6.9510 11.6227
# 4 -16.0818 -9.2348 13.7297 28.7879 1.7012 -0.9278
# 5 12.4698 6.7984 -6.9510 1.7012 21.8168 -2.0375
# 6 10.8784 12.5305 11.6227 -0.9278 -2.0375 29.8175
#
#
#
# Elastic Compliance Matrix: (Units=1/GPa)
#
#
# Indices 1 2 3 4 5 6 
#
# 1 0.014140 0.000760 -0.006146 0.011641 -0.011512 -0.003507
# 2 0.000760 0.019226 -0.004419 0.009017 -0.009188 -0.006982
# 3 -0.006146 -0.004419 0.014215 -0.012273 0.010271 -0.001122
# 4 0.011641 0.009017 -0.012273 0.050934 -0.017614 -0.002871
# 5 -0.011512 -0.009188 0.010271 -0.017614 0.060640 0.007653
# 6 -0.003507 -0.006982 -0.001122 -0.002871 0.007653 0.038622
#
#
# Mechanical properties :
#
#
# Convention : Reuss Voigt Hill
#
# Bulk Modulus (GPa) = 35.75070 47.12392 41.43731
# Shear Modulus (GPa) = 22.05466 30.37627 26.21546
#
# Velocity S-wave (km/s) = 2.94675 3.45828 3.21271
# Velocity P-wave (km/s) = 5.06492 5.87365 5.48421
#
# Compressibility (1/GPa) = 0.02797148
#
# Stress axis : x y z
#
# Youngs Moduli (GPa) = 70.72035 52.01420 70.34900
#
# Poissons Ratio (x) = -0.03952 0.43236
# Poissons Ratio (y) = -0.05374 0.31084
# Poissons Ratio (z) = 0.43464 0.22983
#
# Static dielectric constant tensor:
#      x y z
#    x 4.656180 -0.106730 0.141930 
#    y -0.106730 4.590470 0.207650 
#    z 0.141930 0.207650 4.860790 
# 
# 
# High freq. dielectric constant tensor:
#      x y z
#    x 2.007910 -0.002790 -0.001300 
#    y -0.002790 2.024730 0.014690 
#    z -0.001300 0.014690 2.030430 
# 
# From -- ./inp_files/262635.got.cif
#   From: 2010.06.25/outbox.cif.g09.slc.cpg/sg2_132_cif.got.tgz:262635.got - 2010.06.27 13:26:56.
