data_PCOD8017268
_publ_section_title
;
Structure prediction by ZEFSAII (Michael W. Deem and Ramdas Pophale) SiO2 
 PCOD8017268
Probable space group: P -1
;
_chemical_formula_sum "Si O2"
_cell_formula_units_Z 14
_cell_length_a 20.744804
_cell_length_b 13.231384
_cell_length_c 9.888910
_cell_angle_alpha 138.167745
_cell_angle_beta 147.468431
_cell_angle_gamma 25.788698
_cell_volume 633.892637
_symmetry_space_group_name_H-M "P -1"
_symmetry_group_IT_number 2
_symmetry_cell_setting 'triclinic'
loop_
_space_group_symop_operation_xyz
x,y,z
-x,-y,-z
loop_
_atom_site_type_symbol
_atom_site_label
_atom_site_fract_x
_atom_site_fract_y
_atom_site_fract_z
Si Si1 0.959170 0.861203 0.274052
Si Si2 0.828790 0.484649 0.455528
Si Si3 0.428494 0.865740 0.032474
Si Si4 0.544644 0.625922 0.730822
Si Si5 0.017379 0.350191 0.157478
Si Si6 0.610042 0.827357 0.896639
Si Si7 0.048864 0.777616 0.849818
O O1 0.097826 0.633182 0.385900
O O2 0.000000 0.000000 0.500000
O O3 0.999275 0.766336 0.099509
O O4 0.745277 0.028792 0.088165
O O5 0.614977 0.639937 0.215568
O O6 0.962339 0.268652 0.370383
O O7 0.833532 0.662769 0.625220
O O8 0.427763 0.049812 0.189557
O O9 0.408699 0.816477 0.796964
O O10 0.500000 0.500000 0.500000
O O11 0.535929 0.723780 0.668461
O O12 0.747202 0.451612 0.970809
O O13 0.076358 0.208374 0.260017
O O14 0.827433 0.624545 0.107248
O O15 0.500000 0.000000 0.000000
O O16 0.000000 0.000000 0.000000
#
# Coordination Sequence:
#
# PCOD8017268 Si02
#       7
#     2   2   2   2   2   2   2
#     4  12  27  45  69  93 139 183 216 276 339 396
#     4  11  24  44  69  97 131 171 230 279 317 410
#     4  10  23  42  64  95 131 174 222 269 336 385
#     4   9  20  34  61  94 129 171 215 267 330 396
#     4  11  23  43  67  98 132 179 226 264 336 404
#     4   9  19  38  62  93 128 166 215 265 327 385
#     4  10  22  38  64  99 132 167 221 276 333 382
#
# _framework density 22.085757999999998
#
# number of rings (size 3 to 8) (size 9 to 14) (size 15 to 20)
#    0.000    1.714    1.429    2.571    6.000    2.286 
#    0.000    0.000    0.000    0.000    0.000    0.000 
#    0.000    0.000    0.000    0.000    0.000    0.000 
#
# Total GULP energy -173489.225649 kJ/mol
# GULP energy per Si atom -12392.087546 kJ/mol
# Density = 2.203549 g / cm^3
# Si number density = 22.085758 Si / 1000 Ang^3
#
#
#
# Elastic Constant Matrix: (Units=GPa)
#
#
# Indices 1 2 3 4 5 6 
#
# 1 95.7904 34.5272 24.3473 -4.0202 17.5015 6.8415
# 2 34.5272 89.6009 23.6006 1.9049 11.1190 0.6461
# 3 24.3473 23.6006 74.5840 9.0213 15.1167 -2.2766
# 4 -4.0202 1.9049 9.0213 40.7919 5.4033 8.8284
# 5 17.5015 11.1190 15.1167 5.4033 35.3918 7.3826
# 6 6.8415 0.6461 -2.2766 8.8284 7.3826 36.6616
#
#
#
# Elastic Compliance Matrix: (Units=1/GPa)
#
#
# Indices 1 2 3 4 5 6 
#
# 1 0.013723 -0.004071 -0.002803 0.003290 -0.004271 -0.002595
# 2 -0.004071 0.013581 -0.002650 -0.000443 -0.001201 0.000704
# 3 -0.002803 -0.002650 0.016783 -0.003967 -0.005094 0.003593
# 4 0.003290 -0.000443 -0.003967 0.027586 -0.002548 -0.006982
# 5 -0.004271 -0.001201 -0.005094 -0.002548 0.034527 -0.005837
# 6 -0.002595 0.000704 0.003593 -0.006982 -0.005837 0.030828
#
#
# Mechanical properties :
#
#
# Convention : Reuss Voigt Hill
#
# Bulk Modulus (GPa) = 39.93812 47.21394 43.57603
# Shear Modulus (GPa) = 30.40956 34.40239 32.40597
#
# Velocity S-wave (km/s) = 3.71467 3.95102 3.83466
# Velocity P-wave (km/s) = 6.04324 6.49908 6.27530
#
# Compressibility (1/GPa) = 0.02503874
#
# Stress axis : x y z
#
# Youngs Moduli (GPa) = 72.87005 73.63392 59.58343
#
# Poissons Ratio (x) = 0.29976 0.16702
# Poissons Ratio (y) = 0.29665 0.15789
# Poissons Ratio (z) = 0.20426 0.19513
#
# Static dielectric constant tensor:
#      x y z
#    x 4.348120 0.057170 0.093070 
#    y 0.057170 4.689840 0.254240 
#    z 0.093070 0.254240 3.740120 
# 
# 
# High freq. dielectric constant tensor:
#      x y z
#    x 1.874670 0.004700 0.013540 
#    y 0.004700 1.876810 0.004340 
#    z 0.013540 0.004340 1.849590 
# 
# From -- ./inp_files/254229.got.cif
#   From: 2010.06.25/outbox.cif.g09.slc.cpg/sg2_128_cif.got.tgz:254229.got - 2010.06.27 13:26:56.
