data_PCOD8017405
_publ_section_title
;
Structure prediction by ZEFSAII (Michael W. Deem and Ramdas Pophale) SiO2 
 PCOD8017405
Probable space group: P -1
;
_chemical_formula_sum "Si O2"
_cell_formula_units_Z 16
_cell_length_a 11.220704
_cell_length_b 11.547271
_cell_length_c 6.709857
_cell_angle_alpha 101.142341
_cell_angle_beta 63.473371
_cell_angle_gamma 89.554116
_cell_volume 758.804276
_symmetry_space_group_name_H-M "P -1"
_symmetry_group_IT_number 2
_symmetry_cell_setting 'triclinic'
loop_
_space_group_symop_operation_xyz
x,y,z
-x,-y,-z
loop_
_atom_site_type_symbol
_atom_site_label
_atom_site_fract_x
_atom_site_fract_y
_atom_site_fract_z
Si Si1 0.545146 0.344175 0.189363
Si Si2 0.320927 0.533988 0.534318
Si Si3 0.859555 0.567797 0.056951
Si Si4 0.819685 0.824758 0.990596
Si Si5 0.039089 0.837734 0.495423
Si Si6 0.176077 0.042621 0.577402
Si Si7 0.781026 0.385949 0.757672
Si Si8 0.400043 0.117610 0.147974
O O1 0.434031 0.457177 0.294820
O O2 0.625195 0.361951 0.340227
O O3 0.483354 0.220316 0.201480
O O4 0.642948 0.343626 0.927250
O O5 0.220223 0.600253 0.474453
O O6 0.247419 0.443234 0.692340
O O7 0.810976 0.508389 0.874018
O O8 0.854858 0.705959 0.055313
O O9 0.000000 0.500000 0.000000
O O10 0.811202 0.933605 0.188972
O O11 0.678930 0.835820 0.978792
O O12 0.938738 0.833682 0.752076
O O13 0.093364 0.709918 0.326929
O O14 0.966605 0.897765 0.376742
O O15 0.167290 0.902919 0.495306
O O16 0.298651 0.090212 0.387386
O O17 0.500000 0.000000 0.000000
#
# Coordination Sequence:
#
# PCOD8017405 Si02
#       8
#     2   2   2   2   2   2   2   2
#     4  10  22  39  57  83 118 154 196 241 289 345
#     4  10  22  39  60  84 117 158 194 239 291 346
#     4  11  23  38  60  92 122 152 194 240 292 351
#     4  11  23  39  62  87 118 158 193 239 297 347
#     4  10  22  39  60  87 117 151 194 242 292 349
#     4  10  22  41  61  85 119 154 193 242 293 346
#     4  11  22  37  60  87 117 154 194 239 292 348
#     4  11  24  40  61  89 118 153 199 245 289 345
#
# _framework density 21.085805000000001
#
# number of rings (size 3 to 8) (size 9 to 14) (size 15 to 20)
#    0.000    1.500    0.000    4.500    0.000    9.500 
#    0.000    0.000    0.000    0.000    0.000    0.000 
#    0.000    0.000    0.000    0.000    0.000    0.000 
#
# Total GULP energy -198419.541983 kJ/mol
# GULP energy per Si atom -12401.221374 kJ/mol
# Density = 2.103781 g / cm^3
# Si number density = 21.085805 Si / 1000 Ang^3
#
#
#
# Elastic Constant Matrix: (Units=GPa)
#
#
# Indices 1 2 3 4 5 6 
#
# 1 83.0478 26.1828 27.0716 -10.1781 6.9909 2.5856
# 2 26.1828 79.1616 18.3361 -1.6217 7.2344 7.4780
# 3 27.0716 18.3361 92.0203 0.9476 12.0294 1.9343
# 4 -10.1781 -1.6217 0.9476 26.8507 -1.8411 -3.6579
# 5 6.9909 7.2344 12.0294 -1.8411 22.0933 0.3026
# 6 2.5856 7.4780 1.9343 -3.6579 0.3026 43.0683
#
#
#
# Elastic Compliance Matrix: (Units=1/GPa)
#
#
# Indices 1 2 3 4 5 6 
#
# 1 0.015262 -0.004038 -0.003612 0.005654 -0.001075 0.000435
# 2 -0.004038 0.014733 -0.001309 -0.001111 -0.002894 -0.002331
# 3 -0.003612 -0.001309 0.012963 -0.002335 -0.005677 -0.000297
# 4 0.005654 -0.001111 -0.002335 0.040072 0.003140 0.003340
# 5 -0.001075 -0.002894 -0.005677 0.003140 0.049893 0.000738
# 6 0.000435 -0.002331 -0.000297 0.003340 0.000738 0.023889
#
#
# Mechanical properties :
#
#
# Convention : Reuss Voigt Hill
#
# Bulk Modulus (GPa) = 39.93676 44.15674 42.04675
# Shear Modulus (GPa) = 27.31087 30.57840 28.94463
#
# Velocity S-wave (km/s) = 3.60283 3.81227 3.70903
# Velocity P-wave (km/s) = 6.02398 6.35333 6.19085
#
# Compressibility (1/GPa) = 0.02503959
#
# Stress axis : x y z
#
# Youngs Moduli (GPa) = 65.52318 67.87402 77.14229
#
# Poissons Ratio (x) = 0.27409 0.27864
# Poissons Ratio (y) = 0.26460 0.10097
# Poissons Ratio (z) = 0.23667 0.08884
#
# Static dielectric constant tensor:
#      x y z
#    x 3.952800 0.111870 0.001040 
#    y 0.111870 3.786100 0.041160 
#    z 0.001040 0.041160 3.775490 
# 
# 
# High freq. dielectric constant tensor:
#      x y z
#    x 1.832110 0.007910 0.000240 
#    y 0.007910 1.825580 0.003650 
#    z 0.000240 0.003650 1.835110 
# 
# From -- ./inp_files/70998.got.cif
#   From: 2010.06.25/outbox.cif.g09.slc.cpg/sg2_36_cif.got.tgz:70998.got - 2010.06.27 13:26:56.
