data_PCOD8017659
_publ_section_title
;
Structure prediction by ZEFSAII (Michael W. Deem and Ramdas Pophale) SiO2 
 PCOD8017659
Probable space group: P -1
;
_chemical_formula_sum "Si O2"
_cell_formula_units_Z 16
_cell_length_a 9.051587
_cell_length_b 8.450740
_cell_length_c 15.384924
_cell_angle_alpha 129.160432
_cell_angle_beta 60.511283
_cell_angle_gamma 90.977601
_cell_volume 715.084004
_symmetry_space_group_name_H-M "P -1"
_symmetry_group_IT_number 2
_symmetry_cell_setting 'triclinic'
loop_
_space_group_symop_operation_xyz
x,y,z
-x,-y,-z
loop_
_atom_site_type_symbol
_atom_site_label
_atom_site_fract_x
_atom_site_fract_y
_atom_site_fract_z
Si Si1 0.720907 0.497507 0.780394
Si Si2 0.617253 0.024611 0.204421
Si Si3 0.391354 0.712038 0.543405
Si Si4 0.279761 0.885962 0.235291
Si Si5 0.670916 0.413743 0.240688
Si Si6 0.318502 0.809007 0.003376
Si Si7 0.917876 0.324238 0.487985
Si Si8 0.906048 0.754393 0.894154
O O1 0.670633 0.319376 0.784681
O O2 0.767727 0.419203 0.641200
O O3 0.891039 0.528454 0.788386
O O4 0.541581 0.744853 0.920473
O O5 0.640162 0.062446 0.314412
O O6 0.570613 0.254107 0.243472
O O7 0.448170 0.958941 0.213426
O O8 0.812511 0.829035 0.042457
O O9 0.500000 0.500000 0.500000
O O10 0.533247 0.667899 0.403353
O O11 0.188983 0.726168 0.579398
O O12 0.247911 0.809587 0.121759
O O13 0.087556 0.094457 0.392553
O O14 0.874596 0.310370 0.190314
O O15 0.692923 0.394487 0.122611
O O16 0.193297 0.050154 0.080345
O O17 0.000000 0.500000 0.500000
#
# Coordination Sequence:
#
# PCOD8017659 Si02
#       8
#     2   2   2   2   2   2   2   2
#     4  12  26  46  65  96 142 173 223 272 334 395
#     4  10  22  39  63  96 135 167 216 271 333 383
#     4  10  22  39  64  98 132 163 218 278 331 379
#     4  12  27  43  67  98 137 181 216 273 334 398
#     4  10  22  40  66 101 130 168 224 287 323 381
#     4  11  22  43  69  96 129 177 228 270 325 389
#     4  12  26  44  73 101 127 177 226 277 325 395
#     4  11  24  39  71 100 132 169 226 284 324 384
#
# _framework density 22.374991000000001
#
# number of rings (size 3 to 8) (size 9 to 14) (size 15 to 20)
#    0.000    1.000    2.500    4.875   14.000    0.000 
#    0.000    2.500    0.000    0.000    0.000    0.000 
#    0.000    0.000    0.000    0.000    0.000    0.000 
#
# Total GULP energy -198346.889730 kJ/mol
# GULP energy per Si atom -12396.680608 kJ/mol
# Density = 2.232406 g / cm^3
# Si number density = 22.374991 Si / 1000 Ang^3
#
#
#
# Elastic Constant Matrix: (Units=GPa)
#
#
# Indices 1 2 3 4 5 6 
#
# 1 124.5319 52.2054 30.4113 -3.4505 6.6900 -3.5054
# 2 52.2054 66.1317 30.3808 -9.8301 -2.8676 2.5954
# 3 30.4113 30.3808 106.2343 -9.3962 15.1083 -5.5039
# 4 -3.4505 -9.8301 -9.3962 22.3374 -2.6233 0.0840
# 5 6.6900 -2.8676 15.1083 -2.6233 46.3730 0.6806
# 6 -3.5054 2.5954 -5.5039 0.0840 0.6806 12.0165
#
#
#
# Elastic Compliance Matrix: (Units=1/GPa)
#
#
# Indices 1 2 3 4 5 6 
#
# 1 0.012894 -0.010969 -0.000122 -0.003236 -0.002774 0.006255
# 2 -0.010969 0.028494 -0.005673 0.009197 0.005895 -0.012351
# 3 -0.000122 -0.005673 0.012232 0.002098 -0.004303 0.007021
# 4 -0.003236 0.009197 0.002098 0.049583 0.003194 -0.002497
# 5 -0.002774 0.005895 -0.004303 0.003194 0.023991 -0.005434
# 6 0.006255 -0.012351 0.007021 -0.002497 -0.005434 0.091253
#
#
# Mechanical properties :
#
#
# Convention : Reuss Voigt Hill
#
# Bulk Modulus (GPa) = 49.77354 58.09922 53.93638
# Shear Modulus (GPa) = 19.32948 28.40540 23.86744
#
# Velocity S-wave (km/s) = 2.94239 3.56689 3.26958
# Velocity P-wave (km/s) = 5.81696 6.55638 6.19771
#
# Compressibility (1/GPa) = 0.02009099
#
# Stress axis : x y z
#
# Youngs Moduli (GPa) = 77.55736 35.09451 81.75454
#
# Poissons Ratio (x) = 0.38496 0.00996
# Poissons Ratio (y) = 0.85075 0.46383
# Poissons Ratio (z) = 0.00944 0.19910
#
# Static dielectric constant tensor:
#      x y z
#    x 4.178390 -0.034180 0.326020 
#    y -0.034180 3.494840 -0.047760 
#    z 0.326020 -0.047760 4.987080 
# 
# 
# High freq. dielectric constant tensor:
#      x y z
#    x 1.895370 -0.006020 0.007530 
#    y -0.006020 1.822590 -0.002270 
#    z 0.007530 -0.002270 1.910850 
# 
# From -- ./inp_files/495567.got.cif
#   From: 2010.06.25/outbox.cif.g09.slc.cpg/sg2_248_cif.got.tgz:495567.got - 2010.06.27 13:26:56.
