data_PCOD8017511
_publ_section_title
;
Structure prediction by ZEFSAII (Michael W. Deem and Ramdas Pophale) SiO2 
 PCOD8017511
Probable space group: P -1
;
_chemical_formula_sum "Si O2"
_cell_formula_units_Z 12
_cell_length_a 9.716207
_cell_length_b 8.711936
_cell_length_c 12.956267
_cell_angle_alpha 106.429818
_cell_angle_beta 141.923840
_cell_angle_gamma 93.479021
_cell_volume 569.471582
_symmetry_space_group_name_H-M "P -1"
_symmetry_group_IT_number 2
_symmetry_cell_setting 'triclinic'
loop_
_space_group_symop_operation_xyz
x,y,z
-x,-y,-z
loop_
_atom_site_type_symbol
_atom_site_label
_atom_site_fract_x
_atom_site_fract_y
_atom_site_fract_z
Si Si1 0.721098 0.639810 0.458129
Si Si2 0.720796 0.520543 0.208737
Si Si3 0.646760 0.205001 0.664968
Si Si4 0.748500 0.319303 0.528280
Si Si5 0.252766 0.842769 0.873620
Si Si6 0.227529 0.954660 0.110566
O O1 0.650709 0.550591 0.287439
O O2 0.533357 0.716033 0.389290
O O3 0.707234 0.489353 0.503190
O O4 0.001163 0.816229 0.660297
O O5 0.727447 0.335411 0.169300
O O6 0.005480 0.679328 0.379172
O O7 0.500000 0.500000 0.000000
O O8 0.807063 0.331650 0.688155
O O9 0.815234 0.202238 0.860596
O O10 0.500000 0.000000 0.500000
O O11 0.498106 0.133851 0.316940
O O12 0.221057 0.872060 0.979972
O O13 0.500000 0.000000 0.000000
O O14 0.000000 0.000000 0.000000
#
# Coordination Sequence:
#
# PCOD8017511 Si02
#       6
#     2   2   2   2   2   2
#     4  11  22  42  64  90 125 164 206 256 309 367
#     4  11  24  41  62  92 124 164 208 252 307 367
#     4  10  22  39  61  90 122 160 205 252 303 362
#     4  10  22  42  64  91 126 164 204 254 308 365
#     4  11  22  39  63  91 123 163 206 254 307 365
#     4  11  23  41  63  94 126 163 206 254 309 368
#
# _framework density 21.072165999999999
#
# number of rings (size 3 to 8) (size 9 to 14) (size 15 to 20)
#    0.000    1.333    0.000    7.500    0.000    6.667 
#    0.000   10.833    0.000    0.000    0.000    0.000 
#    0.000    0.000    0.000    0.000    0.000    0.000 
#
# Total GULP energy -148753.353321 kJ/mol
# GULP energy per Si atom -12396.112777 kJ/mol
# Density = 2.102420 g / cm^3
# Si number density = 21.072166 Si / 1000 Ang^3
#
#
#
# Elastic Constant Matrix: (Units=GPa)
#
#
# Indices 1 2 3 4 5 6 
#
# 1 139.4484 64.0186 36.5749 -7.3531 -27.2999 -1.3239
# 2 64.0186 92.8023 37.8996 -22.4094 -8.1397 3.6389
# 3 36.5749 37.8996 101.7357 -10.1645 -9.9550 11.1348
# 4 -7.3531 -22.4094 -10.1645 41.2780 1.3982 -2.0689
# 5 -27.2999 -8.1397 -9.9550 1.3982 46.4326 -0.3081
# 6 -1.3239 3.6389 11.1348 -2.0689 -0.3081 37.8283
#
#
#
# Elastic Compliance Matrix: (Units=1/GPa)
#
#
# Indices 1 2 3 4 5 6 
#
# 1 0.012182 -0.008106 -0.001241 -0.002651 0.005565 0.001472
# 2 -0.008106 0.019752 -0.003767 0.008400 -0.002368 -0.000635
# 3 -0.001241 -0.003767 0.012203 0.000536 0.001189 -0.003234
# 4 -0.002651 0.008400 0.000536 0.028499 -0.000826 0.000493
# 5 0.005565 -0.002368 0.001189 -0.000826 0.024674 0.000228
# 6 0.001472 -0.000635 -0.003234 0.000493 0.000228 0.027529
#
#
# Mechanical properties :
#
#
# Convention : Reuss Voigt Hill
#
# Bulk Modulus (GPa) = 55.84255 67.88583 61.86419
# Shear Modulus (GPa) = 31.84006 38.14066 34.99036
#
# Velocity S-wave (km/s) = 3.89138 4.25903 4.07935
# Velocity P-wave (km/s) = 6.83729 7.51476 7.18401
#
# Compressibility (1/GPa) = 0.01790749
#
# Stress axis : x y z
#
# Youngs Moduli (GPa) = 82.09028 50.62905 81.94953
#
# Poissons Ratio (x) = 0.41042 0.10170
# Poissons Ratio (y) = 0.66546 0.30868
# Poissons Ratio (z) = 0.10187 0.19071
#
# Static dielectric constant tensor:
#      x y z
#    x 4.125790 -0.015580 -0.137600 
#    y -0.015580 4.034000 -0.356300 
#    z -0.137600 -0.356300 4.072510 
# 
# 
# High freq. dielectric constant tensor:
#      x y z
#    x 1.844670 -0.002050 -0.007330 
#    y -0.002050 1.828350 -0.006640 
#    z -0.007330 -0.006640 1.834230 
# 
# From -- ./inp_files/148267.got.cif
#   From: 2010.06.25/outbox.cif.g09.slc.cpg/sg2_75_cif.got.tgz:148267.got - 2010.06.27 13:26:56.
