data_PCOD8017212
_publ_section_title
;
Structure prediction by ZEFSAII (Michael W. Deem and Ramdas Pophale) SiO2 
 PCOD8017212
Probable space group: P -1
;
_chemical_formula_sum "Si O2"
_cell_formula_units_Z 16
_cell_length_a 19.341282
_cell_length_b 8.952752
_cell_length_c 14.836815
_cell_angle_alpha 78.437694
_cell_angle_beta 158.592336
_cell_angle_gamma 90.586159
_cell_volume 799.177718
_symmetry_space_group_name_H-M "P -1"
_symmetry_group_IT_number 2
_symmetry_cell_setting 'triclinic'
loop_
_space_group_symop_operation_xyz
x,y,z
-x,-y,-z
loop_
_atom_site_type_symbol
_atom_site_label
_atom_site_fract_x
_atom_site_fract_y
_atom_site_fract_z
Si Si1 0.212935 0.486662 0.476954
Si Si2 0.669663 0.359883 0.857482
Si Si3 0.698592 0.225894 0.420362
Si Si4 0.519734 0.841982 0.255058
Si Si5 0.931316 0.457526 0.281395
Si Si6 0.275664 0.237227 0.868637
Si Si7 0.746955 0.320820 0.653877
Si Si8 0.035437 0.154803 0.186577
O O1 0.267288 0.613224 0.589994
O O2 0.419736 0.289905 0.741400
O O3 0.155368 0.570503 0.295648
O O4 0.012196 0.481160 0.279026
O O5 0.589604 0.217830 0.792319
O O6 0.460136 0.545115 0.553129
O O7 0.753885 0.397458 0.051277
O O8 0.857594 0.300218 0.018652
O O9 0.666765 0.231514 0.490933
O O10 0.904651 0.033754 0.675324
O O11 0.494083 0.245672 0.114029
O O12 0.747044 0.830014 0.562860
O O13 0.336565 0.037832 0.984186
O O14 0.841632 0.639669 0.203194
O O15 0.127061 0.301719 0.592413
O O16 0.930209 0.176886 0.957463
#
# Coordination Sequence:
#
# PCOD8017212 Si02
#       8
#     2   2   2   2   2   2   2   2
#     4   9  20  37  58  85 118 152 188 244 285 341
#     4  11  22  39  59  87 124 151 194 241 287 345
#     4   9  20  40  56  86 116 152 192 243 283 343
#     4  10  22  39  58  90 118 148 198 242 282 350
#     4  11  21  40  59  86 117 157 193 240 296 342
#     4  10  22  38  63  82 116 157 193 242 294 344
#     4   9  20  39  61  81 123 154 189 240 292 336
#     4  11  21  38  62  89 116 158 194 235 290 346
#
# _framework density 20.020578
#
# number of rings (size 3 to 8) (size 9 to 14) (size 15 to 20)
#    0.750    1.250    2.500    0.750    1.750    3.500 
#    2.250    0.000    0.000    4.500    0.000    0.000 
#    0.000    0.000    0.000    0.000    0.000    0.000 
#
# Total GULP energy -198219.349650 kJ/mol
# GULP energy per Si atom -12388.709353 kJ/mol
# Density = 1.997501 g / cm^3
# Si number density = 20.020578 Si / 1000 Ang^3
#
#
#
# Elastic Constant Matrix: (Units=GPa)
#
#
# Indices 1 2 3 4 5 6 
#
# 1 52.2589 -2.5370 14.1668 0.3221 11.9059 -4.1379
# 2 -2.5370 83.7686 29.9003 -1.8687 1.3684 2.4295
# 3 14.1668 29.9003 108.4702 -6.2225 0.4622 3.1575
# 4 0.3221 -1.8687 -6.2225 29.8485 -5.8071 5.9988
# 5 11.9059 1.3684 0.4622 -5.8071 20.4913 1.0962
# 6 -4.1379 2.4295 3.1575 5.9988 1.0962 20.5807
#
#
#
# Elastic Compliance Matrix: (Units=1/GPa)
#
#
# Indices 1 2 3 4 5 6 
#
# 1 0.024876 0.002217 -0.004360 -0.005876 -0.016597 0.008006
# 2 0.002217 0.013471 -0.004007 -0.000381 -0.002189 -0.000302
# 3 -0.004360 -0.004007 0.011177 0.003523 0.003726 -0.003344
# 4 -0.005876 -0.000381 0.003523 0.040146 0.015497 -0.014204
# 5 -0.016597 -0.002189 0.003726 0.015497 0.063516 -0.011550
# 6 0.008006 -0.000302 -0.003344 -0.014204 -0.011550 0.055503
#
#
# Mechanical properties :
#
#
# Convention : Reuss Voigt Hill
#
# Bulk Modulus (GPa) = 26.86299 36.39532 31.62915
# Shear Modulus (GPa) = 21.42286 27.71527 24.56907
#
# Velocity S-wave (km/s) = 3.27470 3.72471 3.50693
# Velocity P-wave (km/s) = 5.26735 6.05940 5.67721
#
# Compressibility (1/GPa) = 0.03722594
#
# Stress axis : x y z
#
# Youngs Moduli (GPa) = 40.19889 74.23371 89.47328
#
# Poissons Ratio (x) = -0.16460 0.39007
# Poissons Ratio (y) = -0.08914 0.35849
# Poissons Ratio (z) = 0.17525 0.29743
#
# Static dielectric constant tensor:
#      x y z
#    x 3.256150 -0.109000 0.156960 
#    y -0.109000 3.797950 -0.094180 
#    z 0.156960 -0.094180 3.526120 
# 
# 
# High freq. dielectric constant tensor:
#      x y z
#    x 1.752730 -0.011320 0.016760 
#    y -0.011320 1.792260 -0.006880 
#    z 0.016760 -0.006880 1.773480 
# 
# From -- ./inp_files/540477.got.cif
#   From: 2010.06.25/outbox.cif.g09.slc.cpg/sg2_271_cif.got.tgz:540477.got - 2010.06.27 13:26:56.
