data_PCOD8017923
_publ_section_title
;
Structure prediction by ZEFSAII (Michael W. Deem and Ramdas Pophale) SiO2 
 PCOD8017923
Probable space group: P -1
;
_chemical_formula_sum "Si O2"
_cell_formula_units_Z 16
_cell_length_a 11.727427
_cell_length_b 18.091407
_cell_length_c 8.786036
_cell_angle_alpha 72.656308
_cell_angle_beta 135.292251
_cell_angle_gamma 140.757419
_cell_volume 683.358499
_symmetry_space_group_name_H-M "P -1"
_symmetry_group_IT_number 2
_symmetry_cell_setting 'triclinic'
loop_
_space_group_symop_operation_xyz
x,y,z
-x,-y,-z
loop_
_atom_site_type_symbol
_atom_site_label
_atom_site_fract_x
_atom_site_fract_y
_atom_site_fract_z
Si Si1 0.455885 0.865216 0.213807
Si Si2 0.299798 0.648861 0.351871
Si Si3 0.583474 0.994738 0.739313
Si Si4 0.352152 0.602349 0.109827
Si Si5 0.494716 0.488867 0.320487
Si Si6 0.803374 0.778169 0.922763
Si Si7 0.873277 0.237542 0.333616
Si Si8 0.916813 0.842361 0.343032
O O1 0.288637 0.733317 0.234922
O O2 0.369790 0.916712 0.152763
O O3 0.347736 0.816726 0.968577
O O4 0.808887 0.987913 0.490210
O O5 0.380801 0.622809 0.306974
O O6 0.539739 0.732511 0.661133
O O7 0.968549 0.495476 0.190872
O O8 0.500000 0.000000 0.500000
O O9 0.316776 0.831764 0.646122
O O10 0.890738 0.070633 0.960915
O O11 0.393382 0.531231 0.134152
O O12 0.619189 0.758546 0.189161
O O13 0.500000 0.500000 0.500000
O O14 0.260700 0.332672 0.135849
O O15 0.814773 0.591175 0.488886
O O16 0.846812 0.790512 0.136029
O O17 0.968990 0.186151 0.434089
#
# Coordination Sequence:
#
# PCOD8017923 Si02
#       8
#     2   2   2   2   2   2   2   2
#     4  11  23  42  67  95 132 169 216 264 324 386
#     4  11  25  41  65  94 128 177 213 265 326 388
#     4  11  21  43  65  98 131 165 214 272 320 383
#     4  10  23  43  62  91 130 167 226 262 316 387
#     4  11  21  41  71  97 124 173 223 276 313 377
#     4  12  24  41  68  97 134 170 211 268 335 380
#     4  10  22  39  68  98 124 167 221 268 316 375
#     4  10  23  43  62  97 130 166 216 273 318 387
#
# _framework density 23.413771000000001
#
# number of rings (size 3 to 8) (size 9 to 14) (size 15 to 20)
#    0.000    1.250    3.750    3.750    5.250    3.500 
#    2.250    0.000    0.000    0.000    0.000    0.000 
#    0.000    0.000    0.000    0.000    0.000    0.000 
#
# Total GULP energy -198322.531860 kJ/mol
# GULP energy per Si atom -12395.158241 kJ/mol
# Density = 2.336048 g / cm^3
# Si number density = 23.413771 Si / 1000 Ang^3
#
#
#
# Elastic Constant Matrix: (Units=GPa)
#
#
# Indices 1 2 3 4 5 6 
#
# 1 68.0933 26.2105 41.3545 16.7619 17.5525 32.5596
# 2 26.2105 61.2051 35.1256 17.8107 10.0022 29.9575
# 3 41.3545 35.1256 140.9659 15.0922 19.1543 29.4635
# 4 16.7619 17.8107 15.0922 41.1895 10.4673 19.2886
# 5 17.5525 10.0022 19.1543 10.4673 30.8870 10.9039
# 6 32.5596 29.9575 29.4635 19.2886 10.9039 41.8504
#
#
#
# Elastic Compliance Matrix: (Units=1/GPa)
#
#
# Indices 1 2 3 4 5 6 
#
# 1 0.026353 -0.000356 -0.003318 -0.000031 -0.007130 -0.016040
# 2 -0.000356 0.026554 -0.002993 -0.003109 -0.000137 -0.015155
# 3 -0.003318 -0.002993 0.009423 0.000558 -0.002657 -0.001475
# 4 -0.000031 -0.003109 0.000558 0.032375 -0.006256 -0.011434
# 5 -0.007130 -0.000137 -0.002657 -0.006256 0.040273 -0.000094
# 6 -0.016040 -0.015155 -0.001475 -0.011434 -0.000094 0.053555
#
#
# Mechanical properties :
#
#
# Convention : Reuss Voigt Hill
#
# Bulk Modulus (GPa) = 20.41019 52.84951 36.62985
# Shear Modulus (GPa) = 22.91503 33.95697 28.43600
#
# Velocity S-wave (km/s) = 3.13181 3.81241 3.48875
# Velocity P-wave (km/s) = 4.67052 6.48076 5.64863
#
# Compressibility (1/GPa) = 0.04899515
#
# Stress axis : x y z
#
# Youngs Moduli (GPa) = 37.94651 37.65976 106.12798
#
# Poissons Ratio (x) = 0.01342 0.35209
# Poissons Ratio (y) = 0.01352 0.31765
# Poissons Ratio (z) = 0.12589 0.11272
#
# Static dielectric constant tensor:
#      x y z
#    x 4.311050 0.436890 0.277360 
#    y 0.436890 4.439120 0.420830 
#    z 0.277360 0.420830 4.284050 
# 
# 
# High freq. dielectric constant tensor:
#      x y z
#    x 1.898660 0.021090 0.016700 
#    y 0.021090 1.924290 0.017150 
#    z 0.016700 0.017150 1.933060 
# 
# From -- ./inp_files/185088.got.cif
#   From: 2010.06.25/outbox.cif.g09.slc.cpg/sg2_93_cif.got.tgz:185088.got - 2010.06.27 13:26:56.
