data_PCOD8017799
_publ_section_title
;
Structure prediction by ZEFSAII (Michael W. Deem and Ramdas Pophale) SiO2 
 PCOD8017799
Probable space group: P -1
;
_chemical_formula_sum "Si O2"
_cell_formula_units_Z 16
_cell_length_a 8.988081
_cell_length_b 11.355575
_cell_length_c 18.626887
_cell_angle_alpha 46.281878
_cell_angle_beta 31.577310
_cell_angle_gamma 58.415332
_cell_volume 708.822276
_symmetry_space_group_name_H-M "P -1"
_symmetry_group_IT_number 2
_symmetry_cell_setting 'triclinic'
loop_
_space_group_symop_operation_xyz
x,y,z
-x,-y,-z
loop_
_atom_site_type_symbol
_atom_site_label
_atom_site_fract_x
_atom_site_fract_y
_atom_site_fract_z
Si Si1 0.101617 0.762400 0.659278
Si Si2 0.526848 0.171230 0.798539
Si Si3 0.762392 0.390012 0.192217
Si Si4 0.522346 0.894551 0.660590
Si Si5 0.959544 0.303950 0.447312
Si Si6 0.918695 0.149826 0.014543
Si Si7 0.501805 0.200802 0.053770
Si Si8 0.676246 0.403211 0.761878
O O1 0.141516 0.623007 0.759693
O O2 0.134692 0.682076 0.602019
O O3 0.788561 0.811661 0.776152
O O4 0.339757 0.926872 0.501759
O O5 0.694403 0.200991 0.642385
O O6 0.718624 0.259341 0.748852
O O7 0.471944 0.975593 0.917877
O O8 0.217928 0.238746 0.891660
O O9 0.689747 0.203306 0.270319
O O10 0.480266 0.472381 0.271277
O O11 0.000000 0.500000 0.000000
O O12 0.326471 0.919532 0.798532
O O13 0.766756 0.788770 0.625899
O O14 0.027021 0.487831 0.377393
O O15 0.773528 0.262104 0.970003
O O16 0.000000 0.000000 0.000000
O O17 0.497048 0.328486 0.936775
#
# Coordination Sequence:
#
# PCOD8017799 Si02
#       8
#     2   2   2   2   2   2   2   2
#     4  12  22  42  69 103 131 171 235 274 333 391
#     4  11  23  46  68  97 137 177 221 276 337 402
#     4  11  24  41  64 100 139 180 213 281 336 395
#     4  11  22  42  68  99 137 172 229 276 328 401
#     4  11  24  42  71  98 134 177 221 283 334 393
#     4  10  22  39  66 101 131 170 220 279 334 386
#     4  11  22  41  70 100 128 177 226 279 328 402
#     4  11  25  43  63  99 137 179 224 270 343 399
#
# _framework density 22.572654
#
# number of rings (size 3 to 8) (size 9 to 14) (size 15 to 20)
#    0.000    1.000    3.750    3.750    0.000    2.500 
#    0.000    7.500    0.000    0.000    0.000    0.000 
#    0.000    0.000    0.000    0.000    0.000    0.000 
#
# Total GULP energy -198382.255402 kJ/mol
# GULP energy per Si atom -12398.890963 kJ/mol
# Density = 2.252128 g / cm^3
# Si number density = 22.572654 Si / 1000 Ang^3
#
#
#
# Elastic Constant Matrix: (Units=GPa)
#
#
# Indices 1 2 3 4 5 6 
#
# 1 123.5084 31.2002 44.3419 -13.9533 11.6120 -0.7205
# 2 31.2002 48.5364 23.7558 -7.9317 -2.6429 -1.4088
# 3 44.3419 23.7558 119.0745 4.4280 5.5292 -6.6479
# 4 -13.9533 -7.9317 4.4280 39.3455 4.5802 -6.1880
# 5 11.6120 -2.6429 5.5292 4.5802 38.8373 -4.0681
# 6 -0.7205 -1.4088 -6.6479 -6.1880 -4.0681 28.4684
#
#
#
# Elastic Compliance Matrix: (Units=1/GPa)
#
#
# Indices 1 2 3 4 5 6 
#
# 1 0.011351 -0.005381 -0.003139 0.003663 -0.003793 -0.000458
# 2 -0.005381 0.026640 -0.003524 0.003697 0.003664 0.001686
# 3 -0.003139 -0.003524 0.010473 -0.002722 -0.000308 0.001556
# 4 0.003663 0.003697 -0.002722 0.029012 -0.003304 0.005474
# 5 -0.003793 0.003664 -0.000308 -0.003304 0.027909 0.003283
# 6 -0.000458 0.001686 0.001556 0.005474 0.003283 0.037221
#
#
# Mechanical properties :
#
#
# Convention : Reuss Voigt Hill
#
# Bulk Modulus (GPa) = 41.02725 54.41279 47.72002
# Shear Modulus (GPa) = 28.60089 34.11834 31.35961
#
# Velocity S-wave (km/s) = 3.56344 3.89201 3.73134
# Velocity P-wave (km/s) = 5.92840 6.65995 6.30479
#
# Compressibility (1/GPa) = 0.02437405
#
# Stress axis : x y z
#
# Youngs Moduli (GPa) = 88.09961 37.53759 95.48797
#
# Poissons Ratio (x) = 0.20200 0.29973
# Poissons Ratio (y) = 0.47409 0.33653
# Poissons Ratio (z) = 0.27654 0.13229
#
# Static dielectric constant tensor:
#      x y z
#    x 4.473240 0.159570 -0.281480 
#    y 0.159570 3.917860 -0.060820 
#    z -0.281480 -0.060820 4.064010 
# 
# 
# High freq. dielectric constant tensor:
#      x y z
#    x 1.898520 0.015540 -0.000230 
#    y 0.015540 1.876630 -0.001460 
#    z -0.000230 -0.001460 1.891360 
# 
# From -- ./inp_files/208319.got.cif
#   From: 2010.06.25/outbox.cif.g09.slc.cpg/sg2_105_cif.got.tgz:208319.got - 2010.06.27 13:26:56.
