data_PCOD8017325
_publ_section_title
;
Structure prediction by ZEFSAII (Michael W. Deem and Ramdas Pophale) SiO2 
 PCOD8017325
Probable space group: P -1
;
_chemical_formula_sum "Si O2"
_cell_formula_units_Z 16
_cell_length_a 18.908595
_cell_length_b 8.310293
_cell_length_c 17.359225
_cell_angle_alpha 149.411420
_cell_angle_beta 31.337590
_cell_angle_gamma 138.260594
_cell_volume 721.294337
_symmetry_space_group_name_H-M "P -1"
_symmetry_group_IT_number 2
_symmetry_cell_setting 'triclinic'
loop_
_space_group_symop_operation_xyz
x,y,z
-x,-y,-z
loop_
_atom_site_type_symbol
_atom_site_label
_atom_site_fract_x
_atom_site_fract_y
_atom_site_fract_z
Si Si1 0.423820 0.333542 0.788847
Si Si2 0.001891 0.901227 0.719230
Si Si3 0.981221 0.197302 0.175455
Si Si4 0.193397 0.778368 0.222378
Si Si5 0.693313 0.290348 0.431577
Si Si6 0.236395 0.120293 0.484194
Si Si7 0.570764 0.308164 0.790446
Si Si8 0.829949 0.701802 0.668225
O O1 0.561139 0.423484 0.650872
O O2 0.462739 0.198238 0.780526
O O3 0.332969 0.065322 0.719988
O O4 0.337757 0.646360 0.006499
O O5 0.980510 0.024772 0.877900
O O6 0.051240 0.548207 0.548096
O O7 0.860612 0.889531 0.798038
O O8 0.110650 0.112166 0.656767
O O9 0.822286 0.290633 0.369781
O O10 0.075660 0.512160 0.213032
O O11 0.000000 0.000000 0.000000
O O12 0.202993 0.896013 0.349763
O O13 0.155889 0.069026 0.323387
O O14 0.731535 0.518209 0.418763
O O15 0.366921 0.000606 0.358354
O O16 0.681635 0.540149 0.742032
O O17 0.500000 0.500000 0.000000
#
# Coordination Sequence:
#
# PCOD8017325 Si02
#       8
#     2   2   2   2   2   2   2   2
#     4  11  25  43  65  94 141 174 217 270 329 392
#     4  10  22  42  65 100 134 164 213 287 330 378
#     4  12  24  44  70  92 133 178 215 268 334 394
#     4  12  23  41  71 104 125 176 224 270 323 398
#     4  11  25  45  66  94 131 181 219 267 330 395
#     4  11  23  41  72  98 128 170 225 271 328 389
#     4  11  22  38  61  95 131 171 209 271 321 377
#     4  10  22  38  66  98 132 163 217 277 323 381
#
# _framework density 22.182345999999999
#
# number of rings (size 3 to 8) (size 9 to 14) (size 15 to 20)
#    0.000    1.000    2.500    6.000    1.750    3.000 
#    0.000    3.750    0.000    0.000    0.000    0.000 
#    0.000    0.000    0.000    0.000    0.000    0.000 
#
# Total GULP energy -198416.977391 kJ/mol
# GULP energy per Si atom -12401.061087 kJ/mol
# Density = 2.213186 g / cm^3
# Si number density = 22.182346 Si / 1000 Ang^3
#
#
#
# Elastic Constant Matrix: (Units=GPa)
#
#
# Indices 1 2 3 4 5 6 
#
# 1 118.0343 21.6154 5.0099 -6.7551 2.4262 -9.2480
# 2 21.6154 94.0530 18.1886 -9.5638 -1.1084 -16.4049
# 3 5.0099 18.1886 58.3809 -12.9246 9.7980 0.8979
# 4 -6.7551 -9.5638 -12.9246 20.3012 -4.1263 -2.6310
# 5 2.4262 -1.1084 9.7980 -4.1263 36.4197 -8.7791
# 6 -9.2480 -16.4049 0.8979 -2.6310 -8.7791 37.7010
#
#
#
# Elastic Compliance Matrix: (Units=1/GPa)
#
#
# Indices 1 2 3 4 5 6 
#
# 1 0.009033 -0.001559 0.000276 0.002668 -0.000008 0.001715
# 2 -0.001559 0.013442 -0.003646 0.005124 0.003707 0.006774
# 3 0.000276 -0.003646 0.021537 0.010676 -0.005323 -0.002526
# 4 0.002668 0.005124 0.010676 0.061682 0.006109 0.008357
# 5 -0.000008 0.003707 -0.005323 0.006109 0.032014 0.009619
# 6 0.001715 0.006774 -0.002526 0.008357 0.009619 0.032776
#
#
# Mechanical properties :
#
#
# Convention : Reuss Voigt Hill
#
# Bulk Modulus (GPa) = 29.27926 40.01065 34.64496
# Shear Modulus (GPa) = 26.07883 33.92799 30.00341
#
# Velocity S-wave (km/s) = 3.43250 3.91513 3.68173
# Velocity P-wave (km/s) = 5.37935 6.20596 5.80738
#
# Compressibility (1/GPa) = 0.03415387
#
# Stress axis : x y z
#
# Youngs Moduli (GPa) = 110.70364 74.39360 46.43199
#
# Poissons Ratio (x) = 0.11598 -0.01282
# Poissons Ratio (y) = 0.17259 0.16930
# Poissons Ratio (z) = -0.03056 0.27125
#
# Static dielectric constant tensor:
#      x y z
#    x 4.662110 0.076090 0.080650 
#    y 0.076090 3.823730 -0.219850 
#    z 0.080650 -0.219850 3.992470 
# 
# 
# High freq. dielectric constant tensor:
#      x y z
#    x 1.898970 0.001060 0.006740 
#    y 0.001060 1.868290 -0.018880 
#    z 0.006740 -0.018880 1.861130 
# 
# From -- ./inp_files/577512.got.cif
#   From: 2010.06.25/outbox.cif.g09.slc.cpg/sg2_289_cif.got.tgz:577512.got - 2010.06.27 13:26:56.
