data_PCOD8017360
_publ_section_title
;
Structure prediction by ZEFSAII (Michael W. Deem and Ramdas Pophale) SiO2 
 PCOD8017360
Probable space group: P -1
;
_chemical_formula_sum "Si O2"
_cell_formula_units_Z 16
_cell_length_a 9.504675
_cell_length_b 12.092086
_cell_length_c 12.092092
_cell_angle_alpha 37.815064
_cell_angle_beta 102.628321
_cell_angle_gamma 102.628305
_cell_volume 829.017853
_symmetry_space_group_name_H-M "P -1"
_symmetry_group_IT_number 2
_symmetry_cell_setting 'triclinic'
loop_
_space_group_symop_operation_xyz
x,y,z
-x,-y,-z
loop_
_atom_site_type_symbol
_atom_site_label
_atom_site_fract_x
_atom_site_fract_y
_atom_site_fract_z
Si Si1 0.334868 0.469816 0.969816
Si Si2 0.892184 0.053629 0.164737
Si Si3 0.801543 0.452237 0.331658
Si Si4 0.892184 0.664738 0.553628
Si Si5 0.198457 0.168342 0.047763
Si Si6 0.656921 0.543877 0.441475
Si Si7 0.866283 0.445216 0.945215
Si Si8 0.656921 0.941475 0.043877
O O1 0.286913 0.596619 0.759186
O O2 0.500000 0.500000 0.000000
O O3 0.286913 0.259187 0.096619
O O4 0.274559 0.529168 0.029168
O O5 0.056756 0.046978 0.156887
O O6 0.856580 0.875720 0.375718
O O7 0.781289 0.056835 0.041120
O O8 0.871625 0.235593 0.083291
O O9 0.697877 0.409298 0.454848
O O10 0.943244 0.343113 0.453022
O O11 0.855045 0.666789 0.166789
O O12 0.781288 0.541121 0.556836
O O13 0.871625 0.583296 0.735591
O O14 0.302124 0.045152 0.090702
O O15 0.500000 0.500000 0.500000
O O16 0.654251 0.735528 0.235528
O O17 0.000000 0.500000 0.000000
O O18 0.500000 0.000000 0.000000
#
# Coordination Sequence:
#
# PCOD8017360 Si02
#       8
#     2   2   2   2   2   2   2   2
#     4  10  22  38  68  92 120 170 214 250 310 384
#     4  11  23  39  64  94 123 163 212 260 308 373
#     4   9  19  40  60  87 120 164 209 250 312 369
#     4  11  23  39  64  94 123 163 212 260 308 373
#     4   9  19  40  60  87 120 164 209 250 312 369
#     4  10  23  37  59  92 125 165 208 259 319 369
#     4  12  22  44  66  94 124 168 214 250 320 370
#     4  10  23  37  59  92 125 165 208 259 319 369
#
# _framework density 19.299948000000001
#
# number of rings (size 3 to 8) (size 9 to 14) (size 15 to 20)
#    0.750    1.000    3.750    0.750    5.250    1.500 
#    0.000    0.000    0.000    1.500    0.000    0.000 
#    0.000    0.000    0.000    0.000    0.000    0.000 
#
# Total GULP energy -198252.703803 kJ/mol
# GULP energy per Si atom -12390.793988 kJ/mol
# Density = 1.925602 g / cm^3
# Si number density = 19.299948 Si / 1000 Ang^3
#
#
#
# Elastic Constant Matrix: (Units=GPa)
#
#
# Indices 1 2 3 4 5 6 
#
# 1 174.7650 76.9555 28.3796 20.8495 -1.9743 -5.3302
# 2 76.9555 125.2893 43.5797 10.5260 -3.6760 -12.9740
# 3 28.3796 43.5797 74.1749 11.4133 -2.7396 -4.3476
# 4 20.8495 10.5260 11.4133 28.2123 -2.4112 -2.9584
# 5 -1.9743 -3.6760 -2.7396 -2.4112 27.7283 6.8562
# 6 -5.3302 -12.9740 -4.3476 -2.9584 6.8562 43.7018
#
#
#
# Elastic Compliance Matrix: (Units=1/GPa)
#
#
# Indices 1 2 3 4 5 6 
#
# 1 0.008370 -0.004963 0.000368 -0.004576 -0.000254 -0.000686
# 2 -0.004963 0.013276 -0.005949 0.001436 0.000251 0.002802
# 3 0.000368 -0.005949 0.017631 -0.005175 0.000633 -0.000417
# 4 -0.004576 0.001436 -0.005175 0.040777 0.002472 0.001726
# 5 -0.000254 0.000251 0.000633 0.002472 0.037754 -0.005649
# 6 -0.000686 0.002802 -0.000417 0.001726 -0.005649 0.024592
#
#
# Mechanical properties :
#
#
# Convention : Reuss Voigt Hill
#
# Bulk Modulus (GPa) = 54.97593 74.67321 64.82457
# Shear Modulus (GPa) = 29.48987 34.94944 32.21966
#
# Velocity S-wave (km/s) = 3.91318 4.26003 4.09028
# Velocity P-wave (km/s) = 6.99744 7.93549 7.48118
#
# Compressibility (1/GPa) = 0.01818978
#
# Stress axis : x y z
#
# Youngs Moduli (GPa) = 119.47840 75.32500 56.71858
#
# Poissons Ratio (x) = 0.37383 -0.02088
# Poissons Ratio (y) = 0.59296 0.33739
# Poissons Ratio (z) = -0.04398 0.44807
#
# Static dielectric constant tensor:
#      x y z
#    x 3.255020 0.098350 0.036430 
#    y 0.098350 3.384990 0.047650 
#    z 0.036430 0.047650 3.273980 
# 
# 
# High freq. dielectric constant tensor:
#      x y z
#    x 1.761170 -0.006340 -0.002350 
#    y -0.006340 1.751010 0.008700 
#    z -0.002350 0.008700 1.730730 
# 
# From -- ./inp_files/388863.got.cif
#   From: 2010.06.25/outbox.cif.g09.slc.cpg/sg2_195_cif.got.tgz:388863.got - 2010.06.27 13:26:56.
