data_PCOD8017936
_publ_section_title
;
Structure prediction by ZEFSAII (Michael W. Deem and Ramdas Pophale) SiO2 
 PCOD8017936
Probable space group: P -1
;
_chemical_formula_sum "Si O2"
_cell_formula_units_Z 16
_cell_length_a 12.681802
_cell_length_b 10.363999
_cell_length_c 6.494830
_cell_angle_alpha 119.684438
_cell_angle_beta 110.006704
_cell_angle_gamma 91.878315
_cell_volume 675.144642
_symmetry_space_group_name_H-M "P -1"
_symmetry_group_IT_number 2
_symmetry_cell_setting 'triclinic'
loop_
_space_group_symop_operation_xyz
x,y,z
-x,-y,-z
loop_
_atom_site_type_symbol
_atom_site_label
_atom_site_fract_x
_atom_site_fract_y
_atom_site_fract_z
Si Si1 0.885407 0.378235 0.890637
Si Si2 0.317532 0.536580 0.411966
Si Si3 0.723539 0.337195 0.116842
Si Si4 0.439293 0.792967 0.443237
Si Si5 0.328574 0.054961 0.480387
Si Si6 0.810581 0.068634 0.075053
Si Si7 0.246724 0.225169 0.904133
Si Si8 0.997729 0.167482 0.574066
O O1 0.785540 0.402990 0.700721
O O2 0.911359 0.215992 0.719581
O O3 0.845424 0.383980 0.106756
O O4 0.000000 0.500000 0.000000
O O5 0.296314 0.529429 0.638474
O O6 0.431500 0.670481 0.528870
O O7 0.320301 0.370176 0.195638
O O8 0.726708 0.185469 0.132336
O O9 0.612234 0.304860 0.870135
O O10 0.572750 0.878809 0.571236
O O11 0.361886 0.917205 0.521989
O O12 0.319649 0.192792 0.732537
O O13 0.207795 0.992259 0.222356
O O14 0.942543 0.162834 0.301000
O O15 0.776977 0.925449 0.092082
O O16 0.130280 0.268622 0.770214
O O17 0.000000 0.000000 0.500000
#
# Coordination Sequence:
#
# PCOD8017936 Si02
#       8
#     2   2   2   2   2   2   2   2
#     4  11  22  42  61  91 131 166 207 256 309 373
#     4  11  22  41  63  94 129 167 209 257 312 378
#     4  10  22  39  69  90 120 169 212 254 311 376
#     4   9  22  42  69  92 123 162 214 270 312 370
#     4  10  22  43  67  94 121 169 212 263 321 363
#     4  10  22  40  63  92 123 164 215 254 301 383
#     4  11  24  40  61  93 137 163 206 263 311 371
#     4  10  22  40  60  92 132 166 199 261 309 364
#
# _framework density 23.698623999999999
#
# number of rings (size 3 to 8) (size 9 to 14) (size 15 to 20)
#    0.000    1.750    2.500    0.750    8.750    4.500 
#    2.250    5.000    0.000    0.000    0.000    0.000 
#    0.000    0.000    0.000    0.000    0.000    0.000 
#
# Total GULP energy -198221.349474 kJ/mol
# GULP energy per Si atom -12388.834342 kJ/mol
# Density = 2.364469 g / cm^3
# Si number density = 23.698624 Si / 1000 Ang^3
#
#
#
# Elastic Constant Matrix: (Units=GPa)
#
#
# Indices 1 2 3 4 5 6 
#
# 1 60.1851 15.2789 48.3118 -3.7456 -11.9340 4.3970
# 2 15.2789 65.3400 34.0475 2.7019 -4.4459 15.0600
# 3 48.3118 34.0475 150.4053 15.0962 -36.0953 -3.0597
# 4 -3.7456 2.7019 15.0962 31.1089 -5.9550 2.5094
# 5 -11.9340 -4.4459 -36.0953 -5.9550 33.7603 2.7321
# 6 4.3970 15.0600 -3.0597 2.5094 2.7321 29.3448
#
#
#
# Elastic Compliance Matrix: (Units=1/GPa)
#
#
# Indices 1 2 3 4 5 6 
#
# 1 0.024546 -0.000455 -0.008295 0.007724 0.001525 -0.005112
# 2 -0.000455 0.020524 -0.005343 0.001242 -0.002066 -0.010936
# 3 -0.008295 -0.005343 0.013430 -0.005672 0.009317 0.005003
# 4 0.007724 0.001242 -0.005672 0.036927 0.003821 -0.005900
# 5 0.001525 -0.002066 0.009317 0.003821 0.040710 -0.002313
# 6 -0.005112 -0.010936 0.005003 -0.005900 -0.002313 0.041697
#
#
# Mechanical properties :
#
#
# Convention : Reuss Voigt Hill
#
# Bulk Modulus (GPa) = 32.98821 52.35631 42.67226
# Shear Modulus (GPa) = 23.13492 30.72894 26.93193
#
# Velocity S-wave (km/s) = 3.12783 3.60482 3.37476
# Velocity P-wave (km/s) = 5.19563 6.28226 5.76460
#
# Compressibility (1/GPa) = 0.03031386
#
# Stress axis : x y z
#
# Youngs Moduli (GPa) = 40.74016 48.72447 74.46204
#
# Poissons Ratio (x) = 0.02216 0.61765
# Poissons Ratio (y) = 0.01853 0.39784
# Poissons Ratio (z) = 0.33793 0.26033
#
# Static dielectric constant tensor:
#      x y z
#    x 6.125810 -0.824800 0.355640 
#    y -0.824800 3.742000 -0.032740 
#    z 0.355640 -0.032740 4.755490 
# 
# 
# High freq. dielectric constant tensor:
#      x y z
#    x 1.921020 -0.008880 0.004580 
#    y -0.008880 1.932980 0.012200 
#    z 0.004580 0.012200 1.940200 
# 
# From -- ./inp_files/95540.got.cif
#   From: 2010.06.25/outbox.cif.g09.slc.cpg/sg2_48_cif.got.tgz:95540.got - 2010.06.27 13:26:56.
