data_PCOD8017761
_publ_section_title
;
Structure prediction by ZEFSAII (Michael W. Deem and Ramdas Pophale) SiO2 
 PCOD8017761
Probable space group: P -1
;
_chemical_formula_sum "Si O2"
_cell_formula_units_Z 16
_cell_length_a 9.503860
_cell_length_b 24.566173
_cell_length_c 17.514232
_cell_angle_alpha 15.579383
_cell_angle_beta 59.961716
_cell_angle_gamma 52.682561
_cell_volume 804.111746
_symmetry_space_group_name_H-M "P -1"
_symmetry_group_IT_number 2
_symmetry_cell_setting 'triclinic'
loop_
_space_group_symop_operation_xyz
x,y,z
-x,-y,-z
loop_
_atom_site_type_symbol
_atom_site_label
_atom_site_fract_x
_atom_site_fract_y
_atom_site_fract_z
Si Si1 0.076580 0.518876 0.693986
Si Si2 0.931456 0.604242 0.461396
Si Si3 0.479468 0.419356 0.759983
Si Si4 0.040822 0.079515 0.302774
Si Si5 0.308195 0.599785 0.128925
Si Si6 0.599258 0.071417 0.939154
Si Si7 0.536465 0.312926 0.308417
Si Si8 0.662100 0.950092 0.254122
O O1 0.263662 0.479114 0.738178
O O2 0.101386 0.502060 0.616653
O O3 0.891748 0.773194 0.425031
O O4 0.044737 0.312486 0.008903
O O5 0.772800 0.547714 0.609323
O O6 0.000000 0.500000 0.500000
O O7 0.827283 0.893995 0.097277
O O8 0.568572 0.347983 0.916692
O O9 0.474967 0.651200 0.418261
O O10 0.620279 0.194673 0.972574
O O11 0.237060 0.872064 0.492123
O O12 0.000000 0.000000 0.500000
O O13 0.869638 0.150119 0.193545
O O14 0.452225 0.447210 0.228744
O O15 0.500000 0.000000 0.000000
O O16 0.561230 0.013932 0.112275
O O17 0.433557 0.167731 0.511292
O O18 0.500000 0.500000 0.000000
#
# Coordination Sequence:
#
# PCOD8017761 Si02
#       8
#     2   2   2   2   2   2   2   2
#     4  10  23  41  62  96 135 170 222 273 324 391
#     4  10  22  39  65  92 133 174 229 272 312 388
#     4  12  25  39  66  94 138 181 207 277 340 381
#     4  11  21  42  73  98 124 167 223 274 330 396
#     4  11  24  43  62 103 130 170 226 269 324 406
#     4  11  22  40  62  91 133 176 231 262 318 395
#     4  12  21  42  77  95 125 175 219 279 334 388
#     4  11  23  42  61  97 136 172 224 274 324 393
#
# _framework density 19.897732999999999
#
# number of rings (size 3 to 8) (size 9 to 14) (size 15 to 20)
#    0.000    1.000    7.500    0.375    1.750    7.000 
#    0.000    2.500    0.000    3.000    0.000    0.000 
#    0.000    0.000    0.000    0.000    0.000    0.000 
#
# Total GULP energy -198346.497665 kJ/mol
# GULP energy per Si atom -12396.656104 kJ/mol
# Density = 1.985244 g / cm^3
# Si number density = 19.897733 Si / 1000 Ang^3
#
#
#
# Elastic Constant Matrix: (Units=GPa)
#
#
# Indices 1 2 3 4 5 6 
#
# 1 143.7159 53.0292 56.6257 -0.4216 23.7571 12.2770
# 2 53.0292 147.1224 70.3870 -12.6537 7.9551 1.6632
# 3 56.6257 70.3870 146.7634 -9.5017 7.7759 7.2144
# 4 -0.4216 -12.6537 -9.5017 38.8104 -3.8090 2.6602
# 5 23.7571 7.9551 7.7759 -3.8090 36.6116 -7.1365
# 6 12.2770 1.6632 7.2144 2.6602 -7.1365 29.2319
#
#
#
# Elastic Compliance Matrix: (Units=1/GPa)
#
#
# Indices 1 2 3 4 5 6 
#
# 1 0.010299 -0.002286 -0.002361 -0.001531 -0.006847 -0.005145
# 2 -0.002286 0.009492 -0.003629 0.002159 0.000666 0.001282
# 3 -0.002361 -0.003629 0.009598 0.001243 0.000169 -0.001243
# 4 -0.001531 0.002159 0.001243 0.027139 0.002776 -0.001579
# 5 -0.006847 0.000666 0.000169 0.002776 0.033977 0.010838
# 6 -0.005145 0.001282 -0.001243 -0.001579 0.010838 0.039393
#
#
# Mechanical properties :
#
#
# Convention : Reuss Voigt Hill
#
# Bulk Modulus (GPa) = 77.89781 88.63172 83.26477
# Shear Modulus (GPa) = 33.17230 38.10143 35.63687
#
# Velocity S-wave (km/s) = 4.08749 4.38066 4.23661
# Velocity P-wave (km/s) = 7.84289 8.38017 8.11598
#
# Compressibility (1/GPa) = 0.01283733
#
# Stress axis : x y z
#
# Youngs Moduli (GPa) = 97.10070 105.34697 104.19355
#
# Poissons Ratio (x) = 0.24082 0.24596
# Poissons Ratio (y) = 0.22197 0.37812
# Poissons Ratio (z) = 0.22922 0.38231
#
# Static dielectric constant tensor:
#      x y z
#    x 3.854050 -0.053700 0.177810 
#    y -0.053700 3.941380 -0.129560 
#    z 0.177810 -0.129560 4.157110 
# 
# 
# High freq. dielectric constant tensor:
#      x y z
#    x 1.765200 -0.001520 0.017620 
#    y -0.001520 1.773500 -0.009980 
#    z 0.017620 -0.009980 1.792790 
# 
# From -- ./inp_files/503723.got.cif
#   From: 2010.06.25/outbox.cif.g09.slc.cpg/sg2_252_cif.got.tgz:503723.got - 2010.06.27 13:26:56.
