data_PCOD8017039
_publ_section_title
;
Structure prediction by ZEFSAII (Michael W. Deem and Ramdas Pophale) SiO2 
 PCOD8017039
Probable space group: P -1
;
_chemical_formula_sum "Si O2"
_cell_formula_units_Z 16
_cell_length_a 16.414877
_cell_length_b 16.532966
_cell_length_c 5.584615
_cell_angle_alpha 73.623764
_cell_angle_beta 59.604040
_cell_angle_gamma 34.211447
_cell_volume 705.305292
_symmetry_space_group_name_H-M "P -1"
_symmetry_group_IT_number 2
_symmetry_cell_setting 'triclinic'
loop_
_space_group_symop_operation_xyz
x,y,z
-x,-y,-z
loop_
_atom_site_type_symbol
_atom_site_label
_atom_site_fract_x
_atom_site_fract_y
_atom_site_fract_z
Si Si1 0.680828 0.469495 0.298698
Si Si2 0.744676 0.008423 0.518636
Si Si3 0.004598 0.184475 0.304092
Si Si4 0.126393 0.948553 0.035304
Si Si5 0.363454 0.220415 0.487519
Si Si6 0.274184 0.104002 0.727666
Si Si7 0.622605 0.372310 0.115177
Si Si8 0.383062 0.297803 0.914111
O O1 0.722445 0.372475 0.105905
O O2 0.488622 0.599987 0.557263
O O3 0.701704 0.548000 0.102138
O O4 0.811105 0.355281 0.419447
O O5 0.753349 0.069291 0.242131
O O6 0.583395 0.154623 0.794122
O O7 0.928275 0.870099 0.481299
O O8 0.711561 0.937878 0.532956
O O9 0.117161 0.171253 0.016818
O O10 0.024259 0.071989 0.289294
O O11 0.246606 0.784667 0.086938
O O12 0.000000 0.000000 0.000000
O O13 0.244111 0.226352 0.685128
O O14 0.352951 0.276710 0.713176
O O15 0.550323 0.051244 0.279323
O O16 0.300884 0.316995 0.260781
O O17 0.500000 0.500000 0.000000
#
# Coordination Sequence:
#
# PCOD8017039 Si02
#       8
#     2   2   2   2   2   2   2   2
#     4  11  26  42  60  96 129 170 222 269 340 392
#     4  10  22  37  66  91 128 170 218 273 325 392
#     4  11  23  40  65  93 129 169 216 279 326 391
#     4  11  23  42  60  94 127 167 224 268 332 393
#     4  10  22  40  70  98 132 173 221 277 330 394
#     4   9  21  38  64  99 127 163 223 271 326 391
#     4  11  26  42  64  88 131 174 216 273 331 402
#     4  11  23  42  67  98 132 178 219 273 331 400
#
# _framework density 22.685210000000001
#
# number of rings (size 3 to 8) (size 9 to 14) (size 15 to 20)
#    0.000    1.500    3.750    0.000    7.000    2.000 
#    0.000    1.250    0.000    0.000    0.000    0.000 
#    0.000    0.000    0.000    0.000    0.000    0.000 
#
# Total GULP energy -198253.578659 kJ/mol
# GULP energy per Si atom -12390.848666 kJ/mol
# Density = 2.263358 g / cm^3
# Si number density = 22.685210 Si / 1000 Ang^3
#
#
#
# Elastic Constant Matrix: (Units=GPa)
#
#
# Indices 1 2 3 4 5 6 
#
# 1 119.7110 52.6015 17.5084 -11.0504 2.5086 15.9166
# 2 52.6015 128.0257 21.7247 -20.7033 1.3465 10.2237
# 3 17.5084 21.7247 47.6028 -9.3292 14.4498 16.7664
# 4 -11.0504 -20.7033 -9.3292 32.4721 -10.0392 -5.0416
# 5 2.5086 1.3465 14.4498 -10.0392 28.1441 -9.8099
# 6 15.9166 10.2237 16.7664 -5.0416 -9.8099 36.0858
#
#
#
# Elastic Compliance Matrix: (Units=1/GPa)
#
#
# Indices 1 2 3 4 5 6 
#
# 1 0.010743 -0.004127 0.000159 -0.000384 -0.002504 -0.004377
# 2 -0.004127 0.011165 -0.005647 0.006730 0.006526 0.003995
# 3 0.000159 -0.005647 0.042407 -0.006084 -0.033491 -0.028128
# 4 -0.000384 0.006730 -0.006084 0.042177 0.022441 0.013083
# 5 -0.002504 0.006526 -0.033491 0.022441 0.073903 0.038043
# 6 -0.004377 0.003995 -0.028128 0.013083 0.038043 0.053750
#
#
# Mechanical properties :
#
#
# Convention : Reuss Voigt Hill
#
# Bulk Modulus (GPa) = 22.18000 53.22317 37.70158
# Shear Modulus (GPa) = 18.62876 32.90739 25.76808
#
# Velocity S-wave (km/s) = 2.86874 3.81282 3.37396
# Velocity P-wave (km/s) = 4.55757 6.54950 5.64214
#
# Compressibility (1/GPa) = 0.04508567
#
# Stress axis : x y z
#
# Youngs Moduli (GPa) = 93.08685 89.56242 23.58109
#
# Poissons Ratio (x) = 0.36962 -0.00375
# Poissons Ratio (y) = 0.38416 0.13316
# Poissons Ratio (z) = -0.01481 0.50574
#
# Static dielectric constant tensor:
#      x y z
#    x 4.349260 0.127810 -0.038030 
#    y 0.127810 4.113940 0.015400 
#    z -0.038030 0.015400 4.092380 
# 
# 
# High freq. dielectric constant tensor:
#      x y z
#    x 1.902000 0.006150 -0.005340 
#    y 0.006150 1.882420 -0.013540 
#    z -0.005340 -0.013540 1.881350 
# 
# From -- ./inp_files/38635.got.cif
#   From: 2010.06.25/outbox.cif.g09.slc.cpg/sg2_20_cif.got.tgz:38635.got - 2010.06.27 13:26:56.
