data_PCOD8017417
_publ_section_title
;
Structure prediction by ZEFSAII (Michael W. Deem and Ramdas Pophale) SiO2 
 PCOD8017417
Probable space group: P -1
;
_chemical_formula_sum "Si O2"
_cell_formula_units_Z 16
_cell_length_a 5.015036
_cell_length_b 17.482045
_cell_length_c 15.720611
_cell_angle_alpha 34.126597
_cell_angle_beta 115.427742
_cell_angle_gamma 104.678579
_cell_volume 684.030211
_symmetry_space_group_name_H-M "P -1"
_symmetry_group_IT_number 2
_symmetry_cell_setting 'triclinic'
loop_
_space_group_symop_operation_xyz
x,y,z
-x,-y,-z
loop_
_atom_site_type_symbol
_atom_site_label
_atom_site_fract_x
_atom_site_fract_y
_atom_site_fract_z
Si Si1 0.810899 0.322395 0.175799
Si Si2 0.416077 0.745644 0.504889
Si Si3 0.890496 0.466002 0.423702
Si Si4 0.534906 0.849029 0.599876
Si Si5 0.131656 0.523409 0.117496
Si Si6 0.771461 0.389183 0.784080
Si Si7 0.215989 0.897849 0.013986
Si Si8 0.426227 0.935727 0.185774
O O1 0.552099 0.257552 0.244274
O O2 0.115988 0.204152 0.327051
O O3 0.848593 0.464328 0.098339
O O4 0.725905 0.378974 0.017456
O O5 0.150448 0.691148 0.464637
O O6 0.338533 0.844376 0.488945
O O7 0.625405 0.608042 0.695782
O O8 0.573289 0.828955 0.378647
O O9 0.578392 0.577256 0.267641
O O10 0.000000 0.500000 0.500000
O O11 0.156488 0.489153 0.377114
O O12 0.500000 0.000000 0.500000
O O13 0.023818 0.619905 0.094893
O O14 0.880266 0.245983 0.883182
O O15 0.433515 0.870821 0.151473
O O16 0.386880 0.941558 0.913543
O O17 0.918579 0.013178 0.881419
#
# Coordination Sequence:
#
# PCOD8017417 Si02
#       8
#     2   2   2   2   2   2   2   2
#     4  10  22  42  64  89 126 162 200 250 310 366
#     4  10  23  41  63  92 124 159 208 255 303 363
#     4  11  23  38  61  89 121 158 196 252 311 356
#     4  11  24  41  64  93 126 163 203 249 304 365
#     4   9  22  40  64  91 121 161 202 254 310 362
#     4  11  22  38  60  88 119 152 204 251 295 365
#     4  10  22  39  58  84 116 158 200 242 301 360
#     4  10  22  39  59  82 118 159 198 246 298 356
#
# _framework density 23.390782000000002
#
# number of rings (size 3 to 8) (size 9 to 14) (size 15 to 20)
#    0.000    1.750    0.000    3.000    0.000   15.500 
#    0.000    0.000    0.000    0.000    0.000    0.000 
#    0.000    0.000    0.000    0.000    0.000    0.000 
#
# Total GULP energy -198209.398698 kJ/mol
# GULP energy per Si atom -12388.087419 kJ/mol
# Density = 2.333754 g / cm^3
# Si number density = 23.390782 Si / 1000 Ang^3
#
#
#
# Elastic Constant Matrix: (Units=GPa)
#
#
# Indices 1 2 3 4 5 6 
#
# 1 66.5000 11.9418 21.1389 4.6487 -26.6577 1.5194
# 2 11.9418 170.8734 48.6320 6.5983 -19.3465 -2.8098
# 3 21.1389 48.6320 111.8280 16.1381 -37.1877 -4.9618
# 4 4.6487 6.5983 16.1381 38.7684 -5.9012 -5.9643
# 5 -26.6577 -19.3465 -37.1877 -5.9012 43.4551 -0.0705
# 6 1.5194 -2.8098 -4.9618 -5.9643 -0.0705 22.5755
#
#
#
# Elastic Compliance Matrix: (Units=1/GPa)
#
#
# Indices 1 2 3 4 5 6 
#
# 1 0.020020 -0.000111 0.000498 -0.000904 0.012532 -0.001452
# 2 -0.000111 0.006696 -0.002687 0.000133 0.000632 0.000287
# 3 0.000498 -0.002687 0.014200 -0.003590 0.010776 0.001838
# 4 -0.000904 0.000133 -0.003590 0.028469 0.000309 0.006811
# 5 0.012532 0.000632 0.010776 0.000309 0.040249 0.001811
# 6 -0.001452 0.000287 0.001838 0.006811 0.001811 0.046638
#
#
# Mechanical properties :
#
#
# Convention : Reuss Voigt Hill
#
# Bulk Modulus (GPa) = 27.53699 56.95852 42.24776
# Shear Modulus (GPa) = 28.90541 38.79238 33.84890
#
# Velocity S-wave (km/s) = 3.51915 4.07682 3.80821
# Velocity P-wave (km/s) = 5.32078 6.82381 6.11862
#
# Compressibility (1/GPa) = 0.03631479
#
# Stress axis : x y z
#
# Youngs Moduli (GPa) = 49.95125 149.34294 70.42146
#
# Poissons Ratio (x) = 0.01653 -0.03504
# Poissons Ratio (y) = 0.00553 0.18924
# Poissons Ratio (z) = -0.02485 0.40133
#
# Static dielectric constant tensor:
#      x y z
#    x 4.322130 0.238710 -0.258710 
#    y 0.238710 5.185770 0.260740 
#    z -0.258710 0.260740 4.086220 
# 
# 
# High freq. dielectric constant tensor:
#      x y z
#    x 1.913790 -0.003060 -0.019040 
#    y -0.003060 1.938120 0.008390 
#    z -0.019040 0.008390 1.917190 
# 
# From -- ./inp_files/135337.got.cif
#   From: 2010.06.25/outbox.cif.g09.slc.cpg/sg2_68_cif.got.tgz:135337.got - 2010.06.27 13:26:56.
