data_PCOD8017071
_publ_section_title
;
Structure prediction by ZEFSAII (Michael W. Deem and Ramdas Pophale) SiO2 
 PCOD8017071
Probable space group: P -1
;
_chemical_formula_sum "Si O2"
_cell_formula_units_Z 10
_cell_length_a 8.372656
_cell_length_b 7.923390
_cell_length_c 11.371085
_cell_angle_alpha 104.565023
_cell_angle_beta 137.671078
_cell_angle_gamma 102.480482
_cell_volume 386.969951
_symmetry_space_group_name_H-M "P -1"
_symmetry_group_IT_number 2
_symmetry_cell_setting 'triclinic'
loop_
_space_group_symop_operation_xyz
x,y,z
-x,-y,-z
loop_
_atom_site_type_symbol
_atom_site_label
_atom_site_fract_x
_atom_site_fract_y
_atom_site_fract_z
Si Si1 0.150980 0.700814 0.529798
Si Si2 0.182393 0.975102 0.987926
Si Si3 0.151287 0.874056 0.264660
Si Si4 0.854654 0.427213 0.090194
Si Si5 0.798150 0.939681 0.246145
O O1 0.000000 0.500000 0.500000
O O2 0.051089 0.598624 0.330309
O O3 0.058937 0.858193 0.547222
O O4 0.510542 0.842735 0.746207
O O5 0.053570 0.729692 0.918596
O O6 0.276041 0.992259 0.904452
O O7 0.930164 0.019615 0.866137
O O8 0.965686 0.613764 0.081479
O O9 0.034083 0.895494 0.330869
O O10 0.500000 0.000000 0.500000
O O11 0.501034 0.282409 0.900231
#
# Coordination Sequence:
#
# PCOD8017071 Si02
#       5
#     2   2   2   2   2
#     4  11  15  31  61  86 107 133 177 237 271 308
#     4   9  20  35  54  84 109 137 181 220 270 325
#     4  10  22  38  54  77 114 151 180 214 267 328
#     4  11  19  35  62  82 105 143 177 230 277 303
#     4   9  19  34  56  83 108 135 182 220 271 321
#
# _framework density 25.841799000000002
#
# number of rings (size 3 to 8) (size 9 to 14) (size 15 to 20)
#    1.200    0.800    4.000    1.800    0.000    1.600 
#    0.000    7.000    0.000   22.800    0.000    0.000 
#    0.000    0.000    0.000    0.000    0.000    0.000 
#
# Total GULP energy -123901.524740 kJ/mol
# GULP energy per Si atom -12390.152474 kJ/mol
# Density = 2.578298 g / cm^3
# Si number density = 25.841799 Si / 1000 Ang^3
#
#
#
# Elastic Constant Matrix: (Units=GPa)
#
#
# Indices 1 2 3 4 5 6 
#
# 1 84.5747 57.8025 52.2299 11.9514 30.5509 -42.8354
# 2 57.8025 218.7646 67.8512 28.0145 28.5781 -33.0612
# 3 52.2299 67.8512 149.3131 21.7198 12.8519 -28.5524
# 4 11.9514 28.0145 21.7198 45.9607 -2.2729 -2.7994
# 5 30.5509 28.5781 12.8519 -2.2729 51.2909 -7.9745
# 6 -42.8354 -33.0612 -28.5524 -2.7994 -7.9745 42.6195
#
#
#
# Elastic Compliance Matrix: (Units=1/GPa)
#
#
# Indices 1 2 3 4 5 6 
#
# 1 0.037274 -0.001017 -0.004560 -0.005870 -0.016053 0.030230
# 2 -0.001017 0.006305 -0.001459 -0.002865 -0.002316 0.002270
# 3 -0.004560 -0.001459 0.009287 -0.002219 0.001195 0.000585
# 4 -0.005870 -0.002865 -0.002219 0.025947 0.005737 -0.006832
# 5 -0.016053 -0.002316 0.001195 0.005737 0.028529 -0.011415
# 6 0.030230 0.002270 0.000585 -0.006832 -0.011415 0.053414
#
#
# Mechanical properties :
#
#
# Convention : Reuss Voigt Hill
#
# Bulk Modulus (GPa) = 25.77721 89.82437 57.80079
# Shear Modulus (GPa) = 26.62974 46.29212 36.46093
#
# Velocity S-wave (km/s) = 3.21361 4.23705 3.76031
# Velocity P-wave (km/s) = 4.87508 7.66626 6.42409
#
# Compressibility (1/GPa) = 0.03879395
#
# Stress axis : x y z
#
# Youngs Moduli (GPa) = 26.82817 158.60841 107.67407
#
# Poissons Ratio (x) = 0.16130 0.49100
# Poissons Ratio (y) = 0.02728 0.15712
# Poissons Ratio (z) = 0.12234 0.23144
#
# Static dielectric constant tensor:
#      x y z
#    x 4.952700 0.534730 -0.293190 
#    y 0.534730 5.559140 0.088160 
#    z -0.293190 0.088160 4.253460 
# 
# 
# High freq. dielectric constant tensor:
#      x y z
#    x 2.050990 0.005290 -0.014160 
#    y 0.005290 2.067340 -0.010330 
#    z -0.014160 -0.010330 2.023600 
# 
# From -- ./inp_files/156242.got.cif
#   From: 2010.06.25/outbox.cif.g09.slc.cpg/sg2_79_cif.got.tgz:156242.got - 2010.06.27 13:26:56.
