data_PCOD8017269
_publ_section_title
;
Structure prediction by ZEFSAII (Michael W. Deem and Ramdas Pophale) SiO2 
 PCOD8017269
Probable space group: P -1
;
_chemical_formula_sum "Si O2"
_cell_formula_units_Z 16
_cell_length_a 9.388265
_cell_length_b 9.242429
_cell_length_c 12.933479
_cell_angle_alpha 49.154396
_cell_angle_beta 105.302751
_cell_angle_gamma 117.990043
_cell_volume 748.089480
_symmetry_space_group_name_H-M "P -1"
_symmetry_group_IT_number 2
_symmetry_cell_setting 'triclinic'
loop_
_space_group_symop_operation_xyz
x,y,z
-x,-y,-z
loop_
_atom_site_type_symbol
_atom_site_label
_atom_site_fract_x
_atom_site_fract_y
_atom_site_fract_z
Si Si1 0.465338 0.969360 0.387232
Si Si2 0.567265 0.434919 0.143035
Si Si3 0.912564 0.583108 0.216433
Si Si4 0.904951 0.880629 0.259772
Si Si5 0.788376 0.151763 0.986588
Si Si6 0.112395 0.709773 0.479515
Si Si7 0.575397 0.728974 0.366034
Si Si8 0.494009 0.738296 0.118385
O O1 0.287882 0.787175 0.426389
O O2 0.581904 0.893128 0.379765
O O3 0.500000 0.000000 0.500000
O O4 0.479674 0.186656 0.242297
O O5 0.762598 0.521985 0.136949
O O6 0.509242 0.525193 0.189699
O O7 0.500000 0.500000 0.000000
O O8 0.901168 0.747450 0.219655
O O9 0.892209 0.360018 0.368641
O O10 0.086573 0.693369 0.143540
O O11 0.753860 0.758637 0.358993
O O12 0.053165 0.896758 0.356076
O O13 0.896938 0.099328 0.119400
O O14 0.655740 0.932637 0.015635
O O15 0.673500 0.260332 0.960253
O O16 0.000000 0.500000 0.500000
O O17 0.500000 0.500000 0.500000
O O18 0.484658 0.755857 0.232832
#
# Coordination Sequence:
#
# PCOD8017269 Si02
#       8
#     2   2   2   2   2   2   2   2
#     4  12  26  46  69 101 144 182 221 290 355 408
#     4  12  27  42  68  97 145 185 224 281 361 412
#     4  11  21  42  63 103 133 176 226 292 335 410
#     4  10  22  38  65 100 128 165 237 280 328 389
#     4  10  22  38  72  91 136 167 236 292 320 393
#     4  10  23  41  67  99 132 174 233 275 336 415
#     4  11  22  40  73  97 136 177 234 285 330 408
#     4  10  24  44  65 105 131 180 239 278 341 411
#
# _framework density 21.387816000000001
#
# number of rings (size 3 to 8) (size 9 to 14) (size 15 to 20)
#    0.000    1.250    3.750    2.625   12.250    0.000 
#    0.000    2.500    0.000    0.000    0.000    0.000 
#    0.000    0.000    0.000    0.000    0.000    0.000 
#
# Total GULP energy -198248.864158 kJ/mol
# GULP energy per Si atom -12390.554010 kJ/mol
# Density = 2.133914 g / cm^3
# Si number density = 21.387816 Si / 1000 Ang^3
#
#
#
# Elastic Constant Matrix: (Units=GPa)
#
#
# Indices 1 2 3 4 5 6 
#
# 1 124.3430 29.1250 46.9398 -6.7659 -1.0305 12.4097
# 2 29.1250 75.8982 27.1335 -7.9062 -7.8404 -3.1622
# 3 46.9398 27.1335 121.6642 -5.8459 5.2213 10.1063
# 4 -6.7659 -7.9062 -5.8459 37.3762 9.2957 1.6505
# 5 -1.0305 -7.8404 5.2213 9.2957 49.0234 -2.2634
# 6 12.4097 -3.1622 10.1063 1.6505 -2.2634 35.0454
#
#
#
# Elastic Compliance Matrix: (Units=1/GPa)
#
#
# Indices 1 2 3 4 5 6 
#
# 1 0.010204 -0.002906 -0.002975 0.000967 -0.000259 -0.003080
# 2 -0.002906 0.015840 -0.002724 0.001601 0.002613 0.003337
# 3 -0.002975 -0.002724 0.010302 0.001074 -0.001907 -0.002337
# 4 0.000967 0.001601 0.001074 0.028882 -0.005417 -0.002218
# 5 -0.000259 0.002613 -0.001907 -0.005417 0.022159 0.002564
# 6 -0.003080 0.003337 -0.002337 -0.002218 0.002564 0.030870
#
#
# Mechanical properties :
#
#
# Convention : Reuss Voigt Hill
#
# Bulk Modulus (GPa) = 52.25785 58.70019 55.47902
# Shear Modulus (GPa) = 35.24911 38.86949 37.05930
#
# Velocity S-wave (km/s) = 4.06408 4.26768 4.16712
# Velocity P-wave (km/s) = 6.81973 7.19648 7.01064
#
# Compressibility (1/GPa) = 0.01913588
#
# Stress axis : x y z
#
# Youngs Moduli (GPa) = 98.00024 63.13001 97.06593
#
# Poissons Ratio (x) = 0.18348 0.28880
# Poissons Ratio (y) = 0.28482 0.26439
# Poissons Ratio (z) = 0.29158 0.17195
#
# Static dielectric constant tensor:
#      x y z
#    x 4.972220 -0.161110 0.695290 
#    y -0.161110 3.594980 -0.174410 
#    z 0.695290 -0.174410 4.629220 
# 
# 
# High freq. dielectric constant tensor:
#      x y z
#    x 1.850860 0.006830 0.012240 
#    y 0.006830 1.800300 -0.013640 
#    z 0.012240 -0.013640 1.854610 
# 
# From -- ./inp_files/381378.got.cif
#   From: 2010.06.25/outbox.cif.g09.slc.cpg/sg2_191_cif.got.tgz:381378.got - 2010.06.27 13:26:56.
