data_PCOD8017281
_publ_section_title
;
Structure prediction by ZEFSAII (Michael W. Deem and Ramdas Pophale) SiO2 
 PCOD8017281
Probable space group: P -1
;
_chemical_formula_sum "Si O2"
_cell_formula_units_Z 16
_cell_length_a 9.180808
_cell_length_b 18.785851
_cell_length_c 10.919554
_cell_angle_alpha 131.816620
_cell_angle_beta 80.232441
_cell_angle_gamma 138.020628
_cell_volume 710.222548
_symmetry_space_group_name_H-M "P -1"
_symmetry_group_IT_number 2
_symmetry_cell_setting 'triclinic'
loop_
_space_group_symop_operation_xyz
x,y,z
-x,-y,-z
loop_
_atom_site_type_symbol
_atom_site_label
_atom_site_fract_x
_atom_site_fract_y
_atom_site_fract_z
Si Si1 0.190373 0.851839 0.922584
Si Si2 0.350653 0.607881 0.089351
Si Si3 0.085330 0.155397 0.634760
Si Si4 0.650012 0.926591 0.243971
Si Si5 0.324835 0.928970 0.259858
Si Si6 0.266165 0.083065 0.053573
Si Si7 0.107986 0.640564 0.313586
Si Si8 0.847845 0.498328 0.447919
O O1 0.944610 0.656668 0.661702
O O2 0.167738 0.812877 0.023490
O O3 0.500000 0.000000 0.000000
O O4 0.175781 0.956832 0.024995
O O5 0.567820 0.648046 0.163087
O O6 0.516426 0.760930 0.138642
O O7 0.221125 0.599537 0.207675
O O8 0.079532 0.411853 0.828876
O O9 0.909149 0.136261 0.714069
O O10 0.000000 0.000000 0.500000
O O11 0.979589 0.119678 0.469943
O O12 0.432767 0.893187 0.274295
O O13 0.669702 0.933003 0.102751
O O14 0.617898 0.147664 0.441298
O O15 0.517675 0.296191 0.295511
O O16 0.000000 0.000000 0.000000
O O17 0.901737 0.514781 0.315092
O O18 0.000000 0.500000 0.500000
#
# Coordination Sequence:
#
# PCOD8017281 Si02
#       8
#     2   2   2   2   2   2   2   2
#     4  12  24  43  68 103 137 176 236 278 338 410
#     4  10  23  40  63  97 129 171 222 275 330 407
#     4  10  22  38  65  94 126 173 218 272 338 401
#     4  11  21  41  66  95 127 175 227 267 343 410
#     4  12  22  40  69  94 134 174 220 286 334 404
#     4  12  27  44  71 102 140 182 227 290 343 404
#     4  11  21  38  68  93 132 172 222 271 339 398
#     4  12  23  43  71 102 135 185 230 277 339 415
#
# _framework density 22.52815
#
# number of rings (size 3 to 8) (size 9 to 14) (size 15 to 20)
#    0.000    0.750    7.500    0.375    3.500    1.500 
#    0.000    1.875    0.000    0.000    0.000    0.000 
#    0.000    0.000    0.000    0.000    0.000    0.000 
#
# Total GULP energy -198239.168287 kJ/mol
# GULP energy per Si atom -12389.948018 kJ/mol
# Density = 2.247687 g / cm^3
# Si number density = 22.528150 Si / 1000 Ang^3
#
#
#
# Elastic Constant Matrix: (Units=GPa)
#
#
# Indices 1 2 3 4 5 6 
#
# 1 127.6479 13.5041 51.3008 12.8999 22.1733 24.8587
# 2 13.5041 30.5952 41.0332 14.1328 4.6722 6.6971
# 3 51.3008 41.0332 129.4337 4.8727 19.0941 6.9790
# 4 12.8999 14.1328 4.8727 33.5760 -1.0728 4.6739
# 5 22.1733 4.6722 19.0941 -1.0728 38.0208 4.1278
# 6 24.8587 6.6971 6.9790 4.6739 4.1278 35.3650
#
#
#
# Elastic Compliance Matrix: (Units=1/GPa)
#
#
# Indices 1 2 3 4 5 6 
#
# 1 0.012352 0.008065 -0.006145 -0.006328 -0.004458 -0.007641
# 2 0.008065 0.084742 -0.028085 -0.033082 -0.000674 -0.011724
# 3 -0.006145 -0.028085 0.018789 0.010701 -0.002623 0.004822
# 4 -0.006328 -0.033082 0.010701 0.044368 0.003379 0.002343
# 5 -0.004458 -0.000674 -0.002623 0.003379 0.030420 -0.000219
# 6 -0.007641 -0.011724 0.004822 0.002343 -0.000219 0.034632
#
#
# Mechanical properties :
#
#
# Convention : Reuss Voigt Hill
#
# Bulk Modulus (GPa) = 15.73447 55.48368 35.60908
# Shear Modulus (GPa) = 16.73270 33.51495 25.12382
#
# Velocity S-wave (km/s) = 2.72829 3.86125 3.34311
# Velocity P-wave (km/s) = 4.11392 6.67540 5.54461
#
# Compressibility (1/GPa) = 0.06355471
#
# Stress axis : x y z
#
# Youngs Moduli (GPa) = 80.95743 11.80055 53.22273
#
# Poissons Ratio (x) = -0.09518 0.32705
# Poissons Ratio (y) = -0.65296 1.49475
# Poissons Ratio (z) = 0.49747 0.33142
#
# Static dielectric constant tensor:
#      x y z
#    x 4.868310 -0.582010 0.626310 
#    y -0.582010 4.242650 -0.612450 
#    z 0.626310 -0.612450 4.688510 
# 
# 
# High freq. dielectric constant tensor:
#      x y z
#    x 1.890570 0.000770 0.015310 
#    y 0.000770 1.871790 -0.004210 
#    z 0.015310 -0.004210 1.901780 
# 
# From -- ./inp_files/405579.got.cif
#   From: 2010.06.25/outbox.cif.g09.slc.cpg/sg2_203_cif.got.tgz:405579.got - 2010.06.27 13:26:56.
