data_PCOD8017378
_publ_section_title
;
Structure prediction by ZEFSAII (Michael W. Deem and Ramdas Pophale) SiO2 
 PCOD8017378
Probable space group: P -1
;
_chemical_formula_sum "Si O2"
_cell_formula_units_Z 14
_cell_length_a 14.567358
_cell_length_b 16.399982
_cell_length_c 7.287243
_cell_angle_alpha 47.449437
_cell_angle_beta 139.301229
_cell_angle_gamma 150.129852
_cell_volume 564.444151
_symmetry_space_group_name_H-M "P -1"
_symmetry_group_IT_number 2
_symmetry_cell_setting 'triclinic'
loop_
_space_group_symop_operation_xyz
x,y,z
-x,-y,-z
loop_
_atom_site_type_symbol
_atom_site_label
_atom_site_fract_x
_atom_site_fract_y
_atom_site_fract_z
Si Si1 0.361075 0.491913 0.172115
Si Si2 0.821159 0.397079 0.161508
Si Si3 0.502974 0.191342 0.689710
Si Si4 0.215504 0.174593 0.785942
Si Si5 0.238161 0.731715 0.350259
Si Si6 0.863402 0.081516 0.180923
Si Si7 0.336023 0.319240 0.108482
O O1 0.500000 0.500000 0.500000
O O2 0.534487 0.668576 0.064430
O O3 0.224170 0.330480 0.078445
O O4 0.208939 0.488016 0.045489
O O5 0.720838 0.269366 0.371690
O O6 0.073935 0.540281 0.323278
O O7 0.712391 0.290590 0.975056
O O8 0.549610 0.158934 0.614319
O O9 0.303963 0.027132 0.743152
O O10 0.461274 0.296305 0.439173
O O11 0.165206 0.022763 0.869601
O O12 0.164965 0.169547 0.934075
O O13 0.092884 0.193996 0.446348
O O14 0.151779 0.805655 0.094889
O O15 0.500000 0.500000 0.000000
#
# Coordination Sequence:
#
# PCOD8017378 Si02
#       7
#     2   2   2   2   2   2   2
#     4  11  18  39  69  96 130 170 223 283 339 380
#     4  11  24  46  71  99 133 180 235 288 325 406
#     4  12  24  45  67 102 139 179 229 280 335 414
#     4  10  22  42  65 102 134 172 228 274 338 414
#     4  11  26  45  68  99 134 183 235 275 342 400
#     4  11  24  44  70  98 144 184 214 284 349 407
#     4  10  22  38  70 101 131 173 224 286 334 393
#
# _framework density 24.803159999999998
#
# number of rings (size 3 to 8) (size 9 to 14) (size 15 to 20)
#    0.000    1.143    2.857    3.429    2.000    2.286 
#    7.714    0.000    0.000    0.000    0.000    0.000 
#    0.000    0.000    0.000    0.000    0.000    0.000 
#
# Total GULP energy -173464.460796 kJ/mol
# GULP energy per Si atom -12390.318628 kJ/mol
# Density = 2.474671 g / cm^3
# Si number density = 24.803160 Si / 1000 Ang^3
#
#
#
# Elastic Constant Matrix: (Units=GPa)
#
#
# Indices 1 2 3 4 5 6 
#
# 1 87.3535 24.5318 10.1744 1.3820 -8.4460 -19.3569
# 2 24.5318 79.6392 17.4068 1.7943 -8.8695 -9.0830
# 3 10.1744 17.4068 91.3173 -21.6685 -15.3718 -5.5148
# 4 1.3820 1.7943 -21.6685 43.5303 -6.1169 -2.4605
# 5 -8.4460 -8.8695 -15.3718 -6.1169 40.4717 2.6928
# 6 -19.3569 -9.0830 -5.5148 -2.4605 2.6928 29.5154
#
#
#
# Elastic Compliance Matrix: (Units=1/GPa)
#
#
# Indices 1 2 3 4 5 6 
#
# 1 0.014375 -0.003276 -0.000104 0.000339 0.001744 0.008270
# 2 -0.003276 0.014450 -0.002423 -0.001433 0.001239 0.001613
# 3 -0.000104 -0.002423 0.014547 0.008316 0.006093 0.002041
# 4 0.000339 -0.001433 0.008316 0.028316 0.006992 0.003058
# 5 0.001744 0.001239 0.006093 0.006992 0.028673 0.000630
# 6 0.008270 0.001613 0.002041 0.003058 0.000630 0.040379
#
#
# Mechanical properties :
#
#
# Convention : Reuss Voigt Hill
#
# Bulk Modulus (GPa) = 31.48047 40.28179 35.88113
# Shear Modulus (GPa) = 30.68725 36.44994 33.56860
#
# Velocity S-wave (km/s) = 3.52125 3.83765 3.68285
# Velocity P-wave (km/s) = 5.40850 5.99271 5.70809
#
# Compressibility (1/GPa) = 0.03176573
#
# Stress axis : x y z
#
# Youngs Moduli (GPa) = 69.56291 69.20610 68.74463
#
# Poissons Ratio (x) = 0.22670 0.00713
# Poissons Ratio (y) = 0.22787 0.16660
# Poissons Ratio (z) = 0.00722 0.16771
#
# Static dielectric constant tensor:
#      x y z
#    x 5.091200 0.167280 -0.102890 
#    y 0.167280 4.866640 0.139490 
#    z -0.102890 0.139490 4.725810 
# 
# 
# High freq. dielectric constant tensor:
#      x y z
#    x 1.990110 0.001680 -0.009370 
#    y 0.001680 1.980470 -0.006960 
#    z -0.009370 -0.006960 1.989370 
# 
# From -- ./inp_files/336689.got.cif
#   From: 2010.06.25/outbox.cif.g09.slc.cpg/sg2_169_cif.got.tgz:336689.got - 2010.06.27 13:26:56.
