data_PCOD8017347
_publ_section_title
;
Structure prediction by ZEFSAII (Michael W. Deem and Ramdas Pophale) SiO2 
 PCOD8017347
Probable space group: P -1
;
_chemical_formula_sum "Si O2"
_cell_formula_units_Z 16
_cell_length_a 9.214872
_cell_length_b 14.857562
_cell_length_c 7.894855
_cell_angle_alpha 52.035973
_cell_angle_beta 86.789080
_cell_angle_gamma 113.576849
_cell_volume 709.515972
_symmetry_space_group_name_H-M "P -1"
_symmetry_group_IT_number 2
_symmetry_cell_setting 'triclinic'
loop_
_space_group_symop_operation_xyz
x,y,z
-x,-y,-z
loop_
_atom_site_type_symbol
_atom_site_label
_atom_site_fract_x
_atom_site_fract_y
_atom_site_fract_z
Si Si1 0.355385 0.526266 0.648468
Si Si2 0.901433 0.575707 0.903529
Si Si3 0.256313 0.886830 0.013037
Si Si4 0.078730 0.855741 0.720405
Si Si5 0.470430 0.173493 0.825877
Si Si6 0.289886 0.423341 0.411521
Si Si7 0.024978 0.127379 0.748694
Si Si8 0.809121 0.914214 0.764646
O O1 0.454400 0.688861 0.441076
O O2 0.248947 0.457088 0.561127
O O3 0.500212 0.490869 0.717989
O O4 0.227332 0.471307 0.876496
O O5 0.795584 0.537326 0.777228
O O6 0.039818 0.739972 0.717454
O O7 0.000000 0.500000 0.000000
O O8 0.171109 0.836424 0.894426
O O9 0.370902 0.051384 0.838528
O O10 0.369372 0.823623 0.104876
O O11 0.102183 0.826917 0.230684
O O12 0.888124 0.824113 0.826476
O O13 0.223245 0.017497 0.473942
O O14 0.345690 0.160482 0.003937
O O15 0.219126 0.261731 0.591223
O O16 0.974875 0.066727 0.635000
O O17 0.000000 0.000000 0.000000
#
# Coordination Sequence:
#
# PCOD8017347 Si02
#       8
#     2   2   2   2   2   2   2   2
#     4  11  27  45  71 100 139 188 231 275 351 418
#     4  12  29  47  69 102 144 189 233 284 344 421
#     4  10  22  38  67  97 133 167 222 285 348 409
#     4  11  23  42  66 100 127 176 230 289 339 414
#     4  10  24  42  63 101 133 177 218 286 351 408
#     4  11  25  47  71 101 138 184 234 290 337 416
#     4  11  19  38  69  96 126 173 224 283 342 398
#     4  10  22  39  68  96 129 168 228 285 348 394
#
# _framework density 22.550585000000002
#
# number of rings (size 3 to 8) (size 9 to 14) (size 15 to 20)
#    0.000    1.250    2.500    2.625    7.000    2.000 
#    2.250    0.000    0.000    0.000    0.000    0.000 
#    0.000    0.000    0.000    0.000    0.000    0.000 
#
# Total GULP energy -198293.805525 kJ/mol
# GULP energy per Si atom -12393.362845 kJ/mol
# Density = 2.249926 g / cm^3
# Si number density = 22.550585 Si / 1000 Ang^3
#
#
#
# Elastic Constant Matrix: (Units=GPa)
#
#
# Indices 1 2 3 4 5 6 
#
# 1 102.2013 37.6070 30.4570 7.7845 20.4269 2.6899
# 2 37.6070 95.1143 16.0439 12.5563 14.9749 10.4823
# 3 30.4570 16.0439 89.0135 5.5325 7.3103 -0.9010
# 4 7.7845 12.5563 5.5325 36.4990 0.7683 6.4551
# 5 20.4269 14.9749 7.3103 0.7683 34.3819 2.3932
# 6 2.6899 10.4823 -0.9010 6.4551 2.3932 27.2444
#
#
#
# Elastic Compliance Matrix: (Units=1/GPa)
#
#
# Indices 1 2 3 4 5 6 
#
# 1 0.013355 -0.003777 -0.003355 -0.001058 -0.005606 0.000767
# 2 -0.003777 0.013435 -0.000728 -0.002960 -0.003119 -0.003845
# 3 -0.003355 -0.000728 0.012637 -0.001178 -0.000444 0.001348
# 4 -0.001058 -0.002960 -0.001178 0.029848 0.001922 -0.006036
# 5 -0.005606 -0.003119 -0.000444 0.001922 0.033944 -0.001698
# 6 0.000767 -0.003845 0.001348 -0.006036 -0.001698 0.039732
#
#
# Mechanical properties :
#
#
# Convention : Reuss Voigt Hill
#
# Bulk Modulus (GPa) = 42.18036 50.50499 46.34268
# Shear Modulus (GPa) = 30.01680 33.10647 31.56164
#
# Velocity S-wave (km/s) = 3.65237 3.83573 3.74517
# Velocity P-wave (km/s) = 6.04415 6.48553 6.26872
#
# Compressibility (1/GPa) = 0.02370771
#
# Stress axis : x y z
#
# Youngs Moduli (GPa) = 74.87833 74.43006 79.13418
#
# Poissons Ratio (x) = 0.28110 0.26549
# Poissons Ratio (y) = 0.28279 0.05762
# Poissons Ratio (z) = 0.25121 0.05419
#
# Static dielectric constant tensor:
#      x y z
#    x 4.234260 0.168630 0.188790 
#    y 0.168630 4.522760 0.333910 
#    z 0.188790 0.333910 4.405340 
# 
# 
# High freq. dielectric constant tensor:
#      x y z
#    x 1.882700 0.002720 0.009910 
#    y 0.002720 1.892620 0.003990 
#    z 0.009910 0.003990 1.894000 
# 
# From -- ./inp_files/199611.got.cif
#   From: 2010.06.25/outbox.cif.g09.slc.cpg/sg2_100_cif.got.tgz:199611.got - 2010.06.27 13:26:56.
