data_PCOD8017994
_publ_section_title
;
Structure prediction by ZEFSAII (Michael W. Deem and Ramdas Pophale) SiO2 
 PCOD8017994
Probable space group: P -1
;
_chemical_formula_sum "Si O2"
_cell_formula_units_Z 16
_cell_length_a 21.924982
_cell_length_b 25.193612
_cell_length_c 6.240509
_cell_angle_alpha 48.057439
_cell_angle_beta 54.215731
_cell_angle_gamma 17.730054
_cell_volume 760.041810
_symmetry_space_group_name_H-M "P -1"
_symmetry_group_IT_number 2
_symmetry_cell_setting 'triclinic'
loop_
_space_group_symop_operation_xyz
x,y,z
-x,-y,-z
loop_
_atom_site_type_symbol
_atom_site_label
_atom_site_fract_x
_atom_site_fract_y
_atom_site_fract_z
Si Si1 0.385211 0.274838 0.665250
Si Si2 0.377510 0.036546 0.687466
Si Si3 0.355898 0.933342 0.691817
Si Si4 0.733031 0.286431 0.180644
Si Si5 0.248628 0.467651 0.813065
Si Si6 0.963626 0.200987 0.664044
Si Si7 0.005562 0.940552 0.345045
Si Si8 0.025685 0.560408 0.324625
O O1 0.587838 0.115377 0.543949
O O2 0.276204 0.435525 0.585827
O O3 0.220101 0.387552 0.544335
O O4 0.451187 0.160006 0.014501
O O5 0.173628 0.229238 0.724307
O O6 0.500000 0.000000 0.500000
O O7 0.323113 0.042211 0.563699
O O8 0.530055 0.736141 0.986999
O O9 0.149435 0.070562 0.768955
O O10 0.780069 0.250917 0.437232
O O11 0.500000 0.500000 0.000000
O O12 0.857745 0.238521 0.937032
O O13 0.816471 0.133299 0.363044
O O14 0.185587 0.603600 0.627737
O O15 0.081903 0.557559 0.006003
O O16 0.031938 0.103978 0.561213
O O17 0.000000 0.000000 0.000000
O O18 0.000000 0.500000 0.500000
#
# Coordination Sequence:
#
# PCOD8017994 Si02
#       8
#     2   2   2   2   2   2   2   2
#     4  10  22  40  58  80 118 158 202 261 316 375
#     4  11  23  39  61  87 120 163 211 261 318 381
#     4  10  23  40  59  89 124 162 211 262 318 378
#     4  10  23  42  66  95 128 169 213 256 318 392
#     4  10  23  39  59  91 122 161 211 260 319 376
#     4  11  23  38  63  93 127 164 207 266 321 378
#     4   9  22  42  63  92 127 164 208 256 315 386
#     4  11  23  39  60  86 119 160 211 263 317 382
#
# _framework density 21.051472
#
# number of rings (size 3 to 8) (size 9 to 14) (size 15 to 20)
#    0.000    1.750    0.000    3.750    0.000   17.000 
#    0.000    0.000    0.000    0.000    0.000    0.000 
#    0.000    0.000    0.000    0.000    0.000    0.000 
#
# Total GULP energy -198273.444611 kJ/mol
# GULP energy per Si atom -12392.090288 kJ/mol
# Density = 2.100356 g / cm^3
# Si number density = 21.051472 Si / 1000 Ang^3
#
#
#
# Elastic Constant Matrix: (Units=GPa)
#
#
# Indices 1 2 3 4 5 6 
#
# 1 155.7394 64.2232 53.0783 2.0524 -9.4416 12.5851
# 2 64.2232 120.9477 29.3975 -4.2138 -0.1696 3.7161
# 3 53.0783 29.3975 87.4960 -3.5255 4.1056 5.3254
# 4 2.0524 -4.2138 -3.5255 37.5539 5.1543 2.8599
# 5 -9.4416 -0.1696 4.1056 5.1543 36.0560 -7.5406
# 6 12.5851 3.7161 5.3254 2.8599 -7.5406 44.9626
#
#
#
# Elastic Compliance Matrix: (Units=1/GPa)
#
#
# Indices 1 2 3 4 5 6 
#
# 1 0.010145 -0.004221 -0.004883 -0.001828 0.003190 -0.001261
# 2 -0.004221 0.010789 -0.000958 0.001498 -0.001135 0.000118
# 3 -0.004883 -0.000958 0.015029 0.002134 -0.003521 -0.001060
# 4 -0.001828 0.001498 0.002134 0.028009 -0.005247 -0.002526
# 5 0.003190 -0.001135 -0.003521 -0.005247 0.030785 0.005115
# 6 -0.001261 0.000118 -0.001060 -0.002526 0.005115 0.023728
#
#
# Mechanical properties :
#
#
# Convention : Reuss Voigt Hill
#
# Bulk Modulus (GPa) = 63.13240 73.06458 68.09849
# Shear Modulus (GPa) = 34.74898 38.21345 36.48121
#
# Velocity S-wave (km/s) = 4.06725 4.26518 4.16739
# Velocity P-wave (km/s) = 7.21882 7.68366 7.45486
#
# Compressibility (1/GPa) = 0.01583973
#
# Stress axis : x y z
#
# Youngs Moduli (GPa) = 98.57008 92.68622 66.53839
#
# Poissons Ratio (x) = 0.39120 0.32490
# Poissons Ratio (y) = 0.41603 0.06375
# Poissons Ratio (z) = 0.48131 0.08880
#
# Static dielectric constant tensor:
#      x y z
#    x 4.247530 0.429220 0.160260 
#    y 0.429220 4.196350 0.046760 
#    z 0.160260 0.046760 3.968370 
# 
# 
# High freq. dielectric constant tensor:
#      x y z
#    x 1.831080 0.014270 0.006320 
#    y 0.014270 1.828720 -0.010850 
#    z 0.006320 -0.010850 1.827850 
# 
# From -- ./inp_files/120625.got.cif
#   From: 2010.06.25/outbox.cif.g09.slc.cpg/sg2_61_cif.got.tgz:120625.got - 2010.06.27 13:26:56.
