data_PCOD8017564
_publ_section_title
;
Structure prediction by ZEFSAII (Michael W. Deem and Ramdas Pophale) SiO2 
 PCOD8017564
Probable space group: P -1
;
_chemical_formula_sum "Si O2"
_cell_formula_units_Z 16
_cell_length_a 8.442784
_cell_length_b 13.350885
_cell_length_c 9.070397
_cell_angle_alpha 62.145906
_cell_angle_beta 109.553566
_cell_angle_gamma 72.474852
_cell_volume 711.901014
_symmetry_space_group_name_H-M "P -1"
_symmetry_group_IT_number 2
_symmetry_cell_setting 'triclinic'
loop_
_space_group_symop_operation_xyz
x,y,z
-x,-y,-z
loop_
_atom_site_type_symbol
_atom_site_label
_atom_site_fract_x
_atom_site_fract_y
_atom_site_fract_z
Si Si1 0.576559 0.595864 0.494600
Si Si2 0.717263 0.406002 0.913655
Si Si3 0.639151 0.636065 0.174101
Si Si4 0.025597 0.112300 0.211786
Si Si5 0.264391 0.149297 0.512345
Si Si6 0.664603 0.103853 0.748688
Si Si7 0.307393 0.931257 0.876030
Si Si8 0.948281 0.450733 0.166350
O O1 0.500000 0.500000 0.500000
O O2 0.716429 0.521765 0.732183
O O3 0.696204 0.609705 0.385223
O O4 0.384898 0.743893 0.375902
O O5 0.506503 0.418944 0.854731
O O6 0.783441 0.417374 0.090194
O O7 0.892394 0.262553 0.996387
O O8 0.839073 0.561555 0.186563
O O9 0.521886 0.796065 0.988677
O O10 0.185408 0.103110 0.383809
O O11 0.862817 0.084079 0.244671
O O12 0.128310 0.002038 0.191844
O O13 0.494831 0.101845 0.600954
O O14 0.139392 0.311738 0.386217
O O15 0.266183 0.072667 0.711417
O O16 0.692989 0.055799 0.957969
O O17 0.000000 0.500000 0.000000
#
# Coordination Sequence:
#
# PCOD8017564 Si02
#       8
#     2   2   2   2   2   2   2   2
#     4   9  19  37  61  90 119 155 202 247 299 363
#     4   9  19  37  59  87 117 152 200 247 295 356
#     4   9  20  38  60  83 116 156 199 251 297 348
#     4  10  22  39  62  91 124 159 202 250 300 363
#     4  11  24  40  58  89 125 160 203 250 306 365
#     4  11  22  39  62  91 125 160 198 251 308 360
#     4  10  22  40  61  89 120 159 207 251 298 365
#     4  11  23  38  56  84 118 157 201 247 301 360
#
# _framework density 22.475035999999999
#
# number of rings (size 3 to 8) (size 9 to 14) (size 15 to 20)
#    0.000    2.000    0.000    3.375    0.000    7.000 
#    0.000    5.625    0.000    0.000    0.000    0.000 
#    0.000    0.000    0.000    0.000    0.000    0.000 
#
# Total GULP energy -198228.901707 kJ/mol
# GULP energy per Si atom -12389.306357 kJ/mol
# Density = 2.242388 g / cm^3
# Si number density = 22.475036 Si / 1000 Ang^3
#
#
#
# Elastic Constant Matrix: (Units=GPa)
#
#
# Indices 1 2 3 4 5 6 
#
# 1 51.1028 24.9976 31.2581 -9.7524 -6.5897 -5.9710
# 2 24.9976 124.4754 37.8917 -24.5353 -11.1022 -25.7109
# 3 31.2581 37.8917 123.8670 -28.3829 -22.8433 -6.7241
# 4 -9.7524 -24.5353 -28.3829 35.9387 17.1659 6.1595
# 5 -6.5897 -11.1022 -22.8433 17.1659 35.7746 2.7164
# 6 -5.9710 -25.7109 -6.7241 6.1595 2.7164 37.5735
#
#
#
# Elastic Compliance Matrix: (Units=1/GPa)
#
#
# Indices 1 2 3 4 5 6 
#
# 1 0.024352 -0.003122 -0.005063 0.000309 0.000077 0.000771
# 2 -0.003122 0.011281 -0.001299 0.005175 -0.000858 0.006205
# 3 -0.005063 -0.001299 0.011583 0.005311 0.003569 -0.000749
# 4 0.000309 0.005175 0.005311 0.043352 -0.015639 -0.001435
# 5 0.000077 -0.000858 0.003569 -0.015639 0.037490 -0.000083
# 6 0.000771 0.006205 -0.000749 -0.001435 -0.000083 0.031090
#
#
# Mechanical properties :
#
#
# Convention : Reuss Voigt Hill
#
# Bulk Modulus (GPa) = 35.40150 54.19334 44.79742
# Shear Modulus (GPa) = 26.66227 35.54389 31.10308
#
# Velocity S-wave (km/s) = 3.44802 3.98110 3.72411
# Velocity P-wave (km/s) = 5.62472 6.73032 6.20220
#
# Compressibility (1/GPa) = 0.02824739
#
# Stress axis : x y z
#
# Youngs Moduli (GPa) = 41.06505 88.64338 86.33694
#
# Poissons Ratio (x) = 0.27674 0.43715
# Poissons Ratio (y) = 0.12820 0.11212
# Poissons Ratio (z) = 0.20792 0.11512
#
# Static dielectric constant tensor:
#      x y z
#    x 3.856410 0.312280 0.230720 
#    y 0.312280 4.066230 0.038360 
#    z 0.230720 0.038360 5.088580 
# 
# 
# High freq. dielectric constant tensor:
#      x y z
#    x 1.867860 0.024320 0.015060 
#    y 0.024320 1.884350 -0.005430 
#    z 0.015060 -0.005430 1.901770 
# 
# From -- ./inp_files/205977.got.cif
#   From: 2010.06.25/outbox.cif.g09.slc.cpg/sg2_103_cif.got.tgz:205977.got - 2010.06.27 13:26:56.
