data_PCOD8017206
_publ_section_title
;
Structure prediction by ZEFSAII (Michael W. Deem and Ramdas Pophale) SiO2 
 PCOD8017206
Probable space group: P -1
;
_chemical_formula_sum "Si O2"
_cell_formula_units_Z 14
_cell_length_a 17.213204
_cell_length_b 13.959438
_cell_length_c 9.940460
_cell_angle_alpha 130.772788
_cell_angle_beta 138.011073
_cell_angle_gamma 24.648198
_cell_volume 664.234767
_symmetry_space_group_name_H-M "P -1"
_symmetry_group_IT_number 2
_symmetry_cell_setting 'triclinic'
loop_
_space_group_symop_operation_xyz
x,y,z
-x,-y,-z
loop_
_atom_site_type_symbol
_atom_site_label
_atom_site_fract_x
_atom_site_fract_y
_atom_site_fract_z
Si Si1 0.942995 0.730682 0.689028
Si Si2 0.478039 0.393116 0.458604
Si Si3 0.039947 0.818023 0.410231
Si Si4 0.670675 0.211280 0.829758
Si Si5 0.222508 0.628211 0.759698
Si Si6 0.655316 0.017006 0.151515
Si Si7 0.750695 0.735340 0.233155
O O1 0.768981 0.809775 0.454366
O O2 0.129933 0.604943 0.714841
O O3 0.054649 0.541339 0.771163
O O4 0.827453 0.951369 0.815840
O O5 0.500000 0.500000 0.500000
O O6 0.618391 0.279107 0.668216
O O7 0.553768 0.204300 0.300352
O O8 0.233915 0.591598 0.363835
O O9 0.077027 0.766307 0.568401
O O10 0.830767 0.928060 0.204955
O O11 0.000000 0.000000 0.500000
O O12 0.462804 0.374662 0.800408
O O13 0.791768 0.224602 0.049043
O O14 0.762274 0.802530 0.170767
O O15 0.473977 0.132160 0.923805
#
# Coordination Sequence:
#
# PCOD8017206 Si02
#       7
#     2   2   2   2   2   2   2
#     4  11  21  43  64  90 123 174 213 257 317 361
#     4  11  22  37  65  97 125 163 208 259 327 375
#     4  11  22  38  64  94 127 161 203 263 323 372
#     4  10  22  39  63  95 130 160 205 270 323 370
#     4  10  22  38  62  96 129 157 210 266 317 384
#     4  11  22  45  60  92 134 162 214 261 308 379
#     4  10  24  40  67  88 126 179 213 254 304 380
#
# _framework density 21.076884
#
# number of rings (size 3 to 8) (size 9 to 14) (size 15 to 20)
#    0.000    1.429    4.286    0.429    2.000    2.286 
#    0.000    8.571    0.000    0.000    0.000    0.000 
#    0.000    0.000    0.000    0.000    0.000    0.000 
#
# Total GULP energy -173663.925968 kJ/mol
# GULP energy per Si atom -12404.566141 kJ/mol
# Density = 2.102891 g / cm^3
# Si number density = 21.076884 Si / 1000 Ang^3
#
#
#
# Elastic Constant Matrix: (Units=GPa)
#
#
# Indices 1 2 3 4 5 6 
#
# 1 94.0296 50.6044 46.0741 4.8568 24.4089 -5.8054
# 2 50.6044 127.9119 41.0357 4.6305 0.5718 9.5768
# 3 46.0741 41.0357 111.7628 -5.0575 26.2443 -6.4422
# 4 4.8568 4.6305 -5.0575 29.8070 -5.1366 0.3496
# 5 24.4089 0.5718 26.2443 -5.1366 32.3917 -1.8835
# 6 -5.8054 9.5768 -6.4422 0.3496 -1.8835 31.8599
#
#
#
# Elastic Compliance Matrix: (Units=1/GPa)
#
#
# Indices 1 2 3 4 5 6 
#
# 1 0.019545 -0.007098 -0.002300 -0.004807 -0.013240 0.004500
# 2 -0.007098 0.012159 -0.003672 0.000053 0.007814 -0.005229
# 3 -0.002300 -0.003672 0.013538 0.001704 -0.008733 0.002887
# 4 -0.004807 0.000053 0.001704 0.035984 0.007920 -0.000474
# 5 -0.013240 0.007814 -0.008733 0.007920 0.048826 -0.003727
# 6 0.004500 -0.005229 0.002887 -0.000474 -0.003727 0.034148
#
#
# Mechanical properties :
#
#
# Convention : Reuss Voigt Hill
#
# Bulk Modulus (GPa) = 52.35297 67.68140 60.01719
# Shear Modulus (GPa) = 25.41848 31.87772 28.64810
#
# Velocity S-wave (km/s) = 3.47650 3.89324 3.69076
# Velocity P-wave (km/s) = 6.40373 7.23817 6.83370
#
# Compressibility (1/GPa) = 0.01910111
#
# Stress axis : x y z
#
# Youngs Moduli (GPa) = 51.16343 82.24522 73.86534
#
# Poissons Ratio (x) = 0.58379 0.16992
# Poissons Ratio (y) = 0.36317 0.27123
# Poissons Ratio (z) = 0.11770 0.30200
#
# Static dielectric constant tensor:
#      x y z
#    x 4.181830 0.205490 0.101500 
#    y 0.205490 3.990680 -0.131290 
#    z 0.101500 -0.131290 4.006490 
# 
# 
# High freq. dielectric constant tensor:
#      x y z
#    x 1.820020 0.008770 0.015630 
#    y 0.008770 1.833950 -0.009390 
#    z 0.015630 -0.009390 1.829170 
# 
# From -- ./inp_files/199267.got.cif
#   From: 2010.06.25/outbox.cif.g09.slc.cpg/sg2_100_cif.got.tgz:199267.got - 2010.06.27 13:26:56.
