data_PCOD8017811
_publ_section_title
;
Structure prediction by ZEFSAII (Michael W. Deem and Ramdas Pophale) SiO2 
 PCOD8017811
Probable space group: P -1
;
_chemical_formula_sum "Si O2"
_cell_formula_units_Z 16
_cell_length_a 8.129923
_cell_length_b 16.627947
_cell_length_c 11.426542
_cell_angle_alpha 56.453121
_cell_angle_beta 55.135584
_cell_angle_gamma 34.065762
_cell_volume 699.353025
_symmetry_space_group_name_H-M "P -1"
_symmetry_group_IT_number 2
_symmetry_cell_setting 'triclinic'
loop_
_space_group_symop_operation_xyz
x,y,z
-x,-y,-z
loop_
_atom_site_type_symbol
_atom_site_label
_atom_site_fract_x
_atom_site_fract_y
_atom_site_fract_z
Si Si1 0.540321 0.868018 0.377358
Si Si2 0.904287 0.371033 0.786239
Si Si3 0.913036 0.525701 0.245507
Si Si4 0.126101 0.098604 0.647843
Si Si5 0.381496 0.379364 0.464782
Si Si6 0.424625 0.214197 0.207450
Si Si7 0.577179 0.314012 0.876497
Si Si8 0.033967 0.178456 0.358988
O O1 0.636158 0.900293 0.423332
O O2 0.543262 0.755516 0.500505
O O3 0.783679 0.798296 0.230731
O O4 0.206907 0.026194 0.346496
O O5 0.882204 0.469824 0.621693
O O6 0.628054 0.395711 0.864764
O O7 0.951214 0.412161 0.856165
O O8 0.685344 0.587751 0.395936
O O9 0.737935 0.568774 0.160922
O O10 0.204056 0.351233 0.275009
O O11 0.993535 0.164384 0.522328
O O12 0.851062 0.198433 0.770160
O O13 0.296513 0.934015 0.716651
O O14 0.689783 0.322932 0.344852
O O15 0.228312 0.202891 0.232414
O O16 0.566731 0.231542 0.038094
#
# Coordination Sequence:
#
# PCOD8017811 Si02
#       8
#     2   2   2   2   2   2   2   2
#     4   9  19  36  57  89 125 146 196 259 303 346
#     4  10  24  38  64  93 124 162 203 252 310 364
#     4  11  23  40  64  90 128 160 207 250 308 365
#     4  10  22  39  66  88 118 161 210 248 307 361
#     4  11  22  37  60  94 126 157 197 264 310 351
#     4  11  24  38  66  90 124 162 204 253 304 363
#     4  11  23  45  63  88 127 167 201 251 307 365
#     4  11  22  37  63  94 115 161 208 251 304 362
#
# _framework density 22.878288000000001
#
# number of rings (size 3 to 8) (size 9 to 14) (size 15 to 20)
#    0.000    1.500    1.250    4.875    8.750    1.500 
#    0.000    0.000    2.750    7.500    0.000    0.000 
#    0.000    0.000    0.000    0.000    0.000    0.000 
#
# Total GULP energy -198292.621441 kJ/mol
# GULP energy per Si atom -12393.288840 kJ/mol
# Density = 2.282622 g / cm^3
# Si number density = 22.878288 Si / 1000 Ang^3
#
#
#
# Elastic Constant Matrix: (Units=GPa)
#
#
# Indices 1 2 3 4 5 6 
#
# 1 100.0786 20.8872 14.6885 -1.6499 -21.9997 5.4233
# 2 20.8872 118.8305 6.7211 6.1540 -8.0637 13.6549
# 3 14.6885 6.7211 82.9326 -2.9639 -27.7496 5.2309
# 4 -1.6499 6.1540 -2.9639 19.3673 0.5395 -5.2165
# 5 -21.9997 -8.0637 -27.7496 0.5395 22.7856 -8.0636
# 6 5.4233 13.6549 5.2309 -5.2165 -8.0636 31.0564
#
#
#
# Elastic Compliance Matrix: (Units=1/GPa)
#
#
# Indices 1 2 3 4 5 6 
#
# 1 0.013678 -0.001861 0.003646 0.002600 0.017958 0.002915
# 2 -0.001861 0.009501 -0.000507 -0.004499 -0.000602 -0.004679
# 3 0.003646 -0.000507 0.021865 0.004235 0.031573 0.004813
# 4 0.002600 -0.004499 0.004235 0.057125 0.009256 0.012809
# 5 0.017958 -0.000602 0.031573 0.009256 0.106701 0.021070
# 6 0.002915 -0.004679 0.004813 0.012809 0.021070 0.040559
#
#
# Mechanical properties :
#
#
# Convention : Reuss Voigt Hill
#
# Bulk Modulus (GPa) = 21.00884 42.93726 31.97305
# Shear Modulus (GPa) = 19.03011 31.94485 25.48748
#
# Velocity S-wave (km/s) = 2.88722 3.74076 3.34135
# Velocity P-wave (km/s) = 4.50750 6.12096 5.37511
#
# Compressibility (1/GPa) = 0.04759901
#
# Stress axis : x y z
#
# Youngs Moduli (GPa) = 73.11016 105.25196 45.73416
#
# Poissons Ratio (x) = 0.19592 -0.16675
# Poissons Ratio (y) = 0.13609 0.02321
# Poissons Ratio (z) = -0.26657 0.05341
#
# Static dielectric constant tensor:
#      x y z
#    x 4.253040 -0.024970 -0.290670 
#    y -0.024970 4.455820 0.031290 
#    z -0.290670 0.031290 3.627680 
# 
# 
# High freq. dielectric constant tensor:
#      x y z
#    x 1.900230 -0.000340 -0.024360 
#    y -0.000340 1.929260 0.008890 
#    z -0.024360 0.008890 1.864960 
# 
# From -- ./inp_files/263510.got.cif
#   From: 2010.06.25/outbox.cif.g09.slc.cpg/sg2_132_cif.got.tgz:263510.got - 2010.06.27 13:26:56.
