data_PCOD8017017
_publ_section_title
;
Structure prediction by ZEFSAII (Michael W. Deem and Ramdas Pophale) SiO2 
 PCOD8017017
Probable space group: P -1
;
_chemical_formula_sum "Si O2"
_cell_formula_units_Z 16
_cell_length_a 7.076535
_cell_length_b 18.017776
_cell_length_c 15.693088
_cell_angle_alpha 32.157314
_cell_angle_beta 52.632855
_cell_angle_gamma 68.995708
_cell_volume 787.243841
_symmetry_space_group_name_H-M "P -1"
_symmetry_group_IT_number 2
_symmetry_cell_setting 'triclinic'
loop_
_space_group_symop_operation_xyz
x,y,z
-x,-y,-z
loop_
_atom_site_type_symbol
_atom_site_label
_atom_site_fract_x
_atom_site_fract_y
_atom_site_fract_z
Si Si1 0.193378 0.273664 0.903208
Si Si2 0.624934 0.141461 0.216769
Si Si3 0.522715 0.142976 0.053678
Si Si4 0.365873 0.167780 0.431651
Si Si5 0.828706 0.187774 0.537602
Si Si6 0.413882 0.598428 0.568203
Si Si7 0.767651 0.382540 0.226503
Si Si8 0.932254 0.833117 0.144442
O O1 0.341827 0.451556 0.671317
O O2 0.156747 0.177873 0.919507
O O3 0.362347 0.224713 0.970502
O O4 0.919639 0.250706 0.042634
O O5 0.513578 0.173044 0.127672
O O6 0.447016 0.169687 0.309758
O O7 0.616548 0.972502 0.386026
O O8 0.408924 0.966580 0.239320
O O9 0.814346 0.206969 0.878819
O O10 0.547898 0.318131 0.279647
O O11 0.080743 0.163315 0.521294
O O12 0.758224 0.303289 0.506913
O O13 0.853543 0.252265 0.371148
O O14 0.344372 0.543601 0.738933
O O15 0.711902 0.705844 0.380327
O O16 0.000000 0.500000 0.000000
O O17 0.000000 0.000000 0.000000
#
# Coordination Sequence:
#
# PCOD8017017 Si02
#       8
#     2   2   2   2   2   2   2   2
#     4  11  24  43  67  96 132 167 217 275 335 374
#     4  10  22  37  64  93 133 164 221 273 317 380
#     4  11  22  43  67  97 126 175 221 266 325 396
#     4  11  21  38  64  94 125 181 218 264 320 388
#     4  10  22  40  64  92 130 174 222 257 324 394
#     4  10  23  45  63  96 139 167 213 280 318 381
#     4  10  22  41  62  88 136 169 216 260 324 381
#     4  11  23  44  71  95 131 169 222 269 323 394
#
# _framework density 20.324072000000001
#
# number of rings (size 3 to 8) (size 9 to 14) (size 15 to 20)
#    0.750    0.750    3.750    1.125    1.750    4.000 
#    6.750    0.000    0.000    0.000    0.000    0.000 
#    0.000    0.000    0.000    0.000    0.000    0.000 
#
# Total GULP energy -198339.454955 kJ/mol
# GULP energy per Si atom -12396.215935 kJ/mol
# Density = 2.027781 g / cm^3
# Si number density = 20.324072 Si / 1000 Ang^3
#
#
#
# Elastic Constant Matrix: (Units=GPa)
#
#
# Indices 1 2 3 4 5 6 
#
# 1 119.8251 47.2026 26.1746 6.1186 -10.3915 5.2623
# 2 47.2026 86.8406 40.8147 -11.9253 -5.1615 7.7834
# 3 26.1746 40.8147 124.2984 7.4339 -23.8208 3.7882
# 4 6.1186 -11.9253 7.4339 31.8724 2.8072 -3.8544
# 5 -10.3915 -5.1615 -23.8208 2.8072 28.9640 -4.4998
# 6 5.2623 7.7834 3.7882 -3.8544 -4.4998 21.3404
#
#
#
# Elastic Compliance Matrix: (Units=1/GPa)
#
#
# Indices 1 2 3 4 5 6 
#
# 1 0.011686 -0.007368 0.001137 -0.005706 0.004287 -0.000523
# 2 -0.007368 0.020126 -0.006774 0.010624 -0.006235 -0.003717
# 3 0.001137 -0.006774 0.012319 -0.006398 0.010105 0.000978
# 4 -0.005706 0.010624 -0.006398 0.039171 -0.008602 0.003929
# 5 0.004287 -0.006235 0.010105 -0.008602 0.045248 0.007411
# 6 -0.000523 -0.003717 0.000978 0.003929 0.007411 0.050443
#
#
# Mechanical properties :
#
#
# Convention : Reuss Voigt Hill
#
# Bulk Modulus (GPa) = 55.18488 62.14977 58.66733
# Shear Modulus (GPa) = 23.69196 30.88684 27.28940
#
# Velocity S-wave (km/s) = 3.41795 3.90258 3.66828
# Velocity P-wave (km/s) = 6.54125 7.13811 6.84619
#
# Compressibility (1/GPa) = 0.01812090
#
# Stress axis : x y z
#
# Youngs Moduli (GPa) = 85.57418 49.68763 81.17389
#
# Poissons Ratio (x) = 0.36612 -0.09233
# Poissons Ratio (y) = 0.63055 0.54987
# Poissons Ratio (z) = -0.09734 0.33658
#
# Static dielectric constant tensor:
#      x y z
#    x 3.599930 0.049880 -0.165300 
#    y 0.049880 3.603470 0.011020 
#    z -0.165300 0.011020 3.795840 
# 
# 
# High freq. dielectric constant tensor:
#      x y z
#    x 1.783220 0.004010 -0.016220 
#    y 0.004010 1.787570 0.002360 
#    z -0.016220 0.002360 1.804760 
# 
# From -- ./inp_files/485006.got.cif
#   From: 2010.06.25/outbox.cif.g09.slc.cpg/sg2_243_cif.got.tgz:485006.got - 2010.06.27 13:26:56.
