data_PCOD8017078
_publ_section_title
;
Structure prediction by ZEFSAII (Michael W. Deem and Ramdas Pophale) SiO2 
 PCOD8017078
Probable space group: P -1
;
_chemical_formula_sum "Si O2"
_cell_formula_units_Z 16
_cell_length_a 16.996905
_cell_length_b 11.235694
_cell_length_c 12.120469
_cell_angle_alpha 102.729023
_cell_angle_beta 32.382121
_cell_angle_gamma 125.931448
_cell_volume 775.706817
_symmetry_space_group_name_H-M "P -1"
_symmetry_group_IT_number 2
_symmetry_cell_setting 'triclinic'
loop_
_space_group_symop_operation_xyz
x,y,z
-x,-y,-z
loop_
_atom_site_type_symbol
_atom_site_label
_atom_site_fract_x
_atom_site_fract_y
_atom_site_fract_z
Si Si1 0.750640 0.150040 0.374008
Si Si2 0.869334 0.413305 0.941278
Si Si3 0.741719 0.086176 0.130773
Si Si4 0.440609 0.096274 0.055416
Si Si5 0.966909 0.932751 0.336156
Si Si6 0.926477 0.795264 0.576479
Si Si7 0.386300 0.144870 0.369143
Si Si8 0.133291 0.512210 0.436444
O O1 0.764501 0.075376 0.232294
O O2 0.970536 0.376982 0.163163
O O3 0.522659 0.087264 0.628714
O O4 0.743427 0.056959 0.470051
O O5 0.977757 0.415042 0.708413
O O6 0.842540 0.286886 0.034509
O O7 0.620538 0.316941 0.194036
O O8 0.864898 0.060086 0.910859
O O9 0.452869 0.178587 0.169997
O O10 0.194129 0.945307 0.260633
O O11 0.623534 0.266655 0.786173
O O12 0.500000 0.000000 0.000000
O O13 0.827745 0.793567 0.580668
O O14 0.796332 0.859773 0.421564
O O15 0.104045 0.139885 0.264504
O O16 0.813209 0.591616 0.688352
O O17 0.000000 0.500000 0.500000
#
# Coordination Sequence:
#
# PCOD8017078 Si02
#       8
#     2   2   2   2   2   2   2   2
#     4  10  23  40  68  90 111 155 212 257 301 348
#     4  11  21  38  63  90 120 153 202 259 301 348
#     4  10  22  44  63  89 119 154 203 260 302 355
#     4  11  20  33  58  89 122 153 197 248 292 350
#     4  10  22  41  61  82 132 167 192 245 309 354
#     4  10  22  40  56  87 128 167 194 240 298 370
#     4  10  22  38  57  87 123 156 200 249 294 358
#     4  12  21  33  62  94 118 155 205 240 299 357
#
# _framework density 20.626349999999999
#
# number of rings (size 3 to 8) (size 9 to 14) (size 15 to 20)
#    0.000    1.500    3.750    1.125    5.250    0.500 
#    0.000   11.250    0.000    0.000    0.000    0.000 
#    0.000    0.000    0.000    0.000    0.000    0.000 
#
# Total GULP energy -198308.468733 kJ/mol
# GULP energy per Si atom -12394.279296 kJ/mol
# Density = 2.057940 g / cm^3
# Si number density = 20.626350 Si / 1000 Ang^3
#
#
#
# Elastic Constant Matrix: (Units=GPa)
#
#
# Indices 1 2 3 4 5 6 
#
# 1 97.0397 39.1149 31.3205 3.3521 -12.6931 -7.9428
# 2 39.1149 108.1798 39.6684 -8.8919 -15.0078 -13.3071
# 3 31.3205 39.6684 82.2637 -3.9615 -8.0148 1.5280
# 4 3.3521 -8.8919 -3.9615 41.2024 0.5875 2.8892
# 5 -12.6931 -15.0078 -8.0148 0.5875 27.5296 -0.2459
# 6 -7.9428 -13.3071 1.5280 2.8892 -0.2459 23.5024
#
#
#
# Elastic Compliance Matrix: (Units=1/GPa)
#
#
# Indices 1 2 3 4 5 6 
#
# 1 0.013443 -0.002788 -0.003590 -0.002341 0.003715 0.003525
# 2 -0.002788 0.013856 -0.005181 0.002158 0.004777 0.007025
# 3 -0.003590 -0.005181 0.016189 0.001102 0.000162 -0.005333
# 4 -0.002341 0.002158 0.001102 0.025227 -0.000145 -0.002743
# 5 0.003715 0.004777 0.000162 -0.000145 0.040731 0.004393
# 6 0.003525 0.007025 -0.005333 -0.002743 0.004393 0.048447
#
#
# Mechanical properties :
#
#
# Convention : Reuss Voigt Hill
#
# Bulk Modulus (GPa) = 49.09215 56.41010 52.75113
# Shear Modulus (GPa) = 26.62396 30.27218 28.44807
#
# Velocity S-wave (km/s) = 3.59663 3.83514 3.71780
# Velocity P-wave (km/s) = 6.41093 6.85704 6.63774
#
# Compressibility (1/GPa) = 0.02036985
#
# Stress axis : x y z
#
# Youngs Moduli (GPa) = 74.39009 72.17185 61.76907
#
# Poissons Ratio (x) = 0.20118 0.22176
# Poissons Ratio (y) = 0.20736 0.32004
# Poissons Ratio (z) = 0.26707 0.37394
#
# Static dielectric constant tensor:
#      x y z
#    x 4.025780 -0.095920 -0.064440 
#    y -0.095920 3.626110 -0.036910 
#    z -0.064440 -0.036910 4.126380 
# 
# 
# High freq. dielectric constant tensor:
#      x y z
#    x 1.814910 -0.007810 -0.002290 
#    y -0.007810 1.791290 -0.003280 
#    z -0.002290 -0.003280 1.796590 
# 
# From -- ./inp_files/448366.got.cif
#   From: 2010.06.25/outbox.cif.g09.slc.cpg/sg2_225_cif.got.tgz:448366.got - 2010.06.27 13:26:56.
