data_PCOD8017209
_publ_section_title
;
Structure prediction by ZEFSAII (Michael W. Deem and Ramdas Pophale) SiO2 
 PCOD8017209
Probable space group: P -1
;
_chemical_formula_sum "Si O2"
_cell_formula_units_Z 16
_cell_length_a 11.895542
_cell_length_b 12.356408
_cell_length_c 5.460857
_cell_angle_alpha 91.311162
_cell_angle_beta 108.885348
_cell_angle_gamma 66.705029
_cell_volume 692.428798
_symmetry_space_group_name_H-M "P -1"
_symmetry_group_IT_number 2
_symmetry_cell_setting 'triclinic'
loop_
_space_group_symop_operation_xyz
x,y,z
-x,-y,-z
loop_
_atom_site_type_symbol
_atom_site_label
_atom_site_fract_x
_atom_site_fract_y
_atom_site_fract_z
Si Si1 0.455489 0.239314 0.331836
Si Si2 0.819347 0.629376 0.722446
Si Si3 0.910721 0.982160 0.639982
Si Si4 0.850166 0.192217 0.918826
Si Si5 0.048792 0.637085 0.212187
Si Si6 0.174882 0.196678 0.648877
Si Si7 0.399077 0.801614 0.090573
Si Si8 0.391749 0.046394 0.128542
O O1 0.309715 0.343358 0.203952
O O2 0.518808 0.272217 0.619032
O O3 0.445458 0.111373 0.374916
O O4 0.527981 0.232921 0.121521
O O5 0.868390 0.496135 0.642079
O O6 0.772608 0.725729 0.476834
O O7 0.937723 0.640497 0.948005
O O8 0.812516 0.925891 0.475007
O O9 0.821208 0.113038 0.684829
O O10 0.000000 0.000000 0.500000
O O11 0.004032 0.889035 0.896059
O O12 0.850773 0.315356 0.833918
O O13 0.732444 0.221551 0.032204
O O14 0.976992 0.722916 0.392509
O O15 0.263332 0.158404 0.949899
O O16 0.354196 0.938065 0.159625
O O17 0.500000 0.000000 0.000000
#
# Coordination Sequence:
#
# PCOD8017209 Si02
#       8
#     2   2   2   2   2   2   2   2
#     4  11  24  45  66 101 134 187 231 284 334 409
#     4  11  24  43  70  92 135 172 240 288 339 398
#     4  11  23  37  64  95 135 179 214 276 347 416
#     4  11  25  42  61  99 138 178 227 275 348 416
#     4  11  24  44  65 100 127 182 229 290 344 395
#     4  12  22  40  67 100 136 175 225 283 348 407
#     4  11  26  42  69  99 143 183 227 276 347 417
#     4  10  22  38  62  98 136 176 220 272 342 404
#
# _framework density 23.107067000000001
#
# number of rings (size 3 to 8) (size 9 to 14) (size 15 to 20)
#    0.000    1.000    3.750    3.000    8.750    0.000 
#    0.000    1.250    0.000    0.000    0.000    0.000 
#    0.000    0.000    0.000    0.000    0.000    0.000 
#
# Total GULP energy -198296.271480 kJ/mol
# GULP energy per Si atom -12393.516968 kJ/mol
# Density = 2.305447 g / cm^3
# Si number density = 23.107067 Si / 1000 Ang^3
#
#
#
# Elastic Constant Matrix: (Units=GPa)
#
#
# Indices 1 2 3 4 5 6 
#
# 1 131.3190 39.5713 13.4855 -4.3775 -9.1905 0.9347
# 2 39.5713 95.8292 4.8215 -2.4161 -4.0793 3.8452
# 3 13.4855 4.8215 64.7653 1.6108 -7.5661 4.4368
# 4 -4.3775 -2.4161 1.6108 17.4994 1.1161 -5.0217
# 5 -9.1905 -4.0793 -7.5661 1.1161 31.5605 1.2556
# 6 0.9347 3.8452 4.4368 -5.0217 1.2556 34.9075
#
#
#
# Elastic Compliance Matrix: (Units=1/GPa)
#
#
# Indices 1 2 3 4 5 6 
#
# 1 0.009020 -0.003549 -0.001500 0.001956 0.001717 0.000560
# 2 -0.003549 0.011982 -0.000018 0.000393 0.000544 -0.001186
# 3 -0.001500 -0.000018 0.016436 -0.002871 0.003706 -0.002593
# 4 0.001956 0.000393 -0.002871 0.060728 -0.002578 0.009098
# 5 0.001717 0.000544 0.003706 -0.002578 0.033320 -0.002146
# 6 0.000560 -0.001186 -0.002593 0.009098 -0.002146 0.030478
#
#
# Mechanical properties :
#
#
# Convention : Reuss Voigt Hill
#
# Bulk Modulus (GPa) = 36.62564 45.29669 40.96116
# Shear Modulus (GPa) = 27.59357 32.39581 29.99469
#
# Velocity S-wave (km/s) = 3.45941 3.74837 3.60679
# Velocity P-wave (km/s) = 5.64283 6.19510 5.92540
#
# Compressibility (1/GPa) = 0.02730328
#
# Stress axis : x y z
#
# Youngs Moduli (GPa) = 110.86473 83.45563 60.84167
#
# Poissons Ratio (x) = 0.29621 0.09128
# Poissons Ratio (y) = 0.39349 0.00110
# Poissons Ratio (z) = 0.16634 0.00150
#
# Static dielectric constant tensor:
#      x y z
#    x 4.136680 0.132030 -0.001370 
#    y 0.132030 3.543690 0.559570 
#    z -0.001370 0.559570 3.817670 
# 
# 
# High freq. dielectric constant tensor:
#      x y z
#    x 1.923030 -0.005630 0.000740 
#    y -0.005630 1.892910 0.006020 
#    z 0.000740 0.006020 1.898660 
# 
# From -- ./inp_files/70775.got.cif
#   From: 2010.06.25/outbox.cif.g09.slc.cpg/sg2_36_cif.got.tgz:70775.got - 2010.06.27 13:26:56.
