data_PCOD8017650
_publ_section_title
;
Structure prediction by ZEFSAII (Michael W. Deem and Ramdas Pophale) SiO2 
 PCOD8017650
Probable space group: P -1
;
_chemical_formula_sum "Si O2"
_cell_formula_units_Z 14
_cell_length_a 12.420718
_cell_length_b 14.803393
_cell_length_c 12.641790
_cell_angle_alpha 151.405978
_cell_angle_beta 33.267073
_cell_angle_gamma 136.526892
_cell_volume 609.922719
_symmetry_space_group_name_H-M "P -1"
_symmetry_group_IT_number 2
_symmetry_cell_setting 'triclinic'
loop_
_space_group_symop_operation_xyz
x,y,z
-x,-y,-z
loop_
_atom_site_type_symbol
_atom_site_label
_atom_site_fract_x
_atom_site_fract_y
_atom_site_fract_z
Si Si1 0.399777 0.485319 0.328207
Si Si2 0.703396 0.134163 0.079110
Si Si3 0.758682 0.143036 0.397007
Si Si4 0.642473 0.682093 0.171722
Si Si5 0.865877 0.020349 0.410427
Si Si6 0.850898 0.718296 0.834812
Si Si7 0.384642 0.826161 0.044072
O O1 0.314102 0.686109 0.645020
O O2 0.570207 0.510887 0.126258
O O3 0.223900 0.374161 0.306099
O O4 0.492548 0.364005 0.222860
O O5 0.520570 0.005848 0.121223
O O6 0.704086 0.204839 0.030554
O O7 0.900707 0.012781 0.815484
O O8 0.539307 0.211311 0.626087
O O9 0.911071 0.285128 0.362568
O O10 0.802781 0.138794 0.480970
O O11 0.778148 0.935954 0.117261
O O12 0.761774 0.819924 0.290455
O O13 0.779432 0.608500 0.886168
O O14 0.797950 0.138535 0.690457
#
# Coordination Sequence:
#
# PCOD8017650 Si02
#       7
#     2   2   2   2   2   2   2
#     4  12  24  43  70 100 139 175 219 278 336 393
#     4  11  26  46  72 100 129 173 231 282 336 389
#     4  10  22  40  66  97 133 179 224 264 322 401
#     4  11  23  39  63  97 139 178 218 265 328 402
#     4  11  22  44  72  96 134 179 224 274 333 396
#     4  10  22  39  63  94 135 174 222 261 324 392
#     4  11  24  49  71  96 133 176 222 285 337 395
#
# _framework density 22.953727000000001
#
# number of rings (size 3 to 8) (size 9 to 14) (size 15 to 20)
#    0.000    1.143    1.429    5.571    6.000    0.571 
#    7.714    0.714    0.000    0.000    0.000    0.000 
#    0.000    0.000    0.000    0.000    0.000    0.000 
#
# Total GULP energy -173670.240953 kJ/mol
# GULP energy per Si atom -12405.017211 kJ/mol
# Density = 2.290148 g / cm^3
# Si number density = 22.953727 Si / 1000 Ang^3
#
#
#
# Elastic Constant Matrix: (Units=GPa)
#
#
# Indices 1 2 3 4 5 6 
#
# 1 89.7139 25.3319 21.0052 -0.1099 11.1950 -3.6754
# 2 25.3319 70.5914 26.0995 -15.5607 12.1870 2.5038
# 3 21.0052 26.0995 94.3852 -11.5280 6.4017 -0.3371
# 4 -0.1099 -15.5607 -11.5280 19.5861 -1.4395 -5.5593
# 5 11.1950 12.1870 6.4017 -1.4395 32.0274 1.9897
# 6 -3.6754 2.5038 -0.3371 -5.5593 1.9897 35.8017
#
#
#
# Elastic Compliance Matrix: (Units=1/GPa)
#
#
# Indices 1 2 3 4 5 6 
#
# 1 0.013318 -0.004611 -0.002071 -0.004700 -0.002766 0.001094
# 2 -0.004611 0.020935 -0.002590 0.014880 -0.005208 0.000638
# 3 -0.002071 -0.002590 0.012490 0.005515 -0.000600 0.000976
# 4 -0.004700 0.014880 0.005515 0.068551 -0.002619 0.009319
# 5 -0.002766 -0.005208 -0.000600 -0.002619 0.034313 -0.002239
# 6 0.001094 0.000638 0.000976 0.009319 -0.002239 0.029580
#
#
# Mechanical properties :
#
#
# Convention : Reuss Voigt Hill
#
# Bulk Modulus (GPa) = 35.46329 44.39597 39.92963
# Shear Modulus (GPa) = 24.13957 29.63329 26.88643
#
# Velocity S-wave (km/s) = 3.24645 3.59695 3.42619
# Velocity P-wave (km/s) = 5.43471 6.05262 5.75197
#
# Compressibility (1/GPa) = 0.02819817
#
# Stress axis : x y z
#
# Youngs Moduli (GPa) = 75.08857 47.76781 80.06549
#
# Poissons Ratio (x) = 0.22024 0.16585
# Poissons Ratio (y) = 0.34620 0.20736
# Poissons Ratio (z) = 0.15554 0.12371
#
# Static dielectric constant tensor:
#      x y z
#    x 4.066430 -0.029210 0.101000 
#    y -0.029210 4.425830 -0.201660 
#    z 0.101000 -0.201660 4.068030 
# 
# 
# High freq. dielectric constant tensor:
#      x y z
#    x 1.902090 0.000590 0.002800 
#    y 0.000590 1.916930 -0.006870 
#    z 0.002800 -0.006870 1.912380 
# 
# From -- ./inp_files/433409.got.cif
#   From: 2010.06.25/outbox.cif.g09.slc.cpg/sg2_217_cif.got.tgz:433409.got - 2010.06.27 13:26:56.
