data_PCOD8017754
_publ_section_title
;
Structure prediction by ZEFSAII (Michael W. Deem and Ramdas Pophale) SiO2 
 PCOD8017754
Probable space group: P -1
;
_chemical_formula_sum "Si O2"
_cell_formula_units_Z 16
_cell_length_a 20.099942
_cell_length_b 11.320876
_cell_length_c 9.058653
_cell_angle_alpha 40.863208
_cell_angle_beta 141.513649
_cell_angle_gamma 139.710710
_cell_volume 761.851452
_symmetry_space_group_name_H-M "P -1"
_symmetry_group_IT_number 2
_symmetry_cell_setting 'triclinic'
loop_
_space_group_symop_operation_xyz
x,y,z
-x,-y,-z
loop_
_atom_site_type_symbol
_atom_site_label
_atom_site_fract_x
_atom_site_fract_y
_atom_site_fract_z
Si Si1 0.817430 0.112541 0.219137
Si Si2 0.361501 0.901343 0.858554
Si Si3 0.834413 0.715386 0.564005
Si Si4 0.378354 0.242095 0.392242
Si Si5 0.644264 0.470807 0.687334
Si Si6 0.028309 0.427089 0.464369
Si Si7 0.814562 0.781840 0.134492
Si Si8 0.913100 0.222061 0.977646
O O1 0.686568 0.049452 0.116552
O O2 0.821882 0.186655 0.987979
O O3 0.905377 0.283233 0.315668
O O4 0.853329 0.928470 0.459642
O O5 0.323956 0.003271 0.559364
O O6 0.321639 0.663269 0.008273
O O7 0.500000 0.000000 0.000000
O O8 0.739689 0.536624 0.661397
O O9 0.791288 0.692603 0.342393
O O10 0.957494 0.697300 0.800995
O O11 0.518441 0.340617 0.514065
O O12 0.354374 0.339307 0.406615
O O13 0.312767 0.278169 0.103845
O O14 0.111230 0.311542 0.742009
O O15 0.000000 0.500000 0.500000
O O16 0.097405 0.617320 0.301364
O O17 0.886053 0.019687 0.033301
#
# Coordination Sequence:
#
# PCOD8017754 Si02
#       8
#     2   2   2   2   2   2   2   2
#     4  11  21  42  66  90 128 169 210 258 314 379
#     4  10  22  39  65  92 119 163 213 258 306 372
#     4  11  21  43  68  90 126 175 212 257 312 381
#     4  10  23  42  61  93 128 162 213 265 310 374
#     4  10  22  40  68  89 121 172 212 256 318 371
#     4  12  27  38  61  99 128 168 207 262 322 376
#     4  11  25  42  61  94 135 160 212 265 313 372
#     4  11  24  43  65  92 131 171 212 255 316 386
#
# _framework density 21.001467999999999
#
# number of rings (size 3 to 8) (size 9 to 14) (size 15 to 20)
#    0.000    1.250    3.750    1.875    7.000    1.000 
#    0.000    0.000    0.000    3.000    0.000    0.000 
#    0.000    0.000    0.000    0.000    0.000    0.000 
#
# Total GULP energy -198383.434520 kJ/mol
# GULP energy per Si atom -12398.964657 kJ/mol
# Density = 2.095367 g / cm^3
# Si number density = 21.001468 Si / 1000 Ang^3
#
#
#
# Elastic Constant Matrix: (Units=GPa)
#
#
# Indices 1 2 3 4 5 6 
#
# 1 115.3121 38.1842 24.0149 -2.4440 2.5960 8.5822
# 2 38.1842 85.5555 47.7954 -7.1689 -10.3451 -0.0685
# 3 24.0149 47.7954 100.5974 -5.0857 -4.1397 1.5246
# 4 -2.4440 -7.1689 -5.0857 30.9426 2.3761 -1.5825
# 5 2.5960 -10.3451 -4.1397 2.3761 29.8272 -4.3209
# 6 8.5822 -0.0685 1.5246 -1.5825 -4.3209 33.4288
#
#
#
# Elastic Compliance Matrix: (Units=1/GPa)
#
#
# Indices 1 2 3 4 5 6 
#
# 1 0.010694 -0.005037 -0.000256 -0.000284 -0.003149 -0.003165
# 2 -0.005037 0.019102 -0.007534 0.002446 0.006199 0.002593
# 3 -0.000256 -0.007534 0.013581 0.000498 -0.000840 -0.000654
# 4 -0.000284 0.002446 0.000498 0.033132 -0.001490 0.001431
# 5 -0.003149 0.006199 -0.000840 -0.001490 0.036755 0.005540
# 6 -0.003165 0.002593 -0.000654 0.001431 0.005540 0.031546
#
#
# Mechanical properties :
#
#
# Convention : Reuss Voigt Hill
#
# Bulk Modulus (GPa) = 56.41984 57.93932 57.17958
# Shear Modulus (GPa) = 28.34955 31.60441 29.97698
#
# Velocity S-wave (km/s) = 3.67806 3.88347 3.78216
# Velocity P-wave (km/s) = 6.70526 6.91061 6.80871
#
# Compressibility (1/GPa) = 0.01772426
#
# Stress axis : x y z
#
# Youngs Moduli (GPa) = 93.51297 52.35176 73.62976
#
# Poissons Ratio (x) = 0.26370 0.01883
# Poissons Ratio (y) = 0.47103 0.55469
# Poissons Ratio (z) = 0.02391 0.39439
#
# Static dielectric constant tensor:
#      x y z
#    x 3.878090 0.095390 0.120950 
#    y 0.095390 3.855580 -0.401230 
#    z 0.120950 -0.401230 4.001920 
# 
# 
# High freq. dielectric constant tensor:
#      x y z
#    x 1.825720 0.005480 0.010350 
#    y 0.005480 1.815150 -0.028510 
#    z 0.010350 -0.028510 1.823850 
# 
# From -- ./inp_files/270799.got.cif
#   From: 2010.06.25/outbox.cif.g09.slc.cpg/sg2_136_cif.got.tgz:270799.got - 2010.06.27 13:26:56.
