data_PCOD8017252
_publ_section_title
;
Structure prediction by ZEFSAII (Michael W. Deem and Ramdas Pophale) SiO2 
 PCOD8017252
Probable space group: P -1
;
_chemical_formula_sum "Si O2"
_cell_formula_units_Z 16
_cell_length_a 15.950416
_cell_length_b 9.346443
_cell_length_c 11.789533
_cell_angle_alpha 82.840997
_cell_angle_beta 92.117292
_cell_angle_gamma 27.678204
_cell_volume 767.550050
_symmetry_space_group_name_H-M "P -1"
_symmetry_group_IT_number 2
_symmetry_cell_setting 'triclinic'
loop_
_space_group_symop_operation_xyz
x,y,z
-x,-y,-z
loop_
_atom_site_type_symbol
_atom_site_label
_atom_site_fract_x
_atom_site_fract_y
_atom_site_fract_z
Si Si1 0.693941 0.624135 0.569221
Si Si2 0.129650 0.705852 0.157028
Si Si3 0.302466 0.255544 0.015543
Si Si4 0.645797 0.146376 0.908348
Si Si5 0.858994 0.106419 0.542780
Si Si6 0.236706 0.906599 0.845736
Si Si7 0.934373 0.887069 0.817839
Si Si8 0.052303 0.264976 0.575382
O O1 0.723953 0.554038 0.710054
O O2 0.679730 0.487555 0.522512
O O3 0.860464 0.468630 0.546369
O O4 0.500000 0.000000 0.500000
O O5 0.100811 0.921528 0.120004
O O6 0.232585 0.484229 0.075558
O O7 0.919897 0.968994 0.142911
O O8 0.137727 0.497754 0.888652
O O9 0.500000 0.000000 0.000000
O O10 0.333677 0.054143 0.097312
O O11 0.426932 0.531981 0.852159
O O12 0.764551 0.039886 0.825345
O O13 0.727147 0.048477 0.048490
O O14 0.941460 0.921695 0.684129
O O15 0.808163 0.045750 0.468854
O O16 0.000000 0.000000 0.500000
O O17 0.155278 0.127509 0.715270
O O18 0.000000 0.500000 0.500000
#
# Coordination Sequence:
#
# PCOD8017252 Si02
#       8
#     2   2   2   2   2   2   2   2
#     4   9  20  39  62  87 120 164 205 258 311 370
#     4  10  22  41  62  89 127 165 210 260 318 385
#     4  12  26  38  61  97 126 165 213 264 323 380
#     4  11  25  41  65  94 126 169 215 269 321 377
#     4   9  21  41  63  91 125 168 207 257 320 379
#     4  10  23  43  64  87 134 169 212 262 328 376
#     4  11  23  41  67  92 128 167 213 264 320 381
#     4  10  22  38  64  91 122 167 212 261 310 375
#
# _framework density 20.845547
#
# number of rings (size 3 to 8) (size 9 to 14) (size 15 to 20)
#    0.000    1.750    1.250    2.250    5.250    6.000 
#    0.000    1.250    0.000    0.000    0.000    0.000 
#    0.000    0.000    0.000    0.000    0.000    0.000 
#
# Total GULP energy -198341.348432 kJ/mol
# GULP energy per Si atom -12396.334277 kJ/mol
# Density = 2.079810 g / cm^3
# Si number density = 20.845547 Si / 1000 Ang^3
#
#
#
# Elastic Constant Matrix: (Units=GPa)
#
#
# Indices 1 2 3 4 5 6 
#
# 1 99.9530 43.5347 39.4129 -2.9625 -20.5160 6.1638
# 2 43.5347 110.0989 56.9046 -15.6747 -9.5730 -13.9032
# 3 39.4129 56.9046 99.4224 -0.1647 -16.7053 0.8712
# 4 -2.9625 -15.6747 -0.1647 36.8803 0.6729 -0.4996
# 5 -20.5160 -9.5730 -16.7053 0.6729 33.5012 -1.6486
# 6 6.1638 -13.9032 0.8712 -0.4996 -1.6486 38.5533
#
#
#
# Elastic Compliance Matrix: (Units=1/GPa)
#
#
# Indices 1 2 3 4 5 6 
#
# 1 0.014305 -0.004770 -0.001849 -0.001052 0.006314 -0.003709
# 2 -0.004770 0.016880 -0.008149 0.006886 -0.001953 0.007040
# 3 -0.001849 -0.008149 0.016242 -0.003662 0.004571 -0.002862
# 4 -0.001052 0.006886 -0.003662 0.030000 -0.000953 0.003082
# 5 0.006314 -0.001953 0.004571 -0.000953 0.035441 -0.000314
# 6 -0.003709 0.007040 -0.002862 0.003082 -0.000314 0.029161
#
#
# Mechanical properties :
#
#
# Convention : Reuss Voigt Hill
#
# Bulk Modulus (GPa) = 55.89242 65.46430 60.67836
# Shear Modulus (GPa) = 28.16457 33.09510 30.62984
#
# Velocity S-wave (km/s) = 3.67973 3.98884 3.83740
# Velocity P-wave (km/s) = 6.70259 7.25858 6.98612
#
# Compressibility (1/GPa) = 0.01789151
#
# Stress axis : x y z
#
# Youngs Moduli (GPa) = 69.90668 59.24166 61.56817
#
# Poissons Ratio (x) = 0.28257 0.11385
# Poissons Ratio (y) = 0.33344 0.50171
# Poissons Ratio (z) = 0.12926 0.48275
#
# Static dielectric constant tensor:
#      x y z
#    x 3.889450 0.326440 0.063010 
#    y 0.326440 4.370890 0.416380 
#    z 0.063010 0.416380 4.237280 
# 
# 
# High freq. dielectric constant tensor:
#      x y z
#    x 1.811930 0.012910 -0.011680 
#    y 0.012910 1.823020 -0.000040 
#    z -0.011680 -0.000040 1.821880 
# 
# From -- ./inp_files/217484.got.cif
#   From: 2010.06.25/outbox.cif.g09.slc.cpg/sg2_109_cif.got.tgz:217484.got - 2010.06.27 13:26:56.
