data_PCOD8017593
_publ_section_title
;
Structure prediction by ZEFSAII (Michael W. Deem and Ramdas Pophale) SiO2 
 PCOD8017593
Probable space group: P -1
;
_chemical_formula_sum "Si O2"
_cell_formula_units_Z 16
_cell_length_a 9.878244
_cell_length_b 12.114789
_cell_length_c 9.887944
_cell_angle_alpha 122.920963
_cell_angle_beta 115.908045
_cell_angle_gamma 49.039299
_cell_volume 744.005290
_symmetry_space_group_name_H-M "P -1"
_symmetry_group_IT_number 2
_symmetry_cell_setting 'triclinic'
loop_
_space_group_symop_operation_xyz
x,y,z
-x,-y,-z
loop_
_atom_site_type_symbol
_atom_site_label
_atom_site_fract_x
_atom_site_fract_y
_atom_site_fract_z
Si Si1 0.543285 0.131361 0.492956
Si Si2 0.333288 0.744177 0.581896
Si Si3 0.461414 0.163533 0.773792
Si Si4 0.726539 0.501656 0.672248
Si Si5 0.829710 0.514655 0.008944
Si Si6 0.945689 0.230558 0.069368
Si Si7 0.753196 0.117190 0.071252
Si Si8 0.860580 0.636313 0.626134
O O1 0.686112 0.148681 0.482669
O O2 0.564721 0.159769 0.679501
O O3 0.334618 0.258820 0.454187
O O4 0.597956 0.956738 0.361581
O O5 0.541829 0.603195 0.578170
O O6 0.204940 0.679604 0.455221
O O7 0.296474 0.834740 0.764682
O O8 0.279017 0.333999 0.839447
O O9 0.596862 0.109376 0.923678
O O10 0.861988 0.548462 0.706311
O O11 0.698844 0.532095 0.841057
O O12 0.877170 0.359407 0.007365
O O13 0.000000 0.500000 0.000000
O O14 0.780841 0.242450 0.087632
O O15 0.070012 0.251298 0.240637
O O16 0.064362 0.054227 0.946778
O O17 0.000000 0.500000 0.500000
#
# Coordination Sequence:
#
# PCOD8017593 Si02
#       8
#     2   2   2   2   2   2   2   2
#     4  10  24  40  67  96 128 174 220 269 324 393
#     4  10  22  42  66  94 126 172 223 262 325 387
#     4  11  24  45  67  96 132 172 222 269 327 387
#     4  10  22  39  62  97 128 164 223 263 323 392
#     4  12  25  42  67 102 132 170 219 274 329 385
#     4  11  25  41  64  99 132 168 223 264 329 388
#     4  11  24  45  68  93 130 179 215 270 323 394
#     4  11  20  39  63  90 135 175 211 268 328 388
#
# _framework density 21.505224999999999
#
# number of rings (size 3 to 8) (size 9 to 14) (size 15 to 20)
#    0.000    1.250    3.750    1.500    3.500    3.000 
#    0.000    0.625    0.000    0.000    0.000    0.000 
#    0.000    0.000    0.000    0.000    0.000    0.000 
#
# Total GULP energy -198351.723853 kJ/mol
# GULP energy per Si atom -12396.982741 kJ/mol
# Density = 2.145628 g / cm^3
# Si number density = 21.505225 Si / 1000 Ang^3
#
#
#
# Elastic Constant Matrix: (Units=GPa)
#
#
# Indices 1 2 3 4 5 6 
#
# 1 73.5127 28.1086 26.9121 14.3942 -14.9729 23.9488
# 2 28.1086 100.4561 32.1809 9.0976 -17.9860 22.5457
# 3 26.9121 32.1809 139.1020 15.8325 -19.3103 16.8883
# 4 14.3942 9.0976 15.8325 25.0030 3.4714 0.7986
# 5 -14.9729 -17.9860 -19.3103 3.4714 34.6303 -5.1836
# 6 23.9488 22.5457 16.8883 0.7986 -5.1836 31.3898
#
#
#
# Elastic Compliance Matrix: (Units=1/GPa)
#
#
# Indices 1 2 3 4 5 6 
#
# 1 0.023520 -0.000078 0.000390 -0.014545 0.009382 -0.016179
# 2 -0.000078 0.013550 -0.000749 -0.004964 0.005860 -0.008176
# 3 0.000390 -0.000749 0.009142 -0.006311 0.004957 -0.003699
# 4 -0.014545 -0.004964 -0.006311 0.055931 -0.015896 0.014010
# 5 0.009382 0.005860 0.004957 -0.015896 0.039264 -0.007146
# 6 -0.016179 -0.008176 -0.003699 0.014010 -0.007146 0.050527
#
#
# Mechanical properties :
#
#
# Convention : Reuss Voigt Hill
#
# Bulk Modulus (GPa) = 22.05609 54.16380 38.10994
# Shear Modulus (GPa) = 24.04766 33.26256 28.65511
#
# Velocity S-wave (km/s) = 3.34761 3.93710 3.65426
# Velocity P-wave (km/s) = 5.02200 6.77560 5.96360
#
# Compressibility (1/GPa) = 0.04533896
#
# Stress axis : x y z
#
# Youngs Moduli (GPa) = 42.51743 73.80113 109.38203
#
# Poissons Ratio (x) = 0.00574 -0.04264
# Poissons Ratio (y) = 0.00331 0.08187
# Poissons Ratio (z) = -0.01657 0.05524
#
# Static dielectric constant tensor:
#      x y z
#    x 3.956370 0.323860 0.003210 
#    y 0.323860 3.978830 -0.003110 
#    z 0.003210 -0.003110 3.923700 
# 
# 
# High freq. dielectric constant tensor:
#      x y z
#    x 1.837650 0.016020 -0.001920 
#    y 0.016020 1.842140 0.002040 
#    z -0.001920 0.002040 1.857060 
# 
# From -- ./inp_files/190161.got.cif
#   From: 2010.06.25/outbox.cif.g09.slc.cpg/sg2_96_cif.got.tgz:190161.got - 2010.06.27 13:26:56.
