data_PCOD8017760
_publ_section_title
;
Structure prediction by ZEFSAII (Michael W. Deem and Ramdas Pophale) SiO2 
 PCOD8017760
Probable space group: P -1
;
_chemical_formula_sum "Si O2"
_cell_formula_units_Z 16
_cell_length_a 9.036991
_cell_length_b 19.318652
_cell_length_c 22.415322
_cell_angle_alpha 161.458255
_cell_angle_beta 38.478087
_cell_angle_gamma 139.234542
_cell_volume 772.014866
_symmetry_space_group_name_H-M "P -1"
_symmetry_group_IT_number 2
_symmetry_cell_setting 'triclinic'
loop_
_space_group_symop_operation_xyz
x,y,z
-x,-y,-z
loop_
_atom_site_type_symbol
_atom_site_label
_atom_site_fract_x
_atom_site_fract_y
_atom_site_fract_z
Si Si1 0.223653 0.000903 0.603358
Si Si2 0.619607 0.196640 0.161697
Si Si3 0.956861 0.842892 0.440600
Si Si4 0.775472 0.571823 0.979241
Si Si5 0.359662 0.595134 0.556128
Si Si6 0.842109 0.755375 0.980630
Si Si7 0.868547 0.374512 0.578959
Si Si8 0.400385 0.811834 0.599850
O O1 0.140114 0.838890 0.551088
O O2 0.071748 0.947214 0.548935
O O3 0.500000 0.000000 0.500000
O O4 0.175836 0.243993 0.836074
O O5 0.562319 0.428722 0.339516
O O6 0.538258 0.223557 0.279000
O O7 0.894085 0.146383 0.038272
O O8 0.500000 0.000000 0.000000
O O9 0.679610 0.791965 0.498410
O O10 0.000000 0.000000 0.500000
O O11 0.078001 0.625544 0.206937
O O12 0.871624 0.655463 0.954183
O O13 0.500000 0.500000 0.000000
O O14 0.283326 0.719277 0.622664
O O15 0.137625 0.446537 0.532951
O O16 0.655388 0.938144 0.187056
O O17 0.752941 0.567178 0.808702
O O18 0.706716 0.332956 0.538445
#
# Coordination Sequence:
#
# PCOD8017760 Si02
#       8
#     2   2   2   2   2   2   2   2
#     4  12  24  44  74  97 130 178 219 270 335 403
#     4  10  22  39  65  92 131 176 229 266 331 392
#     4  12  27  43  68 104 136 166 222 284 333 390
#     4  12  23  43  72  96 127 172 223 265 331 405
#     4  10  24  40  64  99 137 176 226 285 323 388
#     4  11  23  41  67  96 131 182 223 266 332 403
#     4  11  23  43  69  95 136 181 226 267 336 402
#     4  12  25  42  66  99 144 171 222 285 333 382
#
# _framework density 20.724989999999998
#
# number of rings (size 3 to 8) (size 9 to 14) (size 15 to 20)
#    0.000    0.750    3.750    3.375    3.500    4.500 
#    0.000    0.000    0.000    0.000    0.000    0.000 
#    0.000    0.000    0.000    0.000    0.000    0.000 
#
# Total GULP energy -198403.538605 kJ/mol
# GULP energy per Si atom -12400.221163 kJ/mol
# Density = 2.067782 g / cm^3
# Si number density = 20.724990 Si / 1000 Ang^3
#
#
#
# Elastic Constant Matrix: (Units=GPa)
#
#
# Indices 1 2 3 4 5 6 
#
# 1 155.0145 44.7733 75.4677 3.6448 20.8999 -8.1985
# 2 44.7733 95.6408 36.8998 3.7358 -4.1068 -11.3163
# 3 75.4677 36.8998 182.4156 1.2730 17.1236 4.8038
# 4 3.6448 3.7358 1.2730 27.2302 2.2331 -6.3454
# 5 20.8999 -4.1068 17.1236 2.2331 53.6553 -2.0938
# 6 -8.1985 -11.3163 4.8038 -6.3454 -2.0938 45.1704
#
#
#
# Elastic Compliance Matrix: (Units=1/GPa)
#
#
# Indices 1 2 3 4 5 6 
#
# 1 0.009247 -0.003189 -0.002938 -0.000188 -0.002860 0.001033
# 2 -0.003189 0.013097 -0.001675 -0.000857 0.002928 0.002896
# 3 -0.002938 -0.001675 0.007211 -0.000019 -0.001354 -0.001785
# 4 -0.000188 -0.000857 -0.000019 0.038157 -0.001377 0.005050
# 5 -0.002860 0.002928 -0.001354 -0.001377 0.020509 0.001115
# 6 0.001033 0.002896 -0.001785 0.005050 0.001115 0.024002
#
#
# Mechanical properties :
#
#
# Convention : Reuss Voigt Hill
#
# Bulk Modulus (GPa) = 71.68141 83.03917 77.36029
# Shear Modulus (GPa) = 37.74262 43.60650 40.67456
#
# Velocity S-wave (km/s) = 4.27208 4.59197 4.43491
# Velocity P-wave (km/s) = 7.68090 8.26251 7.97701
#
# Compressibility (1/GPa) = 0.01395062
#
# Stress axis : x y z
#
# Youngs Moduli (GPa) = 108.14298 76.35538 138.68519
#
# Poissons Ratio (x) = 0.24347 0.40746
# Poissons Ratio (y) = 0.34483 0.23232
# Poissons Ratio (z) = 0.31772 0.12791
#
# Static dielectric constant tensor:
#      x y z
#    x 2.790800 0.105680 -0.735330 
#    y 0.105680 3.814910 0.061010 
#    z -0.735330 0.061010 3.301240 
# 
# 
# High freq. dielectric constant tensor:
#      x y z
#    x 1.819280 -0.001480 0.008500 
#    y -0.001480 1.812460 -0.006580 
#    z 0.008500 -0.006580 1.826360 
# 
# From -- ./inp_files/201770.got.cif
#   From: 2010.06.25/outbox.cif.g09.slc.cpg/sg2_101_cif.got.tgz:201770.got - 2010.06.27 13:26:56.
