data_PCOD8017903
_publ_section_title
;
Structure prediction by ZEFSAII (Michael W. Deem and Ramdas Pophale) SiO2 
 PCOD8017903
Probable space group: P -1
;
_chemical_formula_sum "Si O2"
_cell_formula_units_Z 12
_cell_length_a 18.394367
_cell_length_b 7.066420
_cell_length_c 5.065635
_cell_angle_alpha 104.322312
_cell_angle_beta 79.488347
_cell_angle_gamma 131.851233
_cell_volume 475.079136
_symmetry_space_group_name_H-M "P -1"
_symmetry_group_IT_number 2
_symmetry_cell_setting 'triclinic'
loop_
_space_group_symop_operation_xyz
x,y,z
-x,-y,-z
loop_
_atom_site_type_symbol
_atom_site_label
_atom_site_fract_x
_atom_site_fract_y
_atom_site_fract_z
Si Si1 0.747814 0.444183 0.014962
Si Si2 0.480535 0.597655 0.297194
Si Si3 0.671779 0.104810 0.452016
Si Si4 0.925360 0.156819 0.693252
Si Si5 0.719239 0.751309 0.471357
Si Si6 0.046384 0.338957 0.171417
O O1 0.737428 0.294156 0.233591
O O2 0.717690 0.612945 0.165011
O O3 0.678882 0.250555 0.757647
O O4 0.859694 0.634399 0.914948
O O5 0.500000 0.500000 0.500000
O O6 0.367855 0.470631 0.351004
O O7 0.558434 0.909300 0.363978
O O8 0.500000 0.500000 0.000000
O O9 0.710618 0.956665 0.446641
O O10 0.918646 0.378573 0.778483
O O11 0.000832 0.214173 0.441997
O O12 0.817710 0.886810 0.619611
O O13 0.964643 0.144345 0.941167
#
# Coordination Sequence:
#
# PCOD8017903 Si02
#       6
#     2   2   2   2   2   2
#     4  12  26  43  72 102 135 180 227 271 342 401
#     4  10  23  43  70 100 133 178 223 272 338 397
#     4  11  25  46  68  99 143 175 219 288 327 398
#     4  10  22  39  68  90 134 177 218 276 331 395
#     4  11  26  45  72 102 133 182 227 275 340 399
#     4  10  22  40  63  98 129 177 221 270 339 389
#
# _framework density 25.258949000000001
#
# number of rings (size 3 to 8) (size 9 to 14) (size 15 to 20)
#    0.000    1.333    1.667    3.000    4.667    9.333 
#    0.000    0.000    0.000    0.000    0.000    0.000 
#    0.000    0.000    0.000    0.000    0.000    0.000 
#
# Total GULP energy -148854.525736 kJ/mol
# GULP energy per Si atom -12404.543811 kJ/mol
# Density = 2.520146 g / cm^3
# Si number density = 25.258949 Si / 1000 Ang^3
#
#
#
# Elastic Constant Matrix: (Units=GPa)
#
#
# Indices 1 2 3 4 5 6 
#
# 1 39.4554 35.9553 45.2737 2.0391 -7.3367 23.1831
# 2 35.9553 113.0375 59.0302 22.7568 -8.3072 41.5818
# 3 45.2737 59.0302 210.2183 20.7563 -9.6253 22.2504
# 4 2.0391 22.7568 20.7563 49.7909 5.8243 1.3702
# 5 -7.3367 -8.3072 -9.6253 5.8243 48.3578 -8.8786
# 6 23.1831 41.5818 22.2504 1.3702 -8.8786 43.6658
#
#
#
# Elastic Compliance Matrix: (Units=1/GPa)
#
#
# Indices 1 2 3 4 5 6 
#
# 1 0.049395 -0.006812 -0.007428 0.004457 0.001406 -0.015807
# 2 -0.006812 0.017694 -0.001520 -0.006874 0.000295 -0.012183
# 3 -0.007428 -0.001520 0.006779 -0.001954 0.000585 0.002117
# 4 0.004457 -0.006874 -0.001954 0.024116 -0.003103 0.003787
# 5 0.001406 0.000295 0.000585 -0.003103 0.022030 0.003251
# 6 -0.015807 -0.012183 0.002117 0.003787 0.003251 0.042359
#
#
# Mechanical properties :
#
#
# Convention : Reuss Voigt Hill
#
# Bulk Modulus (GPa) = 23.61343 71.46996 47.54170
# Shear Modulus (GPa) = 24.03747 43.19304 33.61525
#
# Velocity S-wave (km/s) = 3.08822 4.13971 3.65201
# Velocity P-wave (km/s) = 4.69946 7.15583 6.05355
#
# Compressibility (1/GPa) = 0.04234878
#
# Stress axis : x y z
#
# Youngs Moduli (GPa) = 20.24510 56.51564 147.51294
#
# Poissons Ratio (x) = 0.38499 1.09568
# Poissons Ratio (y) = 0.13791 0.22420
# Poissons Ratio (z) = 0.15037 0.08590
#
# Static dielectric constant tensor:
#      x y z
#    x 4.614740 0.626290 -0.141650 
#    y 0.626290 5.455010 -0.031140 
#    z -0.141650 -0.031140 4.786530 
# 
# 
# High freq. dielectric constant tensor:
#      x y z
#    x 1.999400 0.007010 -0.000540 
#    y 0.007010 2.023010 0.005720 
#    z -0.000540 0.005720 2.024180 
# 
# From -- ./inp_files/33406.got.cif
#   From: 2010.06.25/outbox.cif.g09.slc.cpg/sg2_17_cif.got.tgz:33406.got - 2010.06.27 13:26:56.
