data_PCOD8017499
_publ_section_title
;
Structure prediction by ZEFSAII (Michael W. Deem and Ramdas Pophale) SiO2 
 PCOD8017499
Probable space group: P -1
;
_chemical_formula_sum "Si O2"
_cell_formula_units_Z 16
_cell_length_a 9.985945
_cell_length_b 14.957004
_cell_length_c 15.630633
_cell_angle_alpha 39.180108
_cell_angle_beta 142.803077
_cell_angle_gamma 120.333707
_cell_volume 852.151553
_symmetry_space_group_name_H-M "P -1"
_symmetry_group_IT_number 2
_symmetry_cell_setting 'triclinic'
loop_
_space_group_symop_operation_xyz
x,y,z
-x,-y,-z
loop_
_atom_site_type_symbol
_atom_site_label
_atom_site_fract_x
_atom_site_fract_y
_atom_site_fract_z
Si Si1 0.975257 0.590164 0.335120
Si Si2 0.781174 0.439079 0.938823
Si Si3 0.937588 0.093698 0.272204
Si Si4 0.464929 0.441649 0.618192
Si Si5 0.344837 0.907305 0.027174
Si Si6 0.181095 0.067160 0.998783
Si Si7 0.648518 0.082421 0.289745
Si Si8 0.502059 0.421164 0.970218
O O1 0.199761 0.525753 0.440035
O O2 0.000000 0.500000 0.500000
O O3 0.936223 0.761832 0.212083
O O4 0.761274 0.565462 0.194325
O O5 0.627825 0.484436 0.741025
O O6 0.619182 0.493952 0.899926
O O7 0.888036 0.266021 0.131224
O O8 0.000000 0.500000 0.000000
O O9 0.774935 0.033748 0.298670
O O10 0.883387 0.061119 0.171567
O O11 0.206946 0.015310 0.487347
O O12 0.500000 0.500000 0.500000
O O13 0.510089 0.265408 0.770848
O O14 0.500000 0.000000 0.000000
O O15 0.264749 0.963289 0.037939
O O16 0.397729 0.055959 0.180043
O O17 0.000000 0.000000 0.000000
O O18 0.641109 0.250095 0.180323
O O19 0.500000 0.500000 0.000000
#
# Coordination Sequence:
#
# PCOD8017499 Si02
#       8
#     2   2   2   2   2   2   2   2
#     4  11  22  42  62  85 126 162 198 250 305 359
#     4  10  22  40  59  87 123 154 195 251 299 350
#     4   9  19  38  62  84 113 152 197 246 284 347
#     4  11  24  40  62  93 123 158 204 252 303 358
#     4  11  21  39  64  91 115 154 212 245 288 362
#     4  11  23  39  60  90 124 155 192 252 308 351
#     4   9  19  39  60  84 116 152 195 240 295 347
#     4  10  22  39  61  87 118 159 200 241 297 362
#
# _framework density 18.776002999999999
#
# number of rings (size 3 to 8) (size 9 to 14) (size 15 to 20)
#    0.000    1.750    2.500    1.500    1.750    4.000 
#    2.250    0.625    0.000    0.000    0.000    0.000 
#    0.000    0.000    0.000    0.000    0.000    0.000 
#
# Total GULP energy -198381.041390 kJ/mol
# GULP energy per Si atom -12398.815087 kJ/mol
# Density = 1.873327 g / cm^3
# Si number density = 18.776003 Si / 1000 Ang^3
#
#
#
# Elastic Constant Matrix: (Units=GPa)
#
#
# Indices 1 2 3 4 5 6 
#
# 1 101.7183 42.1631 24.9192 16.3364 9.4201 4.1258
# 2 42.1631 99.9169 30.6211 12.5297 2.6338 1.0934
# 3 24.9192 30.6211 116.4673 12.7253 4.0810 1.2658
# 4 16.3364 12.5297 12.7253 18.1459 -2.0776 2.0575
# 5 9.4201 2.6338 4.0810 -2.0776 31.3590 1.1352
# 6 4.1258 1.0934 1.2658 2.0575 1.1352 41.3552
#
#
#
# Elastic Compliance Matrix: (Units=1/GPa)
#
#
# Indices 1 2 3 4 5 6 
#
# 1 0.013683 -0.004294 -0.000623 -0.009332 -0.004263 -0.000651
# 2 -0.004294 0.012902 -0.002093 -0.003586 0.000229 0.000323
# 3 -0.000623 -0.002093 0.009867 -0.005069 -0.001261 0.000102
# 4 -0.009332 -0.003586 -0.005069 0.070812 0.008549 -0.002577
# 5 -0.004263 0.000229 -0.001261 0.008549 0.033913 -0.000898
# 6 -0.000651 0.000323 0.000102 -0.002577 -0.000898 0.024387
#
#
# Mechanical properties :
#
#
# Convention : Reuss Voigt Hill
#
# Bulk Modulus (GPa) = 44.57795 57.05659 50.81727
# Shear Modulus (GPa) = 26.72940 32.86529 29.79734
#
# Velocity S-wave (km/s) = 3.77715 4.18830 3.98803
# Velocity P-wave (km/s) = 6.54339 7.33779 6.95195
#
# Compressibility (1/GPa) = 0.02243262
#
# Stress axis : x y z
#
# Youngs Moduli (GPa) = 73.08175 77.50931 101.35204
#
# Poissons Ratio (x) = 0.33279 0.06312
# Poissons Ratio (y) = 0.31378 0.21215
# Poissons Ratio (z) = 0.04551 0.16224
#
# Static dielectric constant tensor:
#      x y z
#    x 3.393280 0.084590 -0.081660 
#    y 0.084590 3.506040 0.012810 
#    z -0.081660 0.012810 3.588670 
# 
# 
# High freq. dielectric constant tensor:
#      x y z
#    x 1.727510 -0.000490 0.001410 
#    y -0.000490 1.731310 0.003360 
#    z 0.001410 0.003360 1.741490 
# 
# From -- ./inp_files/208628.got.cif
#   From: 2010.06.25/outbox.cif.g09.slc.cpg/sg2_105_cif.got.tgz:208628.got - 2010.06.27 13:26:56.
