data_PCOD8017193
_publ_section_title
;
Structure prediction by ZEFSAII (Michael W. Deem and Ramdas Pophale) SiO2 
 PCOD8017193
Probable space group: P -1
;
_chemical_formula_sum "Si O2"
_cell_formula_units_Z 16
_cell_length_a 12.578349
_cell_length_b 8.485066
_cell_length_c 15.876001
_cell_angle_alpha 105.615177
_cell_angle_beta 125.925884
_cell_angle_gamma 119.350062
_cell_volume 735.110187
_symmetry_space_group_name_H-M "P -1"
_symmetry_group_IT_number 2
_symmetry_cell_setting 'triclinic'
loop_
_space_group_symop_operation_xyz
x,y,z
-x,-y,-z
loop_
_atom_site_type_symbol
_atom_site_label
_atom_site_fract_x
_atom_site_fract_y
_atom_site_fract_z
Si Si1 0.230072 0.955112 0.932160
Si Si2 0.492638 0.151691 0.245611
Si Si3 0.886961 0.234414 0.857783
Si Si4 0.321906 0.988502 0.617449
Si Si5 0.133575 0.304562 0.604816
Si Si6 0.643125 0.390238 0.078687
Si Si7 0.292590 0.399960 0.038222
Si Si8 0.899463 0.350452 0.696866
O O1 0.335033 0.966631 0.062788
O O2 0.374930 0.055502 0.928152
O O3 0.224299 0.140625 0.979803
O O4 0.960575 0.606809 0.747025
O O5 0.578194 0.056440 0.288495
O O6 0.708325 0.499661 0.376743
O O7 0.344683 0.067985 0.243641
O O8 0.801952 0.210798 0.724066
O O9 0.000000 0.500000 0.000000
O O10 0.064013 0.267415 0.937489
O O11 0.303080 0.923575 0.500078
O O12 0.054679 0.744262 0.486610
O O13 0.491847 0.321832 0.759915
O O14 0.298525 0.455263 0.784931
O O15 0.000000 0.000000 0.500000
O O16 0.840082 0.457622 0.166908
O O17 0.633704 0.499734 0.010254
#
# Coordination Sequence:
#
# PCOD8017193 Si02
#       8
#     2   2   2   2   2   2   2   2
#     4  11  21  38  62  94 123 162 214 265 306 368
#     4  11  22  39  63  89 122 170 210 244 311 376
#     4  11  21  45  65  86 124 172 216 253 296 388
#     4  11  22  39  63  94 126 165 206 260 321 371
#     4  10  22  40  63  96 131 158 202 273 322 365
#     4   9  20  38  61  87 125 167 208 249 314 381
#     4  11  23  39  66  92 125 169 209 260 316 366
#     4  10  22  38  62  92 122 163 211 260 308 370
#
# _framework density 21.765446000000001
#
# number of rings (size 3 to 8) (size 9 to 14) (size 15 to 20)
#    0.000    1.500    2.500    3.375    0.000    5.000 
#    0.000    1.250    0.000   12.750    0.000    0.000 
#    0.000    0.000    0.000    0.000    0.000    0.000 
#
# Total GULP energy -198319.683119 kJ/mol
# GULP energy per Si atom -12394.980195 kJ/mol
# Density = 2.171591 g / cm^3
# Si number density = 21.765446 Si / 1000 Ang^3
#
#
#
# Elastic Constant Matrix: (Units=GPa)
#
#
# Indices 1 2 3 4 5 6 
#
# 1 86.8056 51.1302 33.3147 -3.9655 -5.9333 21.2683
# 2 51.1302 116.8304 58.4794 -0.3049 -16.5463 22.5420
# 3 33.3147 58.4794 94.5885 -1.9234 -17.0591 3.2637
# 4 -3.9655 -0.3049 -1.9234 37.4193 -1.6436 3.7914
# 5 -5.9333 -16.5463 -17.0591 -1.6436 31.9421 4.0401
# 6 21.2683 22.5420 3.2637 3.7914 4.0401 43.0936
#
#
#
# Elastic Compliance Matrix: (Units=1/GPa)
#
#
# Indices 1 2 3 4 5 6 
#
# 1 0.016992 -0.004988 -0.002658 0.002208 -0.000003 -0.005770
# 2 -0.004988 0.016079 -0.007210 0.000008 0.004286 -0.005806
# 3 -0.002658 -0.007210 0.016620 0.000356 0.004236 0.003396
# 4 0.002208 0.000008 0.000356 0.027468 0.002495 -0.003772
# 5 -0.000003 0.004286 0.004236 0.002495 0.036704 -0.006222
# 6 -0.005770 -0.005806 0.003396 -0.003772 -0.006222 0.029748
#
#
# Mechanical properties :
#
#
# Convention : Reuss Voigt Hill
#
# Bulk Modulus (GPa) = 50.05186 64.89701 57.47443
# Shear Modulus (GPa) = 27.78050 32.84435 30.31242
#
# Velocity S-wave (km/s) = 3.57649 3.88882 3.73592
# Velocity P-wave (km/s) = 6.33253 7.07426 6.71365
#
# Compressibility (1/GPa) = 0.01997928
#
# Stress axis : x y z
#
# Youngs Moduli (GPa) = 58.85077 62.19438 60.16812
#
# Poissons Ratio (x) = 0.31020 0.15991
# Poissons Ratio (y) = 0.29352 0.43384
# Poissons Ratio (z) = 0.15641 0.44845
#
# Static dielectric constant tensor:
#      x y z
#    x 4.137430 0.277330 0.213760 
#    y 0.277330 4.009980 0.029980 
#    z 0.213760 0.029980 4.145730 
# 
# 
# High freq. dielectric constant tensor:
#      x y z
#    x 1.853760 0.004470 0.002000 
#    y 0.004470 1.854120 -0.002990 
#    z 0.002000 -0.002990 1.848550 
# 
# From -- ./inp_files/238488.got.cif
#   From: 2010.06.25/outbox.cif.g09.slc.cpg/sg2_120_cif.got.tgz:238488.got - 2010.06.27 13:26:56.
