data_PCOD8017738
_publ_section_title
;
Structure prediction by ZEFSAII (Michael W. Deem and Ramdas Pophale) SiO2 
 PCOD8017738
Probable space group: P -1
;
_chemical_formula_sum "Si O2"
_cell_formula_units_Z 16
_cell_length_a 19.540847
_cell_length_b 9.093274
_cell_length_c 22.568281
_cell_angle_alpha 45.431962
_cell_angle_beta 159.109741
_cell_angle_gamma 145.461254
_cell_volume 763.718489
_symmetry_space_group_name_H-M "P -1"
_symmetry_group_IT_number 2
_symmetry_cell_setting 'triclinic'
loop_
_space_group_symop_operation_xyz
x,y,z
-x,-y,-z
loop_
_atom_site_type_symbol
_atom_site_label
_atom_site_fract_x
_atom_site_fract_y
_atom_site_fract_z
Si Si1 0.292865 0.287342 0.050847
Si Si2 0.981500 0.878099 0.243861
Si Si3 0.371276 0.876903 0.202805
Si Si4 0.947991 0.232418 0.548854
Si Si5 0.133530 0.751216 0.228548
Si Si6 0.994584 0.635022 0.868125
Si Si7 0.690930 0.235194 0.508138
Si Si8 0.831426 0.723525 0.405284
O O1 0.541689 0.585845 0.192590
O O2 0.344875 0.079032 0.157638
O O3 0.239829 0.297739 0.935474
O O4 0.052084 0.188224 0.923639
O O5 0.879673 0.711711 0.270836
O O6 0.231690 0.931731 0.408560
O O7 0.071645 0.172904 0.248925
O O8 0.217541 0.598116 0.193060
O O9 0.655840 0.994193 0.398237
O O10 0.272164 0.817659 0.071944
O O11 0.000000 0.500000 0.500000
O O12 0.017003 0.160520 0.566299
O O13 0.994003 0.485965 0.148847
O O14 0.202857 0.669295 0.366269
O O15 0.382359 0.026747 0.320133
O O16 0.815632 0.498035 0.492699
O O17 0.000000 0.000000 0.500000
#
# Coordination Sequence:
#
# PCOD8017738 Si02
#       8
#     2   2   2   2   2   2   2   2
#     4  10  22  44  64  94 128 167 206 259 319 371
#     4  10  22  42  68  95 123 164 212 261 315 369
#     4  10  22  42  64  96 128 159 212 261 314 371
#     4  12  23  43  67  88 122 176 210 253 313 375
#     4  10  22  39  67  94 126 168 203 261 320 371
#     4  10  22  39  65 100 125 157 211 269 310 366
#     4  10  22  44  62  92 130 165 211 253 320 376
#     4  12  27  43  62  93 128 167 213 260 305 376
#
# _framework density 20.950127999999999
#
# number of rings (size 3 to 8) (size 9 to 14) (size 15 to 20)
#    0.000    1.500    2.500    1.500    3.500    4.500 
#    6.750    2.500    0.000    0.000    0.000    0.000 
#    0.000    0.000    0.000    0.000    0.000    0.000 
#
# Total GULP energy -198322.209349 kJ/mol
# GULP energy per Si atom -12395.138084 kJ/mol
# Density = 2.090244 g / cm^3
# Si number density = 20.950128 Si / 1000 Ang^3
#
#
#
# Elastic Constant Matrix: (Units=GPa)
#
#
# Indices 1 2 3 4 5 6 
#
# 1 126.1953 43.0669 42.6961 -3.3650 -23.0532 -11.8287
# 2 43.0669 99.9080 41.4876 -1.6615 -15.1027 -4.3533
# 3 42.6961 41.4876 90.4257 8.6521 -2.2321 -0.8468
# 4 -3.3650 -1.6615 8.6521 30.9889 -4.4306 -11.0642
# 5 -23.0532 -15.1027 -2.2321 -4.4306 34.1127 -1.3685
# 6 -11.8287 -4.3533 -0.8468 -11.0642 -1.3685 36.3227
#
#
#
# Elastic Compliance Matrix: (Units=1/GPa)
#
#
# Indices 1 2 3 4 5 6 
#
# 1 0.012617 -0.001440 -0.005626 0.006242 0.008573 0.006029
# 2 -0.001440 0.014141 -0.006028 0.003965 0.005508 0.002501
# 3 -0.005626 -0.006028 0.017076 -0.008428 -0.006647 -0.004974
# 4 0.006242 0.003965 -0.008428 0.042812 0.011616 0.015790
# 5 0.008573 0.005508 -0.006647 0.011616 0.038954 0.008303
# 6 0.006029 0.002501 -0.004974 0.015790 0.008303 0.034801
#
#
# Mechanical properties :
#
#
# Convention : Reuss Voigt Hill
#
# Bulk Modulus (GPa) = 56.66784 63.44780 60.05782
# Shear Modulus (GPa) = 25.97815 32.90341 29.44078
#
# Velocity S-wave (km/s) = 3.52518 3.96733 3.75277
# Velocity P-wave (km/s) = 6.60885 7.16500 6.89253
#
# Compressibility (1/GPa) = 0.01764669
#
# Stress axis : x y z
#
# Youngs Moduli (GPa) = 79.25957 70.71828 58.56026
#
# Poissons Ratio (x) = 0.10184 0.32944
# Poissons Ratio (y) = 0.11414 0.35299
# Poissons Ratio (z) = 0.44589 0.42628
#
# Static dielectric constant tensor:
#      x y z
#    x 3.355390 -0.234690 -0.230530 
#    y -0.234690 3.539660 -0.014660 
#    z -0.230530 -0.014660 3.885310 
# 
# 
# High freq. dielectric constant tensor:
#      x y z
#    x 1.838140 -0.001190 -0.020290 
#    y -0.001190 1.801330 -0.003410 
#    z -0.020290 -0.003410 1.829140 
# 
# From -- ./inp_files/295732.got.cif
#   From: 2010.06.25/outbox.cif.g09.slc.cpg/sg2_148_cif.got.tgz:295732.got - 2010.06.27 13:26:56.
