data_PCOD8017646
_publ_section_title
;
Structure prediction by ZEFSAII (Michael W. Deem and Ramdas Pophale) SiO2 
 PCOD8017646
Probable space group: P -1
;
_chemical_formula_sum "Si O2"
_cell_formula_units_Z 16
_cell_length_a 11.898340
_cell_length_b 11.613164
_cell_length_c 15.102325
_cell_angle_alpha 120.184875
_cell_angle_beta 151.112569
_cell_angle_gamma 48.545456
_cell_volume 738.341958
_symmetry_space_group_name_H-M "P -1"
_symmetry_group_IT_number 2
_symmetry_cell_setting 'triclinic'
loop_
_space_group_symop_operation_xyz
x,y,z
-x,-y,-z
loop_
_atom_site_type_symbol
_atom_site_label
_atom_site_fract_x
_atom_site_fract_y
_atom_site_fract_z
Si Si1 0.298505 0.776492 0.658890
Si Si2 0.817896 0.316083 0.046870
Si Si3 0.425370 0.198426 0.460081
Si Si4 0.717973 0.470915 0.566578
Si Si5 0.599115 0.139670 0.931559
Si Si6 0.129788 0.893639 0.136675
Si Si7 0.282910 0.995338 0.587264
Si Si8 0.690592 0.637492 0.030690
O O1 0.217555 0.667932 0.509343
O O2 0.047692 0.897289 0.596094
O O3 0.384610 0.867630 0.686620
O O4 0.560808 0.663622 0.855190
O O5 0.681585 0.502362 0.027632
O O6 0.128498 0.217501 0.263643
O O7 0.629013 0.273092 0.955374
O O8 0.819453 0.272455 0.926514
O O9 0.386657 0.368875 0.496413
O O10 0.592883 0.121932 0.638374
O O11 0.612843 0.093020 0.467737
O O12 0.500000 0.500000 0.500000
O O13 0.996411 0.417412 0.790397
O O14 0.398861 0.108435 0.723569
O O15 0.472461 0.200712 0.964286
O O16 0.893909 0.975253 0.080643
O O17 0.000000 0.000000 0.000000
#
# Coordination Sequence:
#
# PCOD8017646 Si02
#       8
#     2   2   2   2   2   2   2   2
#     4  11  24  44  65  94 129 168 213 268 318 379
#     4  10  23  43  63  95 130 167 216 262 312 385
#     4  11  22  41  66  93 132 172 204 268 322 368
#     4  11  23  42  65  96 125 166 217 259 317 386
#     4  11  22  42  64  93 130 165 218 259 309 388
#     4  10  22  39  63  94 126 165 214 257 311 378
#     4  11  23  42  66  94 131 168 215 259 325 381
#     4  11  24  43  67  92 129 172 211 264 321 372
#
# _framework density 21.670175
#
# number of rings (size 3 to 8) (size 9 to 14) (size 15 to 20)
#    0.000    1.250    3.750    1.875    0.000    4.000 
#    4.500    0.625    0.000    0.000    0.000    0.000 
#    0.000    0.000    0.000    0.000    0.000    0.000 
#
# Total GULP energy -198369.166395 kJ/mol
# GULP energy per Si atom -12398.072900 kJ/mol
# Density = 2.162085 g / cm^3
# Si number density = 21.670175 Si / 1000 Ang^3
#
#
#
# Elastic Constant Matrix: (Units=GPa)
#
#
# Indices 1 2 3 4 5 6 
#
# 1 70.5866 29.3741 39.3518 -0.9230 8.2803 6.5715
# 2 29.3741 84.4604 36.9011 7.6945 -1.0398 -6.5185
# 3 39.3518 36.9011 157.8823 -0.4646 -11.8397 15.7255
# 4 -0.9230 7.6945 -0.4646 28.1718 8.2049 1.7971
# 5 8.2803 -1.0398 -11.8397 8.2049 26.6780 2.7620
# 6 6.5715 -6.5185 15.7255 1.7971 2.7620 33.1489
#
#
#
# Elastic Compliance Matrix: (Units=1/GPa)
#
#
# Indices 1 2 3 4 5 6 
#
# 1 0.020493 -0.006152 -0.004108 0.005307 -0.009766 -0.002797
# 2 -0.006152 0.016129 -0.002634 -0.005758 0.002545 0.005741
# 3 -0.004108 -0.002634 0.008835 -0.000667 0.005747 -0.004337
# 4 0.005307 -0.005758 -0.000667 0.041696 -0.014690 -0.002905
# 5 -0.009766 0.002545 0.005747 -0.014690 0.048045 -0.003497
# 6 -0.002797 0.005741 -0.004337 -0.002905 -0.003497 0.034357
#
#
# Mechanical properties :
#
#
# Convention : Reuss Voigt Hill
#
# Bulk Modulus (GPa) = 50.84388 58.24261 54.54324
# Shear Modulus (GPa) = 24.76491 31.41989 28.09240
#
# Velocity S-wave (km/s) = 3.38422 3.81190 3.60441
# Velocity P-wave (km/s) = 6.22769 6.80510 6.52279
#
# Compressibility (1/GPa) = 0.01966805
#
# Stress axis : x y z
#
# Youngs Moduli (GPa) = 48.79791 61.99885 113.19252
#
# Poissons Ratio (x) = 0.38141 0.46500
# Poissons Ratio (y) = 0.30020 0.29819
# Poissons Ratio (z) = 0.20046 0.16333
#
# Static dielectric constant tensor:
#      x y z
#    x 3.727180 -0.270220 0.093800 
#    y -0.270220 4.385090 0.171660 
#    z 0.093800 0.171660 3.948580 
# 
# 
# High freq. dielectric constant tensor:
#      x y z
#    x 1.834250 -0.014850 0.009130 
#    y -0.014850 1.868870 0.009870 
#    z 0.009130 0.009870 1.855140 
# 
# From -- ./inp_files/472508.got.cif
#   From: 2010.06.25/outbox.cif.g09.slc.cpg/sg2_237_cif.got.tgz:472508.got - 2010.06.27 13:26:56.
