data_PCOD8017562
_publ_section_title
;
Structure prediction by ZEFSAII (Michael W. Deem and Ramdas Pophale) SiO2 
 PCOD8017562
Probable space group: P -1
;
_chemical_formula_sum "Si O2"
_cell_formula_units_Z 16
_cell_length_a 20.691337
_cell_length_b 6.583431
_cell_length_c 18.952547
_cell_angle_alpha 115.640782
_cell_angle_beta 160.631861
_cell_angle_gamma 57.050401
_cell_volume 687.840977
_symmetry_space_group_name_H-M "P -1"
_symmetry_group_IT_number 2
_symmetry_cell_setting 'triclinic'
loop_
_space_group_symop_operation_xyz
x,y,z
-x,-y,-z
loop_
_atom_site_type_symbol
_atom_site_label
_atom_site_fract_x
_atom_site_fract_y
_atom_site_fract_z
Si Si1 0.259204 0.215253 0.273022
Si Si2 0.534209 0.331108 0.202742
Si Si3 0.870380 0.800028 0.484410
Si Si4 0.009089 0.214833 0.139138
Si Si5 0.987893 0.757513 0.113979
Si Si6 0.305847 0.253963 0.560311
Si Si7 0.319018 0.272121 0.104826
Si Si8 0.663139 0.561255 0.131410
O O1 0.108614 0.123227 0.150138
O O2 0.196598 0.234140 0.129649
O O3 0.500000 0.000000 0.500000
O O4 0.210567 0.494531 0.293652
O O5 0.549066 0.593220 0.268357
O O6 0.354613 0.299050 0.062454
O O7 0.771996 0.103148 0.431688
O O8 0.467969 0.295339 0.050924
O O9 0.835688 0.682764 0.504104
O O10 0.741880 0.737560 0.281015
O O11 0.125612 0.693987 0.713627
O O12 0.148383 0.333714 0.342323
O O13 0.760194 0.437868 0.904653
O O14 0.033572 0.991576 0.182080
O O15 0.883971 0.784652 0.089365
O O16 0.462855 0.950660 0.671290
O O17 0.500000 0.500000 0.000000
#
# Coordination Sequence:
#
# PCOD8017562 Si02
#       8
#     2   2   2   2   2   2   2   2
#     4  10  22  39  62  91 122 165 207 253 314 368
#     4  11  23  42  65  91 126 166 209 259 316 374
#     4  10  24  42  64  96 124 165 215 257 319 380
#     4  11  23  39  63  92 125 166 205 256 316 369
#     4  10  22  41  61  92 127 156 210 259 304 377
#     4  11  23  41  60  93 125 162 211 254 308 378
#     4  10  23  39  63  89 122 165 204 255 314 365
#     4  11  22  44  67  91 129 164 209 268 315 374
#
# _framework density 23.261191
#
# number of rings (size 3 to 8) (size 9 to 14) (size 15 to 20)
#    0.000    1.500    1.250    3.000    0.000    7.000 
#    2.250    0.000    0.000    0.000    0.000    0.000 
#    0.000    0.000    0.000    0.000    0.000    0.000 
#
# Total GULP energy -198234.569099 kJ/mol
# GULP energy per Si atom -12389.660569 kJ/mol
# Density = 2.320825 g / cm^3
# Si number density = 23.261191 Si / 1000 Ang^3
#
#
#
# Elastic Constant Matrix: (Units=GPa)
#
#
# Indices 1 2 3 4 5 6 
#
# 1 122.9484 33.2487 30.9026 -5.0667 29.1917 30.9544
# 2 33.2487 113.9545 42.0295 -19.6129 14.5574 22.6070
# 3 30.9026 42.0295 88.5601 -26.0792 22.6484 3.5333
# 4 -5.0667 -19.6129 -26.0792 38.4915 -9.1555 1.8534
# 5 29.1917 14.5574 22.6484 -9.1555 38.2285 -2.4548
# 6 30.9544 22.6070 3.5333 1.8534 -2.4548 36.5308
#
#
#
# Elastic Compliance Matrix: (Units=1/GPa)
#
#
# Indices 1 2 3 4 5 6 
#
# 1 0.014388 0.000343 -0.002312 -0.001478 -0.010926 -0.012839
# 2 0.000343 0.012736 -0.004219 0.003522 -0.002289 -0.008097
# 3 -0.002312 -0.004219 0.017736 0.008267 -0.005020 0.002098
# 4 -0.001478 0.003522 0.008267 0.034010 0.002826 -0.003262
# 5 -0.010926 -0.002289 -0.005020 0.002826 0.039904 0.013699
# 6 -0.012839 -0.008097 0.002098 -0.003262 0.013699 0.044148
#
#
# Mechanical properties :
#
#
# Convention : Reuss Voigt Hill
#
# Bulk Modulus (GPa) = 30.78425 59.75832 45.27129
# Shear Modulus (GPa) = 26.86374 37.26897 32.06635
#
# Velocity S-wave (km/s) = 3.40203 4.00709 3.71689
# Velocity P-wave (km/s) = 5.35674 6.86694 6.15831
#
# Compressibility (1/GPa) = 0.03248414
#
# Stress axis : x y z
#
# Youngs Moduli (GPa) = 69.50439 78.51655 56.38396
#
# Poissons Ratio (x) = -0.02696 0.13038
# Poissons Ratio (y) = -0.02387 0.23786
# Poissons Ratio (z) = 0.16072 0.33123
#
# Static dielectric constant tensor:
#      x y z
#    x 4.443830 0.121460 0.159680 
#    y 0.121460 4.127090 -0.311520 
#    z 0.159680 -0.311520 4.019200 
# 
# 
# High freq. dielectric constant tensor:
#      x y z
#    x 1.937910 0.013930 0.007470 
#    y 0.013930 1.913920 -0.030190 
#    z 0.007470 -0.030190 1.907820 
# 
# From -- ./inp_files/600795.got.cif
#   From: 2010.06.25/outbox.cif.g09.slc.cpg/sg2_301_cif.got.tgz:600795.got - 2010.06.27 13:26:56.
