data_PCOD8017327
_publ_section_title
;
Structure prediction by ZEFSAII (Michael W. Deem and Ramdas Pophale) SiO2 
 PCOD8017327
Probable space group: P -1
;
_chemical_formula_sum "Si O2"
_cell_formula_units_Z 16
_cell_length_a 11.809631
_cell_length_b 10.835030
_cell_length_c 9.359787
_cell_angle_alpha 50.648787
_cell_angle_beta 48.762859
_cell_angle_gamma 70.464003
_cell_volume 689.199239
_symmetry_space_group_name_H-M "P -1"
_symmetry_group_IT_number 2
_symmetry_cell_setting 'triclinic'
loop_
_space_group_symop_operation_xyz
x,y,z
-x,-y,-z
loop_
_atom_site_type_symbol
_atom_site_label
_atom_site_fract_x
_atom_site_fract_y
_atom_site_fract_z
Si Si1 0.965936 0.238468 0.245894
Si Si2 0.481113 0.206827 0.939176
Si Si3 0.065429 0.117293 0.523952
Si Si4 0.591707 0.461514 0.116396
Si Si5 0.267628 0.357752 0.369593
Si Si6 0.719223 0.995455 0.947758
Si Si7 0.787676 0.682929 0.241101
Si Si8 0.328262 0.621236 0.584832
O O1 0.086917 0.228371 0.281675
O O2 0.845087 0.350086 0.313517
O O3 0.884315 0.057309 0.414235
O O4 0.054347 0.311547 0.978529
O O5 0.448823 0.360287 0.942477
O O6 0.561222 0.247124 0.689537
O O7 0.594251 0.110548 0.008936
O O8 0.326731 0.090602 0.105880
O O9 0.174533 0.196749 0.499403
O O10 0.885485 0.100490 0.723388
O O11 0.445646 0.345938 0.260160
O O12 0.642580 0.369376 0.277775
O O13 0.725117 0.493107 0.860283
O O14 0.189733 0.383067 0.568761
O O15 0.728338 0.856556 0.162171
O O16 0.658537 0.555620 0.362795
#
# Coordination Sequence:
#
# PCOD8017327 Si02
#       8
#     2   2   2   2   2   2   2   2
#     4  10  23  39  69  99 123 170 223 274 316 379
#     4  11  21  39  67  99 128 162 220 273 321 373
#     4  10  22  44  65  95 136 170 214 268 331 384
#     4  11  24  43  64  98 130 177 215 269 321 385
#     4  11  25  43  66  91 140 180 205 263 338 390
#     4  10  22  38  67 100 127 164 217 273 323 371
#     4  11  22  42  65 100 130 171 215 272 325 380
#     4  12  21  42  71  99 125 167 229 271 317 381
#
# _framework density 23.215347999999999
#
# number of rings (size 3 to 8) (size 9 to 14) (size 15 to 20)
#    0.000    1.250    3.750    2.250    3.500    2.000 
#    0.000   10.625    0.000    0.000    0.000    0.000 
#    0.000    0.000    0.000    0.000    0.000    0.000 
#
# Total GULP energy -198284.663812 kJ/mol
# GULP energy per Si atom -12392.791488 kJ/mol
# Density = 2.316251 g / cm^3
# Si number density = 23.215348 Si / 1000 Ang^3
#
#
#
# Elastic Constant Matrix: (Units=GPa)
#
#
# Indices 1 2 3 4 5 6 
#
# 1 103.5724 41.6505 41.1684 -7.2612 -3.3931 27.6910
# 2 41.6505 44.0759 21.2588 -1.0576 -3.6813 6.1586
# 3 41.1684 21.2588 141.3106 18.3597 9.3267 15.2817
# 4 -7.2612 -1.0576 18.3597 29.1950 10.8174 3.1225
# 5 -3.3931 -3.6813 9.3267 10.8174 32.9830 0.2695
# 6 27.6910 6.1586 15.2817 3.1225 0.2695 44.6977
#
#
#
# Elastic Compliance Matrix: (Units=1/GPa)
#
#
# Indices 1 2 3 4 5 6 
#
# 1 0.020988 -0.016638 -0.003524 0.008424 -0.001382 -0.010086
# 2 -0.016638 0.038501 -0.001310 -0.004108 0.004256 0.005712
# 3 -0.003524 -0.001310 0.009225 -0.006300 -0.001048 -0.000344
# 4 0.008424 -0.004108 -0.006300 0.045455 -0.012672 -0.005598
# 5 -0.001382 0.004256 -0.001048 -0.012672 0.035094 0.001302
# 6 -0.010086 0.005712 -0.000344 -0.005598 0.001302 0.028334
#
#
# Mechanical properties :
#
#
# Convention : Reuss Voigt Hill
#
# Bulk Modulus (GPa) = 38.80342 55.23491 47.01917
# Shear Modulus (GPa) = 21.82151 33.70055 27.76103
#
# Velocity S-wave (km/s) = 3.06920 3.81419 3.46179
# Velocity P-wave (km/s) = 5.41395 6.57582 6.02297
#
# Compressibility (1/GPa) = 0.02577092
#
# Stress axis : x y z
#
# Youngs Moduli (GPa) = 47.64543 25.97341 108.39700
#
# Poissons Ratio (x) = 0.43214 0.38202
# Poissons Ratio (y) = 0.79271 0.14199
# Poissons Ratio (z) = 0.16792 0.03402
#
# Static dielectric constant tensor:
#      x y z
#    x 4.040780 0.064820 0.005700 
#    y 0.064820 3.907180 -0.079480 
#    z 0.005700 -0.079480 4.584460 
# 
# 
# High freq. dielectric constant tensor:
#      x y z
#    x 1.910510 0.004030 -0.010540 
#    y 0.004030 1.881910 -0.006920 
#    z -0.010540 -0.006920 1.939170 
# 
# From -- ./inp_files/256269.got.cif
#   From: 2010.06.25/outbox.cif.g09.slc.cpg/sg2_129_cif.got.tgz:256269.got - 2010.06.27 13:26:56.
