data_PCOD8017233
_publ_section_title
;
Structure prediction by ZEFSAII (Michael W. Deem and Ramdas Pophale) SiO2 
 PCOD8017233
Probable space group: P -1
;
_chemical_formula_sum "Si O2"
_cell_formula_units_Z 16
_cell_length_a 13.155410
_cell_length_b 8.844732
_cell_length_c 11.676137
_cell_angle_alpha 129.363414
_cell_angle_beta 128.667825
_cell_angle_gamma 81.166038
_cell_volume 750.910093
_symmetry_space_group_name_H-M "P -1"
_symmetry_group_IT_number 2
_symmetry_cell_setting 'triclinic'
loop_
_space_group_symop_operation_xyz
x,y,z
-x,-y,-z
loop_
_atom_site_type_symbol
_atom_site_label
_atom_site_fract_x
_atom_site_fract_y
_atom_site_fract_z
Si Si1 0.386608 0.612921 0.359456
Si Si2 0.333137 0.013750 0.507402
Si Si3 0.695886 0.675598 0.638844
Si Si4 0.619281 0.402728 0.899667
Si Si5 0.790033 0.847650 0.306855
Si Si6 0.785802 0.134469 0.897724
Si Si7 0.055212 0.347166 0.325182
Si Si8 0.951294 0.205848 0.429778
O O1 0.414070 0.860179 0.519970
O O2 0.532006 0.576878 0.438168
O O3 0.281903 0.465898 0.311454
O O4 0.309456 0.538115 0.147606
O O5 0.243815 0.932129 0.288922
O O6 0.452349 0.254526 0.695518
O O7 0.228263 0.008861 0.534115
O O8 0.796660 0.673948 0.603700
O O9 0.735397 0.914645 0.827689
O O10 0.700939 0.270617 0.953584
O O11 0.646904 0.628295 0.088334
O O12 0.913556 0.768004 0.384540
O O13 0.823518 0.988561 0.281137
O O14 0.952784 0.263256 0.102361
O O15 0.984638 0.200107 0.315755
O O16 0.091469 0.595352 0.488201
#
# Coordination Sequence:
#
# PCOD8017233 Si02
#       8
#     2   2   2   2   2   2   2   2
#     4  10  22  38  63  93 128 155 204 263 298 362
#     4  11  21  42  65  91 126 161 206 258 304 366
#     4  11  21  38  63  91 127 161 203 249 315 358
#     4  11  21  41  63  90 126 165 205 253 307 365
#     4  11  23  41  65  91 121 169 207 250 310 361
#     4  11  21  40  64  92 122 164 207 252 308 363
#     4  11  23  42  65  91 124 170 200 253 315 368
#     4  10  24  43  61  88 134 156 209 259 299 370
#
# _framework density 21.307476999999999
#
# number of rings (size 3 to 8) (size 9 to 14) (size 15 to 20)
#    0.000    1.250    3.750    3.000    1.750    0.000 
#    2.250    1.875    0.000    3.000    0.000    0.000 
#    0.000    0.000    0.000    0.000    0.000    0.000 
#
# Total GULP energy -198343.795136 kJ/mol
# GULP energy per Si atom -12396.487196 kJ/mol
# Density = 2.125898 g / cm^3
# Si number density = 21.307477 Si / 1000 Ang^3
#
#
#
# Elastic Constant Matrix: (Units=GPa)
#
#
# Indices 1 2 3 4 5 6 
#
# 1 93.2624 39.0501 31.2995 1.6845 -3.6844 7.2646
# 2 39.0501 121.6452 37.2385 15.0787 -3.6111 13.4739
# 3 31.2995 37.2385 92.2353 10.7700 -5.1245 6.8911
# 4 1.6845 15.0787 10.7700 20.3146 -1.5090 4.1298
# 5 -3.6844 -3.6111 -5.1245 -1.5090 22.8899 0.9765
# 6 7.2646 13.4739 6.8911 4.1298 0.9765 30.9925
#
#
#
# Elastic Compliance Matrix: (Units=1/GPa)
#
#
# Indices 1 2 3 4 5 6 
#
# 1 0.013430 -0.003543 -0.003390 0.003679 0.001145 -0.001380
# 2 -0.003543 0.011152 -0.002360 -0.006160 0.000369 -0.002684
# 3 -0.003390 -0.002360 0.013672 -0.004953 0.001843 -0.000617
# 4 0.003679 -0.006160 -0.004953 0.057278 0.002492 -0.004794
# 5 0.001145 0.000369 0.001843 0.002492 0.044617 -0.002576
# 6 -0.001380 -0.002684 -0.000617 -0.004794 -0.002576 0.034614
#
#
# Mechanical properties :
#
#
# Convention : Reuss Voigt Hill
#
# Bulk Modulus (GPa) = 50.84195 58.03545 54.43870
# Shear Modulus (GPa) = 25.01206 28.14305 26.57755
#
# Velocity S-wave (km/s) = 3.42989 3.63823 3.53559
# Velocity P-wave (km/s) = 6.29272 6.70412 6.50168
#
# Compressibility (1/GPa) = 0.01966880
#
# Stress axis : x y z
#
# Youngs Moduli (GPa) = 74.46166 89.66907 73.14310
#
# Poissons Ratio (x) = 0.31766 0.24794
# Poissons Ratio (y) = 0.26379 0.17262
# Poissons Ratio (z) = 0.25241 0.21162
#
# Static dielectric constant tensor:
#      x y z
#    x 3.678740 0.042460 -0.061740 
#    y 0.042460 4.211820 0.135790 
#    z -0.061740 0.135790 3.572170 
# 
# 
# High freq. dielectric constant tensor:
#      x y z
#    x 1.823820 -0.005510 -0.002740 
#    y -0.005510 1.851460 0.010050 
#    z -0.002740 0.010050 1.816300 
# 
# From -- ./inp_files/199509.got.cif
#   From: 2010.06.25/outbox.cif.g09.slc.cpg/sg2_100_cif.got.tgz:199509.got - 2010.06.27 13:26:56.
