data_PCOD8017897
_publ_section_title
;
Structure prediction by ZEFSAII (Michael W. Deem and Ramdas Pophale) SiO2 
 PCOD8017897
Probable space group: P -1
;
_chemical_formula_sum "Si O2"
_cell_formula_units_Z 16
_cell_length_a 11.866602
_cell_length_b 12.692198
_cell_length_c 12.411115
_cell_angle_alpha 35.154887
_cell_angle_beta 93.014610
_cell_angle_gamma 118.375017
_cell_volume 708.804328
_symmetry_space_group_name_H-M "P -1"
_symmetry_group_IT_number 2
_symmetry_cell_setting 'triclinic'
loop_
_space_group_symop_operation_xyz
x,y,z
-x,-y,-z
loop_
_atom_site_type_symbol
_atom_site_label
_atom_site_fract_x
_atom_site_fract_y
_atom_site_fract_z
Si Si1 0.692747 0.687968 0.068550
Si Si2 0.432604 0.245626 0.272409
Si Si3 0.813375 0.536149 0.338336
Si Si4 0.084381 0.856614 0.899780
Si Si5 0.056428 0.865481 0.646900
Si Si6 0.795866 0.375780 0.890990
Si Si7 0.560628 0.910755 0.816800
Si Si8 0.073296 0.235850 0.617317
O O1 0.584644 0.400579 0.237381
O O2 0.722245 0.622621 0.239363
O O3 0.591246 0.756154 0.010644
O O4 0.877898 0.962955 0.795394
O O5 0.410803 0.061395 0.334989
O O6 0.257878 0.077811 0.464913
O O7 0.500000 0.500000 0.000000
O O8 0.927141 0.693825 0.319222
O O9 0.680744 0.211036 0.623239
O O10 0.930291 0.628434 0.165351
O O11 0.009031 0.767913 0.849416
O O12 0.170662 0.159095 0.676315
O O13 0.226480 0.871136 0.911258
O O14 0.957299 0.602484 0.787060
O O15 0.000000 0.000000 0.500000
O O16 0.832609 0.500365 0.670762
O O17 0.634010 0.273946 0.019627
#
# Coordination Sequence:
#
# PCOD8017897 Si02
#       8
#     2   2   2   2   2   2   2   2
#     4  10  22  43  70  98 132 174 227 279 337 400
#     4  10  22  39  68 103 137 177 215 273 351 405
#     4  11  26  46  71 100 130 186 235 278 334 403
#     4  11  25  43  71 101 133 176 230 279 338 403
#     4  12  23  42  71 104 141 175 219 282 345 410
#     4  12  26  43  68 105 140 180 224 279 340 407
#     4  11  26  42  68 103 141 181 219 282 342 400
#     4  11  25  47  74  95 134 185 234 280 335 396
#
# _framework density 22.573228
#
# number of rings (size 3 to 8) (size 9 to 14) (size 15 to 20)
#    0.000    1.000    1.250    6.375    8.750    4.000 
#    0.000    1.250    0.000    0.000    0.000    0.000 
#    0.000    0.000    0.000    0.000    0.000    0.000 
#
# Total GULP energy -198344.889223 kJ/mol
# GULP energy per Si atom -12396.555576 kJ/mol
# Density = 2.252185 g / cm^3
# Si number density = 22.573228 Si / 1000 Ang^3
#
#
#
# Elastic Constant Matrix: (Units=GPa)
#
#
# Indices 1 2 3 4 5 6 
#
# 1 147.4063 43.1441 47.4054 2.2760 7.6949 -9.2686
# 2 43.1441 117.1090 48.5980 12.6678 -9.3979 4.3476
# 3 47.4054 48.5980 77.9837 11.4811 -4.2729 -2.8741
# 4 2.2760 12.6678 11.4811 38.7672 -1.8472 1.0248
# 5 7.6949 -9.3979 -4.2729 -1.8472 40.6982 -7.9448
# 6 -9.2686 4.3476 -2.8741 1.0248 -7.9448 21.4799
#
#
#
# Elastic Compliance Matrix: (Units=1/GPa)
#
#
# Indices 1 2 3 4 5 6 
#
# 1 0.009050 -0.001855 -0.004532 0.001246 -0.001997 0.002876
# 2 -0.001855 0.012305 -0.006291 -0.001874 0.001786 -0.003383
# 3 -0.004532 -0.006291 0.020251 -0.003661 0.001934 0.002917
# 4 0.001246 -0.001874 -0.003661 0.027443 0.000022 -0.000874
# 5 -0.001997 0.001786 0.001934 0.000022 0.027352 0.009151
# 6 0.002876 -0.003383 0.002917 -0.000874 0.009151 0.052298
#
#
# Mechanical properties :
#
#
# Convention : Reuss Voigt Hill
#
# Bulk Modulus (GPa) = 61.54256 68.97710 65.25983
# Shear Modulus (GPa) = 27.85936 33.74583 30.80260
#
# Velocity S-wave (km/s) = 3.51690 3.87065 3.69801
# Velocity P-wave (km/s) = 6.61922 7.11332 6.87071
#
# Compressibility (1/GPa) = 0.01624892
#
# Stress axis : x y z
#
# Youngs Moduli (GPa) = 110.49156 81.26783 49.37926
#
# Poissons Ratio (x) = 0.15077 0.22381
# Poissons Ratio (y) = 0.20499 0.31066
# Poissons Ratio (z) = 0.50079 0.51128
#
# Static dielectric constant tensor:
#      x y z
#    x 4.312260 0.257230 0.233290 
#    y 0.257230 5.236010 0.012630 
#    z 0.233290 0.012630 3.952910 
# 
# 
# High freq. dielectric constant tensor:
#      x y z
#    x 1.892800 -0.000520 0.012740 
#    y -0.000520 1.885520 0.000230 
#    z 0.012740 0.000230 1.886590 
# 
# From -- ./inp_files/427409.got.cif
#   From: 2010.06.25/outbox.cif.g09.slc.cpg/sg2_214_cif.got.tgz:427409.got - 2010.06.27 13:26:56.
