data_PCOD8017387
_publ_section_title
;
Structure prediction by ZEFSAII (Michael W. Deem and Ramdas Pophale) SiO2 
 PCOD8017387
Probable space group: P -1
;
_chemical_formula_sum "Si O2"
_cell_formula_units_Z 16
_cell_length_a 17.665188
_cell_length_b 8.915308
_cell_length_c 11.173581
_cell_angle_alpha 123.961889
_cell_angle_beta 149.155721
_cell_angle_gamma 67.317040
_cell_volume 729.805052
_symmetry_space_group_name_H-M "P -1"
_symmetry_group_IT_number 2
_symmetry_cell_setting 'triclinic'
loop_
_space_group_symop_operation_xyz
x,y,z
-x,-y,-z
loop_
_atom_site_type_symbol
_atom_site_label
_atom_site_fract_x
_atom_site_fract_y
_atom_site_fract_z
Si Si1 0.496710 0.840517 0.324408
Si Si2 0.258082 0.380870 0.490746
Si Si3 0.013371 0.266368 0.529857
Si Si4 0.993631 0.700157 0.040482
Si Si5 0.771145 0.488671 0.239631
Si Si6 0.579465 0.955430 0.910124
Si Si7 0.300506 0.775314 0.601618
Si Si8 0.849271 0.860567 0.112179
O O1 0.644814 0.756489 0.494043
O O2 0.500000 0.000000 0.500000
O O3 0.496239 0.925352 0.229944
O O4 0.348973 0.672038 0.062903
O O5 0.300867 0.420107 0.705919
O O6 0.288093 0.568860 0.538432
O O7 0.075104 0.291775 0.183854
O O8 0.164783 0.348405 0.695466
O O9 0.053125 0.231613 0.704264
O O10 0.906743 0.411741 0.448123
O O11 0.922728 0.071732 0.269136
O O12 0.162932 0.818215 0.350861
O O13 0.855998 0.751932 0.951548
O O14 0.000000 0.500000 0.000000
O O15 0.451413 0.815935 0.745885
O O16 0.679026 0.838379 0.918938
O O17 0.690660 0.089626 0.212141
#
# Coordination Sequence:
#
# PCOD8017387 Si02
#       8
#     2   2   2   2   2   2   2   2
#     4  12  26  45  63  94 141 174 212 275 332 390
#     4  11  23  43  70  92 132 178 217 269 328 398
#     4  10  22  38  71  97 126 172 218 274 322 393
#     4  10  22  42  65  96 134 169 219 278 327 377
#     4  11  23  44  66  97 132 172 223 264 334 393
#     4  11  23  41  68  99 133 170 220 271 332 387
#     4  10  22  42  69 100 128 170 222 276 323 391
#     4  11  20  40  67  98 131 169 222 272 324 385
#
# _framework density 21.923665
#
# number of rings (size 3 to 8) (size 9 to 14) (size 15 to 20)
#    0.000    1.250    2.500    4.125    1.750    2.000 
#    9.000    4.375    0.000    0.000    0.000    0.000 
#    0.000    0.000    0.000    0.000    0.000    0.000 
#
# Total GULP energy -198311.021584 kJ/mol
# GULP energy per Si atom -12394.438849 kJ/mol
# Density = 2.187377 g / cm^3
# Si number density = 21.923665 Si / 1000 Ang^3
#
#
#
# Elastic Constant Matrix: (Units=GPa)
#
#
# Indices 1 2 3 4 5 6 
#
# 1 72.5379 32.0387 41.0344 22.5962 0.9668 -9.6736
# 2 32.0387 67.7918 26.9722 1.5051 6.1493 -13.9364
# 3 41.0344 26.9722 126.1214 -5.6100 -8.6141 -8.7739
# 4 22.5962 1.5051 -5.6100 25.1494 -5.7594 0.9275
# 5 0.9668 6.1493 -8.6141 -5.7594 22.4164 0.5577
# 6 -9.6736 -13.9364 -8.7739 0.9275 0.5577 40.7877
#
#
#
# Elastic Compliance Matrix: (Units=1/GPa)
#
#
# Indices 1 2 3 4 5 6 
#
# 1 0.039302 -0.010266 -0.013130 -0.041120 -0.014592 0.004124
# 2 -0.010266 0.021078 -0.000835 0.006681 -0.004055 0.004491
# 3 -0.013130 -0.000835 0.013809 0.017390 0.010594 -0.000969
# 4 -0.041120 0.006681 0.017390 0.087088 0.029151 -0.006108
# 5 -0.014592 -0.004055 0.010594 0.029151 0.058013 -0.004024
# 6 0.004124 0.004491 -0.000969 -0.006108 -0.004024 0.027015
#
#
# Mechanical properties :
#
#
# Convention : Reuss Voigt Hill
#
# Bulk Modulus (GPa) = 38.87083 51.83799 45.35441
# Shear Modulus (GPa) = 16.48304 28.76441 22.62372
#
# Velocity S-wave (km/s) = 2.74494 3.62612 3.21585
# Velocity P-wave (km/s) = 5.27398 6.42088 5.87548
#
# Compressibility (1/GPa) = 0.02572623
#
# Stress axis : x y z
#
# Youngs Moduli (GPa) = 25.44427 47.44376 72.41552
#
# Poissons Ratio (x) = 0.48704 0.95085
# Poissons Ratio (y) = 0.26120 0.06047
# Poissons Ratio (z) = 0.33410 0.03962
#
# Static dielectric constant tensor:
#      x y z
#    x 3.851000 0.025380 -0.039460 
#    y 0.025380 3.749920 -0.095970 
#    z -0.039460 -0.095970 4.533100 
# 
# 
# High freq. dielectric constant tensor:
#      x y z
#    x 1.852630 -0.010130 -0.004330 
#    y -0.010130 1.867050 -0.009590 
#    z -0.004330 -0.009590 1.867790 
# 
# From -- ./inp_files/462522.got.cif
#   From: 2010.06.25/outbox.cif.g09.slc.cpg/sg2_232_cif.got.tgz:462522.got - 2010.06.27 13:26:56.
