data_PCOD8017576
_publ_section_title
;
Structure prediction by ZEFSAII (Michael W. Deem and Ramdas Pophale) SiO2 
 PCOD8017576
Probable space group: P -1
;
_chemical_formula_sum "Si O2"
_cell_formula_units_Z 16
_cell_length_a 11.758223
_cell_length_b 22.605909
_cell_length_c 18.964535
_cell_angle_alpha 17.926950
_cell_angle_beta 149.237404
_cell_angle_gamma 140.470220
_cell_volume 758.550974
_symmetry_space_group_name_H-M "P -1"
_symmetry_group_IT_number 2
_symmetry_cell_setting 'triclinic'
loop_
_space_group_symop_operation_xyz
x,y,z
-x,-y,-z
loop_
_atom_site_type_symbol
_atom_site_label
_atom_site_fract_x
_atom_site_fract_y
_atom_site_fract_z
Si Si1 0.607809 0.505200 0.476439
Si Si2 0.419181 0.888723 0.791310
Si Si3 0.708964 0.704004 0.677122
Si Si4 0.844195 0.205742 0.824466
Si Si5 0.629883 0.875390 0.777628
Si Si6 0.714067 0.409828 0.379596
Si Si7 0.229875 0.568691 0.098369
Si Si8 0.172263 0.195157 0.794638
O O1 0.500000 0.500000 0.500000
O O2 0.728688 0.297614 0.733710
O O3 0.784776 0.640228 0.423637
O O4 0.370656 0.617498 0.182857
O O5 0.459264 0.971164 0.642569
O O6 0.255906 0.741091 0.861521
O O7 0.289624 0.068757 0.570356
O O8 0.674577 0.786642 0.076111
O O9 0.523958 0.649571 0.692027
O O10 0.973437 0.570150 0.984017
O O11 0.650878 0.649126 0.627993
O O12 0.796431 0.378847 0.541498
O O13 0.115320 0.099236 0.105889
O O14 0.747689 0.027021 0.945177
O O15 0.500000 0.000000 0.500000
O O16 0.668323 0.634868 0.071584
O O17 0.905090 0.256161 0.607222
#
# Coordination Sequence:
#
# PCOD8017576 Si02
#       8
#     2   2   2   2   2   2   2   2
#     4  11  24  42  63  94 140 180 219 264 329 396
#     4  11  20  40  66  95 127 167 218 276 323 385
#     4  11  21  37  66  97 124 161 223 275 323 373
#     4  12  22  44  72 101 129 171 232 278 316 400
#     4  12  26  41  63 102 140 171 207 276 354 395
#     4  12  20  43  73  98 126 169 226 281 321 386
#     4  10  22  39  62  93 128 173 220 271 314 383
#     4  11  22  40  76 103 116 171 239 275 323 379
#
# _framework density 21.092846000000002
#
# number of rings (size 3 to 8) (size 9 to 14) (size 15 to 20)
#    0.000    0.750    6.250    2.625    0.000    1.500 
#    2.250    1.250    0.000    0.000    0.000    0.000 
#    0.000    0.000    0.000    0.000    0.000    0.000 
#
# Total GULP energy -198223.134364 kJ/mol
# GULP energy per Si atom -12388.945898 kJ/mol
# Density = 2.104484 g / cm^3
# Si number density = 21.092846 Si / 1000 Ang^3
#
#
#
# Elastic Constant Matrix: (Units=GPa)
#
#
# Indices 1 2 3 4 5 6 
#
# 1 156.4607 52.2126 50.6424 -2.7555 14.2206 0.8852
# 2 52.2126 98.1025 36.3132 -14.3852 1.5582 4.2499
# 3 50.6424 36.3132 91.8582 -13.2697 3.0898 -7.9374
# 4 -2.7555 -14.3852 -13.2697 40.1920 -7.9173 12.8902
# 5 14.2206 1.5582 3.0898 -7.9173 30.3181 3.1312
# 6 0.8852 4.2499 -7.9374 12.8902 3.1312 29.9830
#
#
#
# Elastic Compliance Matrix: (Units=1/GPa)
#
#
# Indices 1 2 3 4 5 6 
#
# 1 0.009331 -0.004051 -0.003764 -0.003406 -0.004806 0.001269
# 2 -0.004051 0.014742 -0.003293 0.006619 0.003836 -0.006088
# 3 -0.003764 -0.003293 0.014896 0.002553 0.000738 0.003347
# 4 -0.003406 0.006619 0.002553 0.035588 0.012017 -0.016717
# 5 -0.004806 0.003836 0.000738 0.012017 0.039080 -0.009454
# 6 0.001269 -0.006088 0.003347 -0.016717 -0.009454 0.043238
#
#
# Mechanical properties :
#
#
# Convention : Reuss Voigt Hill
#
# Bulk Modulus (GPa) = 59.68915 69.41755 64.55335
# Shear Modulus (GPa) = 27.07452 33.91550 30.49501
#
# Velocity S-wave (km/s) = 3.58661 4.01423 3.80643
# Velocity P-wave (km/s) = 6.74621 7.38020 7.07031
#
# Compressibility (1/GPa) = 0.01675346
#
# Stress axis : x y z
#
# Youngs Moduli (GPa) = 107.16816 67.83311 67.13056
#
# Poissons Ratio (x) = 0.27481 0.25265
# Poissons Ratio (y) = 0.43417 0.22107
# Poissons Ratio (z) = 0.40334 0.22338
#
# Static dielectric constant tensor:
#      x y z
#    x 3.851710 0.242880 0.184380 
#    y 0.242880 3.942090 -0.107460 
#    z 0.184380 -0.107460 3.748830 
# 
# 
# High freq. dielectric constant tensor:
#      x y z
#    x 1.817220 0.016270 0.036370 
#    y 0.016270 1.836110 -0.014650 
#    z 0.036370 -0.014650 1.806680 
# 
# From -- ./inp_files/570710.got.cif
#   From: 2010.06.25/outbox.cif.g09.slc.cpg/sg2_286_cif.got.tgz:570710.got - 2010.06.27 13:26:56.
