data_PCOD8017602
_publ_section_title
;
Structure prediction by ZEFSAII (Michael W. Deem and Ramdas Pophale) SiO2 
 PCOD8017602
Probable space group: P -1
;
_chemical_formula_sum "Si O2"
_cell_formula_units_Z 16
_cell_length_a 14.173904
_cell_length_b 11.694727
_cell_length_c 14.449362
_cell_angle_alpha 117.085408
_cell_angle_beta 32.829497
_cell_angle_gamma 140.040838
_cell_volume 700.757650
_symmetry_space_group_name_H-M "P -1"
_symmetry_group_IT_number 2
_symmetry_cell_setting 'triclinic'
loop_
_space_group_symop_operation_xyz
x,y,z
-x,-y,-z
loop_
_atom_site_type_symbol
_atom_site_label
_atom_site_fract_x
_atom_site_fract_y
_atom_site_fract_z
Si Si1 0.927378 0.277033 0.426643
Si Si2 0.460828 0.632627 0.376511
Si Si3 0.212390 0.748768 0.662162
Si Si4 0.534892 0.267433 0.781855
Si Si5 0.301849 0.253586 0.336662
Si Si6 0.218387 0.279384 0.693789
Si Si7 0.843309 0.862192 0.782687
Si Si8 0.098454 0.441486 0.960330
O O1 0.996183 0.339045 0.283845
O O2 0.620054 0.164209 0.667362
O O3 0.167117 0.481867 0.367429
O O4 0.945422 0.135303 0.376272
O O5 0.246710 0.615487 0.583145
O O6 0.605196 0.765053 0.210403
O O7 0.285723 0.395066 0.427496
O O8 0.716408 0.774317 0.292399
O O9 0.500000 0.000000 0.500000
O O10 0.076749 0.696520 0.854069
O O11 0.333084 0.194214 0.003618
O O12 0.370307 0.283503 0.180888
O O13 0.563886 0.344027 0.211627
O O14 0.000000 0.000000 0.500000
O O15 0.500000 0.500000 0.500000
O O16 0.027773 0.281772 0.892164
O O17 0.061452 0.109588 0.678147
O O18 0.000000 0.500000 0.000000
#
# Coordination Sequence:
#
# PCOD8017602 Si02
#       8
#     2   2   2   2   2   2   2   2
#     4  10  22  39  63 100 144 170 220 291 357 413
#     4  10  22  43  66  95 144 179 230 291 353 420
#     4  11  24  41  69 106 143 186 234 297 364 429
#     4  10  22  39  63 102 133 177 223 285 355 428
#     4  11  25  47  72 100 137 193 243 288 358 433
#     4  11  25  44  66  95 137 186 239 286 348 427
#     4  12  23  41  72  98 137 181 233 285 363 422
#     4  11  26  48  72 100 143 190 243 298 362 431
#
# _framework density 22.832431
#
# number of rings (size 3 to 8) (size 9 to 14) (size 15 to 20)
#    0.000    1.250    1.250    4.125    7.000    1.500 
#    0.000    1.250    0.000    0.000    0.000    0.000 
#    0.000    0.000    0.000    0.000    0.000    0.000 
#
# Total GULP energy -198219.605041 kJ/mol
# GULP energy per Si atom -12388.725315 kJ/mol
# Density = 2.278046 g / cm^3
# Si number density = 22.832431 Si / 1000 Ang^3
#
#
#
# Elastic Constant Matrix: (Units=GPa)
#
#
# Indices 1 2 3 4 5 6 
#
# 1 120.2585 32.0061 21.8310 18.1690 -19.9830 -4.2491
# 2 32.0061 130.0231 43.6975 22.4343 -15.1075 0.0953
# 3 21.8310 43.6975 101.5155 13.6797 3.8436 -15.1344
# 4 18.1690 22.4343 13.6797 40.8805 1.0122 -1.3088
# 5 -19.9830 -15.1075 3.8436 1.0122 32.5371 5.0653
# 6 -4.2491 0.0953 -15.1344 -1.3088 5.0653 33.9655
#
#
#
# Elastic Compliance Matrix: (Units=1/GPa)
#
#
# Indices 1 2 3 4 5 6 
#
# 1 0.010459 -0.000501 -0.001852 -0.003939 0.006634 -0.000656
# 2 -0.000501 0.010832 -0.004665 -0.004410 0.005912 -0.003223
# 3 -0.001852 -0.004665 0.013587 -0.000803 -0.005925 0.006688
# 4 -0.003939 -0.004410 -0.000803 0.029071 -0.005447 0.001094
# 5 0.006634 0.005912 -0.005925 -0.005447 0.039661 -0.007951
# 6 -0.000656 -0.003223 0.006688 0.001094 -0.007951 0.033577
#
#
# Mechanical properties :
#
#
# Convention : Reuss Voigt Hill
#
# Bulk Modulus (GPa) = 47.98007 60.76293 54.37150
# Shear Modulus (GPa) = 31.61151 38.42745 35.01948
#
# Velocity S-wave (km/s) = 3.72492 4.10691 3.92057
# Velocity P-wave (km/s) = 6.28965 7.01137 6.66029
#
# Compressibility (1/GPa) = 0.02084199
#
# Stress axis : x y z
#
# Youngs Moduli (GPa) = 95.60811 92.31582 73.60215
#
# Poissons Ratio (x) = 0.04628 0.13629
# Poissons Ratio (y) = 0.04793 0.34336
# Poissons Ratio (z) = 0.17704 0.43066
#
# Static dielectric constant tensor:
#      x y z
#    x 4.757310 0.506220 0.043010 
#    y 0.506220 4.669610 0.352400 
#    z 0.043010 0.352400 4.027660 
# 
# 
# High freq. dielectric constant tensor:
#      x y z
#    x 1.916310 0.012630 0.008070 
#    y 0.012630 1.914230 0.022950 
#    z 0.008070 0.022950 1.886570 
# 
# From -- ./inp_files/532579.got.cif
#   From: 2010.06.25/outbox.cif.g09.slc.cpg/sg2_267_cif.got.tgz:532579.got - 2010.06.27 13:26:56.
