data_PCOD8017692
_publ_section_title
;
Structure prediction by ZEFSAII (Michael W. Deem and Ramdas Pophale) SiO2 
 PCOD8017692
Probable space group: P -1
;
_chemical_formula_sum "Si O2"
_cell_formula_units_Z 16
_cell_length_a 10.862248
_cell_length_b 7.210150
_cell_length_c 11.667899
_cell_angle_alpha 72.137971
_cell_angle_beta 101.874308
_cell_angle_gamma 127.499678
_cell_volume 689.813645
_symmetry_space_group_name_H-M "P -1"
_symmetry_group_IT_number 2
_symmetry_cell_setting 'triclinic'
loop_
_space_group_symop_operation_xyz
x,y,z
-x,-y,-z
loop_
_atom_site_type_symbol
_atom_site_label
_atom_site_fract_x
_atom_site_fract_y
_atom_site_fract_z
Si Si1 0.541707 0.879322 0.195632
Si Si2 0.948893 0.174957 0.963482
Si Si3 0.840183 0.540935 0.364967
Si Si4 0.370442 0.229799 0.982186
Si Si5 0.660086 0.693881 0.435503
Si Si6 0.704048 0.080238 0.775158
Si Si7 0.264843 0.560347 0.893923
Si Si8 0.177629 0.887095 0.445939
O O1 0.374892 0.780729 0.239469
O O2 0.637031 0.158325 0.126864
O O3 0.508550 0.731343 0.099381
O O4 0.641974 0.841516 0.307639
O O5 0.110979 0.435913 0.973349
O O6 0.882622 0.220435 0.826048
O O7 0.797519 0.016575 0.047866
O O8 0.000000 0.000000 0.000000
O O9 0.722772 0.552945 0.420005
O O10 0.800022 0.538935 0.226091
O O11 0.822956 0.297934 0.435302
O O12 0.010942 0.774921 0.380132
O O13 0.370778 0.464220 0.959961
O O14 0.402666 0.170671 0.126872
O O15 0.500000 0.500000 0.500000
O O16 0.777210 0.880458 0.518876
O O17 0.697356 0.034655 0.646880
#
# Coordination Sequence:
#
# PCOD8017692 Si02
#       8
#     2   2   2   2   2   2   2   2
#     4  12  24  38  66  96 127 169 216 257 321 387
#     4   8  18  39  63  90 124 168 203 257 316 369
#     4  11  22  43  68  94 127 167 220 270 320 380
#     4   9  21  42  64  89 134 163 207 263 314 377
#     4  12  27  43  64  95 133 173 214 265 325 385
#     4  10  22  39  64  91 130 167 207 262 317 380
#     4  11  20  40  69  94 124 171 211 260 321 379
#     4  11  24  43  68  95 126 169 219 270 319 379
#
# _framework density 23.194672000000001
#
# number of rings (size 3 to 8) (size 9 to 14) (size 15 to 20)
#    0.750    0.750    3.750    1.500    1.750    2.000 
#    0.000    2.500    0.000    0.000    0.000    0.000 
#    0.000    0.000    0.000    0.000    0.000    0.000 
#
# Total GULP energy -198209.657648 kJ/mol
# GULP energy per Si atom -12388.103603 kJ/mol
# Density = 2.314188 g / cm^3
# Si number density = 23.194672 Si / 1000 Ang^3
#
#
#
# Elastic Constant Matrix: (Units=GPa)
#
#
# Indices 1 2 3 4 5 6 
#
# 1 93.8337 16.1448 3.4963 6.4608 -8.9494 1.0690
# 2 16.1448 97.3240 5.9981 -0.5816 -5.5419 0.1544
# 3 3.4963 5.9981 73.1222 1.9312 -6.2978 -2.4757
# 4 6.4608 -0.5816 1.9312 25.6872 2.9764 -4.1844
# 5 -8.9494 -5.5419 -6.2978 2.9764 39.7769 -2.9202
# 6 1.0690 0.1544 -2.4757 -4.1844 -2.9202 20.5079
#
#
#
# Elastic Compliance Matrix: (Units=1/GPa)
#
#
# Indices 1 2 3 4 5 6 
#
# 1 0.011445 -0.001767 -0.000131 -0.003348 0.002490 -0.000928
# 2 -0.001767 0.010670 -0.000721 0.000663 0.000939 0.000194
# 3 -0.000131 -0.000721 0.014028 -0.001007 0.002301 0.001828
# 4 -0.003348 0.000663 -0.001007 0.041561 -0.003339 0.008053
# 5 0.002490 0.000939 0.002301 -0.003339 0.026685 0.003259
# 6 -0.000928 0.000194 0.001828 0.008053 0.003259 0.051137
#
#
# Mechanical properties :
#
#
# Convention : Reuss Voigt Hill
#
# Bulk Modulus (GPa) = 32.35747 35.06204 33.70975
# Shear Modulus (GPa) = 29.22882 33.10377 31.16629
#
# Velocity S-wave (km/s) = 3.55371 3.78195 3.66961
# Velocity P-wave (km/s) = 5.55150 5.84979 5.70260
#
# Compressibility (1/GPa) = 0.03090477
#
# Stress axis : x y z
#
# Youngs Moduli (GPa) = 87.37644 93.72352 71.28727
#
# Poissons Ratio (x) = 0.16563 0.00932
# Poissons Ratio (y) = 0.15441 0.05138
# Poissons Ratio (z) = 0.01142 0.06755
#
# Static dielectric constant tensor:
#      x y z
#    x 4.800040 0.435230 0.066840 
#    y 0.435230 4.183810 -0.111080 
#    z 0.066840 -0.111080 4.205130 
# 
# 
# High freq. dielectric constant tensor:
#      x y z
#    x 1.939590 0.014640 0.006580 
#    y 0.014640 1.909100 -0.011530 
#    z 0.006580 -0.011530 1.912430 
# 
# From -- ./inp_files/414512.got.cif
#   From: 2010.06.25/outbox.cif.g09.slc.cpg/sg2_208_cif.got.tgz:414512.got - 2010.06.27 13:26:56.
