data_PCOD8017899
_publ_section_title
;
Structure prediction by ZEFSAII (Michael W. Deem and Ramdas Pophale) SiO2 
 PCOD8017899
Probable space group: P -1
;
_chemical_formula_sum "Si O2"
_cell_formula_units_Z 12
_cell_length_a 6.896668
_cell_length_b 14.245197
_cell_length_c 11.490403
_cell_angle_alpha 29.186098
_cell_angle_beta 105.582223
_cell_angle_gamma 99.096379
_cell_volume 523.192340
_symmetry_space_group_name_H-M "P -1"
_symmetry_group_IT_number 2
_symmetry_cell_setting 'triclinic'
loop_
_space_group_symop_operation_xyz
x,y,z
-x,-y,-z
loop_
_atom_site_type_symbol
_atom_site_label
_atom_site_fract_x
_atom_site_fract_y
_atom_site_fract_z
Si Si1 0.073425 0.890178 0.513503
Si Si2 0.223136 0.558538 0.289075
Si Si3 0.510503 0.768069 0.751471
Si Si4 0.206830 0.215704 0.022941
Si Si5 0.192656 0.402040 0.209943
Si Si6 0.553946 0.805599 0.145492
O O1 0.275571 0.730241 0.755202
O O2 0.889546 0.788882 0.543952
O O3 0.129557 0.032948 0.268827
O O4 0.000000 0.000000 0.500000
O O5 0.250404 0.534918 0.179967
O O6 0.346547 0.727310 0.165221
O O7 0.298977 0.355737 0.583732
O O8 0.985831 0.621126 0.215416
O O9 0.644138 0.685573 0.974100
O O10 0.607134 0.665293 0.761748
O O11 0.500000 0.000000 0.500000
O O12 0.328869 0.141431 0.007596
O O13 0.000000 0.500000 0.000000
O O14 0.500000 0.000000 0.000000
#
# Coordination Sequence:
#
# PCOD8017899 Si02
#       6
#     2   2   2   2   2   2
#     4  11  23  40  70 107 148 190 234 286 366 441
#     4  11  27  50  73 107 147 186 250 302 362 434
#     4  10  22  39  68 105 142 188 235 282 370 436
#     4  11  24  45  75 103 145 191 244 298 359 437
#     4  12  24  44  70 112 150 187 233 308 366 436
#     4  11  29  51  77 100 142 197 253 305 353 423
#
# _framework density 22.936115000000001
#
# number of rings (size 3 to 8) (size 9 to 14) (size 15 to 20)
#    0.000    1.000    5.000    0.500   11.667    2.667 
#    3.000    0.000    0.000    0.000    0.000    0.000 
#    0.000    0.000    0.000    0.000    0.000    0.000 
#
# Total GULP energy -148823.513157 kJ/mol
# GULP energy per Si atom -12401.959430 kJ/mol
# Density = 2.288391 g / cm^3
# Si number density = 22.936115 Si / 1000 Ang^3
#
#
#
# Elastic Constant Matrix: (Units=GPa)
#
#
# Indices 1 2 3 4 5 6 
#
# 1 152.4249 66.1781 44.8895 2.2842 22.7658 -17.8262
# 2 66.1781 160.5465 46.6083 -5.5192 3.0474 -10.1805
# 3 44.8895 46.6083 93.2762 4.5642 10.4937 -1.7239
# 4 2.2842 -5.5192 4.5642 37.8357 -3.8321 1.5756
# 5 22.7658 3.0474 10.4937 -3.8321 40.4622 5.4600
# 6 -17.8262 -10.1805 -1.7239 1.5756 5.4600 48.5561
#
#
#
# Elastic Compliance Matrix: (Units=1/GPa)
#
#
# Indices 1 2 3 4 5 6 
#
# 1 0.009841 -0.003063 -0.002478 -0.001423 -0.005274 0.003522
# 2 -0.003063 0.008423 -0.003056 0.001979 0.002036 0.000240
# 3 -0.002478 -0.003056 0.013761 -0.002131 -0.002043 -0.000763
# 4 -0.001423 0.001979 -0.002131 0.027532 0.004018 -0.001528
# 5 -0.005274 0.002036 -0.002043 0.004018 0.029112 -0.004986
# 6 0.003522 0.000240 -0.000763 -0.001528 -0.004986 0.022521
#
#
# Mechanical properties :
#
#
# Convention : Reuss Voigt Hill
#
# Bulk Modulus (GPa) = 67.42585 80.17770 73.80177
# Shear Modulus (GPa) = 37.50197 41.94226 39.72211
#
# Velocity S-wave (km/s) = 4.04798 4.28092 4.16608
# Velocity P-wave (km/s) = 7.16304 7.71154 7.44235
#
# Compressibility (1/GPa) = 0.01483111
#
# Stress axis : x y z
#
# Youngs Moduli (GPa) = 101.61724 118.72180 72.67176
#
# Poissons Ratio (x) = 0.36361 0.18005
# Poissons Ratio (y) = 0.31122 0.22211
# Poissons Ratio (z) = 0.25176 0.36286
#
# Static dielectric constant tensor:
#      x y z
#    x 5.178640 0.388720 -0.031970 
#    y 0.388720 4.447460 -0.055450 
#    z -0.031970 -0.055450 4.466730 
# 
# 
# High freq. dielectric constant tensor:
#      x y z
#    x 1.926680 0.001540 0.007050 
#    y 0.001540 1.903100 -0.006170 
#    z 0.007050 -0.006170 1.911460 
# 
# From -- ./inp_files/367349.got.cif
#   From: 2010.06.25/outbox.cif.g09.slc.cpg/sg2_184_cif.got.tgz:367349.got - 2010.06.27 13:26:56.
