data_PCOD8017609
_publ_section_title
;
Structure prediction by ZEFSAII (Michael W. Deem and Ramdas Pophale) SiO2 
 PCOD8017609
Probable space group: P -1
;
_chemical_formula_sum "Si O2"
_cell_formula_units_Z 16
_cell_length_a 21.822686
_cell_length_b 9.254605
_cell_length_c 12.725651
_cell_angle_alpha 141.901234
_cell_angle_beta 140.730293
_cell_angle_gamma 34.187457
_cell_volume 832.893553
_symmetry_space_group_name_H-M "P -1"
_symmetry_group_IT_number 2
_symmetry_cell_setting 'triclinic'
loop_
_space_group_symop_operation_xyz
x,y,z
-x,-y,-z
loop_
_atom_site_type_symbol
_atom_site_label
_atom_site_fract_x
_atom_site_fract_y
_atom_site_fract_z
Si Si1 0.792056 0.384655 0.342397
Si Si2 0.560004 0.598846 0.059913
Si Si3 0.979913 0.458756 0.568961
Si Si4 0.418517 0.506278 0.206730
Si Si5 0.754212 0.939614 0.611254
Si Si6 0.784512 0.003705 0.283548
Si Si7 0.627411 0.807535 0.877289
Si Si8 0.345066 0.675672 0.494763
O O1 0.699097 0.404045 0.148048
O O2 0.819395 0.171810 0.351127
O O3 0.912384 0.296750 0.392855
O O4 0.727963 0.709476 0.483715
O O5 0.497081 0.934670 0.185508
O O6 0.500000 0.500000 0.000000
O O7 0.532892 0.558025 0.882146
O O8 0.000000 0.500000 0.500000
O O9 0.099933 0.286241 0.692254
O O10 0.895793 0.769424 0.689024
O O11 0.298255 0.816042 0.231805
O O12 0.391428 0.282258 0.084275
O O13 0.515779 0.490630 0.401901
O O14 0.698491 0.065795 0.494856
O O15 0.718321 0.203787 0.409440
O O16 0.710661 0.918509 0.068799
O O17 0.681214 0.546011 0.717037
#
# Coordination Sequence:
#
# PCOD8017609 Si02
#       8
#     2   2   2   2   2   2   2   2
#     4  10  22  39  63  89 129 163 209 258 310 379
#     4  12  22  38  60  97 130 163 206 254 320 382
#     4  10  22  40  70  86 121 169 219 259 301 378
#     4  11  22  38  64  92 131 166 205 267 318 370
#     4   9  21  39  61  91 116 166 212 254 311 365
#     4  12  22  42  62  96 124 172 205 253 326 365
#     4  11  24  37  63  97 125 164 211 259 310 382
#     4  11  21  40  64  92 132 161 212 264 313 374
#
# _framework density 19.210139000000002
#
# number of rings (size 3 to 8) (size 9 to 14) (size 15 to 20)
#    0.750    0.500    3.750    3.750    3.500    1.000 
#    0.000    6.250    0.000    2.250    0.000    0.000 
#    0.000    0.000    0.000    0.000    0.000    0.000 
#
# Total GULP energy -198271.419153 kJ/mol
# GULP energy per Si atom -12391.963697 kJ/mol
# Density = 1.916642 g / cm^3
# Si number density = 19.210139 Si / 1000 Ang^3
#
#
#
# Elastic Constant Matrix: (Units=GPa)
#
#
# Indices 1 2 3 4 5 6 
#
# 1 103.9607 38.7105 31.9423 9.8269 9.1278 9.9227
# 2 38.7105 123.1725 23.7212 2.3341 -7.7288 -0.3824
# 3 31.9423 23.7212 63.3283 3.6466 0.0565 0.7630
# 4 9.8269 2.3341 3.6466 31.5099 -0.8824 5.5892
# 5 9.1278 -7.7288 0.0565 -0.8824 19.4928 1.9089
# 6 9.9227 -0.3824 0.7630 5.5892 1.9089 40.5836
#
#
#
# Elastic Compliance Matrix: (Units=1/GPa)
#
#
# Indices 1 2 3 4 5 6 
#
# 1 0.013918 -0.003780 -0.005382 -0.003211 -0.007899 -0.002524
# 2 -0.003780 0.010020 -0.001900 0.000694 0.005712 0.000690
# 3 -0.005382 -0.001900 0.019235 -0.000528 0.001596 0.000934
# 4 -0.003211 0.000694 -0.000528 0.033559 0.003691 -0.003994
# 5 -0.007899 0.005712 0.001596 0.003691 0.057551 -0.001260
# 6 -0.002524 0.000690 0.000934 -0.003994 -0.001260 0.025856
#
#
# Mechanical properties :
#
#
# Convention : Reuss Voigt Hill
#
# Bulk Modulus (GPa) = 47.50863 53.24551 50.37707
# Shear Modulus (GPa) = 26.41607 31.38976 28.90291
#
# Velocity S-wave (km/s) = 3.71227 4.04669 3.88308
# Velocity P-wave (km/s) = 6.56958 7.04356 6.81069
#
# Compressibility (1/GPa) = 0.02104881
#
# Stress axis : x y z
#
# Youngs Moduli (GPa) = 71.84831 99.79938 51.98945
#
# Poissons Ratio (x) = 0.37728 0.27980
# Poissons Ratio (y) = 0.27161 0.09877
# Poissons Ratio (z) = 0.38668 0.18961
#
# Static dielectric constant tensor:
#      x y z
#    x 3.442300 -0.015670 0.115000 
#    y -0.015670 3.806010 -0.093360 
#    z 0.115000 -0.093360 3.254730 
# 
# 
# High freq. dielectric constant tensor:
#      x y z
#    x 1.745720 0.005410 0.005950 
#    y 0.005410 1.763450 -0.002370 
#    z 0.005950 -0.002370 1.720470 
# 
# From -- ./inp_files/470215.got.cif
#   From: 2010.06.25/outbox.cif.g09.slc.cpg/sg2_236_cif.got.tgz:470215.got - 2010.06.27 13:26:56.
