data_PCOD8017057
_publ_section_title
;
Structure prediction by ZEFSAII (Michael W. Deem and Ramdas Pophale) SiO2 
 PCOD8017057
Probable space group: P -1
;
_chemical_formula_sum "Si O2"
_cell_formula_units_Z 12
_cell_length_a 14.006627
_cell_length_b 5.289613
_cell_length_c 9.998778
_cell_angle_alpha 72.998638
_cell_angle_beta 61.811700
_cell_angle_gamma 60.775922
_cell_volume 567.996923
_symmetry_space_group_name_H-M "P -1"
_symmetry_group_IT_number 2
_symmetry_cell_setting 'triclinic'
loop_
_space_group_symop_operation_xyz
x,y,z
-x,-y,-z
loop_
_atom_site_type_symbol
_atom_site_label
_atom_site_fract_x
_atom_site_fract_y
_atom_site_fract_z
Si Si1 0.001408 0.799236 0.907657
Si Si2 0.650719 0.616696 0.605622
Si Si3 0.348001 0.959996 0.241814
Si Si4 0.251866 0.009814 0.018388
Si Si5 0.423070 0.557805 0.797992
Si Si6 0.744198 0.536177 0.271802
O O1 0.123565 0.723086 0.756270
O O2 0.881531 0.971098 0.873592
O O3 0.000000 0.500000 0.000000
O O4 0.000000 0.000000 0.000000
O O5 0.709556 0.268564 0.648658
O O6 0.506513 0.729452 0.685840
O O7 0.694294 0.680684 0.424627
O O8 0.692463 0.781362 0.664569
O O9 0.492456 0.781522 0.173089
O O10 0.299195 0.097248 0.108489
O O11 0.250528 0.221101 0.867402
O O12 0.341080 0.685430 0.963568
O O13 0.343225 0.594263 0.713540
#
# Coordination Sequence:
#
# PCOD8017057 Si02
#       6
#     2   2   2   2   2   2
#     4  10  22  40  62  94 118 156 209 259 298 350
#     4  10  25  41  59  94 131 160 200 250 314 369
#     4  10  25  41  59  94 131 160 200 250 314 369
#     4  11  23  40  67  91 123 163 210 255 302 362
#     4  10  22  37  68  89 128 156 212 246 312 358
#     4  11  23  40  67  91 123 163 210 255 302 362
#
# _framework density 21.126875999999999
#
# number of rings (size 3 to 8) (size 9 to 14) (size 15 to 20)
#    1.000    0.667    1.667    2.000    4.667    2.667 
#    0.000    1.667    0.000    0.000    0.000    0.000 
#    0.000    0.000    0.000    0.000    0.000    0.000 
#
# Total GULP energy -148737.875293 kJ/mol
# GULP energy per Si atom -12394.822941 kJ/mol
# Density = 2.107879 g / cm^3
# Si number density = 21.126876 Si / 1000 Ang^3
#
#
#
# Elastic Constant Matrix: (Units=GPa)
#
#
# Indices 1 2 3 4 5 6 
#
# 1 138.3606 45.0089 82.4931 29.8541 7.0227 -5.4402
# 2 45.0089 66.8911 11.0964 17.5288 2.7954 21.4767
# 3 82.4931 11.0964 74.5288 22.9261 15.5681 -3.0376
# 4 29.8541 17.5288 22.9261 31.7216 9.7407 4.7308
# 5 7.0227 2.7954 15.5681 9.7407 27.6117 15.4631
# 6 -5.4402 21.4767 -3.0376 4.7308 15.4631 38.8364
#
#
#
# Elastic Compliance Matrix: (Units=1/GPa)
#
#
# Indices 1 2 3 4 5 6 
#
# 1 0.041288 -0.025531 -0.044010 0.002418 0.008997 0.012583
# 2 -0.025531 0.039444 0.023975 -0.013774 0.007812 -0.024947
# 3 -0.044010 0.023975 0.067053 -0.012849 -0.022449 -0.003675
# 4 0.002418 -0.013774 -0.012849 0.049143 -0.012680 0.006013
# 5 0.008997 0.007812 -0.022449 -0.012680 0.067050 -0.029968
# 6 0.012583 -0.024947 -0.003675 0.006013 -0.029968 0.052219
#
#
# Mechanical properties :
#
#
# Convention : Reuss Voigt Hill
#
# Bulk Modulus (GPa) = 17.65114 61.88639 39.76877
# Shear Modulus (GPa) = 11.73120 29.04608 20.38864
#
# Velocity S-wave (km/s) = 2.35898 3.71191 3.10991
# Velocity P-wave (km/s) = 3.97400 6.90850 5.63560
#
# Compressibility (1/GPa) = 0.05665356
#
# Stress axis : x y z
#
# Youngs Moduli (GPa) = 24.21985 25.35239 14.91365
#
# Poissons Ratio (x) = 0.64726 0.65635
# Poissons Ratio (y) = 0.61835 -0.35755
# Poissons Ratio (z) = 1.06591 -0.60781
#
# Static dielectric constant tensor:
#      x y z
#    x 4.173270 -0.169070 -0.178260 
#    y -0.169070 3.736910 0.318850 
#    z -0.178260 0.318850 3.607490 
# 
# 
# High freq. dielectric constant tensor:
#      x y z
#    x 1.831550 0.007840 0.000110 
#    y 0.007840 1.822130 0.020030 
#    z 0.000110 0.020030 1.801430 
# 
# From -- ./inp_files/62543.got.cif
#   From: 2010.06.25/outbox.cif.g09.slc.cpg/sg2_32_cif.got.tgz:62543.got - 2010.06.27 13:26:56.
