data_PCOD8017195
_publ_section_title
;
Structure prediction by ZEFSAII (Michael W. Deem and Ramdas Pophale) SiO2 
 PCOD8017195
Probable space group: P -1
;
_chemical_formula_sum "Si O2"
_cell_formula_units_Z 16
_cell_length_a 8.838788
_cell_length_b 20.887852
_cell_length_c 11.563777
_cell_angle_alpha 42.458728
_cell_angle_beta 143.463433
_cell_angle_gamma 139.894537
_cell_volume 775.369647
_symmetry_space_group_name_H-M "P -1"
_symmetry_group_IT_number 2
_symmetry_cell_setting 'triclinic'
loop_
_space_group_symop_operation_xyz
x,y,z
-x,-y,-z
loop_
_atom_site_type_symbol
_atom_site_label
_atom_site_fract_x
_atom_site_fract_y
_atom_site_fract_z
Si Si1 0.573450 0.429911 0.308843
Si Si2 0.342309 0.845206 0.801659
Si Si3 0.930304 0.830266 0.371285
Si Si4 0.347601 0.020831 0.988155
Si Si5 0.489692 0.596057 0.430821
Si Si6 0.017017 0.662443 0.275694
Si Si7 0.027335 0.667507 0.023683
Si Si8 0.094512 0.165700 0.902616
O O1 0.478357 0.423780 0.389959
O O2 0.784105 0.548011 0.250734
O O3 0.720197 0.350098 0.486572
O O4 0.306463 0.398795 0.103790
O O5 0.183993 0.864909 0.569935
O O6 0.456235 0.947029 0.819558
O O7 0.126247 0.750149 0.871079
O O8 0.586328 0.818637 0.933892
O O9 0.727741 0.882936 0.218455
O O10 0.746387 0.706167 0.409134
O O11 0.054315 0.872749 0.262888
O O12 0.500000 0.000000 0.000000
O O13 0.068058 0.917873 0.986608
O O14 0.500000 0.500000 0.500000
O O15 0.189319 0.593199 0.216310
O O16 0.902325 0.722936 0.211671
O O17 0.099126 0.722773 0.121484
#
# Coordination Sequence:
#
# PCOD8017195 Si02
#       8
#     2   2   2   2   2   2   2   2
#     4  10  22  38  62  92 126 174 209 263 316 376
#     4  11  23  41  66  96 127 168 209 265 320 375
#     4  11  23  43  64  93 133 162 212 266 313 379
#     4  11  25  44  69  93 125 170 212 263 322 373
#     4  11  22  37  63  94 128 169 207 259 317 375
#     4  10  23  41  61  91 132 166 217 261 315 375
#     4  11  21  39  65  90 128 168 215 261 317 376
#     4  11  24  41  66  93 128 167 208 265 317 376
#
# _framework density 20.635318000000002
#
# number of rings (size 3 to 8) (size 9 to 14) (size 15 to 20)
#    0.000    1.250    3.750    3.375    1.750    5.000 
#    0.000    0.000    0.000    0.000    0.000    0.000 
#    0.000    0.000    0.000    0.000    0.000    0.000 
#
# Total GULP energy -198388.491403 kJ/mol
# GULP energy per Si atom -12399.280713 kJ/mol
# Density = 2.058835 g / cm^3
# Si number density = 20.635318 Si / 1000 Ang^3
#
#
#
# Elastic Constant Matrix: (Units=GPa)
#
#
# Indices 1 2 3 4 5 6 
#
# 1 129.6801 33.6543 37.0263 -3.9180 10.2209 -12.0939
# 2 33.6543 77.9808 37.4154 5.7198 18.0059 -5.9323
# 3 37.0263 37.4154 101.3573 24.0222 -2.0377 -9.0070
# 4 -3.9180 5.7198 24.0222 38.5335 3.0871 3.4082
# 5 10.2209 18.0059 -2.0377 3.0871 29.9399 -8.3133
# 6 -12.0939 -5.9323 -9.0070 3.4082 -8.3133 35.7874
#
#
#
# Elastic Compliance Matrix: (Units=1/GPa)
#
#
# Indices 1 2 3 4 5 6 
#
# 1 0.009672 -0.002109 -0.003553 0.003597 -0.002329 0.001141
# 2 -0.002109 0.020052 -0.007826 0.002956 -0.012910 -0.002639
# 3 -0.003553 -0.007826 0.017383 -0.011275 0.009711 0.005207
# 4 0.003597 0.002956 -0.011275 0.034212 -0.009107 -0.006506
# 5 -0.002329 -0.012910 0.009711 -0.009107 0.046677 0.011227
# 6 0.001141 -0.002639 0.005207 -0.006506 0.011227 0.032429
#
#
# Mechanical properties :
#
#
# Convention : Reuss Voigt Hill
#
# Bulk Modulus (GPa) = 49.67333 58.35669 54.01501
# Shear Modulus (GPa) = 25.75856 34.24695 30.00275
#
# Velocity S-wave (km/s) = 3.53693 4.07827 3.81721
# Velocity P-wave (km/s) = 6.38781 7.10759 6.75729
#
# Compressibility (1/GPa) = 0.02013153
#
# Stress axis : x y z
#
# Youngs Moduli (GPa) = 103.39648 49.87006 57.52741
#
# Poissons Ratio (x) = 0.10516 0.20437
# Poissons Ratio (y) = 0.21802 0.45023
# Poissons Ratio (z) = 0.36732 0.39030
#
# Static dielectric constant tensor:
#      x y z
#    x 3.871110 0.136450 -0.107640 
#    y 0.136450 3.739440 -0.086590 
#    z -0.107640 -0.086590 3.833620 
# 
# 
# High freq. dielectric constant tensor:
#      x y z
#    x 1.819070 0.008740 -0.009310 
#    y 0.008740 1.797830 -0.003990 
#    z -0.009310 -0.003990 1.810120 
# 
# From -- ./inp_files/405457.got.cif
#   From: 2010.06.25/outbox.cif.g09.slc.cpg/sg2_203_cif.got.tgz:405457.got - 2010.06.27 13:26:56.
