data_PCOD8017539
_publ_section_title
;
Structure prediction by ZEFSAII (Michael W. Deem and Ramdas Pophale) SiO2 
 PCOD8017539
Probable space group: P -1
;
_chemical_formula_sum "Si O2"
_cell_formula_units_Z 16
_cell_length_a 11.602129
_cell_length_b 11.487386
_cell_length_c 11.429135
_cell_angle_alpha 51.822339
_cell_angle_beta 132.546482
_cell_angle_gamma 142.439581
_cell_volume 672.583572
_symmetry_space_group_name_H-M "P -1"
_symmetry_group_IT_number 2
_symmetry_cell_setting 'triclinic'
loop_
_space_group_symop_operation_xyz
x,y,z
-x,-y,-z
loop_
_atom_site_type_symbol
_atom_site_label
_atom_site_fract_x
_atom_site_fract_y
_atom_site_fract_z
Si Si1 0.493330 0.910610 0.209435
Si Si2 0.958806 0.274643 0.030341
Si Si3 0.915223 0.695062 0.434089
Si Si4 0.641851 0.061670 0.449590
Si Si5 0.545455 0.617364 0.338597
Si Si6 0.354328 0.602084 0.771940
Si Si7 0.303459 0.361204 0.107934
Si Si8 0.092724 0.667245 0.797150
O O1 0.283367 0.867310 0.066495
O O2 0.511125 0.770074 0.238971
O O3 0.510559 0.886520 0.375144
O O4 0.672790 0.134506 0.162696
O O5 0.080515 0.486723 0.925310
O O6 0.014780 0.307753 0.185748
O O7 0.060785 0.196939 0.078291
O O8 0.778188 0.740477 0.370607
O O9 0.802586 0.542935 0.346408
O O10 0.137205 0.884882 0.415547
O O11 0.964690 0.615530 0.624217
O O12 0.688504 0.255480 0.310545
O O13 0.500000 0.000000 0.500000
O O14 0.500000 0.500000 0.500000
O O15 0.397922 0.476605 0.221977
O O16 0.586381 0.724581 0.801305
O O17 0.333121 0.493496 0.940450
#
# Coordination Sequence:
#
# PCOD8017539 Si02
#       8
#     2   2   2   2   2   2   2   2
#     4  11  25  41  65  99 135 168 219 281 330 391
#     4  11  21  39  67  93 134 174 216 264 344 386
#     4  10  22  42  68  92 127 175 216 273 328 385
#     4  11  26  41  63  98 132 173 224 268 323 400
#     4  11  23  41  71 102 131 168 222 275 341 396
#     4  10  23  43  66  91 132 172 223 268 323 388
#     4  10  22  40  68  96 126 174 220 269 321 401
#     4  10  22  39  62 100 128 168 219 272 328 402
#
# _framework density 23.788867
#
# number of rings (size 3 to 8) (size 9 to 14) (size 15 to 20)
#    0.000    1.500    0.000    5.250    7.000    3.000 
#    2.250    0.625    0.000    0.000    0.000    0.000 
#    0.000    0.000    0.000    0.000    0.000    0.000 
#
# Total GULP energy -198216.605618 kJ/mol
# GULP energy per Si atom -12388.537851 kJ/mol
# Density = 2.373472 g / cm^3
# Si number density = 23.788867 Si / 1000 Ang^3
#
#
#
# Elastic Constant Matrix: (Units=GPa)
#
#
# Indices 1 2 3 4 5 6 
#
# 1 174.0422 9.0109 40.7121 27.2835 14.0569 16.2980
# 2 9.0109 41.2659 22.9309 13.9369 -2.4036 -0.9603
# 3 40.7121 22.9309 102.0865 23.9892 -7.0590 14.7433
# 4 27.2835 13.9369 23.9892 17.9996 5.9326 -1.9053
# 5 14.0569 -2.4036 -7.0590 5.9326 40.6333 -1.5184
# 6 16.2980 -0.9603 14.7433 -1.9053 -1.5184 31.8278
#
#
#
# Elastic Compliance Matrix: (Units=1/GPa)
#
#
# Indices 1 2 3 4 5 6 
#
# 1 0.008654 0.003355 0.000544 -0.016887 -0.000445 -0.005614
# 2 0.003355 0.035587 -0.000695 -0.033806 0.005682 -0.002075
# 3 0.000544 -0.000695 0.018159 -0.027726 0.006598 -0.010056
# 4 -0.016887 -0.033806 -0.027726 0.154731 -0.022495 0.028660
# 5 -0.000445 0.005682 0.006598 -0.022495 0.029434 -0.002599
# 6 -0.005614 -0.002075 -0.010056 0.028660 -0.002599 0.040481
#
#
# Mechanical properties :
#
#
# Convention : Reuss Voigt Hill
#
# Bulk Modulus (GPa) = 14.53342 51.41138 32.97240
# Shear Modulus (GPa) = 16.47048 34.40818 25.43933
#
# Velocity S-wave (km/s) = 2.63413 3.80728 3.27368
# Velocity P-wave (km/s) = 3.92098 6.40200 5.30847
#
# Compressibility (1/GPa) = 0.06880695
#
# Stress axis : x y z
#
# Youngs Moduli (GPa) = 115.55558 28.10024 55.06967
#
# Poissons Ratio (x) = -0.09428 -0.02993
# Poissons Ratio (y) = -0.38770 0.03827
# Poissons Ratio (z) = -0.06281 0.01953
#
# Static dielectric constant tensor:
#      x y z
#    x 5.219180 0.158280 -0.005080 
#    y 0.158280 4.146640 0.187810 
#    z -0.005080 0.187810 4.530070 
# 
# 
# High freq. dielectric constant tensor:
#      x y z
#    x 1.989430 0.015760 -0.010110 
#    y 0.015760 1.902360 0.017610 
#    z -0.010110 0.017610 1.951260 
# 
# From -- ./inp_files/427895.got.cif
#   From: 2010.06.25/outbox.cif.g09.slc.cpg/sg2_214_cif.got.tgz:427895.got - 2010.06.27 13:26:56.
