data_PCOD8017490
_publ_section_title
;
Structure prediction by ZEFSAII (Michael W. Deem and Ramdas Pophale) SiO2 
 PCOD8017490
Probable space group: P -1
;
_chemical_formula_sum "Si O2"
_cell_formula_units_Z 16
_cell_length_a 20.328704
_cell_length_b 10.738466
_cell_length_c 6.298732
_cell_angle_alpha 96.835619
_cell_angle_beta 83.803676
_cell_angle_gamma 146.867329
_cell_volume 746.122174
_symmetry_space_group_name_H-M "P -1"
_symmetry_group_IT_number 2
_symmetry_cell_setting 'triclinic'
loop_
_space_group_symop_operation_xyz
x,y,z
-x,-y,-z
loop_
_atom_site_type_symbol
_atom_site_label
_atom_site_fract_x
_atom_site_fract_y
_atom_site_fract_z
Si Si1 0.510448 0.371126 0.530721
Si Si2 0.727206 0.152664 0.532553
Si Si3 0.855193 0.188084 0.815190
Si Si4 0.883778 0.459894 0.156517
Si Si5 0.313632 0.480519 0.812399
Si Si6 0.282029 0.265672 0.159460
Si Si7 0.138557 0.228923 0.448055
Si Si8 0.241291 0.576270 0.142472
O O1 0.500000 0.500000 0.500000
O O2 0.569067 0.377730 0.327556
O O3 0.587566 0.488528 0.743690
O O4 0.382765 0.105046 0.566706
O O5 0.825601 0.217462 0.618306
O O6 0.790020 0.325391 0.353743
O O7 0.685143 0.193136 0.724930
O O8 0.979023 0.306841 0.762349
O O9 0.741480 0.919511 0.855720
O O10 0.868223 0.296762 0.035807
O O11 0.856617 0.523665 0.006789
O O12 0.208428 0.360347 0.670345
O O13 0.271576 0.293625 0.926051
O O14 0.334853 0.630692 0.999989
O O15 0.178911 0.162242 0.319578
O O16 0.165279 0.383344 0.307677
O O17 0.000000 0.000000 0.500000
#
# Coordination Sequence:
#
# PCOD8017490 Si02
#       8
#     2   2   2   2   2   2   2   2
#     4  11  24  44  64  95 127 168 218 264 315 372
#     4  11  23  42  67  91 130 171 214 266 313 372
#     4  10  22  39  60  98 130 165 212 256 323 383
#     4  10  23  39  64  95 132 168 209 263 315 384
#     4  10  24  43  62  93 131 162 213 263 314 379
#     4  10  23  39  65  96 127 168 208 259 324 375
#     4  10  23  40  65  95 129 167 207 261 316 379
#     4  10  23  42  63  96 127 167 217 252 326 377
#
# _framework density 21.444208
#
# number of rings (size 3 to 8) (size 9 to 14) (size 15 to 20)
#    0.000    1.750    1.250    1.125    7.000    4.000 
#    0.000    8.750    0.000    0.000    0.000    0.000 
#    0.000    0.000    0.000    0.000    0.000    0.000 
#
# Total GULP energy -198385.008247 kJ/mol
# GULP energy per Si atom -12399.063015 kJ/mol
# Density = 2.139540 g / cm^3
# Si number density = 21.444208 Si / 1000 Ang^3
#
#
#
# Elastic Constant Matrix: (Units=GPa)
#
#
# Indices 1 2 3 4 5 6 
#
# 1 104.7278 40.3221 44.5243 2.0356 12.9154 -5.2060
# 2 40.3221 97.4417 45.8639 10.5501 4.5163 1.8715
# 3 44.5243 45.8639 108.5283 -4.2094 21.3319 -0.2244
# 4 2.0356 10.5501 -4.2094 19.6314 -3.9528 0.8790
# 5 12.9154 4.5163 21.3319 -3.9528 38.6925 -5.0866
# 6 -5.2060 1.8715 -0.2244 0.8790 -5.0866 35.4877
#
#
#
# Elastic Compliance Matrix: (Units=1/GPa)
#
#
# Indices 1 2 3 4 5 6 
#
# 1 0.012664 -0.003547 -0.003365 -0.000567 -0.001782 0.001782
# 2 -0.003547 0.015272 -0.005632 -0.008705 0.001495 -0.000932
# 3 -0.003365 -0.005632 0.014299 0.005342 -0.005696 -0.001055
# 4 -0.000567 -0.008705 0.005342 0.057665 0.004094 -0.000432
# 5 -0.001782 0.001495 -0.005696 0.004094 0.030332 0.003870
# 6 0.001782 -0.000932 -0.001055 -0.000432 0.003870 0.029048
#
#
# Mechanical properties :
#
#
# Convention : Reuss Voigt Hill
#
# Bulk Modulus (GPa) = 58.31612 63.56870 60.94241
# Shear Modulus (GPa) = 26.30405 30.76148 28.53277
#
# Velocity S-wave (km/s) = 3.50612 3.79157 3.65164
# Velocity P-wave (km/s) = 6.60635 6.99115 6.80147
#
# Compressibility (1/GPa) = 0.01714792
#
# Stress axis : x y z
#
# Youngs Moduli (GPa) = 78.96374 65.47746 69.93359
#
# Poissons Ratio (x) = 0.23226 0.23530
# Poissons Ratio (y) = 0.28009 0.39388
# Poissons Ratio (z) = 0.26568 0.36879
#
# Static dielectric constant tensor:
#      x y z
#    x 4.124400 -0.123890 -0.036690 
#    y -0.123890 3.643230 0.150160 
#    z -0.036690 0.150160 3.973480 
# 
# 
# High freq. dielectric constant tensor:
#      x y z
#    x 1.856010 -0.009630 0.001690 
#    y -0.009630 1.820350 0.006740 
#    z 0.001690 0.006740 1.849150 
# 
# From -- ./inp_files/70902.got.cif
#   From: 2010.06.25/outbox.cif.g09.slc.cpg/sg2_36_cif.got.tgz:70902.got - 2010.06.27 13:26:56.
