data_PCOD8017741
_publ_section_title
;
Structure prediction by ZEFSAII (Michael W. Deem and Ramdas Pophale) SiO2 
 PCOD8017741
Probable space group: P -1
;
_chemical_formula_sum "Si O2"
_cell_formula_units_Z 16
_cell_length_a 11.198519
_cell_length_b 11.610015
_cell_length_c 13.015777
_cell_angle_alpha 72.380094
_cell_angle_beta 121.740120
_cell_angle_gamma 57.376754
_cell_volume 696.262455
_symmetry_space_group_name_H-M "P -1"
_symmetry_group_IT_number 2
_symmetry_cell_setting 'triclinic'
loop_
_space_group_symop_operation_xyz
x,y,z
-x,-y,-z
loop_
_atom_site_type_symbol
_atom_site_label
_atom_site_fract_x
_atom_site_fract_y
_atom_site_fract_z
Si Si1 0.434861 0.147347 0.348527
Si Si2 0.195717 0.965745 0.126646
Si Si3 0.039607 0.349430 0.936711
Si Si4 0.627780 0.354446 0.296931
Si Si5 0.224685 0.001391 0.619259
Si Si6 0.433453 0.153688 0.008037
Si Si7 0.710670 0.260959 0.595508
Si Si8 0.648168 0.199397 0.964554
O O1 0.722794 0.976129 0.474015
O O2 0.277205 0.376604 0.267361
O O3 0.500000 0.000000 0.500000
O O4 0.234435 0.243916 0.145552
O O5 0.305303 0.859036 0.321067
O O6 0.429783 0.785679 0.191586
O O7 0.030213 0.212068 0.971715
O O8 0.000000 0.000000 0.000000
O O9 0.143328 0.333526 0.881350
O O10 0.611656 0.249826 0.242900
O O11 0.615195 0.321589 0.418514
O O12 0.386821 0.629086 0.086493
O O13 0.905023 0.221599 0.433657
O O14 0.336678 0.007587 0.755595
O O15 0.436471 0.282213 0.918813
O O16 0.500000 0.000000 0.000000
O O17 0.500000 0.500000 0.500000
O O18 0.030558 0.071544 0.791419
#
# Coordination Sequence:
#
# PCOD8017741 Si02
#       8
#     2   2   2   2   2   2   2   2
#     4  10  24  44  66  94 133 180 225 272 339 398
#     4  10  22  39  65 100 134 171 222 276 346 399
#     4  10  23  44  66  98 133 173 228 278 327 412
#     4  11  24  45  67 101 142 174 229 289 337 418
#     4  10  25  45  65 100 138 177 234 285 337 409
#     4  11  22  45  71  93 137 180 227 280 338 409
#     4  11  23  41  68 102 139 174 222 286 345 407
#     4  11  23  41  69 100 133 185 224 273 356 397
#
# _framework density 22.979841
#
# number of rings (size 3 to 8) (size 9 to 14) (size 15 to 20)
#    0.000    1.500    3.750    0.000    7.000    0.500 
#    0.000    1.875    0.000    0.000    0.000    0.000 
#    0.000    0.000    0.000    0.000    0.000    0.000 
#
# Total GULP energy -198258.795940 kJ/mol
# GULP energy per Si atom -12391.174746 kJ/mol
# Density = 2.292754 g / cm^3
# Si number density = 22.979841 Si / 1000 Ang^3
#
#
#
# Elastic Constant Matrix: (Units=GPa)
#
#
# Indices 1 2 3 4 5 6 
#
# 1 154.3786 41.3204 39.1479 -2.9868 -25.7061 -16.5660
# 2 41.3204 122.9938 39.5728 -7.2774 -3.4329 2.0707
# 3 39.1479 39.5728 58.8544 -12.4498 -11.9089 -6.8841
# 4 -2.9868 -7.2774 -12.4498 27.4089 4.1709 -6.5749
# 5 -25.7061 -3.4329 -11.9089 4.1709 38.0840 -0.1027
# 6 -16.5660 2.0707 -6.8841 -6.5749 -0.1027 48.5550
#
#
#
# Elastic Compliance Matrix: (Units=1/GPa)
#
#
# Indices 1 2 3 4 5 6 
#
# 1 0.008955 -0.001776 -0.003787 -0.001375 0.004857 0.002418
# 2 -0.001776 0.010920 -0.007025 -0.000646 -0.002347 -0.002160
# 3 -0.003787 -0.007025 0.027923 0.010805 0.004371 0.004439
# 4 -0.001375 -0.000646 0.010805 0.043082 -0.002307 0.006919
# 5 0.004857 -0.002347 0.004371 -0.002307 0.030950 0.002130
# 6 0.002418 -0.002160 0.004439 0.006919 0.002130 0.023083
#
#
# Mechanical properties :
#
#
# Convention : Reuss Voigt Hill
#
# Bulk Modulus (GPa) = 44.20771 64.03433 54.12102
# Shear Modulus (GPa) = 28.14809 37.22196 32.68502
#
# Velocity S-wave (km/s) = 3.50366 4.02900 3.77548
# Velocity P-wave (km/s) = 5.97050 7.04057 6.52750
#
# Compressibility (1/GPa) = 0.02262049
#
# Stress axis : x y z
#
# Youngs Moduli (GPa) = 111.66729 91.57280 35.81250
#
# Poissons Ratio (x) = 0.16268 0.13564
# Poissons Ratio (y) = 0.19837 0.25159
# Poissons Ratio (z) = 0.42293 0.64332
#
# Static dielectric constant tensor:
#      x y z
#    x 4.820950 -0.458300 -0.390600 
#    y -0.458300 4.564400 0.126770 
#    z -0.390600 0.126770 4.008200 
# 
# 
# High freq. dielectric constant tensor:
#      x y z
#    x 1.930190 -0.015650 -0.009240 
#    y -0.015650 1.920750 0.003220 
#    z -0.009240 0.003220 1.869000 
# 
# From -- ./inp_files/428216.got.cif
#   From: 2010.06.25/outbox.cif.g09.slc.cpg/sg2_215_cif.got.tgz:428216.got - 2010.06.27 13:26:56.
