data_PCOD8017034
_publ_section_title
;
Structure prediction by ZEFSAII (Michael W. Deem and Ramdas Pophale) SiO2 
 PCOD8017034
Probable space group: P -1
;
_chemical_formula_sum "Si O2"
_cell_formula_units_Z 14
_cell_length_a 19.819530
_cell_length_b 16.186751
_cell_length_c 12.614038
_cell_angle_alpha 43.670463
_cell_angle_beta 153.268250
_cell_angle_gamma 156.479282
_cell_volume 614.870487
_symmetry_space_group_name_H-M "P -1"
_symmetry_group_IT_number 2
_symmetry_cell_setting 'triclinic'
loop_
_space_group_symop_operation_xyz
x,y,z
-x,-y,-z
loop_
_atom_site_type_symbol
_atom_site_label
_atom_site_fract_x
_atom_site_fract_y
_atom_site_fract_z
Si Si1 0.107292 0.977028 0.775413
Si Si2 0.667240 0.823207 0.713088
Si Si3 0.465362 0.501002 0.073460
Si Si4 0.674379 0.871384 0.279150
Si Si5 0.463901 0.113944 0.328366
Si Si6 0.095249 0.593047 0.666437
Si Si7 0.210620 0.933340 0.519320
O O1 0.325099 0.245506 0.831129
O O2 0.155881 0.953695 0.748853
O O3 0.206673 0.953044 0.026206
O O4 0.763771 0.791302 0.486115
O O5 0.450227 0.559080 0.682521
O O6 0.663001 0.913823 0.719047
O O7 0.564502 0.824808 0.460836
O O8 0.000000 0.000000 0.000000
O O9 0.500000 0.500000 0.000000
O O10 0.110997 0.289754 0.787790
O O11 0.809086 0.031304 0.422317
O O12 0.307401 0.633894 0.973579
O O13 0.790681 0.397669 0.490715
O O14 0.500000 0.000000 0.500000
O O15 0.305053 0.859165 0.721981
O O16 0.000000 0.500000 0.500000
#
# Coordination Sequence:
#
# PCOD8017034 Si02
#       7
#     2   2   2   2   2   2   2
#     4  11  22  42  68  98 135 178 234 273 338 402
#     4  10  22  37  66 103 133 175 227 281 328 401
#     4  11  17  38  69  96 125 179 231 269 327 407
#     4  11  24  40  66 102 135 178 221 285 337 410
#     4  12  24  43  72 102 134 179 235 282 337 408
#     4  12  23  44  69  97 134 182 228 277 348 408
#     4  11  21  39  65  97 139 171 221 273 342 401
#
# _framework density 22.769022
#
# number of rings (size 3 to 8) (size 9 to 14) (size 15 to 20)
#    0.000    0.857    5.714    2.143    0.000    1.143 
#    0.000    5.000    0.000    0.000    0.000    0.000 
#    0.000    0.000    0.000    0.000    0.000    0.000 
#
# Total GULP energy -173502.168781 kJ/mol
# GULP energy per Si atom -12393.012056 kJ/mol
# Density = 2.271720 g / cm^3
# Si number density = 22.769022 Si / 1000 Ang^3
#
#
#
# Elastic Constant Matrix: (Units=GPa)
#
#
# Indices 1 2 3 4 5 6 
#
# 1 169.5922 36.1038 41.3059 -19.4224 -3.9493 1.7480
# 2 36.1038 89.7811 16.1037 -35.3922 -10.2087 6.9867
# 3 41.3059 16.1037 136.9070 -22.8527 5.0624 10.2852
# 4 -19.4224 -35.3922 -22.8527 38.2407 4.7761 0.2922
# 5 -3.9493 -10.2087 5.0624 4.7761 39.5152 -0.8386
# 6 1.7480 6.9867 10.2852 0.2922 -0.8386 22.6925
#
#
#
# Elastic Compliance Matrix: (Units=1/GPa)
#
#
# Indices 1 2 3 4 5 6 
#
# 1 0.006877 -0.002459 -0.001870 0.000053 0.000308 0.001085
# 2 -0.002459 0.019578 0.001825 0.017728 0.002291 -0.006809
# 3 -0.001870 0.001825 0.009153 0.006466 -0.001770 -0.004715
# 4 0.000053 0.017728 0.006466 0.046779 -0.002090 -0.009072
# 5 0.000308 0.002291 -0.001770 -0.002090 0.026432 0.001076
# 6 0.001085 -0.006809 -0.004715 -0.009072 0.001076 0.048374
#
#
# Mechanical properties :
#
#
# Convention : Reuss Voigt Hill
#
# Bulk Modulus (GPa) = 32.67857 64.81192 48.74524
# Shear Modulus (GPa) = 29.00233 40.27414 34.63823
#
# Velocity S-wave (km/s) = 3.57285 4.21029 3.90460
# Velocity P-wave (km/s) = 5.60390 7.22233 6.46397
#
# Compressibility (1/GPa) = 0.03060110
#
# Stress axis : x y z
#
# Youngs Moduli (GPa) = 145.40338 51.07702 109.25789
#
# Poissons Ratio (x) = 0.12558 0.20429
# Poissons Ratio (y) = 0.35749 -0.19938
# Poissons Ratio (z) = 0.27188 -0.09321
#
# Static dielectric constant tensor:
#      x y z
#    x 4.328300 -0.045160 -0.027910 
#    y -0.045160 4.178680 -0.179560 
#    z -0.027910 -0.179560 4.595900 
# 
# 
# High freq. dielectric constant tensor:
#      x y z
#    x 1.915430 -0.000090 0.003430 
#    y -0.000090 1.865380 -0.022050 
#    z 0.003430 -0.022050 1.901650 
# 
# From -- ./inp_files/263360.got.cif
#   From: 2010.06.25/outbox.cif.g09.slc.cpg/sg2_132_cif.got.tgz:263360.got - 2010.06.27 13:26:56.
