data_PCOD8017644
_publ_section_title
;
Structure prediction by ZEFSAII (Michael W. Deem and Ramdas Pophale) SiO2 
 PCOD8017644
Probable space group: P -1
;
_chemical_formula_sum "Si O2"
_cell_formula_units_Z 14
_cell_length_a 10.659754
_cell_length_b 11.415044
_cell_length_c 12.231705
_cell_angle_alpha 36.764917
_cell_angle_beta 49.244237
_cell_angle_gamma 56.631473
_cell_volume 673.610283
_symmetry_space_group_name_H-M "P -1"
_symmetry_group_IT_number 2
_symmetry_cell_setting 'triclinic'
loop_
_space_group_symop_operation_xyz
x,y,z
-x,-y,-z
loop_
_atom_site_type_symbol
_atom_site_label
_atom_site_fract_x
_atom_site_fract_y
_atom_site_fract_z
Si Si1 0.691883 0.897249 0.064750
Si Si2 0.665622 0.996522 0.771000
Si Si3 0.102458 0.326972 0.712915
Si Si4 0.212424 0.093893 0.612254
Si Si5 0.260651 0.693137 0.992833
Si Si6 0.132158 0.777048 0.367934
Si Si7 0.376661 0.268877 0.197738
O O1 0.821811 0.740816 0.163074
O O2 0.516300 0.898410 0.224899
O O3 0.664908 0.848580 0.987355
O O4 0.767023 0.113094 0.866309
O O5 0.713946 0.871079 0.730412
O O6 0.792928 0.166966 0.596952
O O7 0.188838 0.196412 0.666612
O O8 0.146137 0.548911 0.503375
O O9 0.904321 0.304325 0.839884
O O10 0.363537 0.182625 0.393155
O O11 0.056738 0.139846 0.587595
O O12 0.240362 0.861510 0.786619
O O13 0.426788 0.724007 0.946427
O O14 0.283853 0.482737 0.077846
#
# Coordination Sequence:
#
# PCOD8017644 Si02
#       7
#     2   2   2   2   2   2   2
#     4   9  21  42  63  93 122 161 211 255 298 362
#     4   9  21  45  63  89 130 163 203 256 308 366
#     4  12  23  39  69  95 120 161 214 258 303 362
#     4  12  24  40  64  96 125 162 206 260 309 359
#     4  11  24  41  62  95 124 167 205 249 318 361
#     4  10  22  39  63  94 121 160 204 258 304 358
#     4  11  25  42  62  93 131 163 200 255 315 372
#
# _framework density 20.783531
#
# number of rings (size 3 to 8) (size 9 to 14) (size 15 to 20)
#    0.857    0.571    2.857    2.143    2.000    2.286 
#    2.571    1.429    0.000    0.000    0.000    0.000 
#    0.000    0.000    0.000    0.000    0.000    0.000 
#
# Total GULP energy -173516.538432 kJ/mol
# GULP energy per Si atom -12394.038459 kJ/mol
# Density = 2.073623 g / cm^3
# Si number density = 20.783531 Si / 1000 Ang^3
#
#
#
# Elastic Constant Matrix: (Units=GPa)
#
#
# Indices 1 2 3 4 5 6 
#
# 1 78.0232 30.9667 22.6186 -5.9427 -0.6390 -6.1225
# 2 30.9667 80.1611 30.3970 -4.6271 6.8980 8.1647
# 3 22.6186 30.3970 105.2643 -22.7920 11.8454 -5.9680
# 4 -5.9427 -4.6271 -22.7920 28.0353 -4.3571 1.1909
# 5 -0.6390 6.8980 11.8454 -4.3571 32.7338 -7.7349
# 6 -6.1225 8.1647 -5.9680 1.1909 -7.7349 23.9527
#
#
#
# Elastic Compliance Matrix: (Units=1/GPa)
#
#
# Indices 1 2 3 4 5 6 
#
# 1 0.016743 -0.007052 -0.001237 0.001722 0.004305 0.007680
# 2 -0.007052 0.018219 -0.004259 -0.002316 -0.005262 -0.010658
# 3 -0.001237 -0.004259 0.013472 0.009543 -0.001929 0.003395
# 4 0.001722 -0.002316 0.009543 0.043847 0.003510 0.002561
# 5 0.004305 -0.005262 -0.001929 0.003510 0.036199 0.013929
# 6 0.007680 -0.010658 0.003395 0.002561 0.013929 0.052561
#
#
# Mechanical properties :
#
#
# Convention : Reuss Voigt Hill
#
# Bulk Modulus (GPa) = 42.85163 47.93480 45.39322
# Shear Modulus (GPa) = 23.37348 28.90877 26.14113
#
# Velocity S-wave (km/s) = 3.35717 3.73358 3.55037
# Velocity P-wave (km/s) = 5.97413 6.45756 6.22055
#
# Compressibility (1/GPa) = 0.02333633
#
# Stress axis : x y z
#
# Youngs Moduli (GPa) = 59.72506 54.88770 74.23078
#
# Poissons Ratio (x) = 0.38707 0.09186
# Poissons Ratio (y) = 0.42118 0.31617
# Poissons Ratio (z) = 0.07391 0.23378
#
# Static dielectric constant tensor:
#      x y z
#    x 3.772270 -0.179570 -0.153750 
#    y -0.179570 3.481600 -0.028800 
#    z -0.153750 -0.028800 3.792770 
# 
# 
# High freq. dielectric constant tensor:
#      x y z
#    x 1.815640 -0.014560 -0.009940 
#    y -0.014560 1.795980 -0.000450 
#    z -0.009940 -0.000450 1.809640 
# 
# From -- ./inp_files/518544.got.cif
#   From: 2010.06.25/outbox.cif.g09.slc.cpg/sg2_260_cif.got.tgz:518544.got - 2010.06.27 13:26:56.
