data_PCOD8017803
_publ_section_title
;
Structure prediction by ZEFSAII (Michael W. Deem and Ramdas Pophale) SiO2 
 PCOD8017803
Probable space group: P -1
;
_chemical_formula_sum "Si O2"
_cell_formula_units_Z 16
_cell_length_a 9.360980
_cell_length_b 9.049101
_cell_length_c 11.383766
_cell_angle_alpha 127.788418
_cell_angle_beta 86.946982
_cell_angle_gamma 97.030804
_cell_volume 756.045875
_symmetry_space_group_name_H-M "P -1"
_symmetry_group_IT_number 2
_symmetry_cell_setting 'triclinic'
loop_
_space_group_symop_operation_xyz
x,y,z
-x,-y,-z
loop_
_atom_site_type_symbol
_atom_site_label
_atom_site_fract_x
_atom_site_fract_y
_atom_site_fract_z
Si Si1 0.596295 0.068308 0.419378
Si Si2 0.164001 0.259000 0.564954
Si Si3 0.593443 0.697142 0.608008
Si Si4 0.749556 0.782906 0.120818
Si Si5 0.565607 0.806459 0.919346
Si Si6 0.286274 0.562481 0.895422
Si Si7 0.855280 0.166950 0.581432
Si Si8 0.940409 0.284062 0.893654
O O1 0.499633 0.148034 0.363954
O O2 0.717949 0.228450 0.546008
O O3 0.500000 0.000000 0.500000
O O4 0.671129 0.903213 0.275546
O O5 0.252841 0.290471 0.456843
O O6 0.211997 0.429357 0.732860
O O7 0.993962 0.253703 0.543197
O O8 0.177266 0.060968 0.531912
O O9 0.500000 0.500000 0.500000
O O10 0.628222 0.739854 0.762320
O O11 0.704310 0.563950 0.049357
O O12 0.925165 0.834668 0.143280
O O13 0.698307 0.825141 0.012776
O O14 0.443235 0.647492 0.891756
O O15 0.500000 0.000000 0.000000
O O16 0.188449 0.733555 0.012133
O O17 0.867366 0.230191 0.746080
O O18 0.000000 0.500000 0.000000
#
# Coordination Sequence:
#
# PCOD8017803 Si02
#       8
#     2   2   2   2   2   2   2   2
#     4  12  24  41  71 103 131 173 238 282 333 406
#     4  11  21  42  67  98 136 173 221 283 341 391
#     4  12  26  46  65  97 143 181 220 282 342 404
#     4  11  22  45  66 102 132 175 231 279 334 407
#     4  12  27  44  67  94 142 190 221 274 349 402
#     4  11  22  44  69 100 136 174 231 288 330 399
#     4  11  21  40  71 101 131 171 228 286 342 391
#     4  10  22  39  66 102 136 163 219 287 337 393
#
# _framework density 21.162735999999999
#
# number of rings (size 3 to 8) (size 9 to 14) (size 15 to 20)
#    0.000    0.750    7.500    1.125    3.500    2.000 
#    0.000    2.500    0.000    0.000    0.000    0.000 
#    0.000    0.000    0.000    0.000    0.000    0.000 
#
# Total GULP energy -198313.777819 kJ/mol
# GULP energy per Si atom -12394.611114 kJ/mol
# Density = 2.111457 g / cm^3
# Si number density = 21.162736 Si / 1000 Ang^3
#
#
#
# Elastic Constant Matrix: (Units=GPa)
#
#
# Indices 1 2 3 4 5 6 
#
# 1 129.3492 30.6754 72.6229 -28.5181 -2.2117 6.0116
# 2 30.6754 63.3371 30.0809 -17.5183 -2.0372 -1.3401
# 3 72.6229 30.0809 148.7987 -27.1896 -8.6679 -3.4033
# 4 -28.5181 -17.5183 -27.1896 37.6339 0.8513 1.0505
# 5 -2.2117 -2.0372 -8.6679 0.8513 43.8356 -5.3455
# 6 6.0116 -1.3401 -3.4033 1.0505 -5.3455 33.8745
#
#
#
# Elastic Compliance Matrix: (Units=1/GPa)
#
#
# Indices 1 2 3 4 5 6 
#
# 1 0.012100 -0.002415 -0.004664 0.004779 -0.000883 -0.002999
# 2 -0.002415 0.019416 -0.001599 0.006016 0.000460 0.000922
# 3 -0.004664 -0.001599 0.009993 0.002844 0.001852 0.001972
# 4 0.004779 0.006016 0.002844 0.035081 0.000234 -0.001375
# 5 -0.000883 0.000460 0.001852 0.000234 0.023649 0.004085
# 6 -0.002999 0.000922 0.001972 -0.001375 0.004085 0.030975
#
#
# Mechanical properties :
#
#
# Convention : Reuss Voigt Hill
#
# Bulk Modulus (GPa) = 41.40421 67.58260 54.49340
# Shear Modulus (GPa) = 31.92380 36.94252 34.43316
#
# Velocity S-wave (km/s) = 3.88814 4.18262 4.03807
# Velocity P-wave (km/s) = 6.30587 7.43840 6.89543
#
# Compressibility (1/GPa) = 0.02415213
#
# Stress axis : x y z
#
# Youngs Moduli (GPa) = 82.64137 51.50357 100.07196
#
# Poissons Ratio (x) = 0.12440 0.46676
# Poissons Ratio (y) = 0.19961 0.16002
# Poissons Ratio (z) = 0.38546 0.08236
#
# Static dielectric constant tensor:
#      x y z
#    x 4.604160 0.026060 0.128580 
#    y 0.026060 3.769010 -0.141220 
#    z 0.128580 -0.141220 5.303700 
# 
# 
# High freq. dielectric constant tensor:
#      x y z
#    x 1.845540 0.009230 -0.002300 
#    y 0.009230 1.792660 -0.005320 
#    z -0.002300 -0.005320 1.849750 
# 
# From -- ./inp_files/383510.got.cif
#   From: 2010.06.25/outbox.cif.g09.slc.cpg/sg2_192_cif.got.tgz:383510.got - 2010.06.27 13:26:56.
