data_PCOD8017957
_publ_section_title
;
Structure prediction by ZEFSAII (Michael W. Deem and Ramdas Pophale) SiO2 
 PCOD8017957
Probable space group: P -1
;
_chemical_formula_sum "Si O2"
_cell_formula_units_Z 14
_cell_length_a 13.775035
_cell_length_b 8.859670
_cell_length_c 14.714927
_cell_angle_alpha 99.896990
_cell_angle_beta 19.708129
_cell_angle_gamma 97.816389
_cell_volume 594.794265
_symmetry_space_group_name_H-M "P -1"
_symmetry_group_IT_number 2
_symmetry_cell_setting 'triclinic'
loop_
_space_group_symop_operation_xyz
x,y,z
-x,-y,-z
loop_
_atom_site_type_symbol
_atom_site_label
_atom_site_fract_x
_atom_site_fract_y
_atom_site_fract_z
Si Si1 0.917210 0.202965 0.367606
Si Si2 0.413630 0.791198 0.983003
Si Si3 0.589589 0.530818 0.680924
Si Si4 0.560210 0.120563 0.835609
Si Si5 0.001101 0.330843 0.792472
Si Si6 0.622584 0.156816 0.441097
Si Si7 0.042130 0.318011 0.954809
O O1 0.774975 0.375021 0.521678
O O2 0.821003 0.124941 0.351254
O O3 0.263121 0.195989 0.061870
O O4 0.814422 0.114510 0.537199
O O5 0.112058 0.791575 0.192427
O O6 0.557890 0.945990 0.849978
O O7 0.626234 0.645590 0.746454
O O8 0.361290 0.777883 0.135723
O O9 0.704601 0.605492 0.494773
O O10 0.244394 0.522516 0.967720
O O11 0.050725 0.248461 0.837469
O O12 0.353095 0.273052 0.721343
O O13 0.500000 0.000000 0.500000
O O14 0.795444 0.239523 0.219036
O O15 0.000000 0.500000 0.000000
#
# Coordination Sequence:
#
# PCOD8017957 Si02
#       7
#     2   2   2   2   2   2   2
#     4  12  26  44  65  95 135 168 212 266 334 376
#     4   9  26  42  68  95 129 164 227 257 320 385
#     4  10  22  41  66  93 134 165 212 267 315 386
#     4  11  26  42  68  94 130 173 209 269 323 390
#     4  10  22  39  70  93 128 165 222 264 313 375
#     4  12  28  43  66 101 138 170 222 273 333 397
#     4  12  24  44  72  96 130 180 225 269 327 388
#
# _framework density 23.537552000000002
#
# number of rings (size 3 to 8) (size 9 to 14) (size 15 to 20)
#    0.857    0.286    0.000    5.143    8.000    2.286 
#    0.000    0.000    0.000    0.000    0.000    0.000 
#    0.000    0.000    0.000    0.000    0.000    0.000 
#
# Total GULP energy -173558.541170 kJ/mol
# GULP energy per Si atom -12397.038655 kJ/mol
# Density = 2.348398 g / cm^3
# Si number density = 23.537552 Si / 1000 Ang^3
#
#
#
# Elastic Constant Matrix: (Units=GPa)
#
#
# Indices 1 2 3 4 5 6 
#
# 1 137.0099 10.5898 9.9898 -8.0646 22.6146 7.2186
# 2 10.5898 60.8909 9.0812 -8.1917 21.3168 1.9536
# 3 9.9898 9.0812 88.2919 -15.5664 9.9411 0.2479
# 4 -8.0646 -8.1917 -15.5664 39.5869 -10.2261 6.1728
# 5 22.6146 21.3168 9.9411 -10.2261 35.5204 -1.0147
# 6 7.2186 1.9536 0.2479 6.1728 -1.0147 19.1261
#
#
#
# Elastic Compliance Matrix: (Units=1/GPa)
#
#
# Indices 1 2 3 4 5 6 
#
# 1 0.008442 0.000784 -0.000226 0.000944 -0.005621 -0.003866
# 2 0.000784 0.021138 -0.000541 0.001615 -0.012672 -0.003642
# 3 -0.000226 -0.000541 0.012404 0.004513 -0.001749 -0.001570
# 4 0.000944 0.001615 0.004513 0.030616 0.005690 -0.010159
# 5 -0.005621 -0.012672 -0.001749 0.005690 0.041573 0.003807
# 6 -0.003866 -0.003642 -0.001570 -0.010159 0.003807 0.057617
#
#
# Mechanical properties :
#
#
# Convention : Reuss Voigt Hill
#
# Bulk Modulus (GPa) = 23.79905 38.39048 31.09476
# Shear Modulus (GPa) = 26.91651 35.94882 31.43266
#
# Velocity S-wave (km/s) = 3.38532 3.91230 3.65831
# Velocity P-wave (km/s) = 5.04119 6.06250 5.57528
#
# Compressibility (1/GPa) = 0.04201849
#
# Stress axis : x y z
#
# Youngs Moduli (GPa) = 118.46143 47.30928 80.61810
#
# Poissons Ratio (x) = -0.03710 0.01819
# Poissons Ratio (y) = -0.09290 0.04361
# Poissons Ratio (z) = 0.02673 0.02559
#
# Static dielectric constant tensor:
#      x y z
#    x 4.542510 0.043800 0.152500 
#    y 0.043800 4.016200 0.047380 
#    z 0.152500 0.047380 4.248920 
# 
# 
# High freq. dielectric constant tensor:
#      x y z
#    x 1.940010 0.004480 0.008880 
#    y 0.004480 1.922150 0.004910 
#    z 0.008880 0.004910 1.938870 
# 
# From -- ./inp_files/528547.got.cif
#   From: 2010.06.25/outbox.cif.g09.slc.cpg/sg2_265_cif.got.tgz:528547.got - 2010.06.27 13:26:56.
