data_PCOD8017513
_publ_section_title
;
Structure prediction by ZEFSAII (Michael W. Deem and Ramdas Pophale) SiO2 
 PCOD8017513
Probable space group: P -1
;
_chemical_formula_sum "Si O2"
_cell_formula_units_Z 14
_cell_length_a 14.127181
_cell_length_b 8.809383
_cell_length_c 14.951724
_cell_angle_alpha 88.592770
_cell_angle_beta 28.708983
_cell_angle_gamma 107.000720
_cell_volume 676.203811
_symmetry_space_group_name_H-M "P -1"
_symmetry_group_IT_number 2
_symmetry_cell_setting 'triclinic'
loop_
_space_group_symop_operation_xyz
x,y,z
-x,-y,-z
loop_
_atom_site_type_symbol
_atom_site_label
_atom_site_fract_x
_atom_site_fract_y
_atom_site_fract_z
Si Si1 0.767268 0.274037 0.078947
Si Si2 0.256149 0.279376 0.421854
Si Si3 0.769759 0.708259 0.246623
Si Si4 0.472209 0.120395 0.145273
Si Si5 0.241207 0.061064 0.603457
Si Si6 0.842527 0.286562 0.679068
Si Si7 0.799755 0.636784 0.027575
O O1 0.671382 0.188429 0.059712
O O2 0.526247 0.132806 0.349725
O O3 0.871253 0.499458 0.995541
O O4 0.993725 0.275217 0.915986
O O5 0.282932 0.164698 0.325129
O O6 0.187184 0.166929 0.575145
O O7 0.030091 0.278850 0.583867
O O8 0.528265 0.507562 0.200869
O O9 0.500000 0.500000 0.500000
O O10 0.781473 0.880163 0.279174
O O11 0.777568 0.728426 0.133314
O O12 0.297067 0.882581 0.279338
O O13 0.625472 0.243888 0.926420
O O14 0.026356 0.820447 0.774850
O O15 0.000000 0.500000 0.500000
#
# Coordination Sequence:
#
# PCOD8017513 Si02
#       7
#     2   2   2   2   2   2   2
#     4  10  23  41  61  85 123 160 194 251 294 344
#     4  10  22  41  61  85 124 156 190 252 294 345
#     4  12  21  39  62  88 126 159 197 249 294 344
#     4   9  22  40  59  88 117 156 196 238 299 351
#     4  10  22  41  59  87 122 160 203 240 294 349
#     4  11  23  39  63  91 116 151 197 243 299 358
#     4  10  22  39  61  91 118 163 203 238 295 348
#
# _framework density 20.703817000000001
#
# number of rings (size 3 to 8) (size 9 to 14) (size 15 to 20)
#    0.000    2.000    2.857    2.143    0.000    9.143 
#    2.571    0.000    0.000    0.000    0.000    0.000 
#    0.000    0.000    0.000    0.000    0.000    0.000 
#
# Total GULP energy -173616.090922 kJ/mol
# GULP energy per Si atom -12401.149352 kJ/mol
# Density = 2.065669 g / cm^3
# Si number density = 20.703817 Si / 1000 Ang^3
#
#
#
# Elastic Constant Matrix: (Units=GPa)
#
#
# Indices 1 2 3 4 5 6 
#
# 1 44.6112 25.0920 29.7598 2.6072 -3.9984 9.8916
# 2 25.0920 103.5554 58.0198 -12.3358 19.1612 24.8909
# 3 29.7598 58.0198 123.2835 -24.4472 10.8849 -3.5910
# 4 2.6072 -12.3358 -24.4472 42.3844 -6.2712 3.7822
# 5 -3.9984 19.1612 10.8849 -6.2712 26.1725 2.4301
# 6 9.8916 24.8909 -3.5910 3.7822 2.4301 26.9672
#
#
#
# Elastic Compliance Matrix: (Units=1/GPa)
#
#
# Indices 1 2 3 4 5 6 
#
# 1 0.034058 -0.003238 -0.009117 -0.005693 0.011014 -0.010912
# 2 -0.003238 0.022673 -0.009172 0.001683 -0.010999 -0.020206
# 3 -0.009117 -0.009172 0.016302 0.005922 -0.001270 0.013265
# 4 -0.005693 0.001683 0.005922 0.028483 0.002529 -0.002899
# 5 0.011014 -0.010999 -0.001270 0.002529 0.048968 0.001176
# 6 -0.010912 -0.020206 0.013265 -0.002899 0.001176 0.061802
#
#
# Mechanical properties :
#
#
# Convention : Reuss Voigt Hill
#
# Bulk Modulus (GPa) = 33.35684 55.24372 44.30028
# Shear Modulus (GPa) = 18.84431 29.67671 24.26051
#
# Velocity S-wave (km/s) = 3.02020 3.79013 3.42685
# Velocity P-wave (km/s) = 5.32058 6.77453 6.09109
#
# Compressibility (1/GPa) = 0.02997886
#
# Stress axis : x y z
#
# Youngs Moduli (GPa) = 29.36151 44.10592 61.34312
#
# Poissons Ratio (x) = 0.14280 0.55926
# Poissons Ratio (y) = 0.09506 0.56266
# Poissons Ratio (z) = 0.26768 0.40455
#
# Static dielectric constant tensor:
#      x y z
#    x 3.503010 0.279830 0.009570 
#    y 0.279830 3.879220 0.020670 
#    z 0.009570 0.020670 3.882110 
# 
# 
# High freq. dielectric constant tensor:
#      x y z
#    x 1.791400 0.019650 -0.001230 
#    y 0.019650 1.816900 -0.000490 
#    z -0.001230 -0.000490 1.825470 
# 
# From -- ./inp_files/315312.got.cif
#   From: 2010.06.25/outbox.cif.g09.slc.cpg/sg2_158_cif.got.tgz:315312.got - 2010.06.27 13:26:56.
