data_PCOD8017132
_publ_section_title
;
Structure prediction by ZEFSAII (Michael W. Deem and Ramdas Pophale) SiO2 
 PCOD8017132
Probable space group: P -1
;
_chemical_formula_sum "Si O2"
_cell_formula_units_Z 14
_cell_length_a 16.073315
_cell_length_b 6.442048
_cell_length_c 11.716645
_cell_angle_alpha 126.479687
_cell_angle_beta 45.573354
_cell_angle_gamma 103.996928
_cell_volume 663.777023
_symmetry_space_group_name_H-M "P -1"
_symmetry_group_IT_number 2
_symmetry_cell_setting 'triclinic'
loop_
_space_group_symop_operation_xyz
x,y,z
-x,-y,-z
loop_
_atom_site_type_symbol
_atom_site_label
_atom_site_fract_x
_atom_site_fract_y
_atom_site_fract_z
Si Si1 0.771773 0.441973 0.458752
Si Si2 0.068739 0.809346 0.570010
Si Si3 0.450980 0.104552 0.202487
Si Si4 0.868916 0.621786 0.819222
Si Si5 0.977059 0.563881 0.175118
Si Si6 0.457079 0.653658 0.432092
Si Si7 0.586104 0.908845 0.213524
O O1 0.821868 0.364824 0.511766
O O2 0.694558 0.763494 0.629235
O O3 0.879749 0.409575 0.253923
O O4 0.683549 0.259583 0.453407
O O5 0.093382 0.668248 0.376357
O O6 0.939825 0.807842 0.748640
O O7 0.071914 0.114427 0.653906
O O8 0.511879 0.329489 0.264774
O O9 0.498132 0.879065 0.182305
O O10 0.500000 0.000000 0.000000
O O11 0.905184 0.563716 0.898819
O O12 0.725927 0.778367 0.999906
O O13 0.000000 0.500000 0.000000
O O14 0.553242 0.752731 0.300004
O O15 0.444596 0.777493 0.612043
#
# Coordination Sequence:
#
# PCOD8017132 Si02
#       7
#     2   2   2   2   2   2   2
#     4   9  23  39  61  90 120 153 202 243 295 350
#     4  10  22  43  63  85 123 156 197 250 294 348
#     4  10  22  38  60  91 121 155 195 241 297 352
#     4  10  24  41  62  90 118 159 200 242 296 357
#     4  11  25  38  65  91 115 160 198 246 304 347
#     4   9  24  39  59  90 119 159 201 238 297 350
#     4  11  22  40  64  86 123 159 197 245 296 352
#
# _framework density 21.091419999999999
#
# number of rings (size 3 to 8) (size 9 to 14) (size 15 to 20)
#    0.857    1.143    0.000    1.714    6.000    5.143 
#    0.000    0.000    0.000    0.000    0.000    0.000 
#    0.000    0.000    0.000    0.000    0.000    0.000 
#
# Total GULP energy -173440.999072 kJ/mol
# GULP energy per Si atom -12388.642791 kJ/mol
# Density = 2.104342 g / cm^3
# Si number density = 21.091420 Si / 1000 Ang^3
#
#
#
# Elastic Constant Matrix: (Units=GPa)
#
#
# Indices 1 2 3 4 5 6 
#
# 1 101.2398 9.1754 38.0422 -10.4852 3.2312 -15.3961
# 2 9.1754 36.7197 21.3884 3.8556 6.3316 6.7601
# 3 38.0422 21.3884 101.0577 -3.4492 10.9802 -4.5937
# 4 -10.4852 3.8556 -3.4492 25.9820 -0.0328 -0.4896
# 5 3.2312 6.3316 10.9802 -0.0328 43.8236 0.7903
# 6 -15.3961 6.7601 -4.5937 -0.4896 0.7903 36.7854
#
#
#
# Elastic Compliance Matrix: (Units=1/GPa)
#
#
# Indices 1 2 3 4 5 6 
#
# 1 0.012946 -0.002538 -0.003945 0.005181 0.000306 0.005455
# 2 -0.002538 0.034535 -0.006650 -0.007191 -0.002992 -0.008271
# 3 -0.003945 -0.006650 0.013108 0.001156 -0.002055 0.001267
# 4 0.005181 -0.007191 0.001156 0.041879 0.000323 0.004185
# 5 0.000306 -0.002992 -0.002055 0.000323 0.023745 -0.000084
# 6 0.005455 -0.008271 0.001267 0.004185 -0.000084 0.031203
#
#
# Mechanical properties :
#
#
# Convention : Reuss Voigt Hill
#
# Bulk Modulus (GPa) = 29.13477 41.80326 35.46901
# Shear Modulus (GPa) = 25.62484 32.67894 29.15189
#
# Velocity S-wave (km/s) = 3.48938 3.94051 3.72179
# Velocity P-wave (km/s) = 5.48434 6.36918 5.94325
#
# Compressibility (1/GPa) = 0.03432325
#
# Stress axis : x y z
#
# Youngs Moduli (GPa) = 77.24289 28.95635 76.28899
#
# Poissons Ratio (x) = 0.07350 0.30094
# Poissons Ratio (y) = 0.19606 0.50732
# Poissons Ratio (z) = 0.30470 0.19256
#
# Static dielectric constant tensor:
#      x y z
#    x 4.051380 0.053030 -0.023020 
#    y 0.053030 3.666560 0.035270 
#    z -0.023020 0.035270 3.673900 
# 
# 
# High freq. dielectric constant tensor:
#      x y z
#    x 1.838210 -0.005880 0.007650 
#    y -0.005880 1.812200 -0.002850 
#    z 0.007650 -0.002850 1.824240 
# 
# From -- ./inp_files/459295.got.cif
#   From: 2010.06.25/outbox.cif.g09.slc.cpg/sg2_230_cif.got.tgz:459295.got - 2010.06.27 13:26:56.
