data_PCOD8017702
_publ_section_title
;
Structure prediction by ZEFSAII (Michael W. Deem and Ramdas Pophale) SiO2 
 PCOD8017702
Probable space group: P -1
;
_chemical_formula_sum "Si O2"
_cell_formula_units_Z 16
_cell_length_a 9.066472
_cell_length_b 12.535999
_cell_length_c 11.116263
_cell_angle_alpha 55.521190
_cell_angle_beta 110.836374
_cell_angle_gamma 132.450580
_cell_volume 767.758745
_symmetry_space_group_name_H-M "P -1"
_symmetry_group_IT_number 2
_symmetry_cell_setting 'triclinic'
loop_
_space_group_symop_operation_xyz
x,y,z
-x,-y,-z
loop_
_atom_site_type_symbol
_atom_site_label
_atom_site_fract_x
_atom_site_fract_y
_atom_site_fract_z
Si Si1 0.255227 0.684652 0.707298
Si Si2 0.518287 0.856301 0.295338
Si Si3 0.624401 0.814403 0.591872
Si Si4 0.863580 0.318123 0.836437
Si Si5 0.679729 0.679900 0.476162
Si Si6 0.846183 0.039594 0.910312
Si Si7 0.887504 0.141569 0.584336
Si Si8 0.607663 0.182616 0.073639
O O1 0.449050 0.701403 0.709502
O O2 0.234485 0.800153 0.543183
O O3 0.288988 0.740404 0.818733
O O4 0.068616 0.495928 0.764176
O O5 0.543597 0.880789 0.430812
O O6 0.283889 0.713763 0.293468
O O7 0.651186 0.802546 0.319771
O O8 0.591433 0.021391 0.145231
O O9 0.677131 0.707948 0.602726
O O10 0.819025 0.971200 0.613410
O O11 0.899948 0.180916 0.930288
O O12 0.755751 0.310993 0.932811
O O13 0.500000 0.500000 0.500000
O O14 0.883091 0.715481 0.473299
O O15 0.860389 0.114565 0.735920
O O16 0.617577 0.872296 0.966428
O O17 0.000000 0.000000 0.000000
#
# Coordination Sequence:
#
# PCOD8017702 Si02
#       8
#     2   2   2   2   2   2   2   2
#     4  12  22  42  66 101 126 161 221 267 324 364
#     4   9  20  39  65  88 125 170 214 254 309 385
#     4  10  22  39  64  92 128 160 214 264 313 382
#     4  11  25  40  65  94 129 176 210 268 314 377
#     4  10  23  38  60  98 133 163 198 270 327 368
#     4  11  26  43  68  95 126 171 215 262 316 388
#     4  12  23  41  71  95 127 168 213 264 322 377
#     4  11  22  44  66  90 128 178 213 258 313 390
#
# _framework density 20.839880000000001
#
# number of rings (size 3 to 8) (size 9 to 14) (size 15 to 20)
#    0.750    0.500    2.500    4.875    5.250    1.000 
#    0.000    0.625    0.000    0.000    0.000    0.000 
#    0.000    0.000    0.000    0.000    0.000    0.000 
#
# Total GULP energy -198298.783537 kJ/mol
# GULP energy per Si atom -12393.673971 kJ/mol
# Density = 2.079245 g / cm^3
# Si number density = 20.839880 Si / 1000 Ang^3
#
#
#
# Elastic Constant Matrix: (Units=GPa)
#
#
# Indices 1 2 3 4 5 6 
#
# 1 80.5282 14.4066 19.5768 3.5950 -10.5241 1.8362
# 2 14.4066 107.3067 20.1405 -1.5476 -14.8584 10.9308
# 3 19.5768 20.1405 65.4288 12.6783 -13.9039 1.7742
# 4 3.5950 -1.5476 12.6783 25.9369 5.5315 -5.3065
# 5 -10.5241 -14.8584 -13.9039 5.5315 41.6256 -2.1690
# 6 1.8362 10.9308 1.7742 -5.3065 -2.1690 31.5202
#
#
#
# Elastic Compliance Matrix: (Units=1/GPa)
#
#
# Indices 1 2 3 4 5 6 
#
# 1 0.013685 -0.000925 -0.003156 -0.000938 0.002184 -0.000306
# 2 -0.000925 0.010591 -0.002546 0.000841 0.002419 -0.003168
# 3 -0.003156 -0.002546 0.020718 -0.011590 0.006671 -0.001592
# 4 -0.000938 0.000841 -0.011590 0.048093 -0.009791 0.007838
# 5 0.002184 0.002419 0.006671 -0.009791 0.028917 -0.001000
# 6 -0.000306 -0.003168 -0.001592 0.007838 -0.001000 0.034182
#
#
# Mechanical properties :
#
#
# Convention : Reuss Voigt Hill
#
# Bulk Modulus (GPa) = 31.50530 40.16793 35.83662
# Shear Modulus (GPa) = 27.77471 33.09251 30.43361
#
# Velocity S-wave (km/s) = 3.65467 3.98922 3.82560
# Velocity P-wave (km/s) = 5.74103 6.36670 6.06194
#
# Compressibility (1/GPa) = 0.03174069
#
# Stress axis : x y z
#
# Youngs Moduli (GPa) = 73.07283 94.42011 48.26622
#
# Poissons Ratio (x) = 0.08732 0.15231
# Poissons Ratio (y) = 0.06758 0.12290
# Poissons Ratio (z) = 0.23059 0.24042
#
# Static dielectric constant tensor:
#      x y z
#    x 3.735840 0.001910 -0.085690 
#    y 0.001910 3.822950 0.147850 
#    z -0.085690 0.147850 3.510440 
# 
# 
# High freq. dielectric constant tensor:
#      x y z
#    x 1.816160 0.003770 -0.015420 
#    y 0.003770 1.823440 0.011740 
#    z -0.015420 0.011740 1.795190 
# 
# From -- ./inp_files/392375.got.cif
#   From: 2010.06.25/outbox.cif.g09.slc.cpg/sg2_197_cif.got.tgz:392375.got - 2010.06.27 13:26:56.
