data_PCOD8017665
_publ_section_title
;
Structure prediction by ZEFSAII (Michael W. Deem and Ramdas Pophale) SiO2 
 PCOD8017665
Probable space group: P -1
;
_chemical_formula_sum "Si O2"
_cell_formula_units_Z 14
_cell_length_a 17.771343
_cell_length_b 12.672836
_cell_length_c 8.977023
_cell_angle_alpha 50.399930
_cell_angle_beta 113.745354
_cell_angle_gamma 152.981357
_cell_volume 623.912746
_symmetry_space_group_name_H-M "P -1"
_symmetry_group_IT_number 2
_symmetry_cell_setting 'triclinic'
loop_
_space_group_symop_operation_xyz
x,y,z
-x,-y,-z
loop_
_atom_site_type_symbol
_atom_site_label
_atom_site_fract_x
_atom_site_fract_y
_atom_site_fract_z
Si Si1 0.642665 0.703474 0.796231
Si Si2 0.785762 0.360544 0.157545
Si Si3 0.753420 0.021905 0.334370
Si Si4 0.619491 0.875112 0.035243
Si Si5 0.405131 0.852877 0.216437
Si Si6 0.937560 0.260382 0.726832
Si Si7 0.940169 0.754587 0.660863
O O1 0.589616 0.482938 0.866527
O O2 0.615368 0.783493 0.579156
O O3 0.855327 0.037877 0.731030
O O4 0.500000 0.500000 0.000000
O O5 0.860485 0.325836 0.182471
O O6 0.877952 0.529896 0.239276
O O7 0.557863 0.013720 0.305277
O O8 0.842086 0.566255 0.906553
O O9 0.891504 0.098631 0.368390
O O10 0.632380 0.860244 0.234164
O O11 0.647527 0.074523 0.838345
O O12 0.781348 0.036115 0.933263
O O13 0.210878 0.478066 0.386088
O O14 0.500000 0.000000 0.000000
O O15 0.000000 0.500000 0.500000
O O16 0.000000 0.000000 0.500000
#
# Coordination Sequence:
#
# PCOD8017665 Si02
#       7
#     2   2   2   2   2   2   2
#     4  10  25  40  63  99 134 170 224 278 329 394
#     4  11  22  42  67  97 136 176 223 262 342 397
#     4  12  21  40  77  95 128 176 230 273 335 391
#     4  11  22  42  68 101 130 172 231 275 330 395
#     4  10  22  39  63  97 145 161 214 289 334 384
#     4  11  22  43  67  94 136 180 226 270 328 408
#     4  11  24  39  65 107 136 164 218 287 337 384
#
# _framework density 22.439035000000001
#
# number of rings (size 3 to 8) (size 9 to 14) (size 15 to 20)
#    0.000    1.143    5.714    1.714    4.000    1.143 
#    0.000    1.429    0.000    0.000    0.000    0.000 
#    0.000    0.000    0.000    0.000    0.000    0.000 
#
# Total GULP energy -173471.839350 kJ/mol
# GULP energy per Si atom -12390.845668 kJ/mol
# Density = 2.238796 g / cm^3
# Si number density = 22.439035 Si / 1000 Ang^3
#
#
#
# Elastic Constant Matrix: (Units=GPa)
#
#
# Indices 1 2 3 4 5 6 
#
# 1 76.7773 50.9704 20.7352 -10.1530 27.3459 6.8949
# 2 50.9704 243.1558 58.9615 -16.7716 25.0665 -6.9790
# 3 20.7352 58.9615 109.3794 -4.1015 18.1410 -9.7383
# 4 -10.1530 -16.7716 -4.1015 39.4267 -14.1665 7.2761
# 5 27.3459 25.0665 18.1410 -14.1665 36.0644 -3.6598
# 6 6.8949 -6.9790 -9.7383 7.2761 -3.6598 36.2921
#
#
#
# Elastic Compliance Matrix: (Units=1/GPa)
#
#
# Indices 1 2 3 4 5 6 
#
# 1 0.020623 -0.002918 -0.000568 0.000140 -0.013883 -0.006060
# 2 -0.002918 0.005358 -0.002251 0.001217 0.000176 0.000754
# 3 -0.000568 -0.002251 0.011324 -0.001924 -0.004185 0.002677
# 4 0.000140 0.001217 -0.001924 0.030869 0.011600 -0.005328
# 5 -0.013883 0.000176 -0.004185 0.011600 0.045178 0.003779
# 6 -0.006060 0.000754 0.002677 -0.005328 0.003779 0.031018
#
#
# Mechanical properties :
#
#
# Convention : Reuss Voigt Hill
#
# Bulk Modulus (GPa) = 38.71562 76.73854 57.72708
# Shear Modulus (GPa) = 30.40360 42.26635 36.33498
#
# Velocity S-wave (km/s) = 3.68495 4.34476 4.02839
# Velocity P-wave (km/s) = 5.94948 7.70988 6.88616
#
# Compressibility (1/GPa) = 0.02582937
#
# Stress axis : x y z
#
# Youngs Moduli (GPa) = 48.48949 186.64768 88.30803
#
# Poissons Ratio (x) = 0.54470 0.05017
# Poissons Ratio (y) = 0.14151 0.19880
# Poissons Ratio (z) = 0.02755 0.42019
#
# Static dielectric constant tensor:
#      x y z
#    x 4.073390 0.073960 0.135230 
#    y 0.073960 5.112740 -0.134000 
#    z 0.135230 -0.134000 4.175270 
# 
# 
# High freq. dielectric constant tensor:
#      x y z
#    x 1.847380 -0.010220 0.001650 
#    y -0.010220 1.907550 -0.009920 
#    z 0.001650 -0.009920 1.877480 
# 
# From -- ./inp_files/183072.got.cif
#   From: 2010.06.25/outbox.cif.g09.slc.cpg/sg2_92_cif.got.tgz:183072.got - 2010.06.27 13:26:56.
