data_PCOD8017944
_publ_section_title
;
Structure prediction by ZEFSAII (Michael W. Deem and Ramdas Pophale) SiO2 
 PCOD8017944
Probable space group: P -1
;
_chemical_formula_sum "Si O2"
_cell_formula_units_Z 12
_cell_length_a 13.631228
_cell_length_b 7.916303
_cell_length_c 7.779509
_cell_angle_alpha 98.888758
_cell_angle_beta 50.183244
_cell_angle_gamma 132.749024
_cell_volume 410.971456
_symmetry_space_group_name_H-M "P -1"
_symmetry_group_IT_number 2
_symmetry_cell_setting 'triclinic'
loop_
_space_group_symop_operation_xyz
x,y,z
-x,-y,-z
loop_
_atom_site_type_symbol
_atom_site_label
_atom_site_fract_x
_atom_site_fract_y
_atom_site_fract_z
Si Si1 0.656364 0.442622 0.200655
Si Si2 0.721189 0.882358 0.232905
Si Si3 0.901848 0.000742 0.409194
Si Si4 0.850413 0.314448 0.905740
Si Si5 0.830883 0.579644 0.556925
Si Si6 0.576179 0.857720 0.913251
O O1 0.759779 0.731423 0.081364
O O2 0.516221 0.338239 0.505242
O O3 0.824609 0.470178 0.056508
O O4 0.518058 0.213646 0.178058
O O5 0.847009 0.018468 0.288444
O O6 0.783188 0.094268 0.071073
O O7 0.921120 0.814904 0.361880
O O8 0.728367 0.854780 0.725275
O O9 0.094916 0.303887 0.310290
O O10 0.078071 0.509307 0.624068
O O11 0.708089 0.157705 0.869520
O O12 0.593158 0.341729 0.783241
#
# Coordination Sequence:
#
# PCOD8017944 Si02
#       6
#     2   2   2   2   2   2
#     4  10  23  42  67 100 129 176 222 261 333 393
#     4  10  23  42  70  94 133 179 212 271 332 389
#     4   9  21  41  65  98 132 172 224 265 326 394
#     4  11  24  43  68 101 132 168 222 274 325 388
#     4  10  22  39  69  99 129 174 221 271 326 386
#     4  10  22  40  71  92 134 176 216 275 321 387
#
# _framework density 29.199107999999999
#
# number of rings (size 3 to 8) (size 9 to 14) (size 15 to 20)
#    0.000    2.000    0.000    1.500   14.000    1.333 
#    0.000    0.833    0.000    0.000    0.000    0.000 
#    0.000    0.000    0.000    0.000    0.000    0.000 
#
# Total GULP energy -148754.749954 kJ/mol
# GULP energy per Si atom -12396.229163 kJ/mol
# Density = 2.913265 g / cm^3
# Si number density = 29.199108 Si / 1000 Ang^3
#
#
#
# Elastic Constant Matrix: (Units=GPa)
#
#
# Indices 1 2 3 4 5 6 
#
# 1 56.9219 41.5831 43.3757 21.0146 -13.2977 -16.1538
# 2 41.5831 79.8664 54.3626 18.8881 -27.1707 -22.0353
# 3 43.3757 54.3626 95.2580 7.5300 -24.7592 -15.8550
# 4 21.0146 18.8881 7.5300 42.8873 -0.9870 -20.5524
# 5 -13.2977 -27.1707 -24.7592 -0.9870 45.2973 12.8388
# 6 -16.1538 -22.0353 -15.8550 -20.5524 12.8388 51.9426
#
#
#
# Elastic Compliance Matrix: (Units=1/GPa)
#
#
# Indices 1 2 3 4 5 6 
#
# 1 0.036782 -0.009350 -0.010731 -0.012256 -0.000815 -0.000451
# 2 -0.009350 0.028058 -0.008767 -0.004966 0.008550 0.002241
# 3 -0.010731 -0.008767 0.020808 0.005996 0.002820 0.000970
# 4 -0.012256 -0.004966 0.005996 0.035847 -0.005785 0.011526
# 5 -0.000815 0.008550 0.002820 -0.005785 0.029926 -0.005452
# 6 -0.000451 0.002241 0.000970 0.011526 -0.005452 0.026266
#
#
# Mechanical properties :
#
#
# Convention : Reuss Voigt Hill
#
# Bulk Modulus (GPa) = 35.77568 56.74324 46.25946
# Shear Modulus (GPa) = 20.43328 34.20709 27.32019
#
# Velocity S-wave (km/s) = 2.64823 3.42645 3.06216
# Velocity P-wave (km/s) = 4.65078 5.92701 5.32725
#
# Compressibility (1/GPa) = 0.02795195
#
# Stress axis : x y z
#
# Youngs Moduli (GPa) = 27.18750 35.64089 48.05880
#
# Poissons Ratio (x) = 0.33323 0.51571
# Poissons Ratio (y) = 0.25420 0.42133
# Poissons Ratio (z) = 0.29174 0.31246
#
# Static dielectric constant tensor:
#      x y z
#    x 5.280280 0.158770 -0.658120 
#    y 0.158770 5.101390 0.241300 
#    z -0.658120 0.241300 5.863790 
# 
# 
# High freq. dielectric constant tensor:
#      x y z
#    x 2.178760 -0.005060 -0.024530 
#    y -0.005060 2.175050 0.007800 
#    z -0.024530 0.007800 2.221620 
# 
# From -- ./inp_files/292707.got.cif
#   From: 2010.06.25/outbox.cif.g09.slc.cpg/sg2_147_cif.got.tgz:292707.got - 2010.06.27 13:26:56.
