data_PCOD8017163
_publ_section_title
;
Structure prediction by ZEFSAII (Michael W. Deem and Ramdas Pophale) SiO2 
 PCOD8017163
Probable space group: P -1
;
_chemical_formula_sum "Si O2"
_cell_formula_units_Z 16
_cell_length_a 8.143202
_cell_length_b 10.907308
_cell_length_c 20.642580
_cell_angle_alpha 148.047119
_cell_angle_beta 54.278730
_cell_angle_gamma 126.624343
_cell_volume 765.612713
_symmetry_space_group_name_H-M "P -1"
_symmetry_group_IT_number 2
_symmetry_cell_setting 'triclinic'
loop_
_space_group_symop_operation_xyz
x,y,z
-x,-y,-z
loop_
_atom_site_type_symbol
_atom_site_label
_atom_site_fract_x
_atom_site_fract_y
_atom_site_fract_z
Si Si1 0.029973 0.042621 0.088246
Si Si2 0.291915 0.249188 0.466824
Si Si3 0.142234 0.755553 0.568887
Si Si4 0.460374 0.355577 0.616582
Si Si5 0.957693 0.869884 0.324974
Si Si6 0.913854 0.424910 0.057571
Si Si7 0.470849 0.263075 0.124536
Si Si8 0.274524 0.742712 0.668488
O O1 0.241848 0.250923 0.142533
O O2 0.831381 0.142896 0.198324
O O3 0.037933 0.813552 0.028775
O O4 0.000000 0.000000 0.000000
O O5 0.389293 0.364100 0.563127
O O6 0.184029 0.453998 0.555518
O O7 0.475215 0.208403 0.358508
O O8 0.122996 0.996040 0.398647
O O9 0.331806 0.741709 0.470856
O O10 0.229246 0.864654 0.666879
O O11 0.000000 0.500000 0.500000
O O12 0.012988 0.935716 0.651891
O O13 0.276533 0.177577 0.616927
O O14 0.509394 0.619764 0.755721
O O15 0.016179 0.633324 0.178182
O O16 0.664933 0.410520 0.103258
O O17 0.000000 0.500000 0.000000
O O18 0.500000 0.000000 0.000000
#
# Coordination Sequence:
#
# PCOD8017163 Si02
#       8
#     2   2   2   2   2   2   2   2
#     4  11  24  43  68  97 126 169 221 271 306 381
#     4  10  22  39  62  94 126 165 204 271 317 374
#     4  11  20  37  60  90 120 165 207 259 311 379
#     4  10  22  38  61  90 128 160 212 257 324 379
#     4  11  22  39  62  92 127 163 210 260 326 375
#     4  10  23  44  65  92 131 175 211 258 328 387
#     4   9  21  40  62  93 123 172 212 257 319 387
#     4  10  22  39  60  92 126 158 215 260 317 368
#
# _framework density 20.898296999999999
#
# number of rings (size 3 to 8) (size 9 to 14) (size 15 to 20)
#    0.000    1.750    1.250    2.250    5.250    2.000 
#    0.000    5.000    0.000    0.000    0.000    0.000 
#    0.000    0.000    0.000    0.000    0.000    0.000 
#
# Total GULP energy -198259.133039 kJ/mol
# GULP energy per Si atom -12391.195815 kJ/mol
# Density = 2.085073 g / cm^3
# Si number density = 20.898297 Si / 1000 Ang^3
#
#
#
# Elastic Constant Matrix: (Units=GPa)
#
#
# Indices 1 2 3 4 5 6 
#
# 1 88.7865 40.1654 57.0395 -2.7113 8.1556 9.5780
# 2 40.1654 101.3442 55.6239 -7.2277 6.0243 12.0547
# 3 57.0395 55.6239 144.2256 -14.3731 5.8597 20.5219
# 4 -2.7113 -7.2277 -14.3731 39.5555 3.3668 2.9642
# 5 8.1556 6.0243 5.8597 3.3668 35.4979 5.3691
# 6 9.5780 12.0547 20.5219 2.9642 5.3691 34.6056
#
#
#
# Elastic Compliance Matrix: (Units=1/GPa)
#
#
# Indices 1 2 3 4 5 6 
#
# 1 0.016346 -0.003651 -0.005124 -0.001238 -0.002208 0.000235
# 2 -0.003651 0.013494 -0.003374 0.001179 -0.000753 -0.001673
# 3 -0.005124 -0.003374 0.011216 0.003416 0.000238 -0.004388
# 4 -0.001238 0.001179 0.003416 0.027164 -0.002445 -0.004041
# 5 -0.002208 -0.000753 0.000238 -0.002445 0.029549 -0.003643
# 6 0.000235 -0.001673 -0.004388 -0.004041 -0.003643 0.032928
#
#
# Mechanical properties :
#
#
# Convention : Reuss Voigt Hill
#
# Bulk Modulus (GPa) = 59.67050 71.11268 65.39159
# Shear Modulus (GPa) = 31.13673 34.03364 32.58519
#
# Velocity S-wave (km/s) = 3.86413 4.03989 3.95299
# Velocity P-wave (km/s) = 6.96588 7.47414 7.22448
#
# Compressibility (1/GPa) = 0.01675870
#
# Stress axis : x y z
#
# Youngs Moduli (GPa) = 61.17731 74.10558 89.15565
#
# Poissons Ratio (x) = 0.27057 0.45679
# Poissons Ratio (y) = 0.22337 0.30083
# Poissons Ratio (z) = 0.31344 0.25005
#
# Static dielectric constant tensor:
#      x y z
#    x 3.925390 0.287150 0.035680 
#    y 0.287150 3.961700 -0.027190 
#    z 0.035680 -0.027190 3.852550 
# 
# 
# High freq. dielectric constant tensor:
#      x y z
#    x 1.809820 0.015450 0.002460 
#    y 0.015450 1.818140 -0.005030 
#    z 0.002460 -0.005030 1.822230 
# 
# From -- ./inp_files/262754.got.cif
#   From: 2010.06.25/outbox.cif.g09.slc.cpg/sg2_132_cif.got.tgz:262754.got - 2010.06.27 13:26:56.
