data_PCOD8017303
_publ_section_title
;
Structure prediction by ZEFSAII (Michael W. Deem and Ramdas Pophale) SiO2 
 PCOD8017303
Probable space group: P -1
;
_chemical_formula_sum "Si O2"
_cell_formula_units_Z 16
_cell_length_a 11.707262
_cell_length_b 12.308623
_cell_length_c 15.597909
_cell_angle_alpha 70.538241
_cell_angle_beta 147.464450
_cell_angle_gamma 130.824407
_cell_volume 772.500831
_symmetry_space_group_name_H-M "P -1"
_symmetry_group_IT_number 2
_symmetry_cell_setting 'triclinic'
loop_
_space_group_symop_operation_xyz
x,y,z
-x,-y,-z
loop_
_atom_site_type_symbol
_atom_site_label
_atom_site_fract_x
_atom_site_fract_y
_atom_site_fract_z
Si Si1 0.464314 0.038162 0.718128
Si Si2 0.755307 0.261566 0.439587
Si Si3 0.049276 0.337816 0.913461
Si Si4 0.942673 0.961384 0.634763
Si Si5 0.249908 0.866404 0.808532
Si Si6 0.404389 0.598299 0.817852
Si Si7 0.399366 0.679583 0.983802
Si Si8 0.472664 0.855267 0.501003
O O1 0.362000 0.913269 0.609084
O O2 0.236255 0.055986 0.555704
O O3 0.410533 0.957122 0.795397
O O4 0.829909 0.220133 0.887762
O O5 0.680167 0.310663 0.297871
O O6 0.565120 0.229139 0.411287
O O7 0.122762 0.401609 0.661504
O O8 0.246754 0.535148 0.997284
O O9 0.839745 0.285760 0.713370
O O10 0.274766 0.319750 0.041935
O O11 0.762739 0.911109 0.622861
O O12 0.951799 0.828933 0.649784
O O13 0.285809 0.150531 0.816805
O O14 0.175938 0.700516 0.813800
O O15 0.500000 0.000000 0.000000
O O16 0.452031 0.627405 0.943019
O O17 0.500000 0.000000 0.500000
#
# Coordination Sequence:
#
# PCOD8017303 Si02
#       8
#     2   2   2   2   2   2   2   2
#     4  11  22  41  62  92 121 155 204 248 295 359
#     4  11  22  37  58  91 131 154 196 244 304 360
#     4  11  23  35  61  91 124 157 195 247 303 357
#     4  10  22  38  66  86 117 165 203 242 296 359
#     4  10  23  43  63  85 116 164 210 246 291 355
#     4  11  23  35  58  92 125 164 194 243 305 361
#     4  11  21  39  60  89 122 161 203 246 297 353
#     4  11  20  37  58  93 123 153 194 246 301 357
#
# _framework density 20.711953999999999
#
# number of rings (size 3 to 8) (size 9 to 14) (size 15 to 20)
#    0.000    1.250    5.000    2.250    0.000    2.500 
#    0.000    5.000    0.000    3.000    0.000    0.000 
#    0.000    0.000    0.000    0.000    0.000    0.000 
#
# Total GULP energy -198299.347129 kJ/mol
# GULP energy per Si atom -12393.709196 kJ/mol
# Density = 2.066481 g / cm^3
# Si number density = 20.711954 Si / 1000 Ang^3
#
#
#
# Elastic Constant Matrix: (Units=GPa)
#
#
# Indices 1 2 3 4 5 6 
#
# 1 84.1162 22.7996 14.5517 1.5880 18.8902 0.0682
# 2 22.7996 63.4343 19.2545 3.5117 24.6003 -9.8088
# 3 14.5517 19.2545 75.5822 6.8056 20.1273 -12.3354
# 4 1.5880 3.5117 6.8056 24.8616 0.9493 3.9770
# 5 18.8902 24.6003 20.1273 0.9493 34.9299 -7.6413
# 6 0.0682 -9.8088 -12.3354 3.9770 -7.6413 29.2617
#
#
#
# Elastic Compliance Matrix: (Units=1/GPa)
#
#
# Indices 1 2 3 4 5 6 
#
# 1 0.014146 -0.003125 -0.000985 0.000502 -0.005555 -0.003015
# 2 -0.003125 0.023030 -0.000806 -0.003039 -0.013020 0.004401
# 3 -0.000985 -0.000806 0.016950 -0.005091 -0.007288 0.005666
# 4 0.000502 -0.003039 -0.005091 0.043322 0.001744 -0.008599
# 5 -0.005555 -0.013020 -0.007288 0.001744 0.045901 0.004326
# 6 -0.003015 0.004401 0.005666 -0.008599 0.004326 0.040343
#
#
# Mechanical properties :
#
#
# Convention : Reuss Voigt Hill
#
# Bulk Modulus (GPa) = 22.57721 37.37158 29.97440
# Shear Modulus (GPa) = 24.00493 28.91241 26.45867
#
# Velocity S-wave (km/s) = 3.40809 3.74027 3.57803
# Velocity P-wave (km/s) = 5.13916 6.06098 5.61900
#
# Compressibility (1/GPa) = 0.04429244
#
# Stress axis : x y z
#
# Youngs Moduli (GPa) = 70.69003 43.42129 58.99817
#
# Poissons Ratio (x) = 0.13570 0.05814
# Poissons Ratio (y) = 0.22092 0.04757
# Poissons Ratio (z) = 0.06966 0.03501
#
# Static dielectric constant tensor:
#      x y z
#    x 1.476210 -0.965790 0.419520 
#    y -0.965790 4.124480 -0.162890 
#    z 0.419520 -0.162890 3.831930 
# 
# 
# High freq. dielectric constant tensor:
#      x y z
#    x 1.802770 0.003130 0.001040 
#    y 0.003130 1.813870 -0.008140 
#    z 0.001040 -0.008140 1.804820 
# 
# From -- ./inp_files/189411.got.cif
#   From: 2010.06.25/outbox.cif.g09.slc.cpg/sg2_95_cif.got.tgz:189411.got - 2010.06.27 13:26:56.
