data_PCOD8017823
_publ_section_title
;
Structure prediction by ZEFSAII (Michael W. Deem and Ramdas Pophale) SiO2 
 PCOD8017823
Probable space group: P -1
;
_chemical_formula_sum "Si O2"
_cell_formula_units_Z 16
_cell_length_a 15.407431
_cell_length_b 5.048309
_cell_length_c 17.273505
_cell_angle_alpha 76.446549
_cell_angle_beta 144.933668
_cell_angle_gamma 111.076131
_cell_volume 715.746540
_symmetry_space_group_name_H-M "P -1"
_symmetry_group_IT_number 2
_symmetry_cell_setting 'triclinic'
loop_
_space_group_symop_operation_xyz
x,y,z
-x,-y,-z
loop_
_atom_site_type_symbol
_atom_site_label
_atom_site_fract_x
_atom_site_fract_y
_atom_site_fract_z
Si Si1 0.888179 0.182918 0.931472
Si Si2 0.162401 0.233511 0.625885
Si Si3 0.071595 0.132260 0.729073
Si Si4 0.492466 0.278339 0.818209
Si Si5 0.881093 0.532496 0.576857
Si Si6 0.426644 0.918026 0.368333
Si Si7 0.700262 0.901416 0.967585
Si Si8 0.562882 0.539871 0.394277
O O1 0.763933 0.197052 0.771579
O O2 0.797320 0.063384 0.953193
O O3 0.000000 0.500000 0.000000
O O4 0.000000 0.000000 0.000000
O O5 0.150370 0.334697 0.698821
O O6 0.323537 0.139881 0.747087
O O7 0.180902 0.478573 0.557079
O O8 0.000000 0.000000 0.500000
O O9 0.924947 0.240880 0.642126
O O10 0.182959 0.171068 0.880934
O O11 0.026169 0.810338 0.685270
O O12 0.568834 0.607828 0.872653
O O13 0.459197 0.256132 0.704125
O O14 0.612953 0.099269 0.935436
O O15 0.744684 0.545636 0.536479
O O16 0.468113 0.210915 0.329440
O O17 0.500000 0.000000 0.500000
O O18 0.502640 0.672298 0.415325
#
# Coordination Sequence:
#
# PCOD8017823 Si02
#       8
#     2   2   2   2   2   2   2   2
#     4  12  26  46  70  95 136 181 224 285 354 414
#     4   9  22  41  67  99 137 174 220 274 338 387
#     4  11  23  40  61  99 140 170 228 273 321 408
#     4  11  22  42  69  93 131 182 220 266 328 404
#     4  10  22  39  66  93 131 180 214 275 336 387
#     4  12  25  43  68 100 131 165 228 290 340 412
#     4  12  25  43  67  94 132 179 230 269 337 408
#     4  11  21  42  67  92 128 169 219 271 338 403
#
# _framework density 22.354282000000001
#
# number of rings (size 3 to 8) (size 9 to 14) (size 15 to 20)
#    0.000    1.000    2.500    3.750    0.000   11.000 
#    0.000    0.000    0.000    0.000    0.000    0.000 
#    0.000    0.000    0.000    0.000    0.000    0.000 
#
# Total GULP energy -198305.940902 kJ/mol
# GULP energy per Si atom -12394.121306 kJ/mol
# Density = 2.230340 g / cm^3
# Si number density = 22.354282 Si / 1000 Ang^3
#
#
#
# Elastic Constant Matrix: (Units=GPa)
#
#
# Indices 1 2 3 4 5 6 
#
# 1 93.3768 40.0879 74.7070 -3.1533 19.4513 -13.3710
# 2 40.0879 107.0827 39.0647 2.3212 17.1197 -19.1754
# 3 74.7070 39.0647 156.5505 -9.5615 7.3568 1.0110
# 4 -3.1533 2.3212 -9.5615 42.2534 -4.1122 8.9210
# 5 19.4513 17.1197 7.3568 -4.1122 39.4900 -1.9679
# 6 -13.3710 -19.1754 1.0110 8.9210 -1.9679 26.3482
#
#
#
# Elastic Compliance Matrix: (Units=1/GPa)
#
#
# Indices 1 2 3 4 5 6 
#
# 1 0.023144 -0.001129 -0.010675 -0.004019 -0.008740 0.012041
# 2 -0.001129 0.013545 -0.002943 -0.004157 -0.004680 0.010456
# 3 -0.010675 -0.002943 0.012353 0.004526 0.004243 -0.009248
# 4 -0.004019 -0.004157 0.004526 0.028159 0.005154 -0.014388
# 5 -0.008740 -0.004680 0.004243 0.005154 0.031033 -0.007431
# 6 0.012041 0.010456 -0.009248 -0.014388 -0.007431 0.056344
#
#
# Mechanical properties :
#
#
# Convention : Reuss Voigt Hill
#
# Bulk Modulus (GPa) = 51.15568 73.85879 62.50724
# Shear Modulus (GPa) = 24.92668 35.16168 30.04418
#
# Velocity S-wave (km/s) = 3.34290 3.97032 3.67004
# Velocity P-wave (km/s) = 6.15091 7.35729 6.78098
#
# Compressibility (1/GPa) = 0.01954817
#
# Stress axis : x y z
#
# Youngs Moduli (GPa) = 43.20780 73.82551 80.95182
#
# Poissons Ratio (x) = 0.08337 0.86417
# Poissons Ratio (y) = 0.04880 0.23821
# Poissons Ratio (z) = 0.46125 0.21724
#
# Static dielectric constant tensor:
#      x y z
#    x 4.190370 0.119010 0.134860 
#    y 0.119010 4.083150 -0.069250 
#    z 0.134860 -0.069250 4.144470 
# 
# 
# High freq. dielectric constant tensor:
#      x y z
#    x 1.878490 -0.007970 0.009710 
#    y -0.007970 1.877810 -0.003560 
#    z 0.009710 -0.003560 1.889910 
# 
# From -- ./inp_files/571687.got.cif
#   From: 2010.06.25/outbox.cif.g09.slc.cpg/sg2_286_cif.got.tgz:571687.got - 2010.06.27 13:26:56.
