data_PCOD8017389
_publ_section_title
;
Structure prediction by ZEFSAII (Michael W. Deem and Ramdas Pophale) SiO2 
 PCOD8017389
Probable space group: P -1
;
_chemical_formula_sum "Si O2"
_cell_formula_units_Z 12
_cell_length_a 5.003876
_cell_length_b 19.741810
_cell_length_c 11.211757
_cell_angle_alpha 151.322176
_cell_angle_beta 56.771974
_cell_angle_gamma 111.072321
_cell_volume 423.846327
_symmetry_space_group_name_H-M "P -1"
_symmetry_group_IT_number 2
_symmetry_cell_setting 'triclinic'
loop_
_space_group_symop_operation_xyz
x,y,z
-x,-y,-z
loop_
_atom_site_type_symbol
_atom_site_label
_atom_site_fract_x
_atom_site_fract_y
_atom_site_fract_z
Si Si1 0.334344 0.812735 0.218098
Si Si2 0.221211 0.102904 0.140087
Si Si3 0.374289 0.690515 0.669541
Si Si4 0.762662 0.961968 0.221042
Si Si5 0.975251 0.380926 0.155629
Si Si6 0.751020 0.394827 0.684988
O O1 0.405639 0.939489 0.308911
O O2 0.652149 0.676350 0.969807
O O3 0.067777 0.746395 0.118821
O O4 0.164296 0.903613 0.518306
O O5 0.393012 0.210917 0.193954
O O6 0.900749 0.236579 0.472322
O O7 0.154182 0.005050 0.889663
O O8 0.500000 0.000000 0.000000
O O9 0.448500 0.626590 0.418438
O O10 0.003441 0.802997 0.946660
O O11 0.323768 0.573286 0.599699
O O12 0.955577 0.529493 0.310985
O O13 0.500000 0.500000 0.000000
#
# Coordination Sequence:
#
# PCOD8017389 Si02
#       6
#     2   2   2   2   2   2
#     4  10  22  38  72 108 142 180 233 294 350 414
#     4  11  25  43  70  97 139 187 234 288 357 422
#     4  10  23  45  70  99 138 185 240 294 349 421
#     4   9  21  39  63 104 140 181 229 289 350 417
#     4  11  24  44  74 107 142 185 236 296 352 418
#     4  11  28  46  67 104 141 189 235 292 359 426
#
# _framework density 28.312149999999999
#
# number of rings (size 3 to 8) (size 9 to 14) (size 15 to 20)
#    0.000    1.667    1.667    0.500    7.000    7.333 
#    0.000    0.000    0.000    0.000    0.000    0.000 
#    0.000    0.000    0.000    0.000    0.000    0.000 
#
# Total GULP energy -148682.092478 kJ/mol
# GULP energy per Si atom -12390.174373 kJ/mol
# Density = 2.824771 g / cm^3
# Si number density = 28.312150 Si / 1000 Ang^3
#
#
#
# Elastic Constant Matrix: (Units=GPa)
#
#
# Indices 1 2 3 4 5 6 
#
# 1 78.8550 9.0922 41.9254 7.5147 11.6162 -16.8096
# 2 9.0922 136.3847 74.3391 6.9026 -11.7975 -2.4457
# 3 41.9254 74.3391 182.6665 -9.4450 16.5787 -26.1091
# 4 7.5147 6.9026 -9.4450 47.5425 -6.6111 2.5920
# 5 11.6162 -11.7975 16.5787 -6.6111 41.8587 10.0884
# 6 -16.8096 -2.4457 -26.1091 2.5920 10.0884 49.8662
#
#
#
# Elastic Compliance Matrix: (Units=1/GPa)
#
#
# Indices 1 2 3 4 5 6 
#
# 1 0.016515 0.000331 -0.002898 -0.004265 -0.005308 0.005362
# 2 0.000331 0.010883 -0.005594 -0.001766 0.005719 -0.003349
# 3 -0.002898 -0.005594 0.009711 0.002181 -0.005436 0.004820
# 4 -0.004265 -0.001766 0.002181 0.023091 0.004048 -0.002402
# 5 -0.005308 0.005719 -0.005436 0.004048 0.032450 -0.011130
# 6 0.005362 -0.003349 0.004820 -0.002402 -0.011130 0.026597
#
#
# Mechanical properties :
#
#
# Convention : Reuss Voigt Hill
#
# Bulk Modulus (GPa) = 48.10353 72.06884 60.08619
# Shear Modulus (GPa) = 35.08792 46.02345 40.55568
#
# Velocity S-wave (km/s) = 3.52422 4.03621 3.78888
# Velocity P-wave (km/s) = 5.79547 6.87253 6.35685
#
# Compressibility (1/GPa) = 0.02078849
#
# Stress axis : x y z
#
# Youngs Moduli (GPa) = 60.54997 91.88247 102.97261
#
# Poissons Ratio (x) = -0.03045 0.29840
# Poissons Ratio (y) = -0.02006 0.57606
# Poissons Ratio (z) = 0.17546 0.51402
#
# Static dielectric constant tensor:
#      x y z
#    x 5.286840 0.025620 0.011660 
#    y 0.025620 5.947380 0.377380 
#    z 0.011660 0.377380 5.418340 
# 
# 
# High freq. dielectric constant tensor:
#      x y z
#    x 2.147760 0.005460 -0.002440 
#    y 0.005460 2.172620 0.018980 
#    z -0.002440 0.018980 2.164340 
# 
# From -- ./inp_files/370486.got.cif
#   From: 2010.06.25/outbox.cif.g09.slc.cpg/sg2_186_cif.got.tgz:370486.got - 2010.06.27 13:26:56.
