data_PCOD8017166
_publ_section_title
;
Structure prediction by ZEFSAII (Michael W. Deem and Ramdas Pophale) SiO2 
 PCOD8017166
Probable space group: P -1
;
_chemical_formula_sum "Si O2"
_cell_formula_units_Z 16
_cell_length_a 8.568923
_cell_length_b 15.117202
_cell_length_c 14.795212
_cell_angle_alpha 123.321769
_cell_angle_beta 152.289403
_cell_angle_gamma 57.982598
_cell_volume 739.933571
_symmetry_space_group_name_H-M "P -1"
_symmetry_group_IT_number 2
_symmetry_cell_setting 'triclinic'
loop_
_space_group_symop_operation_xyz
x,y,z
-x,-y,-z
loop_
_atom_site_type_symbol
_atom_site_label
_atom_site_fract_x
_atom_site_fract_y
_atom_site_fract_z
Si Si1 0.688070 0.252438 0.858895
Si Si2 0.368747 0.257090 0.417845
Si Si3 0.263114 0.915643 0.362494
Si Si4 0.437953 0.240989 0.251358
Si Si5 0.434877 0.589954 0.257939
Si Si6 0.743013 0.001498 0.283652
Si Si7 0.385810 0.799785 0.016382
Si Si8 0.363924 0.354812 0.098378
O O1 0.797120 0.150181 0.794746
O O2 0.463152 0.348940 0.746022
O O3 0.480912 0.228094 0.828761
O O4 0.046909 0.285183 0.089800
O O5 0.591078 0.163757 0.530220
O O6 0.566105 0.276012 0.435246
O O7 0.353060 0.367996 0.526832
O O8 0.008375 0.212375 0.199487
O O9 0.500000 0.000000 0.500000
O O10 0.927345 0.976367 0.268215
O O11 0.530753 0.114930 0.222146
O O12 0.554702 0.299245 0.253576
O O13 0.529757 0.463673 0.226872
O O14 0.035461 0.621905 0.082573
O O15 0.463477 0.920170 0.107796
O O16 0.000000 0.000000 0.500000
O O17 0.587990 0.721311 0.005470
#
# Coordination Sequence:
#
# PCOD8017166 Si02
#       8
#     2   2   2   2   2   2   2   2
#     4   9  21  39  60  87 126 159 202 250 306 361
#     4  10  22  40  60  90 130 156 205 255 305 364
#     4  11  23  39  60  87 125 167 198 247 312 360
#     4  10  22  38  61  91 123 163 202 254 299 365
#     4   9  20  44  65  89 123 161 203 260 311 361
#     4  12  24  39  63  91 126 163 209 249 298 371
#     4  11  24  39  62  93 122 164 208 251 301 368
#     4  10  22  40  67  90 119 165 210 251 309 364
#
# _framework density 21.623563999999998
#
# number of rings (size 3 to 8) (size 9 to 14) (size 15 to 20)
#    0.000    1.750    1.250    3.000    3.500    3.500 
#    0.000    0.000    0.000    0.000    0.000    0.000 
#    0.000    0.000    0.000    0.000    0.000    0.000 
#
# Total GULP energy -198254.767812 kJ/mol
# GULP energy per Si atom -12390.922988 kJ/mol
# Density = 2.157435 g / cm^3
# Si number density = 21.623564 Si / 1000 Ang^3
#
#
#
# Elastic Constant Matrix: (Units=GPa)
#
#
# Indices 1 2 3 4 5 6 
#
# 1 127.1267 42.0349 25.2425 -1.8831 -33.9031 15.8614
# 2 42.0349 124.5291 27.6904 13.6841 -18.7690 16.8891
# 3 25.2425 27.6904 70.3160 16.0142 -15.0464 6.9955
# 4 -1.8831 13.6841 16.0142 24.2945 2.6769 4.7935
# 5 -33.9031 -18.7690 -15.0464 2.6769 37.7737 0.1548
# 6 15.8614 16.8891 6.9955 4.7935 0.1548 22.9640
#
#
#
# Elastic Compliance Matrix: (Units=1/GPa)
#
#
# Indices 1 2 3 4 5 6 
#
# 1 0.012222 -0.001725 -0.001823 0.003576 0.009163 -0.007426
# 2 -0.001725 0.010666 -0.001206 -0.004694 0.003626 -0.005330
# 3 -0.001823 -0.001206 0.019854 -0.013035 0.006602 -0.001226
# 4 0.003576 -0.004694 -0.013035 0.054847 -0.008175 -0.006440
# 5 0.009163 0.003626 0.006602 -0.008175 0.039748 -0.009568
# 6 -0.007426 -0.005330 -0.001226 -0.006440 -0.009568 0.054378
#
#
# Mechanical properties :
#
#
# Convention : Reuss Voigt Hill
#
# Bulk Modulus (GPa) = 30.08943 56.87858 43.48401
# Shear Modulus (GPa) = 23.55165 32.14004 27.84584
#
# Velocity S-wave (km/s) = 3.30383 3.85949 3.59242
# Velocity P-wave (km/s) = 5.33845 6.79868 6.11233
#
# Compressibility (1/GPa) = 0.03323426
#
# Stress axis : x y z
#
# Youngs Moduli (GPa) = 81.82179 93.75780 50.36736
#
# Poissons Ratio (x) = 0.16172 0.09182
# Poissons Ratio (y) = 0.14113 0.06073
# Poissons Ratio (z) = 0.14917 0.11305
#
# Static dielectric constant tensor:
#      x y z
#    x 4.434110 0.037640 -0.719070 
#    y 0.037640 4.143420 0.608090 
#    z -0.719070 0.608090 4.972600 
# 
# 
# High freq. dielectric constant tensor:
#      x y z
#    x 1.860140 0.008410 -0.018890 
#    y 0.008410 1.843040 0.003780 
#    z -0.018890 0.003780 1.844020 
# 
# From -- ./inp_files/179909.got.cif
#   From: 2010.06.25/outbox.cif.g09.slc.cpg/sg2_90_cif.got.tgz:179909.got - 2010.06.27 13:26:56.
