data_PCOD8017501
_publ_section_title
;
Structure prediction by ZEFSAII (Michael W. Deem and Ramdas Pophale) SiO2 
 PCOD8017501
Probable space group: P -1
;
_chemical_formula_sum "Si O2"
_cell_formula_units_Z 12
_cell_length_a 17.460061
_cell_length_b 8.732937
_cell_length_c 6.712056
_cell_angle_alpha 97.268062
_cell_angle_beta 66.536559
_cell_angle_gamma 48.883719
_cell_volume 585.052251
_symmetry_space_group_name_H-M "P -1"
_symmetry_group_IT_number 2
_symmetry_cell_setting 'triclinic'
loop_
_space_group_symop_operation_xyz
x,y,z
-x,-y,-z
loop_
_atom_site_type_symbol
_atom_site_label
_atom_site_fract_x
_atom_site_fract_y
_atom_site_fract_z
Si Si1 0.089738 0.168543 0.967136
Si Si2 0.589470 0.877648 0.192554
Si Si3 0.885590 0.524222 0.905295
Si Si4 0.937838 0.929283 0.616547
Si Si5 0.300296 0.797634 0.356745
Si Si6 0.490821 0.762371 0.983378
O O1 0.954381 0.374458 0.015758
O O2 0.214334 0.943401 0.667038
O O3 0.122663 0.279561 0.065711
O O4 0.067498 0.068771 0.138542
O O5 0.566311 0.762807 0.060138
O O6 0.500000 0.000000 0.500000
O O7 0.741088 0.656525 0.070252
O O8 0.559041 0.075397 0.132106
O O9 0.972116 0.341010 0.599929
O O10 0.788993 0.131969 0.721669
O O11 0.000000 0.000000 0.500000
O O12 0.364799 0.868786 0.243171
O O13 0.411974 0.510715 0.240962
#
# Coordination Sequence:
#
# PCOD8017501 Si02
#       6
#     2   2   2   2   2   2
#     4  10  22  40  63  86 116 156 196 239 293 349
#     4  11  23  39  62  89 118 156 195 237 292 348
#     4  10  22  39  61  88 117 153 197 240 288 346
#     4  11  23  38  61  90 119 151 192 246 296 342
#     4  10  22  41  61  86 118 156 196 239 291 345
#     4  10  23  40  60  87 121 154 195 243 285 344
#
# _framework density 20.510988999999999
#
# number of rings (size 3 to 8) (size 9 to 14) (size 15 to 20)
#    0.000    1.667    0.000    3.500    0.000   12.000 
#    0.000    4.167    0.000    0.000    0.000    0.000 
#    0.000    0.000    0.000    0.000    0.000    0.000 
#
# Total GULP energy -148877.178413 kJ/mol
# GULP energy per Si atom -12406.431534 kJ/mol
# Density = 2.046430 g / cm^3
# Si number density = 20.510989 Si / 1000 Ang^3
#
#
#
# Elastic Constant Matrix: (Units=GPa)
#
#
# Indices 1 2 3 4 5 6 
#
# 1 125.2898 54.4724 43.0894 -9.5425 -19.2023 -6.6685
# 2 54.4724 91.8158 66.5190 -15.2610 -12.6478 6.1450
# 3 43.0894 66.5190 127.1847 -24.1303 -8.0565 0.6814
# 4 -9.5425 -15.2610 -24.1303 36.9640 2.2375 -7.4131
# 5 -19.2023 -12.6478 -8.0565 2.2375 34.8872 5.5778
# 6 -6.6685 6.1450 0.6814 -7.4131 5.5778 37.1480
#
#
#
# Elastic Compliance Matrix: (Units=1/GPa)
#
#
# Indices 1 2 3 4 5 6 
#
# 1 0.011516 -0.006170 -0.000368 0.000504 0.003559 0.002661
# 2 -0.006170 0.021995 -0.009117 0.000337 0.003250 -0.004999
# 3 -0.000368 -0.009117 0.013751 0.005683 -0.001094 0.002488
# 4 0.000504 0.000337 0.005683 0.032446 -0.001427 0.006620
# 5 0.003559 0.003250 -0.001094 -0.001427 0.032445 -0.005035
# 6 0.002661 -0.004999 0.002488 0.006620 -0.005035 0.030255
#
#
# Mechanical properties :
#
#
# Convention : Reuss Voigt Hill
#
# Bulk Modulus (GPa) = 62.68336 74.71689 68.70012
# Shear Modulus (GPa) = 27.92747 33.81380 30.87063
#
# Velocity S-wave (km/s) = 3.69397 4.06466 3.88374
# Velocity P-wave (km/s) = 6.98721 7.65085 7.32655
#
# Compressibility (1/GPa) = 0.01595320
#
# Stress axis : x y z
#
# Youngs Moduli (GPa) = 86.83660 45.46481 72.72215
#
# Poissons Ratio (x) = 0.28050 0.02676
# Poissons Ratio (y) = 0.53575 0.66299
# Poissons Ratio (z) = 0.03195 0.41449
#
# Static dielectric constant tensor:
#      x y z
#    x 3.877180 -0.050580 -0.003680 
#    y -0.050580 3.735270 0.046050 
#    z -0.003680 0.046050 3.667020 
# 
# 
# High freq. dielectric constant tensor:
#      x y z
#    x 1.814670 -0.001960 -0.002420 
#    y -0.001960 1.806680 0.003390 
#    z -0.002420 0.003390 1.806730 
# 
# From -- ./inp_files/18861.got.cif
#   From: 2010.06.25/outbox.cif.g09.slc.cpg/sg2_10_cif.got.tgz:18861.got - 2010.06.27 13:26:56.
