data_PCOD8017885
_publ_section_title
;
Structure prediction by ZEFSAII (Michael W. Deem and Ramdas Pophale) SiO2 
 PCOD8017885
Probable space group: P -1
;
_chemical_formula_sum "Si O2"
_cell_formula_units_Z 14
_cell_length_a 8.708046
_cell_length_b 11.373190
_cell_length_c 10.301373
_cell_angle_alpha 130.878625
_cell_angle_beta 112.158824
_cell_angle_gamma 59.835492
_cell_volume 665.111841
_symmetry_space_group_name_H-M "P -1"
_symmetry_group_IT_number 2
_symmetry_cell_setting 'triclinic'
loop_
_space_group_symop_operation_xyz
x,y,z
-x,-y,-z
loop_
_atom_site_type_symbol
_atom_site_label
_atom_site_fract_x
_atom_site_fract_y
_atom_site_fract_z
Si Si1 0.145679 0.629485 0.545071
Si Si2 0.551147 0.056060 0.799036
Si Si3 0.481232 0.657264 0.193412
Si Si4 0.834371 0.065798 0.091618
Si Si5 0.252425 0.304623 0.504537
Si Si6 0.812471 0.253742 0.626819
Si Si7 0.167340 0.080234 0.738920
O O1 0.209139 0.741483 0.745287
O O2 0.218639 0.439085 0.476205
O O3 0.220655 0.628123 0.423958
O O4 0.931757 0.713761 0.529981
O O5 0.593756 0.173505 0.791816
O O6 0.342816 0.126842 0.820610
O O7 0.606795 0.870451 0.625671
O O8 0.659922 0.053582 0.962046
O O9 0.671138 0.637617 0.301830
O O10 0.347058 0.656495 0.263044
O O11 0.500000 0.500000 0.000000
O O12 0.877748 0.952412 0.151922
O O13 0.000000 0.000000 0.000000
O O14 0.998920 0.233600 0.741378
O O15 0.804974 0.076819 0.457538
#
# Coordination Sequence:
#
# PCOD8017885 Si02
#       7
#     2   2   2   2   2   2   2
#     4  10  23  43  65  93 132 172 215 260 318 385
#     4  12  23  42  66  96 131 166 218 264 317 385
#     4  12  26  44  66  96 131 166 213 269 326 380
#     4  11  21  39  64  97 131 167 211 265 319 377
#     4  11  23  42  67  94 128 172 215 262 320 381
#     4  10  22  42  67  93 126 172 214 263 320 380
#     4  10  22  39  67  97 125 169 219 260 316 381
#
# _framework density 21.049092000000002
#
# number of rings (size 3 to 8) (size 9 to 14) (size 15 to 20)
#    0.000    1.143    2.857    3.429    4.000    0.571 
#    5.143    1.429    0.000    0.000    0.000    0.000 
#    0.000    0.000    0.000    0.000    0.000    0.000 
#
# Total GULP energy -173691.019257 kJ/mol
# GULP energy per Si atom -12406.501375 kJ/mol
# Density = 2.100118 g / cm^3
# Si number density = 21.049092 Si / 1000 Ang^3
#
#
#
# Elastic Constant Matrix: (Units=GPa)
#
#
# Indices 1 2 3 4 5 6 
#
# 1 92.2665 17.7008 55.0876 -3.7165 -2.9942 4.7377
# 2 17.7008 83.8419 38.8988 -0.8916 -5.1965 9.2106
# 3 55.0876 38.8988 133.4502 -14.0321 3.1997 0.5641
# 4 -3.7165 -0.8916 -14.0321 25.3415 -2.3517 6.8309
# 5 -2.9942 -5.1965 3.1997 -2.3517 46.1124 -14.1046
# 6 4.7377 9.2106 0.5641 6.8309 -14.1046 32.0976
#
#
#
# Elastic Compliance Matrix: (Units=1/GPa)
#
#
# Indices 1 2 3 4 5 6 
#
# 1 0.014557 -0.000037 -0.006092 -0.000758 0.000870 -0.001487
# 2 -0.000037 0.014335 -0.004255 -0.000839 0.000793 -0.003506
# 3 -0.006092 -0.004255 0.011842 0.005340 -0.001372 0.000173
# 4 -0.000758 -0.000839 0.005340 0.044810 -0.001232 -0.009819
# 5 0.000870 0.000793 -0.001372 -0.001232 0.025235 0.011019
# 6 -0.001487 -0.003506 0.000173 -0.009819 0.011019 0.039309
#
#
# Mechanical properties :
#
#
# Convention : Reuss Voigt Hill
#
# Bulk Modulus (GPa) = 50.09087 59.21479 54.65283
# Shear Modulus (GPa) = 28.16700 33.90174 31.03437
#
# Velocity S-wave (km/s) = 3.66205 4.01759 3.84393
# Velocity P-wave (km/s) = 6.45985 7.05083 6.76180
#
# Compressibility (1/GPa) = 0.01996372
#
# Stress axis : x y z
#
# Youngs Moduli (GPa) = 68.69614 69.76030 84.44247
#
# Poissons Ratio (x) = 0.00261 0.51446
# Poissons Ratio (y) = 0.00257 0.35933
# Poissons Ratio (z) = 0.41852 0.29685
#
# Static dielectric constant tensor:
#      x y z
#    x 3.881950 -0.005840 0.181470 
#    y -0.005840 3.758100 -0.257940 
#    z 0.181470 -0.257940 3.847110 
# 
# 
# High freq. dielectric constant tensor:
#      x y z
#    x 1.835550 0.001420 0.006940 
#    y 0.001420 1.823530 -0.019420 
#    z 0.006940 -0.019420 1.825090 
# 
# From -- ./inp_files/151578.got.cif
#   From: 2010.06.25/outbox.cif.g09.slc.cpg/sg2_76_cif.got.tgz:151578.got - 2010.06.27 13:26:56.
