data_PCOD8017113
_publ_section_title
;
Structure prediction by ZEFSAII (Michael W. Deem and Ramdas Pophale) SiO2 
 PCOD8017113
Probable space group: P -1
;
_chemical_formula_sum "Si O2"
_cell_formula_units_Z 14
_cell_length_a 13.488159
_cell_length_b 13.946223
_cell_length_c 8.467078
_cell_angle_alpha 59.803550
_cell_angle_beta 78.835518
_cell_angle_gamma 30.958681
_cell_volume 598.470042
_symmetry_space_group_name_H-M "P -1"
_symmetry_group_IT_number 2
_symmetry_cell_setting 'triclinic'
loop_
_space_group_symop_operation_xyz
x,y,z
-x,-y,-z
loop_
_atom_site_type_symbol
_atom_site_label
_atom_site_fract_x
_atom_site_fract_y
_atom_site_fract_z
Si Si1 0.018988 0.637164 0.376256
Si Si2 0.362667 0.137380 0.765779
Si Si3 0.730616 0.656632 0.861171
Si Si4 0.155733 0.968944 0.837700
Si Si5 0.673557 0.366067 0.690699
Si Si6 0.092563 0.284170 0.302169
Si Si7 0.529084 0.244221 0.358597
O O1 0.878714 0.686381 0.273715
O O2 0.935217 0.731714 0.502375
O O3 0.287461 0.333786 0.557754
O O4 0.947117 0.830813 0.183283
O O5 0.489124 0.943601 0.753032
O O6 0.500000 0.000000 0.000000
O O7 0.881947 0.608014 0.788353
O O8 0.685400 0.607249 0.784806
O O9 0.870038 0.466645 0.120416
O O10 0.314924 0.842114 0.743913
O O11 0.315068 0.737762 0.091156
O O12 0.922387 0.134900 0.722033
O O13 0.500000 0.500000 0.500000
O O14 0.580641 0.570650 0.628626
O O15 0.315251 0.002492 0.396894
#
# Coordination Sequence:
#
# PCOD8017113 Si02
#       7
#     2   2   2   2   2   2   2
#     4  10  22  38  61  92 129 172 216 262 317 389
#     4  11  21  35  60  93 131 174 211 256 314 385
#     4  11  22  39  60  95 138 172 216 257 323 385
#     4  10  24  47  68  98 129 166 226 274 332 404
#     4  11  27  47  72  99 125 167 225 286 345 389
#     4  10  22  38  59  97 131 173 218 256 308 398
#     4  11  24  45  71  94 135 179 212 276 335 387
#
# _framework density 23.392983000000001
#
# number of rings (size 3 to 8) (size 9 to 14) (size 15 to 20)
#    0.000    1.429    4.286    0.857    2.000    7.429 
#    0.000    0.000    0.000    0.000    0.000    0.000 
#    0.000    0.000    0.000    0.000    0.000    0.000 
#
# Total GULP energy -173478.320355 kJ/mol
# GULP energy per Si atom -12391.308597 kJ/mol
# Density = 2.333974 g / cm^3
# Si number density = 23.392983 Si / 1000 Ang^3
#
#
#
# Elastic Constant Matrix: (Units=GPa)
#
#
# Indices 1 2 3 4 5 6 
#
# 1 98.5713 20.5026 49.3162 -8.3797 24.3524 18.8634
# 2 20.5026 83.0684 24.3828 -16.7881 14.9299 20.2836
# 3 49.3162 24.3828 116.4124 -27.4927 26.6211 16.9256
# 4 -8.3797 -16.7881 -27.4927 32.1152 0.7296 -0.9492
# 5 24.3524 14.9299 26.6211 0.7296 40.8089 -5.5087
# 6 18.8634 20.2836 16.9256 -0.9492 -5.5087 38.6763
#
#
#
# Elastic Compliance Matrix: (Units=1/GPa)
#
#
# Indices 1 2 3 4 5 6 
#
# 1 0.015248 0.000888 -0.003231 0.001641 -0.008377 -0.007642
# 2 0.000888 0.018618 0.003162 0.012548 -0.011369 -0.012893
# 3 -0.003231 0.003162 0.016827 0.015221 -0.011656 -0.008733
# 4 0.001641 0.012548 0.015221 0.051120 -0.018495 -0.015422
# 5 -0.008377 -0.011369 -0.011656 -0.018495 0.044435 0.021024
# 6 -0.007642 -0.012893 -0.008733 -0.015422 0.021024 0.042782
#
#
# Mechanical properties :
#
#
# Convention : Reuss Voigt Hill
#
# Bulk Modulus (GPa) = 19.10923 54.05061 36.57992
# Shear Modulus (GPa) = 24.40967 35.91011 30.15989
#
# Velocity S-wave (km/s) = 3.23377 3.92226 3.59454
# Velocity P-wave (km/s) = 4.70420 6.60816 5.73574
#
# Compressibility (1/GPa) = 0.05233074
#
# Stress axis : x y z
#
# Youngs Moduli (GPa) = 65.58060 53.71028 59.42935
#
# Poissons Ratio (x) = -0.04770 0.19205
# Poissons Ratio (y) = -0.05825 -0.18791
# Poissons Ratio (z) = 0.21192 -0.16983
#
# Static dielectric constant tensor:
#      x y z
#    x 4.233340 -0.097320 -0.143830 
#    y -0.097320 4.281320 -0.304650 
#    z -0.143830 -0.304650 4.334660 
# 
# 
# High freq. dielectric constant tensor:
#      x y z
#    x 1.912340 -0.008050 -0.003130 
#    y -0.008050 1.939200 -0.020560 
#    z -0.003130 -0.020560 1.933020 
# 
# From -- ./inp_files/312689.got.cif
#   From: 2010.06.25/outbox.cif.g09.slc.cpg/sg2_157_cif.got.tgz:312689.got - 2010.06.27 13:26:56.
