data_PCOD8017367
_publ_section_title
;
Structure prediction by ZEFSAII (Michael W. Deem and Ramdas Pophale) SiO2 
 PCOD8017367
Probable space group: P -1
;
_chemical_formula_sum "Si O2"
_cell_formula_units_Z 16
_cell_length_a 11.116523
_cell_length_b 5.149920
_cell_length_c 15.237720
_cell_angle_alpha 103.412578
_cell_angle_beta 92.818533
_cell_angle_gamma 122.200100
_cell_volume 702.042353
_symmetry_space_group_name_H-M "P -1"
_symmetry_group_IT_number 2
_symmetry_cell_setting 'triclinic'
loop_
_space_group_symop_operation_xyz
x,y,z
-x,-y,-z
loop_
_atom_site_type_symbol
_atom_site_label
_atom_site_fract_x
_atom_site_fract_y
_atom_site_fract_z
Si Si1 0.195734 0.813354 0.460961
Si Si2 0.355206 0.351918 0.041424
Si Si3 0.563228 0.807729 0.642047
Si Si4 0.964635 0.644509 0.734906
Si Si5 0.655132 0.472346 0.754388
Si Si6 0.763763 0.582921 0.425271
Si Si7 0.327378 0.763843 0.959754
Si Si8 0.854759 0.610740 0.234468
O O1 0.218173 0.649707 0.531144
O O2 0.070534 0.528222 0.374663
O O3 0.343274 0.028382 0.428688
O O4 0.144070 0.043672 0.509504
O O5 0.392730 0.444399 0.151385
O O6 0.500000 0.500000 0.000000
O O7 0.262181 0.478740 0.007086
O O8 0.258552 0.965931 0.995739
O O9 0.633689 0.656618 0.689489
O O10 0.402411 0.521997 0.587134
O O11 0.556125 0.084657 0.712978
O O12 0.029484 0.485002 0.784029
O O13 0.822364 0.586727 0.771692
O O14 0.080716 0.022811 0.758568
O O15 0.804856 0.542832 0.327068
O O16 0.286132 0.616374 0.849185
O O17 0.500000 0.000000 0.000000
#
# Coordination Sequence:
#
# PCOD8017367 Si02
#       8
#     2   2   2   2   2   2   2   2
#     4  11  23  44  64  96 136 182 216 274 329 377
#     4  10  22  38  68  97 130 160 213 273 330 396
#     4  11  23  40  68  98 138 168 221 278 329 399
#     4  11  25  46  65  90 140 181 226 259 312 404
#     4  11  23  42  69  98 129 184 216 261 340 388
#     4  12  25  38  68 101 135 170 229 278 327 380
#     4  10  23  43  65  97 134 163 203 283 339 386
#     4  12  26  43  67  99 132 177 223 273 319 388
#
# _framework density 22.790648999999998
#
# number of rings (size 3 to 8) (size 9 to 14) (size 15 to 20)
#    0.000    1.000    0.000    7.500    7.000    3.000 
#    0.000    3.750    0.000    0.000    0.000    0.000 
#    0.000    0.000    0.000    0.000    0.000    0.000 
#
# Total GULP energy -198381.513918 kJ/mol
# GULP energy per Si atom -12398.844620 kJ/mol
# Density = 2.273878 g / cm^3
# Si number density = 22.790649 Si / 1000 Ang^3
#
#
#
# Elastic Constant Matrix: (Units=GPa)
#
#
# Indices 1 2 3 4 5 6 
#
# 1 62.5111 50.6718 22.7972 14.5117 7.0069 -26.5504
# 2 50.6718 108.3401 45.4098 12.0280 -8.3882 -42.2698
# 3 22.7972 45.4098 129.2088 17.3966 -6.8326 -10.3197
# 4 14.5117 12.0280 17.3966 36.4766 -6.9731 1.0094
# 5 7.0069 -8.3882 -6.8326 -6.9731 24.3704 8.1438
# 6 -26.5504 -42.2698 -10.3197 1.0094 8.1438 47.5274
#
#
#
# Elastic Compliance Matrix: (Units=1/GPa)
#
#
# Indices 1 2 3 4 5 6 
#
# 1 0.039791 -0.012277 -0.000520 -0.016950 -0.026014 0.016015
# 2 -0.012277 0.020904 -0.004192 0.000984 0.006599 0.009672
# 3 -0.000520 -0.004192 0.009564 -0.002659 0.001334 -0.002114
# 4 -0.016950 0.000984 -0.002659 0.039341 0.020225 -0.013472
# 5 -0.026014 0.006599 0.001334 0.020225 0.063524 -0.019688
# 6 0.016015 0.009672 -0.002114 -0.013472 -0.019688 0.041789
#
#
# Mechanical properties :
#
#
# Convention : Reuss Voigt Hill
#
# Bulk Modulus (GPa) = 27.56206 59.75751 43.65979
# Shear Modulus (GPa) = 19.15816 33.75363 26.45590
#
# Velocity S-wave (km/s) = 2.90248 3.85259 3.41078
# Velocity P-wave (km/s) = 4.83243 6.78727 5.89149
#
# Compressibility (1/GPa) = 0.03628175
#
# Stress axis : x y z
#
# Youngs Moduli (GPa) = 25.13123 47.83715 104.55856
#
# Poissons Ratio (x) = 0.58728 0.05442
# Poissons Ratio (y) = 0.30853 0.43828
# Poissons Ratio (z) = 0.01308 0.20052
#
# Static dielectric constant tensor:
#      x y z
#    x 3.332890 0.714540 0.060760 
#    y 0.714540 2.861490 0.095310 
#    z 0.060760 0.095310 4.115890 
# 
# 
# High freq. dielectric constant tensor:
#      x y z
#    x 1.895660 -0.031260 -0.003000 
#    y -0.031260 1.912560 0.008660 
#    z -0.003000 0.008660 1.901690 
# 
# From -- ./inp_files/511166.got.cif
#   From: 2010.06.25/outbox.cif.g09.slc.cpg/sg2_256_cif.got.tgz:511166.got - 2010.06.27 13:26:56.
