data_PCOD8017985
_publ_section_title
;
Structure prediction by ZEFSAII (Michael W. Deem and Ramdas Pophale) SiO2 
 PCOD8017985
Probable space group: P -1
;
_chemical_formula_sum "Si O2"
_cell_formula_units_Z 16
_cell_length_a 6.905363
_cell_length_b 10.916081
_cell_length_c 12.593897
_cell_angle_alpha 80.110955
_cell_angle_beta 50.739407
_cell_angle_gamma 84.895599
_cell_volume 723.873713
_symmetry_space_group_name_H-M "P -1"
_symmetry_group_IT_number 2
_symmetry_cell_setting 'triclinic'
loop_
_space_group_symop_operation_xyz
x,y,z
-x,-y,-z
loop_
_atom_site_type_symbol
_atom_site_label
_atom_site_fract_x
_atom_site_fract_y
_atom_site_fract_z
Si Si1 0.229962 0.830160 0.649308
Si Si2 0.246694 0.551972 0.206928
Si Si3 0.762709 0.247387 0.669694
Si Si4 0.754855 0.440076 0.039442
Si Si5 0.116909 0.824662 0.920186
Si Si6 0.220744 0.096732 0.575083
Si Si7 0.297320 0.094257 0.800073
Si Si8 0.259449 0.581417 0.540039
O O1 0.058723 0.812018 0.816292
O O2 0.514667 0.870237 0.576957
O O3 0.227299 0.702952 0.605535
O O4 0.136180 0.952529 0.599848
O O5 0.269789 0.698728 0.207559
O O6 0.500626 0.490727 0.170673
O O7 0.994229 0.499782 0.357351
O O8 0.220416 0.525636 0.096607
O O9 0.579668 0.133998 0.720267
O O10 0.711046 0.367311 0.596570
O O11 0.036018 0.192151 0.571143
O O12 0.723783 0.292432 0.084796
O O13 0.000000 0.500000 0.000000
O O14 0.271302 0.952133 0.868544
O O15 0.869264 0.820347 0.078732
O O16 0.229830 0.115359 0.697278
O O17 0.500000 0.500000 0.500000
#
# Coordination Sequence:
#
# PCOD8017985 Si02
#       8
#     2   2   2   2   2   2   2   2
#     4  10  22  43  67  99 133 175 220 285 335 397
#     4  11  27  42  64 103 129 179 238 267 342 409
#     4  12  25  42  71  94 136 181 224 279 343 407
#     4  11  24  45  70  94 138 181 218 289 338 402
#     4  10  22  39  73  94 135 172 225 277 340 406
#     4  10  22  43  69  96 134 171 226 277 339 409
#     4  10  22  45  65 103 129 179 217 280 351 397
#     4  12  27  43  67  99 139 183 230 283 338 407
#
# _framework density 22.103301999999999
#
# number of rings (size 3 to 8) (size 9 to 14) (size 15 to 20)
#    0.000    1.250    1.250    3.375    7.000    2.500 
#    0.000   10.000    0.000    0.000    0.000    0.000 
#    0.000    0.000    0.000    0.000    0.000    0.000 
#
# Total GULP energy -198333.277586 kJ/mol
# GULP energy per Si atom -12395.829849 kJ/mol
# Density = 2.205299 g / cm^3
# Si number density = 22.103302 Si / 1000 Ang^3
#
#
#
# Elastic Constant Matrix: (Units=GPa)
#
#
# Indices 1 2 3 4 5 6 
#
# 1 110.3498 48.8612 26.5533 -0.9389 -17.7377 -12.6518
# 2 48.8612 126.8388 9.4961 10.6791 -2.3014 -10.4442
# 3 26.5533 9.4961 79.6681 6.2389 -5.2225 -4.0577
# 4 -0.9389 10.6791 6.2389 37.3775 4.4578 -0.8629
# 5 -17.7377 -2.3014 -5.2225 4.4578 24.4416 5.7808
# 6 -12.6518 -10.4442 -4.0577 -0.8629 5.7808 43.9166
#
#
#
# Elastic Compliance Matrix: (Units=1/GPa)
#
#
# Indices 1 2 3 4 5 6 
#
# 1 0.013464 -0.004784 -0.003427 0.001354 0.008011 0.001397
# 2 -0.004784 0.009985 0.000541 -0.002770 -0.002214 0.001284
# 3 -0.003427 0.000541 0.013915 -0.002673 0.000966 0.000247
# 4 0.001354 -0.002770 -0.002673 0.028669 -0.005253 0.000739
# 5 0.008011 -0.002214 0.000966 -0.005253 0.048785 -0.004654
# 6 0.001397 0.001284 0.000247 0.000739 -0.004654 0.024128
#
#
# Mechanical properties :
#
#
# Convention : Reuss Voigt Hill
#
# Bulk Modulus (GPa) = 45.40242 54.07533 49.73888
# Shear Modulus (GPa) = 30.93541 36.61022 33.77282
#
# Velocity S-wave (km/s) = 3.74516 4.07421 3.91315
# Velocity P-wave (km/s) = 6.26795 6.83009 6.55505
#
# Compressibility (1/GPa) = 0.02202526
#
# Stress axis : x y z
#
# Youngs Moduli (GPa) = 74.27012 100.14995 71.86462
#
# Poissons Ratio (x) = 0.47910 0.24629
# Poissons Ratio (y) = 0.35529 -0.03891
# Poissons Ratio (z) = 0.25453 -0.05422
#
# Static dielectric constant tensor:
#      x y z
#    x 3.808300 -0.057510 -0.018320 
#    y -0.057510 4.279770 0.116720 
#    z -0.018320 0.116720 4.150140 
# 
# 
# High freq. dielectric constant tensor:
#      x y z
#    x 1.849380 0.002020 -0.001610 
#    y 0.002020 1.892890 0.012570 
#    z -0.001610 0.012570 1.876740 
# 
# From -- ./inp_files/97852.got.cif
#   From: 2010.06.25/outbox.cif.g09.slc.cpg/sg2_49_cif.got.tgz:97852.got - 2010.06.27 13:26:56.
