data_PCOD8017103
_publ_section_title
;
Structure prediction by ZEFSAII (Michael W. Deem and Ramdas Pophale) SiO2 
 PCOD8017103
Probable space group: P -1
;
_chemical_formula_sum "Si O2"
_cell_formula_units_Z 16
_cell_length_a 11.528096
_cell_length_b 11.776059
_cell_length_c 11.505205
_cell_angle_alpha 73.899446
_cell_angle_beta 43.601421
_cell_angle_gamma 105.792025
_cell_volume 724.759625
_symmetry_space_group_name_H-M "P -1"
_symmetry_group_IT_number 2
_symmetry_cell_setting 'triclinic'
loop_
_space_group_symop_operation_xyz
x,y,z
-x,-y,-z
loop_
_atom_site_type_symbol
_atom_site_label
_atom_site_fract_x
_atom_site_fract_y
_atom_site_fract_z
Si Si1 0.426037 0.998402 0.427926
Si Si2 0.523826 0.528413 0.155788
Si Si3 0.122538 0.496579 0.520915
Si Si4 0.052593 0.339475 0.063538
Si Si5 0.549422 0.133733 0.769514
Si Si6 0.148999 0.639429 0.015142
Si Si7 0.313822 0.240503 0.235802
Si Si8 0.216034 0.966532 0.267464
O O1 0.500000 0.000000 0.500000
O O2 0.526358 0.951283 0.277693
O O3 0.559781 0.191786 0.251795
O O4 0.134631 0.845369 0.684031
O O5 0.256558 0.443437 0.399328
O O6 0.684485 0.589816 0.137879
O O7 0.508438 0.393201 0.139443
O O8 0.669941 0.689133 0.921008
O O9 0.327223 0.677430 0.382436
O O10 0.000000 0.500000 0.500000
O O11 0.923267 0.366289 0.798473
O O12 0.983804 0.333063 0.982418
O O13 0.063471 0.466017 0.093653
O O14 0.746718 0.146858 0.681978
O O15 0.312586 0.025640 0.050003
O O16 0.057552 0.132898 0.510441
O O17 0.357690 0.123405 0.211733
#
# Coordination Sequence:
#
# PCOD8017103 Si02
#       8
#     2   2   2   2   2   2   2   2
#     4  10  22  41  69  95 124 169 225 275 321 386
#     4  11  24  39  63  93 133 175 214 275 335 387
#     4  12  26  42  64  98 136 175 216 272 336 398
#     4  10  22  45  67  97 127 173 227 277 324 394
#     4  11  22  38  62  93 129 169 219 273 320 392
#     4  10  24  42  71  94 130 176 223 272 331 392
#     4  10  22  39  57  93 131 170 213 269 336 395
#     4  10  22  38  59  90 131 169 215 268 328 394
#
# _framework density 22.076284000000001
#
# number of rings (size 3 to 8) (size 9 to 14) (size 15 to 20)
#    0.000    1.500    2.500    1.500   10.500    0.500 
#    0.000    0.000    0.000    1.500    0.000    0.000 
#    0.000    0.000    0.000    0.000    0.000    0.000 
#
# Total GULP energy -198313.023702 kJ/mol
# GULP energy per Si atom -12394.563981 kJ/mol
# Density = 2.202604 g / cm^3
# Si number density = 22.076284 Si / 1000 Ang^3
#
#
#
# Elastic Constant Matrix: (Units=GPa)
#
#
# Indices 1 2 3 4 5 6 
#
# 1 85.7351 4.1919 45.3484 7.1899 -6.1019 14.9014
# 2 4.1919 76.7280 19.9091 -4.5203 4.2383 8.1122
# 3 45.3484 19.9091 112.7942 8.5682 15.8883 6.7803
# 4 7.1899 -4.5203 8.5682 42.7176 0.4695 3.2750
# 5 -6.1019 4.2383 15.8883 0.4695 26.1879 4.1683
# 6 14.9014 8.1122 6.7803 3.2750 4.1683 29.3504
#
#
#
# Elastic Compliance Matrix: (Units=1/GPa)
#
#
# Indices 1 2 3 4 5 6 
#
# 1 0.018638 0.001591 -0.008693 -0.000626 0.010862 -0.009367
# 2 0.001591 0.014324 -0.003161 0.002210 0.000627 -0.004372
# 3 -0.008693 -0.003161 0.014360 -0.001918 -0.010783 0.003716
# 4 -0.000626 0.002210 -0.001918 0.024330 0.000647 -0.002657
# 5 0.010862 0.000627 -0.010783 0.000647 0.048768 -0.010195
# 6 -0.009367 -0.004372 0.003716 -0.002657 -0.010195 0.040921
#
#
# Mechanical properties :
#
#
# Convention : Reuss Voigt Hill
#
# Bulk Modulus (GPa) = 37.32093 46.01733 41.66913
# Shear Modulus (GPa) = 26.20527 33.37170 29.78849
#
# Velocity S-wave (km/s) = 3.44907 3.89222 3.67733
# Velocity P-wave (km/s) = 5.72744 6.41008 6.07835
#
# Compressibility (1/GPa) = 0.02679462
#
# Stress axis : x y z
#
# Youngs Moduli (GPa) = 53.65409 69.81145 69.63694
#
# Poissons Ratio (x) = -0.11107 0.60539
# Poissons Ratio (y) = -0.08536 0.22015
# Poissons Ratio (z) = 0.46644 0.22070
#
# Static dielectric constant tensor:
#      x y z
#    x 3.728830 0.088160 0.134840 
#    y 0.088160 4.470040 -0.326490 
#    z 0.134840 -0.326490 4.263070 
# 
# 
# High freq. dielectric constant tensor:
#      x y z
#    x 1.849460 0.014600 0.006480 
#    y 0.014600 1.873490 -0.018580 
#    z 0.006480 -0.018580 1.873670 
# 
# From -- ./inp_files/427974.got.cif
#   From: 2010.06.25/outbox.cif.g09.slc.cpg/sg2_214_cif.got.tgz:427974.got - 2010.06.27 13:26:56.
