data_PCOD8017801
_publ_section_title
;
Structure prediction by ZEFSAII (Michael W. Deem and Ramdas Pophale) SiO2 
 PCOD8017801
Probable space group: P -1
;
_chemical_formula_sum "Si O2"
_cell_formula_units_Z 14
_cell_length_a 8.964109
_cell_length_b 17.593128
_cell_length_c 11.280813
_cell_angle_alpha 48.984596
_cell_angle_beta 45.329422
_cell_angle_gamma 29.481227
_cell_volume 617.652620
_symmetry_space_group_name_H-M "P -1"
_symmetry_group_IT_number 2
_symmetry_cell_setting 'triclinic'
loop_
_space_group_symop_operation_xyz
x,y,z
-x,-y,-z
loop_
_atom_site_type_symbol
_atom_site_label
_atom_site_fract_x
_atom_site_fract_y
_atom_site_fract_z
Si Si1 0.276625 0.334702 0.954704
Si Si2 0.274990 0.119008 0.109411
Si Si3 0.698520 0.139611 0.142459
Si Si4 0.558088 0.590127 0.421890
Si Si5 0.783251 0.701684 0.532947
Si Si6 0.171253 0.100278 0.801668
Si Si7 0.760854 0.181403 0.430903
O O1 0.467977 0.333418 0.758216
O O2 0.172329 0.273945 0.000433
O O3 0.487380 0.219228 0.061846
O O4 0.000000 0.500000 0.000000
O O5 0.935254 0.183992 0.230020
O O6 0.464572 0.024357 0.223039
O O7 0.500000 0.000000 0.000000
O O8 0.492614 0.202482 0.311008
O O9 0.885380 0.964563 0.201475
O O10 0.934694 0.152276 0.991722
O O11 0.500000 0.500000 0.500000
O O12 0.276273 0.734826 0.517491
O O13 0.906009 0.471937 0.414584
O O14 0.910914 0.764548 0.355452
O O15 0.605615 0.714529 0.507583
O O16 0.000000 0.000000 0.500000
#
# Coordination Sequence:
#
# PCOD8017801 Si02
#       7
#     2   2   2   2   2   2   2
#     4  11  22  43  68  96 137 184 233 289 350 419
#     4  11  23  43  68  98 137 185 236 285 349 424
#     4  10  22  41  66 104 138 186 240 292 354 425
#     4  12  27  46  74 105 144 188 238 297 358 432
#     4  12  24  44  72 103 147 179 243 296 364 414
#     4  10  22  39  66 101 139 182 238 293 350 421
#     4  12  26  46  71 106 142 189 237 291 363 424
#
# _framework density 22.666461999999999
#
# number of rings (size 3 to 8) (size 9 to 14) (size 15 to 20)
#    0.000    0.857    2.857    4.286    2.000    3.429 
#    0.000    0.714    0.000    0.000    0.000    0.000 
#    0.000    0.000    0.000    0.000    0.000    0.000 
#
# Total GULP energy -173477.939697 kJ/mol
# GULP energy per Si atom -12391.281407 kJ/mol
# Density = 2.261487 g / cm^3
# Si number density = 22.666462 Si / 1000 Ang^3
#
#
#
# Elastic Constant Matrix: (Units=GPa)
#
#
# Indices 1 2 3 4 5 6 
#
# 1 82.5395 39.7438 33.5707 -0.4617 -10.2119 19.5221
# 2 39.7438 85.9399 20.6645 11.1550 -1.8296 38.6337
# 3 33.5707 20.6645 152.4371 1.6986 -10.5765 33.6103
# 4 -0.4617 11.1550 1.6986 41.4418 4.5681 2.1010
# 5 -10.2119 -1.8296 -10.5765 4.5681 41.7003 4.1334
# 6 19.5221 38.6337 33.6103 2.1010 4.1334 46.6810
#
#
#
# Elastic Compliance Matrix: (Units=1/GPa)
#
#
# Indices 1 2 3 4 5 6 
#
# 1 0.017189 -0.007968 -0.002764 0.002085 0.002826 0.001052
# 2 -0.007968 0.023625 0.002775 -0.005888 0.002233 -0.018151
# 3 -0.002764 0.002775 0.008639 -0.001025 0.002495 -0.007535
# 4 0.002085 -0.005888 -0.001025 0.025941 -0.003232 0.003857
# 5 0.002826 0.002233 0.002495 -0.003232 0.026454 -0.007023
# 6 0.001052 -0.018151 -0.007535 0.003857 -0.007023 0.041877
#
#
# Mechanical properties :
#
#
# Convention : Reuss Voigt Hill
#
# Bulk Modulus (GPa) = 29.81799 56.54160 43.17980
# Shear Modulus (GPa) = 29.27090 41.09379 35.18234
#
# Velocity S-wave (km/s) = 3.59747 4.26253 3.94404
# Velocity P-wave (km/s) = 5.51719 7.01603 6.31126
#
# Compressibility (1/GPa) = 0.03353680
#
# Stress axis : x y z
#
# Youngs Moduli (GPa) = 58.17730 42.32819 115.75961
#
# Poissons Ratio (x) = 0.33727 0.32001
# Poissons Ratio (y) = 0.46355 -0.32119
# Poissons Ratio (z) = 0.16083 -0.11744
#
# Static dielectric constant tensor:
#      x y z
#    x 5.322580 0.838690 -1.117410 
#    y 0.838690 4.422880 -0.731720 
#    z -1.117410 -0.731720 4.996310 
# 
# 
# High freq. dielectric constant tensor:
#      x y z
#    x 1.893930 0.004850 -0.005760 
#    y 0.004850 1.890480 -0.000610 
#    z -0.005760 -0.000610 1.907490 
# 
# From -- ./inp_files/157903.got.cif
#   From: 2010.06.25/outbox.cif.g09.slc.cpg/sg2_79_cif.got.tgz:157903.got - 2010.06.27 13:26:56.
