data_PCOD8017710
_publ_section_title
;
Structure prediction by ZEFSAII (Michael W. Deem and Ramdas Pophale) SiO2 
 PCOD8017710
Probable space group: P -1
;
_chemical_formula_sum "Si O2"
_cell_formula_units_Z 16
_cell_length_a 15.061102
_cell_length_b 8.812050
_cell_length_c 8.749909
_cell_angle_alpha 104.899221
_cell_angle_beta 42.733286
_cell_angle_gamma 116.408803
_cell_volume 701.153566
_symmetry_space_group_name_H-M "P -1"
_symmetry_group_IT_number 2
_symmetry_cell_setting 'triclinic'
loop_
_space_group_symop_operation_xyz
x,y,z
-x,-y,-z
loop_
_atom_site_type_symbol
_atom_site_label
_atom_site_fract_x
_atom_site_fract_y
_atom_site_fract_z
Si Si1 0.518496 0.607187 0.854196
Si Si2 0.969844 0.833556 0.344154
Si Si3 0.348061 0.447931 0.756201
Si Si4 0.237985 0.485685 0.611264
Si Si5 0.721966 0.154087 0.477724
Si Si6 0.574211 0.923062 0.059739
Si Si7 0.156757 0.905631 0.395159
Si Si8 0.246778 0.075215 0.888617
O O1 0.375423 0.535018 0.911408
O O2 0.651083 0.598244 0.593637
O O3 0.500000 0.500000 0.000000
O O4 0.540052 0.794792 0.927126
O O5 0.917025 0.657091 0.270922
O O6 0.019076 0.793090 0.438962
O O7 0.844599 0.903757 0.541347
O O8 0.096428 0.985931 0.138975
O O9 0.500000 0.500000 0.500000
O O10 0.253010 0.517197 0.784334
O O11 0.259008 0.244160 0.826887
O O12 0.266909 0.657693 0.527664
O O13 0.566275 0.042307 0.715492
O O14 0.841881 0.170170 0.457419
O O15 0.740774 0.062149 0.279425
O O16 0.623093 0.861486 0.138915
O O17 0.705021 0.088613 0.874476
#
# Coordination Sequence:
#
# PCOD8017710 Si02
#       8
#     2   2   2   2   2   2   2   2
#     4  11  19  38  66  96 125 164 216 260 313 378
#     4  10  23  45  69  87 125 175 222 258 301 389
#     4  10  22  39  64  94 126 166 212 259 314 379
#     4  11  23  41  63  93 131 171 210 262 315 379
#     4  12  25  40  62  97 137 164 206 271 330 372
#     4  11  21  41  66  97 128 163 209 269 326 374
#     4  10  23  42  67  96 122 168 219 265 317 375
#     4  11  24  42  65  94 130 169 213 258 318 383
#
# _framework density 22.819538000000001
#
# number of rings (size 3 to 8) (size 9 to 14) (size 15 to 20)
#    0.000    1.250    3.750    2.250    1.750    3.000 
#    4.500    0.000    0.000    0.000    0.000    0.000 
#    0.000    0.000    0.000    0.000    0.000    0.000 
#
# Total GULP energy -198325.455869 kJ/mol
# GULP energy per Si atom -12395.340992 kJ/mol
# Density = 2.276760 g / cm^3
# Si number density = 22.819538 Si / 1000 Ang^3
#
#
#
# Elastic Constant Matrix: (Units=GPa)
#
#
# Indices 1 2 3 4 5 6 
#
# 1 194.0377 52.7355 27.8170 -0.1727 26.7991 9.2392
# 2 52.7355 57.8670 14.1687 -8.5568 7.5298 16.3316
# 3 27.8170 14.1687 72.2449 0.4458 5.4889 6.5527
# 4 -0.1727 -8.5568 0.4458 28.1376 4.2722 3.1935
# 5 26.7991 7.5298 5.4889 4.2722 31.4721 1.7155
# 6 9.2392 16.3316 6.5527 3.1935 1.7155 31.7261
#
#
#
# Elastic Compliance Matrix: (Units=1/GPa)
#
#
# Indices 1 2 3 4 5 6 
#
# 1 0.007789 -0.006941 -0.001460 -0.001568 -0.004614 0.002013
# 2 -0.006941 0.029818 -0.001854 0.010884 -0.001617 -0.013953
# 3 -0.001460 -0.001854 0.014976 -0.000510 -0.000767 -0.001621
# 4 -0.001568 0.010884 -0.000510 0.040795 -0.006238 -0.008810
# 5 -0.004614 -0.001617 -0.000767 -0.006238 0.037019 0.000961
# 6 0.002013 -0.013953 -0.001621 -0.008810 0.000961 0.039286
#
#
# Mechanical properties :
#
#
# Convention : Reuss Voigt Hill
#
# Bulk Modulus (GPa) = 31.17869 57.06577 44.12223
# Shear Modulus (GPa) = 24.88993 33.56239 29.22616
#
# Velocity S-wave (km/s) = 3.30620 3.83923 3.58264
# Velocity P-wave (km/s) = 5.31671 6.68690 6.04078
#
# Compressibility (1/GPa) = 0.03207319
#
# Stress axis : x y z
#
# Youngs Moduli (GPa) = 128.37992 33.53666 66.77278
#
# Poissons Ratio (x) = 0.23277 0.09751
# Poissons Ratio (y) = 0.89104 0.12381
# Poissons Ratio (z) = 0.18748 0.06218
#
# Static dielectric constant tensor:
#      x y z
#    x 4.247580 -0.397760 -0.066230 
#    y -0.397760 2.917450 -0.451300 
#    z -0.066230 -0.451300 3.804330 
# 
# 
# High freq. dielectric constant tensor:
#      x y z
#    x 1.925180 0.011840 0.017060 
#    y 0.011840 1.874600 -0.005850 
#    z 0.017060 -0.005850 1.886920 
# 
# From -- ./inp_files/207936.got.cif
#   From: 2010.06.25/outbox.cif.g09.slc.cpg/sg2_104_cif.got.tgz:207936.got - 2010.06.27 13:26:56.
