data_PCOD8017383
_publ_section_title
;
Structure prediction by ZEFSAII (Michael W. Deem and Ramdas Pophale) SiO2 
 PCOD8017383
Probable space group: P -1
;
_chemical_formula_sum "Si O2"
_cell_formula_units_Z 12
_cell_length_a 17.449263
_cell_length_b 9.098615
_cell_length_c 12.282126
_cell_angle_alpha 129.808336
_cell_angle_beta 158.236070
_cell_angle_gamma 51.870765
_cell_volume 553.621231
_symmetry_space_group_name_H-M "P -1"
_symmetry_group_IT_number 2
_symmetry_cell_setting 'triclinic'
loop_
_space_group_symop_operation_xyz
x,y,z
-x,-y,-z
loop_
_atom_site_type_symbol
_atom_site_label
_atom_site_fract_x
_atom_site_fract_y
_atom_site_fract_z
Si Si1 0.736578 0.182026 0.898341
Si Si2 0.171132 0.211016 0.061419
Si Si3 0.434355 0.430086 0.763909
Si Si4 0.860949 0.852429 0.682151
Si Si5 0.456025 0.820941 0.591200
Si Si6 0.730733 0.370371 0.550027
O O1 0.623495 0.291793 0.900672
O O2 0.624544 0.238864 0.663162
O O3 0.738599 0.951840 0.811711
O O4 0.977799 0.236382 0.238692
O O5 0.294992 0.175597 0.093092
O O6 0.201988 0.415519 0.250110
O O7 0.923449 0.208181 0.716566
O O8 0.221856 0.320538 0.439366
O O9 0.396138 0.619048 0.725979
O O10 0.500000 0.500000 0.000000
O O11 0.656865 0.974329 0.423353
O O12 0.000000 0.000000 0.000000
O O13 0.412045 0.667368 0.552615
#
# Coordination Sequence:
#
# PCOD8017383 Si02
#       6
#     2   2   2   2   2   2
#     4  11  22  39  66  93 129 174 210 255 331 382
#     4  11  21  36  65  98 130 157 207 281 322 363
#     4  12  27  46  63  89 136 180 213 253 319 397
#     4  10  22  38  70  98 121 162 221 264 314 378
#     4  11  20  35  66 101 125 158 209 276 322 370
#     4  11  24  36  60 104 127 156 217 276 317 363
#
# _framework density 21.675470000000001
#
# number of rings (size 3 to 8) (size 9 to 14) (size 15 to 20)
#    0.000    1.000    5.000    3.000    7.000    0.667 
#    0.000    1.667    0.000    0.000    0.000    0.000 
#    0.000    0.000    0.000    0.000    0.000    0.000 
#
# Total GULP energy -148694.478984 kJ/mol
# GULP energy per Si atom -12391.206582 kJ/mol
# Density = 2.162614 g / cm^3
# Si number density = 21.675470 Si / 1000 Ang^3
#
#
#
# Elastic Constant Matrix: (Units=GPa)
#
#
# Indices 1 2 3 4 5 6 
#
# 1 187.7346 59.5080 69.5740 -8.2838 27.2193 17.1723
# 2 59.5080 85.3034 31.2139 -19.5457 -2.8555 21.3228
# 3 69.5740 31.2139 59.7513 -12.3861 13.2031 3.6595
# 4 -8.2838 -19.5457 -12.3861 28.3736 1.9557 5.2183
# 5 27.2193 -2.8555 13.2031 1.9557 51.1066 -12.7821
# 6 17.1723 21.3228 3.6595 5.2183 -12.7821 39.8538
#
#
#
# Elastic Compliance Matrix: (Units=1/GPa)
#
#
# Indices 1 2 3 4 5 6 
#
# 1 0.011247 -0.004365 -0.010551 -0.003627 -0.003954 -0.002335
# 2 -0.004365 0.022032 -0.002908 0.014639 0.000931 -0.011258
# 3 -0.010551 -0.002908 0.033190 0.009492 -0.003291 0.000756
# 4 -0.003627 0.014639 0.009492 0.051689 -0.005609 -0.015708
# 5 -0.003954 0.000931 -0.003291 -0.005609 0.025387 0.010384
# 6 -0.002335 -0.011258 0.000756 -0.015708 0.010384 0.037439
#
#
# Mechanical properties :
#
#
# Convention : Reuss Voigt Hill
#
# Bulk Modulus (GPa) = 32.44702 72.59791 52.52247
# Shear Modulus (GPa) = 22.03556 35.36636 28.70096
#
# Velocity S-wave (km/s) = 3.19190 4.04373 3.64280
# Velocity P-wave (km/s) = 5.34661 7.44098 6.47898
#
# Compressibility (1/GPa) = 0.03081947
#
# Stress axis : x y z
#
# Youngs Moduli (GPa) = 88.90971 45.38901 30.12970
#
# Poissons Ratio (x) = 0.19813 0.31791
# Poissons Ratio (y) = 0.38810 0.08763
# Poissons Ratio (z) = 0.93812 0.13201
#
# Static dielectric constant tensor:
#      x y z
#    x 4.452980 0.050530 0.801030 
#    y 0.050530 4.095580 -0.616080 
#    z 0.801030 -0.616080 4.039670 
# 
# 
# High freq. dielectric constant tensor:
#      x y z
#    x 1.868180 0.015970 0.050600 
#    y 0.015970 1.846990 -0.036670 
#    z 0.050600 -0.036670 1.801320 
# 
# From -- ./inp_files/265002.got.cif
#   From: 2010.06.25/outbox.cif.g09.slc.cpg/sg2_133_cif.got.tgz:265002.got - 2010.06.27 13:26:56.
