data_PCOD8017951
_publ_section_title
;
Structure prediction by ZEFSAII (Michael W. Deem and Ramdas Pophale) SiO2 
 PCOD8017951
Probable space group: P -1
;
_chemical_formula_sum "Si O2"
_cell_formula_units_Z 16
_cell_length_a 13.049471
_cell_length_b 13.170865
_cell_length_c 9.133439
_cell_angle_alpha 40.084114
_cell_angle_beta 57.943348
_cell_angle_gamma 46.155722
_cell_volume 729.017546
_symmetry_space_group_name_H-M "P -1"
_symmetry_group_IT_number 2
_symmetry_cell_setting 'triclinic'
loop_
_space_group_symop_operation_xyz
x,y,z
-x,-y,-z
loop_
_atom_site_type_symbol
_atom_site_label
_atom_site_fract_x
_atom_site_fract_y
_atom_site_fract_z
Si Si1 0.368367 0.663947 0.833790
Si Si2 0.458459 0.830443 0.334661
Si Si3 0.012380 0.420910 0.417724
Si Si4 0.212674 0.481042 0.022093
Si Si5 0.245220 0.008126 0.751838
Si Si6 0.740612 0.505168 0.364427
Si Si7 0.323520 0.813752 0.185784
Si Si8 0.524225 0.878234 0.805119
O O1 0.443346 0.703976 0.602523
O O2 0.256362 0.614035 0.916164
O O3 0.270695 0.844794 0.805397
O O4 0.500000 0.500000 0.000000
O O5 0.607404 0.708707 0.271774
O O6 0.326701 0.905263 0.237352
O O7 0.455752 0.001476 0.222266
O O8 0.117721 0.199704 0.578695
O O9 0.000000 0.500000 0.500000
O O10 0.859725 0.464667 0.436898
O O11 0.064327 0.522545 0.155800
O O12 0.197506 0.508903 0.828610
O O13 0.325390 0.267154 0.219771
O O14 0.396054 0.005252 0.646458
O O15 0.208115 0.967670 0.989679
O O16 0.694634 0.356813 0.584769
O O17 0.476868 0.744719 0.068226
#
# Coordination Sequence:
#
# PCOD8017951 Si02
#       8
#     2   2   2   2   2   2   2   2
#     4  12  24  40  72 108 135 172 215 289 342 392
#     4  12  22  39  72 105 135 168 222 276 348 399
#     4  12  30  46  68  95 133 191 225 274 326 399
#     4  12  25  46  68  98 137 174 230 275 341 392
#     4  10  24  45  65 101 134 173 222 274 335 392
#     4  12  24  46  66  97 140 180 223 269 330 413
#     4  10  22  42  68 104 127 173 215 283 340 390
#     4  10  22  39  70 102 133 164 215 286 340 384
#
# _framework density 21.947344999999999
#
# number of rings (size 3 to 8) (size 9 to 14) (size 15 to 20)
#    0.750    0.000    3.750    4.125    5.250    1.500 
#    0.000    1.875    0.000    0.000    0.000    0.000 
#    0.000    0.000    0.000    0.000    0.000    0.000 
#
# Total GULP energy -198330.090755 kJ/mol
# GULP energy per Si atom -12395.630672 kJ/mol
# Density = 2.189739 g / cm^3
# Si number density = 21.947345 Si / 1000 Ang^3
#
#
#
# Elastic Constant Matrix: (Units=GPa)
#
#
# Indices 1 2 3 4 5 6 
#
# 1 132.0612 55.9604 22.7750 -6.8845 -1.4397 27.4094
# 2 55.9604 89.2862 23.8857 -6.4465 -5.8789 21.0501
# 3 22.7750 23.8857 67.4934 -1.2401 -0.0177 -4.5146
# 4 -6.8845 -6.4465 -1.2401 26.0454 4.0412 -1.8780
# 5 -1.4397 -5.8789 -0.0177 4.0412 42.0948 3.1546
# 6 27.4094 21.0501 -4.5146 -1.8780 3.1546 35.3858
#
#
#
# Elastic Compliance Matrix: (Units=1/GPa)
#
#
# Indices 1 2 3 4 5 6 
#
# 1 0.011452 -0.004961 -0.002499 0.001228 0.000043 -0.006177
# 2 -0.004961 0.017748 -0.005073 0.001882 0.002688 -0.007502
# 3 -0.002499 -0.005073 0.017940 -0.000330 -0.001305 0.007341
# 4 0.001228 0.001882 -0.000330 0.039740 -0.003534 0.000311
# 5 0.000043 0.002688 -0.001305 -0.003534 0.024786 -0.004196
# 6 -0.006177 -0.007502 0.007341 0.000311 -0.004196 0.038834
#
#
# Mechanical properties :
#
#
# Convention : Reuss Voigt Hill
#
# Bulk Modulus (GPa) = 45.30589 54.89810 50.10200
# Shear Modulus (GPa) = 27.33352 33.11985 30.22669
#
# Velocity S-wave (km/s) = 3.53287 3.88888 3.71514
# Velocity P-wave (km/s) = 6.10978 6.72550 6.42502
#
# Compressibility (1/GPa) = 0.02207218
#
# Stress axis : x y z
#
# Youngs Moduli (GPa) = 87.32041 56.34350 55.74224
#
# Poissons Ratio (x) = 0.27954 0.13931
# Poissons Ratio (y) = 0.43323 0.28280
# Poissons Ratio (z) = 0.21823 0.28585
#
# Static dielectric constant tensor:
#      x y z
#    x 4.067800 0.209470 0.055500 
#    y 0.209470 3.808820 0.157350 
#    z 0.055500 0.157350 4.121060 
# 
# 
# High freq. dielectric constant tensor:
#      x y z
#    x 1.868120 0.023650 -0.000880 
#    y 0.023650 1.844200 0.010570 
#    z -0.000880 0.010570 1.883160 
# 
# From -- ./inp_files/261557.got.cif
#   From: 2010.06.25/outbox.cif.g09.slc.cpg/sg2_131_cif.got.tgz:261557.got - 2010.06.27 13:26:56.
