data_PCOD8017196
_publ_section_title
;
Structure prediction by ZEFSAII (Michael W. Deem and Ramdas Pophale) SiO2 
 PCOD8017196
Probable space group: P -1
;
_chemical_formula_sum "Si O2"
_cell_formula_units_Z 16
_cell_length_a 13.915138
_cell_length_b 9.865495
_cell_length_c 14.449823
_cell_angle_alpha 100.779083
_cell_angle_beta 148.843933
_cell_angle_gamma 100.745700
_cell_volume 737.567011
_symmetry_space_group_name_H-M "P -1"
_symmetry_group_IT_number 2
_symmetry_cell_setting 'triclinic'
loop_
_space_group_symop_operation_xyz
x,y,z
-x,-y,-z
loop_
_atom_site_type_symbol
_atom_site_label
_atom_site_fract_x
_atom_site_fract_y
_atom_site_fract_z
Si Si1 0.875407 0.541939 0.582867
Si Si2 0.929146 0.668968 0.009384
Si Si3 0.784673 0.929391 0.740554
Si Si4 0.231706 0.471220 0.818956
Si Si5 0.340977 0.321367 0.055080
Si Si6 0.960711 0.885814 0.697379
Si Si7 0.795380 0.794349 0.349117
Si Si8 0.245792 0.584434 0.328002
O O1 0.641414 0.448784 0.307615
O O2 0.044009 0.766945 0.758509
O O3 0.748412 0.444050 0.563492
O O4 0.041000 0.499895 0.678030
O O5 0.710163 0.631425 0.883102
O O6 0.808796 0.580905 0.797726
O O7 0.015385 0.572465 0.117174
O O8 0.173980 0.891208 0.231623
O O9 0.797463 0.842759 0.647594
O O10 0.513391 0.783499 0.545431
O O11 0.000000 0.000000 0.000000
O O12 0.135087 0.330093 0.634429
O O13 0.233093 0.366261 0.892855
O O14 0.512802 0.677450 0.059751
O O15 0.207911 0.104543 0.915638
O O16 0.781759 0.811045 0.450141
O O17 0.000000 0.000000 0.500000
#
# Coordination Sequence:
#
# PCOD8017196 Si02
#       8
#     2   2   2   2   2   2   2   2
#     4  12  25  42  69 102 133 178 225 273 336 398
#     4  10  22  38  62  92 133 176 225 271 326 391
#     4  11  23  40  61  97 139 177 220 276 327 394
#     4  11  25  46  71  98 133 172 223 276 340 396
#     4  11  22  45  66  95 136 175 218 276 333 396
#     4  11  24  42  69  98 136 179 224 277 337 396
#     4  11  24  47  74  98 133 176 221 282 341 395
#     4  11  22  38  64  97 131 179 225 270 328 400
#
# _framework density 21.692943
#
# number of rings (size 3 to 8) (size 9 to 14) (size 15 to 20)
#    0.000    1.000    3.750    3.375    0.000    3.000 
#    0.000    2.500    0.000    0.000    0.000    0.000 
#    0.000    0.000    0.000    0.000    0.000    0.000 
#
# Total GULP energy -198415.498833 kJ/mol
# GULP energy per Si atom -12400.968677 kJ/mol
# Density = 2.164357 g / cm^3
# Si number density = 21.692943 Si / 1000 Ang^3
#
#
#
# Elastic Constant Matrix: (Units=GPa)
#
#
# Indices 1 2 3 4 5 6 
#
# 1 96.6689 34.3359 42.9312 11.6274 -3.6920 -17.2405
# 2 34.3359 100.3373 34.2112 17.5398 12.8074 -19.0003
# 3 42.9312 34.2112 89.2079 15.0142 4.8004 -20.4159
# 4 11.6274 17.5398 15.0142 35.8445 3.5298 1.1963
# 5 -3.6920 12.8074 4.8004 3.5298 43.5322 0.3739
# 6 -17.2405 -19.0003 -20.4159 1.1963 0.3739 37.3038
#
#
#
# Elastic Compliance Matrix: (Units=1/GPa)
#
#
# Indices 1 2 3 4 5 6 
#
# 1 0.014341 -0.002773 -0.005188 -0.001468 0.002703 0.002396
# 2 -0.002773 0.013801 -0.001798 -0.004898 -0.003743 0.004959
# 3 -0.005188 -0.001798 0.016573 -0.004436 -0.001430 0.005913
# 4 -0.001468 -0.004898 -0.004436 0.032931 -0.000807 -0.006649
# 5 0.002703 -0.003743 -0.001430 -0.000807 0.024539 -0.001660
# 6 0.002396 0.004959 0.005913 -0.006649 -0.001660 0.033906
#
#
# Mechanical properties :
#
#
# Convention : Reuss Voigt Hill
#
# Bulk Modulus (GPa) = 39.68735 56.57453 48.13094
# Shear Modulus (GPa) = 30.48652 34.98515 32.73583
#
# Velocity S-wave (km/s) = 3.75289 4.02025 3.88887
# Velocity P-wave (km/s) = 6.09210 6.90552 6.51152
#
# Compressibility (1/GPa) = 0.02519694
#
# Stress axis : x y z
#
# Youngs Moduli (GPa) = 69.73151 72.45748 60.34030
#
# Poissons Ratio (x) = 0.20094 0.31304
# Poissons Ratio (y) = 0.19338 0.10847
# Poissons Ratio (z) = 0.36177 0.13025
#
# Static dielectric constant tensor:
#      x y z
#    x 4.087330 -0.011820 -0.230770 
#    y -0.011820 4.146370 0.171660 
#    z -0.230770 0.171660 3.872740 
# 
# 
# High freq. dielectric constant tensor:
#      x y z
#    x 1.863330 0.006430 -0.015510 
#    y 0.006430 1.861610 0.015760 
#    z -0.015510 0.015760 1.843720 
# 
# From -- ./inp_files/337574.got.cif
#   From: 2010.06.25/outbox.cif.g09.slc.cpg/sg2_169_cif.got.tgz:337574.got - 2010.06.27 13:26:56.
