data_PCOD8017005
_publ_section_title
;
Structure prediction by ZEFSAII (Michael W. Deem and Ramdas Pophale) SiO2 
 PCOD8017005
Probable space group: P -1
;
_chemical_formula_sum "Si O2"
_cell_formula_units_Z 16
_cell_length_a 13.362479
_cell_length_b 20.156976
_cell_length_c 5.222096
_cell_angle_alpha 99.069966
_cell_angle_beta 86.482288
_cell_angle_gamma 149.508415
_cell_volume 696.949884
_symmetry_space_group_name_H-M "P -1"
_symmetry_group_IT_number 2
_symmetry_cell_setting 'triclinic'
loop_
_space_group_symop_operation_xyz
x,y,z
-x,-y,-z
loop_
_atom_site_type_symbol
_atom_site_label
_atom_site_fract_x
_atom_site_fract_y
_atom_site_fract_z
Si Si1 0.155101 0.495951 0.118188
Si Si2 0.502786 0.259088 0.471051
Si Si3 0.738012 0.310371 0.091186
Si Si4 0.105898 0.090183 0.285566
Si Si5 0.610340 0.038922 0.757781
Si Si6 0.402124 0.081984 0.653757
Si Si7 0.972364 0.801400 0.699357
Si Si8 0.059407 0.298909 0.855473
O O1 0.320044 0.589455 0.373675
O O2 0.931377 0.379598 0.193461
O O3 0.199102 0.581835 0.971895
O O4 0.182152 0.439353 0.944041
O O5 0.603325 0.252997 0.315859
O O6 0.338949 0.204223 0.302612
O O7 0.387052 0.154292 0.661572
O O8 0.606704 0.186800 0.845496
O O9 0.111461 0.173496 0.325467
O O10 0.000000 0.000000 0.500000
O O11 0.000000 0.000000 0.000000
O O12 0.604165 0.955083 0.653261
O O13 0.500000 0.000000 0.500000
O O14 0.834073 0.194102 0.836301
O O15 0.500000 0.000000 0.000000
O O16 0.213807 0.944627 0.760685
O O17 0.891082 0.707916 0.424805
O O18 0.894124 0.725482 0.932646
#
# Coordination Sequence:
#
# PCOD8017005 Si02
#       8
#     2   2   2   2   2   2   2   2
#     4  10  24  43  64  98 135 189 231 269 335 399
#     4  11  24  41  70  97 131 173 227 294 330 403
#     4  10  22  42  68  96 135 180 235 282 327 399
#     4  12  25  45  76 104 135 169 225 293 357 401
#     4  11  23  37  58  94 129 176 219 265 332 406
#     4  10  22  37  63  96 133 166 221 285 339 395
#     4  11  24  44  66 103 134 176 224 280 351 402
#     4  11  25  42  66  92 143 182 219 276 332 417
#
# _framework density 22.957176
#
# number of rings (size 3 to 8) (size 9 to 14) (size 15 to 20)
#    0.000    1.250    1.250    4.125   12.250    0.000 
#    0.000    1.250    0.000    0.000    0.000    0.000 
#    0.000    0.000    0.000    0.000    0.000    0.000 
#
# Total GULP energy -198305.906935 kJ/mol
# GULP energy per Si atom -12394.119183 kJ/mol
# Density = 2.290492 g / cm^3
# Si number density = 22.957176 Si / 1000 Ang^3
#
#
#
# Elastic Constant Matrix: (Units=GPa)
#
#
# Indices 1 2 3 4 5 6 
#
# 1 90.0460 20.1223 24.9181 19.2226 12.6189 8.3144
# 2 20.1223 63.7313 36.8045 24.0220 2.9544 -2.7318
# 3 24.9181 36.8045 141.6590 23.3688 3.3375 7.8542
# 4 19.2226 24.0220 23.3688 42.4327 -3.0806 6.8011
# 5 12.6189 2.9544 3.3375 -3.0806 38.1077 3.8101
# 6 8.3144 -2.7318 7.8542 6.8011 3.8101 31.0007
#
#
#
# Elastic Compliance Matrix: (Units=1/GPa)
#
#
# Indices 1 2 3 4 5 6 
#
# 1 0.013568 -0.001920 -0.000921 -0.004548 -0.004428 -0.002033
# 2 -0.001920 0.023318 -0.004166 -0.011230 -0.002353 0.006378
# 3 -0.000921 -0.004166 0.008695 -0.001708 -0.000078 -0.001939
# 4 -0.004548 -0.011230 -0.001708 0.034598 0.006091 -0.007676
# 5 -0.004428 -0.002353 -0.000078 0.006091 0.028776 -0.003873
# 6 -0.002033 0.006378 -0.001939 -0.007676 -0.003873 0.036016
#
#
# Mechanical properties :
#
#
# Convention : Reuss Voigt Hill
#
# Bulk Modulus (GPa) = 31.67772 51.01402 41.34587
# Shear Modulus (GPa) = 29.49727 36.54766 33.02246
#
# Velocity S-wave (km/s) = 3.58841 3.99431 3.79679
# Velocity P-wave (km/s) = 5.56754 6.59866 6.10491
#
# Compressibility (1/GPa) = 0.03156793
#
# Stress axis : x y z
#
# Youngs Moduli (GPa) = 73.70044 42.88471 115.01383
#
# Poissons Ratio (x) = 0.08233 0.10587
# Poissons Ratio (y) = 0.14150 0.47918
# Poissons Ratio (z) = 0.06784 0.17867
#
# Static dielectric constant tensor:
#      x y z
#    x 4.254750 -0.071770 -0.237190 
#    y -0.071770 4.154170 0.258520 
#    z -0.237190 0.258520 4.687870 
# 
# 
# High freq. dielectric constant tensor:
#      x y z
#    x 1.900670 -0.016930 -0.001970 
#    y -0.016930 1.900910 0.015130 
#    z -0.001970 0.015130 1.914710 
# 
# From -- ./inp_files/100448.got.cif
#   From: 2010.06.25/outbox.cif.g09.slc.cpg/sg2_51_cif.got.tgz:100448.got - 2010.06.27 13:26:56.
