data_PCOD8017847
_publ_section_title
;
Structure prediction by ZEFSAII (Michael W. Deem and Ramdas Pophale) SiO2 
 PCOD8017847
Probable space group: P -1
;
_chemical_formula_sum "Si O2"
_cell_formula_units_Z 16
_cell_length_a 23.339032
_cell_length_b 11.564573
_cell_length_c 5.420626
_cell_angle_alpha 106.705319
_cell_angle_beta 119.352569
_cell_angle_gamma 31.136590
_cell_volume 630.429848
_symmetry_space_group_name_H-M "P -1"
_symmetry_group_IT_number 2
_symmetry_cell_setting 'triclinic'
loop_
_space_group_symop_operation_xyz
x,y,z
-x,-y,-z
loop_
_atom_site_type_symbol
_atom_site_label
_atom_site_fract_x
_atom_site_fract_y
_atom_site_fract_z
Si Si1 0.428157 0.949253 0.538658
Si Si2 0.815732 0.750295 0.621660
Si Si3 0.411110 0.523849 0.291984
Si Si4 0.988649 0.881228 0.462496
Si Si5 0.808483 0.573128 0.127594
Si Si6 0.368484 0.289311 0.535889
Si Si7 0.973133 0.716742 0.956043
Si Si8 0.730103 0.302559 0.385974
O O1 0.510451 0.725874 0.738836
O O2 0.500763 0.856815 0.377128
O O3 0.289337 0.104693 0.292926
O O4 0.401935 0.128404 0.705317
O O5 0.752271 0.781644 0.271010
O O6 0.952035 0.475090 0.790022
O O7 0.842552 0.850121 0.691884
O O8 0.500000 0.500000 0.500000
O O9 0.326349 0.644650 0.435253
O O10 0.334091 0.665331 0.962536
O O11 0.936896 0.900815 0.114168
O O12 0.131980 0.614292 0.665040
O O13 0.880450 0.031442 0.539777
O O14 0.000000 0.000000 0.500000
O O15 0.703181 0.671047 0.808469
O O16 0.934772 0.417674 0.160164
O O17 0.280739 0.536018 0.596889
#
# Coordination Sequence:
#
# PCOD8017847 Si02
#       8
#     2   2   2   2   2   2   2   2
#     4  10  23  42  70 101 136 188 230 302 369 426
#     4  10  22  39  66  99 131 177 228 292 360 426
#     4  11  27  50  73 108 147 193 247 302 362 446
#     4  11  27  41  70 100 142 196 237 298 372 427
#     4  11  23  42  69 101 137 185 237 301 361 431
#     4  10  23  43  69 105 142 179 248 302 360 437
#     4  10  22  43  61  98 140 172 235 294 352 433
#     4  11  27  47  74 106 147 194 245 306 361 433
#
# _framework density 25.379508999999999
#
# number of rings (size 3 to 8) (size 9 to 14) (size 15 to 20)
#    0.000    1.500    1.250    1.500    8.750    5.000 
#    0.000    0.000    0.000    0.000    0.000    0.000 
#    0.000    0.000    0.000    0.000    0.000    0.000 
#
# Total GULP energy -198210.240209 kJ/mol
# GULP energy per Si atom -12388.140013 kJ/mol
# Density = 2.532174 g / cm^3
# Si number density = 25.379509 Si / 1000 Ang^3
#
#
#
# Elastic Constant Matrix: (Units=GPa)
#
#
# Indices 1 2 3 4 5 6 
#
# 1 124.5963 17.0441 32.8942 14.4412 26.3360 -12.2302
# 2 17.0441 77.1109 24.6196 -3.5936 14.4849 -2.8455
# 3 32.8942 24.6196 126.0637 16.8821 17.2031 -2.3281
# 4 14.4412 -3.5936 16.8821 31.5559 1.2909 5.4087
# 5 26.3360 14.4849 17.2031 1.2909 37.3550 -2.1513
# 6 -12.2302 -2.8455 -2.3281 5.4087 -2.1513 42.0902
#
#
#
# Elastic Compliance Matrix: (Units=1/GPa)
#
#
# Indices 1 2 3 4 5 6 
#
# 1 0.010625 -0.000933 -0.001039 -0.004712 -0.006300 0.003250
# 2 -0.000933 0.014944 -0.002619 0.003712 -0.004064 -0.000090
# 3 -0.001039 -0.002619 0.009745 -0.005032 -0.002532 0.000577
# 4 -0.004712 0.003712 -0.005032 0.037909 0.002536 -0.006138
# 5 -0.006300 -0.004064 -0.002532 0.002536 0.033818 -0.000843
# 6 0.003250 -0.000090 0.000577 -0.006138 -0.000843 0.025474
#
#
# Mechanical properties :
#
#
# Convention : Reuss Voigt Hill
#
# Bulk Modulus (GPa) = 38.26834 52.98739 45.62786
# Shear Modulus (GPa) = 33.24282 39.08109 36.16196
#
# Velocity S-wave (km/s) = 3.62308 3.92837 3.77881
# Velocity P-wave (km/s) = 5.71082 6.44201 6.08740
#
# Compressibility (1/GPa) = 0.02613126
#
# Stress axis : x y z
#
# Youngs Moduli (GPa) = 94.11958 66.91717 102.61380
#
# Poissons Ratio (x) = 0.06242 0.10666
# Poissons Ratio (y) = 0.08779 0.26876
# Poissons Ratio (z) = 0.09783 0.17527
#
# Static dielectric constant tensor:
#      x y z
#    x 4.782910 -0.056160 0.106390 
#    y -0.056160 5.474190 0.081950 
#    z 0.106390 0.081950 4.592680 
# 
# 
# High freq. dielectric constant tensor:
#      x y z
#    x 2.023130 -0.003270 0.014670 
#    y -0.003270 2.023630 -0.001660 
#    z 0.014670 -0.001660 1.988160 
# 
# From -- ./inp_files/84225.got.cif
#   From: 2010.06.25/outbox.cif.g09.slc.cpg/sg2_43_cif.got.tgz:84225.got - 2010.06.27 13:26:56.
