data_PCOD8017200
_publ_section_title
;
Structure prediction by ZEFSAII (Michael W. Deem and Ramdas Pophale) SiO2 
 PCOD8017200
Probable space group: P -1
;
_chemical_formula_sum "Si O2"
_cell_formula_units_Z 14
_cell_length_a 13.446490
_cell_length_b 12.331626
_cell_length_c 9.245475
_cell_angle_alpha 52.745355
_cell_angle_beta 87.598726
_cell_angle_gamma 131.662848
_cell_volume 605.854769
_symmetry_space_group_name_H-M "P -1"
_symmetry_group_IT_number 2
_symmetry_cell_setting 'triclinic'
loop_
_space_group_symop_operation_xyz
x,y,z
-x,-y,-z
loop_
_atom_site_type_symbol
_atom_site_label
_atom_site_fract_x
_atom_site_fract_y
_atom_site_fract_z
Si Si1 0.513227 0.668316 0.010157
Si Si2 0.540883 0.401544 0.245519
Si Si3 0.645368 0.062895 0.868473
Si Si4 0.010251 0.535106 0.273362
Si Si5 0.023815 0.059614 0.117180
Si Si6 0.028937 0.810822 0.510637
Si Si7 0.880907 0.136900 0.220949
O O1 0.397413 0.562664 0.953028
O O2 0.497599 0.771145 0.045347
O O3 0.739548 0.914239 0.754603
O O4 0.444680 0.438258 0.252562
O O5 0.349049 0.084195 0.562043
O O6 0.742557 0.620841 0.144585
O O7 0.790517 0.301858 0.544389
O O8 0.802846 0.180211 0.876496
O O9 0.500000 0.000000 0.000000
O O10 0.064860 0.439486 0.342637
O O11 0.004267 0.594449 0.066941
O O12 0.890220 0.031144 0.184164
O O13 0.945223 0.844216 0.403645
O O14 0.000000 0.000000 0.000000
O O15 0.003151 0.781670 0.709679
#
# Coordination Sequence:
#
# PCOD8017200 Si02
#       7
#     2   2   2   2   2   2   2
#     4   8  17  38  65  88 120 169 214 259 312 376
#     4   9  20  40  62  89 126 162 211 266 314 374
#     4  10  22  38  62  93 129 172 210 259 327 375
#     4  10  23  40  63  93 132 165 215 264 311 389
#     4  11  25  39  65  98 128 165 218 269 315 378
#     4   9  20  43  66  89 130 173 215 258 317 381
#     4  11  23  40  66  96 126 172 211 262 327 378
#
# _framework density 23.107847
#
# number of rings (size 3 to 8) (size 9 to 14) (size 15 to 20)
#    0.000    2.286    0.000    1.714    8.000    4.000 
#    0.000    0.000    0.000    6.857    0.000    0.000 
#    0.000    0.000    0.000    0.000    0.000    0.000 
#
# Total GULP energy -173449.051847 kJ/mol
# GULP energy per Si atom -12389.217989 kJ/mol
# Density = 2.305525 g / cm^3
# Si number density = 23.107847 Si / 1000 Ang^3
#
#
#
# Elastic Constant Matrix: (Units=GPa)
#
#
# Indices 1 2 3 4 5 6 
#
# 1 62.4420 12.1529 18.2730 -2.9692 2.2168 -10.3477
# 2 12.1529 122.9970 11.5906 5.1189 -0.5651 -4.8343
# 3 18.2730 11.5906 88.2560 4.7652 17.1996 6.4438
# 4 -2.9692 5.1189 4.7652 26.1553 6.3657 1.0463
# 5 2.2168 -0.5651 17.1996 6.3657 37.6536 4.8584
# 6 -10.3477 -4.8343 6.4438 1.0463 4.8584 38.5504
#
#
#
# Elastic Compliance Matrix: (Units=1/GPa)
#
#
# Indices 1 2 3 4 5 6 
#
# 1 0.018557 -0.001355 -0.004142 0.003014 -0.000437 0.005477
# 2 -0.001355 0.008468 -0.000956 -0.001878 0.000858 0.000801
# 3 -0.004142 -0.000956 0.013646 -0.001339 -0.005417 -0.002793
# 4 0.003014 -0.001878 -0.001339 0.040761 -0.006552 0.000517
# 5 -0.000437 0.000858 -0.005417 -0.006552 0.030536 -0.002775
# 6 0.005477 0.000801 -0.002793 0.000517 -0.002775 0.028313
#
#
# Mechanical properties :
#
#
# Convention : Reuss Voigt Hill
#
# Bulk Modulus (GPa) = 36.01628 39.74755 37.88191
# Shear Modulus (GPa) = 30.78044 35.91710 33.34877
#
# Velocity S-wave (km/s) = 3.65366 3.94677 3.80304
# Velocity P-wave (km/s) = 5.78092 6.16503 5.97606
#
# Compressibility (1/GPa) = 0.02776522
#
# Stress axis : x y z
#
# Youngs Moduli (GPa) = 53.88789 118.09416 73.28396
#
# Poissons Ratio (x) = 0.16007 0.30351
# Poissons Ratio (y) = 0.07304 0.07003
# Poissons Ratio (z) = 0.22318 0.11285
#
# Static dielectric constant tensor:
#      x y z
#    x 3.986180 -0.217810 0.414630 
#    y -0.217810 4.821460 -0.271710 
#    z 0.414630 -0.271710 4.666960 
# 
# 
# High freq. dielectric constant tensor:
#      x y z
#    x 1.884960 -0.008050 -0.006280 
#    y -0.008050 1.921050 -0.003350 
#    z -0.006280 -0.003350 1.914180 
# 
# From -- ./inp_files/304782.got.cif
#   From: 2010.06.25/outbox.cif.g09.slc.cpg/sg2_153_cif.got.tgz:304782.got - 2010.06.27 13:26:56.
