data_PCOD8017770
_publ_section_title
;
Structure prediction by ZEFSAII (Michael W. Deem and Ramdas Pophale) SiO2 
 PCOD8017770
Probable space group: P -1
;
_chemical_formula_sum "Si O2"
_cell_formula_units_Z 12
_cell_length_a 9.504683
_cell_length_b 17.109941
_cell_length_c 9.666430
_cell_angle_alpha 41.361940
_cell_angle_beta 122.693173
_cell_angle_gamma 147.124430
_cell_volume 545.753151
_symmetry_space_group_name_H-M "P -1"
_symmetry_group_IT_number 2
_symmetry_cell_setting 'triclinic'
loop_
_space_group_symop_operation_xyz
x,y,z
-x,-y,-z
loop_
_atom_site_type_symbol
_atom_site_label
_atom_site_fract_x
_atom_site_fract_y
_atom_site_fract_z
Si Si1 0.530831 0.009905 0.837332
Si Si2 0.316969 0.319936 0.467769
Si Si3 0.910086 0.422126 0.900121
Si Si4 0.184205 0.019963 0.664845
Si Si5 0.886381 0.656091 0.421370
Si Si6 0.787802 0.624580 0.941936
O O1 0.421479 0.078156 0.634343
O O2 0.359576 0.807714 0.946663
O O3 0.838241 0.166894 0.746522
O O4 0.500000 0.000000 0.000000
O O5 0.300619 0.167796 0.650120
O O6 0.633129 0.526204 0.356372
O O7 0.160025 0.267517 0.592119
O O8 0.168971 0.307520 0.282738
O O9 0.872318 0.520828 0.665487
O O10 0.000000 0.500000 0.000000
O O11 0.151743 0.481431 0.877390
O O12 0.000000 0.000000 0.500000
O O13 0.995104 0.810638 0.903327
O O14 0.500000 0.500000 0.000000
#
# Coordination Sequence:
#
# PCOD8017770 Si02
#       6
#     2   2   2   2   2   2
#     4  11  26  44  67  99 131 173 222 269 330 390
#     4  10  22  44  62  95 130 172 219 261 335 386
#     4  11  24  45  66  99 130 169 224 268 329 390
#     4   9  21  40  62  92 125 163 216 262 320 388
#     4  11  25  43  68  92 136 175 212 277 325 393
#     4  10  22  39  65  94 128 167 216 271 321 389
#
# _framework density 21.987963000000001
#
# number of rings (size 3 to 8) (size 9 to 14) (size 15 to 20)
#    0.000    1.667    1.667    1.000    9.333    3.333 
#    0.000    2.500    0.000    0.000    0.000    0.000 
#    0.000    0.000    0.000    0.000    0.000    0.000 
#
# Total GULP energy -148658.612215 kJ/mol
# GULP energy per Si atom -12388.217685 kJ/mol
# Density = 2.193792 g / cm^3
# Si number density = 21.987963 Si / 1000 Ang^3
#
#
#
# Elastic Constant Matrix: (Units=GPa)
#
#
# Indices 1 2 3 4 5 6 
#
# 1 154.0826 65.8329 35.0933 -34.3657 -7.4270 9.6050
# 2 65.8329 131.4628 38.1941 -23.3565 -12.8780 -10.7750
# 3 35.0933 38.1941 58.3604 -10.4941 0.3466 -4.4056
# 4 -34.3657 -23.3565 -10.4941 31.3018 6.9950 8.6152
# 5 -7.4270 -12.8780 0.3466 6.9950 39.1474 -11.2005
# 6 9.6050 -10.7750 -4.4056 8.6152 -11.2005 46.6635
#
#
#
# Elastic Compliance Matrix: (Units=1/GPa)
#
#
# Indices 1 2 3 4 5 6 
#
# 1 0.011493 -0.003697 -0.002928 0.011221 -0.002800 -0.006239
# 2 -0.003697 0.011843 -0.005066 0.001111 0.004129 0.003803
# 3 -0.002928 -0.005066 0.022435 0.000814 -0.002325 0.000843
# 4 0.011221 0.001111 0.000814 0.051657 -0.010778 -0.014100
# 5 -0.002800 0.004129 -0.002325 -0.010778 0.031420 0.010842
# 6 -0.006239 0.003803 0.000843 -0.014100 0.010842 0.028878
#
#
# Mechanical properties :
#
#
# Convention : Reuss Voigt Hill
#
# Bulk Modulus (GPa) = 44.66343 69.12737 56.89540
# Shear Modulus (GPa) = 26.51528 37.07493 31.79510
#
# Velocity S-wave (km/s) = 3.47637 4.11073 3.80679
# Velocity P-wave (km/s) = 6.03907 7.35104 6.72711
#
# Compressibility (1/GPa) = 0.02238968
#
# Stress axis : x y z
#
# Youngs Moduli (GPa) = 87.00903 84.43670 44.57358
#
# Poissons Ratio (x) = 0.31214 0.13053
# Poissons Ratio (y) = 0.32165 0.22579
# Poissons Ratio (z) = 0.25480 0.42772
#
# Static dielectric constant tensor:
#      x y z
#    x 4.554350 0.091580 0.734550 
#    y 0.091580 4.793260 0.125880 
#    z 0.734550 0.125880 3.959600 
# 
# 
# High freq. dielectric constant tensor:
#      x y z
#    x 1.881050 0.005640 0.029380 
#    y 0.005640 1.891720 -0.002300 
#    z 0.029380 -0.002300 1.835250 
# 
# From -- ./inp_files/167022.got.cif
#   From: 2010.06.25/outbox.cif.g09.slc.cpg/sg2_84_cif.got.tgz:167022.got - 2010.06.27 13:26:56.
