data_PCOD8017991
_publ_section_title
;
Structure prediction by ZEFSAII (Michael W. Deem and Ramdas Pophale) SiO2 
 PCOD8017991
Probable space group: P -1
;
_chemical_formula_sum "Si O2"
_cell_formula_units_Z 14
_cell_length_a 12.919706
_cell_length_b 12.569679
_cell_length_c 10.008862
_cell_angle_alpha 46.369630
_cell_angle_beta 74.337424
_cell_angle_gamma 113.266913
_cell_volume 624.895878
_symmetry_space_group_name_H-M "P -1"
_symmetry_group_IT_number 2
_symmetry_cell_setting 'triclinic'
loop_
_space_group_symop_operation_xyz
x,y,z
-x,-y,-z
loop_
_atom_site_type_symbol
_atom_site_label
_atom_site_fract_x
_atom_site_fract_y
_atom_site_fract_z
Si Si1 0.709091 0.823214 0.786342
Si Si2 0.927883 0.601510 0.753312
Si Si3 0.197239 0.563821 0.339770
Si Si4 0.171792 0.637788 0.563350
Si Si5 0.459671 0.226344 0.878872
Si Si6 0.483662 0.151572 0.656796
Si Si7 0.437080 0.651399 0.821376
O O1 0.595326 0.811803 0.743445
O O2 0.613675 0.715896 0.061883
O O3 0.695555 0.645954 0.883803
O O4 0.934484 0.127639 0.450810
O O5 0.949948 0.651376 0.540783
O O6 0.000979 0.514407 0.823008
O O7 0.704918 0.373020 0.073421
O O8 0.082839 0.484405 0.583264
O O9 0.319980 0.560205 0.340919
O O10 0.336510 0.849603 0.985271
O O11 0.288391 0.641283 0.595018
O O12 0.329708 0.941414 0.215015
O O13 0.448061 0.231524 0.717728
O O14 0.449460 0.189047 0.493894
#
# Coordination Sequence:
#
# PCOD8017991 Si02
#       7
#     2   2   2   2   2   2   2
#     4  10  22  40  57  77 103 148 199 214 258 321
#     4  11  20  35  59  80 107 147 181 217 271 327
#     4   9  16  33  58  84 109 140 172 223 274 322
#     4   8  17  32  56  84 110 138 179 216 266 337
#     4   8  15  35  59  79 104 144 183 217 261 326
#     4   9  19  35  56  85 114 136 175 223 278 320
#     4  11  23  38  56  77 112 148 178 231 264 310
#
# _framework density 22.403732999999999
#
# number of rings (size 3 to 8) (size 9 to 14) (size 15 to 20)
#    0.000    2.571    1.429    2.571    0.000    1.714 
#    2.571    0.000    0.000    3.429    0.000    0.000 
#    0.000    0.000    0.000    0.000    0.000    0.000 
#
# Total GULP energy -173481.653873 kJ/mol
# GULP energy per Si atom -12391.546705 kJ/mol
# Density = 2.235274 g / cm^3
# Si number density = 22.403733 Si / 1000 Ang^3
#
#
#
# Elastic Constant Matrix: (Units=GPa)
#
#
# Indices 1 2 3 4 5 6 
#
# 1 51.8231 16.7054 22.0316 12.9944 -17.9737 5.4364
# 2 16.7054 105.6527 14.2965 7.8662 -5.4834 18.3843
# 3 22.0316 14.2965 41.0586 15.3104 -4.6449 9.5814
# 4 12.9944 7.8662 15.3104 34.3698 0.6609 -8.2122
# 5 -17.9737 -5.4834 -4.6449 0.6609 22.0033 5.1957
# 6 5.4364 18.3843 9.5814 -8.2122 5.1957 25.5840
#
#
#
# Elastic Compliance Matrix: (Units=1/GPa)
#
#
# Indices 1 2 3 4 5 6 
#
# 1 0.042423 0.001481 -0.006414 -0.019525 0.039439 -0.021953
# 2 0.001481 0.012460 0.002110 -0.007930 0.008376 -0.014305
# 3 -0.006414 0.002110 0.043455 -0.023951 0.011421 -0.026435
# 4 -0.019525 -0.007930 -0.023951 0.060506 -0.035532 0.045455
# 5 0.039439 0.008376 0.011421 -0.035532 0.094884 -0.049352
# 6 -0.021953 -0.014305 -0.026435 0.045455 -0.049352 0.088544
#
#
# Mechanical properties :
#
#
# Convention : Reuss Voigt Hill
#
# Bulk Modulus (GPa) = 10.78855 33.84458 22.31657
# Shear Modulus (GPa) = 13.19907 26.09148 19.64528
#
# Velocity S-wave (km/s) = 2.42987 3.41633 2.96442
# Velocity P-wave (km/s) = 3.56347 5.54087 4.65830
#
# Compressibility (1/GPa) = 0.09269083
#
# Stress axis : x y z
#
# Youngs Moduli (GPa) = 23.57199 80.25926 23.01254
#
# Poissons Ratio (x) = -0.11885 0.14760
# Poissons Ratio (y) = -0.03490 -0.04855
# Poissons Ratio (z) = 0.15119 -0.16934
#
# Static dielectric constant tensor:
#      x y z
#    x 4.192050 -0.053820 -0.515240 
#    y -0.053820 4.441650 0.315620 
#    z -0.515240 0.315620 3.457220 
# 
# 
# High freq. dielectric constant tensor:
#      x y z
#    x 1.867630 0.010740 -0.036740 
#    y 0.010740 1.904020 0.018520 
#    z -0.036740 0.018520 1.825500 
# 
# From -- ./inp_files/163061.got.cif
#   From: 2010.06.25/outbox.cif.g09.slc.cpg/sg2_82_cif.got.tgz:163061.got - 2010.06.27 13:26:56.
