data_PCOD8017351
_publ_section_title
;
Structure prediction by ZEFSAII (Michael W. Deem and Ramdas Pophale) SiO2 
 PCOD8017351
Probable space group: P -1
;
_chemical_formula_sum "Si O2"
_cell_formula_units_Z 16
_cell_length_a 11.370837
_cell_length_b 9.211683
_cell_length_c 8.539546
_cell_angle_alpha 129.149155
_cell_angle_beta 91.016340
_cell_angle_gamma 80.674581
_cell_volume 680.306818
_symmetry_space_group_name_H-M "P -1"
_symmetry_group_IT_number 2
_symmetry_cell_setting 'triclinic'
loop_
_space_group_symop_operation_xyz
x,y,z
-x,-y,-z
loop_
_atom_site_type_symbol
_atom_site_label
_atom_site_fract_x
_atom_site_fract_y
_atom_site_fract_z
Si Si1 0.831005 0.679225 0.476702
Si Si2 0.821164 0.299850 0.042978
Si Si3 0.509699 0.288893 0.407775
Si Si4 0.000395 0.034433 0.339522
Si Si5 0.241153 0.926752 0.820216
Si Si6 0.391738 0.174524 0.602251
Si Si7 0.695886 0.703933 0.795594
Si Si8 0.632087 0.519716 0.964773
O O1 0.861289 0.491541 0.239455
O O2 0.729508 0.847367 0.508144
O O3 0.787473 0.610970 0.596824
O O4 0.944417 0.778737 0.570501
O O5 0.761523 0.195531 0.106411
O O6 0.725736 0.352010 0.935832
O O7 0.934665 0.155060 0.878519
O O8 0.500000 0.500000 0.500000
O O9 0.640543 0.160085 0.333925
O O10 0.451471 0.320328 0.599648
O O11 0.428050 0.191237 0.219244
O O12 0.866715 0.083399 0.305243
O O13 0.000000 0.000000 0.500000
O O14 0.241986 0.144787 0.010635
O O15 0.353286 0.269911 0.832429
O O16 0.500000 0.000000 0.500000
O O17 0.665323 0.533084 0.790597
O O18 0.500000 0.500000 0.000000
#
# Coordination Sequence:
#
# PCOD8017351 Si02
#       8
#     2   2   2   2   2   2   2   2
#     4  10  25  49  72 105 149 191 246 298 368 429
#     4  11  26  49  73 106 146 190 249 302 358 445
#     4  11  23  42  67 105 143 189 238 291 370 433
#     4  12  30  49  75 106 147 195 250 307 359 434
#     4  12  25  47  73 107 147 196 251 296 368 439
#     4  10  22  38  67  99 139 186 231 297 359 426
#     4  11  23  44  75 106 150 193 235 306 369 434
#     4  11  24  40  70 111 147 185 241 300 367 432
#
# _framework density 23.518799999999999
#
# number of rings (size 3 to 8) (size 9 to 14) (size 15 to 20)
#    0.000    1.000    1.250    5.250    7.000    4.000 
#    2.250    0.000    0.000    0.000    0.000    0.000 
#    0.000    0.000    0.000    0.000    0.000    0.000 
#
# Total GULP energy -198306.626280 kJ/mol
# GULP energy per Si atom -12394.164142 kJ/mol
# Density = 2.346527 g / cm^3
# Si number density = 23.518800 Si / 1000 Ang^3
#
#
#
# Elastic Constant Matrix: (Units=GPa)
#
#
# Indices 1 2 3 4 5 6 
#
# 1 133.8495 31.7081 37.9159 -10.5511 17.3141 -1.8374
# 2 31.7081 102.7689 24.1007 -16.6685 9.3072 5.2186
# 3 37.9159 24.1007 98.1902 -4.9075 0.0027 5.6056
# 4 -10.5511 -16.6685 -4.9075 41.2152 5.0731 -2.2027
# 5 17.3141 9.3072 0.0027 5.0731 24.6706 0.5435
# 6 -1.8374 5.2186 5.6056 -2.2027 0.5435 37.2933
#
#
#
# Elastic Compliance Matrix: (Units=1/GPa)
#
#
# Indices 1 2 3 4 5 6 
#
# 1 0.009877 -0.001261 -0.003459 0.002546 -0.007011 0.001436
# 2 -0.001261 0.011847 -0.002125 0.004717 -0.004531 -0.001056
# 3 -0.003459 -0.002125 0.012102 -0.000822 0.003436 -0.001791
# 4 0.002546 0.004717 -0.000822 0.027948 -0.009344 0.001376
# 5 -0.007011 -0.004531 0.003436 -0.009344 0.049117 -0.001496
# 6 0.001436 -0.001056 -0.001791 0.001376 -0.001496 0.027405
#
#
# Mechanical properties :
#
#
# Convention : Reuss Voigt Hill
#
# Bulk Modulus (GPa) = 49.66037 58.02866 53.84451
# Shear Modulus (GPa) = 31.50622 36.70808 34.10715
#
# Velocity S-wave (km/s) = 3.66405 3.95498 3.81229
# Velocity P-wave (km/s) = 6.24991 6.75149 6.50554
#
# Compressibility (1/GPa) = 0.02013678
#
# Stress axis : x y z
#
# Youngs Moduli (GPa) = 101.24555 84.41030 82.62764
#
# Poissons Ratio (x) = 0.10646 0.28580
# Poissons Ratio (y) = 0.12770 0.17555
# Poissons Ratio (z) = 0.35020 0.17934
#
# Static dielectric constant tensor:
#      x y z
#    x 4.411810 -0.198000 0.293860 
#    y -0.198000 4.536870 -0.382050 
#    z 0.293860 -0.382050 4.517780 
# 
# 
# High freq. dielectric constant tensor:
#      x y z
#    x 1.934180 0.003810 0.004200 
#    y 0.003810 1.936640 -0.015930 
#    z 0.004200 -0.015930 1.936200 
# 
# From -- ./inp_files/245935.got.cif
#   From: 2010.06.25/outbox.cif.g09.slc.cpg/sg2_123_cif.got.tgz:245935.got - 2010.06.27 13:26:56.
