data_PCOD8017896
_publ_section_title
;
Structure prediction by ZEFSAII (Michael W. Deem and Ramdas Pophale) SiO2 
 PCOD8017896
Probable space group: P -1
;
_chemical_formula_sum "Si O2"
_cell_formula_units_Z 10
_cell_length_a 6.020115
_cell_length_b 14.534650
_cell_length_c 15.246807
_cell_angle_alpha 19.341715
_cell_angle_beta 109.859590
_cell_angle_gamma 113.070780
_cell_volume 404.537187
_symmetry_space_group_name_H-M "P -1"
_symmetry_group_IT_number 2
_symmetry_cell_setting 'triclinic'
loop_
_space_group_symop_operation_xyz
x,y,z
-x,-y,-z
loop_
_atom_site_type_symbol
_atom_site_label
_atom_site_fract_x
_atom_site_fract_y
_atom_site_fract_z
Si Si1 0.543952 0.853019 0.402207
Si Si2 0.037294 0.566535 0.546244
Si Si3 0.124694 0.861445 0.947920
Si Si4 0.367577 0.707637 0.844636
Si Si5 0.956464 0.617432 0.754476
O O1 0.319767 0.586564 0.592703
O O2 0.800946 0.774875 0.529061
O O3 0.468030 0.024994 0.321071
O O4 0.610073 0.036894 0.155167
O O5 0.000000 0.500000 0.500000
O O6 0.857343 0.310780 0.804269
O O7 0.992445 0.875484 0.283561
O O8 0.958889 0.629350 0.069075
O O9 0.199124 0.821109 0.646428
O O10 0.500000 0.500000 0.000000
O O11 0.206006 0.520198 0.063891
#
# Coordination Sequence:
#
# PCOD8017896 Si02
#       5
#     2   2   2   2   2
#     4  11  25  44  74  99 147 188 233 287 355 409
#     4  12  28  47  74 106 137 184 241 291 356 418
#     4  11  25  48  71 103 145 180 233 295 347 423
#     4  10  22  39  68 102 143 187 232 282 344 418
#     4  10  22  42  66 105 140 188 230 282 349 419
#
# _framework density 24.719605999999999
#
# number of rings (size 3 to 8) (size 9 to 14) (size 15 to 20)
#    0.000    1.200    2.000    2.400    8.400    2.400 
#    0.000    0.000    0.000    0.000    0.000    0.000 
#    0.000    0.000    0.000    0.000    0.000    0.000 
#
# Total GULP energy -123898.109614 kJ/mol
# GULP energy per Si atom -12389.810961 kJ/mol
# Density = 2.466334 g / cm^3
# Si number density = 24.719606 Si / 1000 Ang^3
#
#
#
# Elastic Constant Matrix: (Units=GPa)
#
#
# Indices 1 2 3 4 5 6 
#
# 1 63.9778 76.4711 34.4879 6.0287 17.5175 -18.9401
# 2 76.4711 159.6733 45.4554 6.4173 6.9772 -15.1845
# 3 34.4879 45.4554 120.0075 8.4378 5.1346 -17.3418
# 4 6.0287 6.4173 8.4378 32.3886 -11.3612 -6.0891
# 5 17.5175 6.9772 5.1346 -11.3612 33.4497 2.4847
# 6 -18.9401 -15.1845 -17.3418 -6.0891 2.4847 44.3347
#
#
#
# Elastic Compliance Matrix: (Units=1/GPa)
#
#
# Indices 1 2 3 4 5 6 
#
# 1 0.064911 -0.026314 -0.003712 -0.014668 -0.034192 0.017167
# 2 -0.026314 0.017859 -0.000859 0.004847 0.012241 -0.005481
# 3 -0.003712 -0.000859 0.010099 -0.001436 -0.000054 0.001876
# 4 -0.014668 0.004847 -0.001436 0.040079 0.020564 -0.000816
# 5 -0.034192 0.012241 -0.000054 0.020564 0.053028 -0.010583
# 6 0.017167 -0.005481 0.001876 -0.000816 -0.010583 0.029227
#
#
# Mechanical properties :
#
#
# Convention : Reuss Voigt Hill
#
# Bulk Modulus (GPa) = 32.15569 72.94306 52.54938
# Shear Modulus (GPa) = 17.40102 34.51755 25.95929
#
# Velocity S-wave (km/s) = 2.65606 3.74085 3.24412
# Velocity P-wave (km/s) = 4.73736 6.94484 5.94447
#
# Compressibility (1/GPa) = 0.03109869
#
# Stress axis : x y z
#
# Youngs Moduli (GPa) = 15.40579 55.99474 99.01694
#
# Poissons Ratio (x) = 1.47346 0.36755
# Poissons Ratio (y) = 0.40539 0.08503
# Poissons Ratio (z) = 0.05719 0.04809
#
# Static dielectric constant tensor:
#      x y z
#    x 9.624260 -1.983630 -0.206810 
#    y -1.983630 5.542970 0.103330 
#    z -0.206810 0.103330 4.485250 
# 
# 
# High freq. dielectric constant tensor:
#      x y z
#    x 1.973900 -0.030440 -0.008950 
#    y -0.030440 1.990370 0.001690 
#    z -0.008950 0.001690 1.978980 
# 
# From -- ./inp_files/1674.got.cif
#   From: 2010.06.25/outbox.cif.g09.slc.cpg/sg2_1_cif.got.tgz:1674.got - 2010.06.27 13:26:56.
