data_PCOD8017128
_publ_section_title
;
Structure prediction by ZEFSAII (Michael W. Deem and Ramdas Pophale) SiO2 
 PCOD8017128
Probable space group: P -1
;
_chemical_formula_sum "Si O2"
_cell_formula_units_Z 14
_cell_length_a 14.501193
_cell_length_b 5.068057
_cell_length_c 9.724172
_cell_angle_alpha 121.665449
_cell_angle_beta 82.628399
_cell_angle_gamma 77.495797
_cell_volume 568.102514
_symmetry_space_group_name_H-M "P -1"
_symmetry_group_IT_number 2
_symmetry_cell_setting 'triclinic'
loop_
_space_group_symop_operation_xyz
x,y,z
-x,-y,-z
loop_
_atom_site_type_symbol
_atom_site_label
_atom_site_fract_x
_atom_site_fract_y
_atom_site_fract_z
Si Si1 0.604689 0.916781 0.886092
Si Si2 0.069237 0.676816 0.466093
Si Si3 0.608017 0.495715 0.513244
Si Si4 0.111467 0.771757 0.769176
Si Si5 0.882634 0.892273 0.880635
Si Si6 0.297002 0.548032 0.026145
Si Si7 0.291497 0.236530 0.666997
O O1 0.601492 0.782557 0.698611
O O2 0.687297 0.648608 0.887717
O O3 0.500000 0.000000 0.000000
O O4 0.629171 0.248467 0.953292
O O5 0.134960 0.769932 0.599558
O O6 0.135487 0.432344 0.268237
O O7 0.000000 0.500000 0.500000
O O8 0.000000 0.000000 0.500000
O O9 0.500000 0.500000 0.500000
O O10 0.658391 0.561690 0.383681
O O11 0.672150 0.150024 0.476702
O O12 0.172987 0.405680 0.713473
O O13 0.995917 0.853552 0.830471
O O14 0.142987 0.038547 0.930639
O O15 0.815945 0.205052 0.891528
O O16 0.321344 0.275214 0.827900
#
# Coordination Sequence:
#
# PCOD8017128 Si02
#       7
#     2   2   2   2   2   2   2
#     4  12  26  45  70  99 135 175 224 283 345 410
#     4  10  22  38  60  90 126 170 218 270 320 382
#     4  12  26  45  70  99 135 175 224 283 345 410
#     4   9  21  42  67  97 137 181 226 274 332 396
#     4   9  21  42  67  97 137 181 226 274 332 396
#     4  11  24  44  70 100 136 179 227 279 338 408
#     4  11  24  44  70 100 136 179 227 279 338 408
#
# _framework density 24.643439999999998
#
# number of rings (size 3 to 8) (size 9 to 14) (size 15 to 20)
#    0.000    1.429    0.000    4.286    4.000    5.143 
#    0.000    8.571    0.000    0.000    0.000    0.000 
#    0.000    0.000    0.000    0.000    0.000    0.000 
#
# Total GULP energy -173531.349970 kJ/mol
# GULP energy per Si atom -12395.096426 kJ/mol
# Density = 2.458735 g / cm^3
# Si number density = 24.643440 Si / 1000 Ang^3
#
#
#
# Elastic Constant Matrix: (Units=GPa)
#
#
# Indices 1 2 3 4 5 6 
#
# 1 57.9474 -7.3251 8.9205 -7.4428 -11.4447 -15.9687
# 2 -7.3251 97.0531 28.7870 -2.4524 6.7478 -12.6537
# 3 8.9205 28.7870 172.2012 -7.0581 25.6811 -25.7303
# 4 -7.4428 -2.4524 -7.0581 38.7559 -16.4682 2.9857
# 5 -11.4447 6.7478 25.6811 -16.4682 39.1061 -3.1874
# 6 -15.9687 -12.6537 -25.7303 2.9857 -3.1874 43.0027
#
#
#
# Elastic Compliance Matrix: (Units=1/GPa)
#
#
# Indices 1 2 3 4 5 6 
#
# 1 0.023922 0.002892 -0.001844 0.008940 0.012204 0.008915
# 2 0.002892 0.011428 -0.001595 0.000984 0.000619 0.003460
# 3 -0.001844 -0.001595 0.007375 -0.001715 -0.005589 0.002964
# 4 0.008940 0.000984 -0.001715 0.034983 0.018429 0.001520
# 5 0.012204 0.000619 -0.005589 0.018429 0.040720 0.003109
# 6 0.008915 0.003460 0.002964 0.001520 0.003109 0.029481
#
#
# Mechanical properties :
#
#
# Convention : Reuss Voigt Hill
#
# Bulk Modulus (GPa) = 24.02088 43.10738 33.56413
# Shear Modulus (GPa) = 30.69729 43.96091 37.32910
#
# Velocity S-wave (km/s) = 3.53322 4.22818 3.89622
# Velocity P-wave (km/s) = 5.13939 6.43173 5.82153
#
# Compressibility (1/GPa) = 0.04163045
#
# Stress axis : x y z
#
# Youngs Moduli (GPa) = 41.80283 87.50415 135.58705
#
# Poissons Ratio (x) = -0.25308 0.25007
# Poissons Ratio (y) = -0.12090 0.21629
# Poissons Ratio (z) = 0.07710 0.13959
#
# Static dielectric constant tensor:
#      x y z
#    x 4.421350 -0.365580 0.319500 
#    y -0.365580 4.179550 0.156070 
#    z 0.319500 0.156070 5.098310 
# 
# 
# High freq. dielectric constant tensor:
#      x y z
#    x 1.977840 -0.022190 0.003590 
#    y -0.022190 1.972450 -0.001000 
#    z 0.003590 -0.001000 2.007660 
# 
# From -- ./inp_files/442326.got.cif
#   From: 2010.06.25/outbox.cif.g09.slc.cpg/sg2_222_cif.got.tgz:442326.got - 2010.06.27 13:26:56.
