data_PCOD8017766
_publ_section_title
;
Structure prediction by ZEFSAII (Michael W. Deem and Ramdas Pophale) SiO2 
 PCOD8017766
Probable space group: P -1
;
_chemical_formula_sum "Si O2"
_cell_formula_units_Z 16
_cell_length_a 9.119487
_cell_length_b 9.021376
_cell_length_c 17.926253
_cell_angle_alpha 75.329459
_cell_angle_beta 143.654946
_cell_angle_gamma 119.663814
_cell_volume 728.599163
_symmetry_space_group_name_H-M "P -1"
_symmetry_group_IT_number 2
_symmetry_cell_setting 'triclinic'
loop_
_space_group_symop_operation_xyz
x,y,z
-x,-y,-z
loop_
_atom_site_type_symbol
_atom_site_label
_atom_site_fract_x
_atom_site_fract_y
_atom_site_fract_z
Si Si1 0.365783 0.576796 0.363256
Si Si2 0.449517 0.885808 0.688519
Si Si3 0.863387 0.957925 0.530335
Si Si4 0.491372 0.492667 0.085778
Si Si5 0.046834 0.594382 0.652240
Si Si6 0.636657 0.456405 0.374726
Si Si7 0.385361 0.257597 0.772380
Si Si8 0.151014 0.746577 0.139578
O O1 0.409905 0.445554 0.344466
O O2 0.174819 0.644139 0.234776
O O3 0.212741 0.464824 0.388881
O O4 0.675541 0.745944 0.492341
O O5 0.345960 0.959065 0.567913
O O6 0.214151 0.804367 0.671410
O O7 0.507098 0.731828 0.702693
O O8 0.738152 0.048969 0.820213
O O9 0.109498 0.057690 0.681128
O O10 0.000000 0.000000 0.500000
O O11 0.728066 0.451204 0.216268
O O12 0.554830 0.679551 0.124751
O O13 0.500000 0.500000 0.000000
O O14 0.180302 0.341439 0.007483
O O15 0.925962 0.497181 0.534180
O O16 0.695737 0.613926 0.322243
O O17 0.665925 0.264591 0.852342
#
# Coordination Sequence:
#
# PCOD8017766 Si02
#       8
#     2   2   2   2   2   2   2   2
#     4  10  22  39  65  93 135 165 199 263 323 385
#     4  11  21  38  66  94 127 159 212 267 309 373
#     4  11  18  38  66  99 126 160 211 257 321 379
#     4  12  25  43  63  91 130 172 218 255 309 372
#     4  12  22  39  65  93 132 164 200 270 322 365
#     4  11  21  38  65 102 120 161 210 261 331 372
#     4  11  21  42  71  91 124 170 213 260 309 387
#     4  10  23  43  65  90 123 175 220 247 301 384
#
# _framework density 21.959948000000001
#
# number of rings (size 3 to 8) (size 9 to 14) (size 15 to 20)
#    0.000    1.000    7.500    1.875    0.000    0.500 
#    2.250    1.875    0.000    1.500    0.000    0.000 
#    0.000    0.000    0.000    0.000    0.000    0.000 
#
# Total GULP energy -198339.157169 kJ/mol
# GULP energy per Si atom -12396.197323 kJ/mol
# Density = 2.190997 g / cm^3
# Si number density = 21.959948 Si / 1000 Ang^3
#
#
#
# Elastic Constant Matrix: (Units=GPa)
#
#
# Indices 1 2 3 4 5 6 
#
# 1 108.6350 52.0314 66.6496 18.5385 -12.4709 2.9999
# 2 52.0314 97.2449 32.1491 17.1534 -1.0538 -12.0214
# 3 66.6496 32.1491 110.3784 25.7074 1.0124 -9.1033
# 4 18.5385 17.1534 25.7074 40.3571 0.9230 -5.8037
# 5 -12.4709 -1.0538 1.0124 0.9230 40.6236 4.6967
# 6 2.9999 -12.0214 -9.1033 -5.8037 4.6967 29.3630
#
#
#
# Elastic Compliance Matrix: (Units=1/GPa)
#
#
# Indices 1 2 3 4 5 6 
#
# 1 0.021878 -0.009083 -0.011376 -0.000695 0.008040 -0.010904
# 2 -0.009083 0.015863 0.002198 -0.002731 -0.003305 0.008093
# 3 -0.011376 0.002198 0.017203 -0.005552 -0.004550 0.007026
# 4 -0.000695 -0.002731 -0.005552 0.030315 -0.001230 0.003420
# 5 0.008040 -0.003305 -0.004550 -0.001230 0.028102 -0.008323
# 6 -0.010904 0.008093 0.007026 0.003420 -0.008323 0.042669
#
#
# Mechanical properties :
#
#
# Convention : Reuss Voigt Hill
#
# Bulk Modulus (GPa) = 54.28452 68.65762 61.47107
# Shear Modulus (GPa) = 25.16442 33.09728 29.13085
#
# Velocity S-wave (km/s) = 3.38882 3.88644 3.64613
# Velocity P-wave (km/s) = 6.33132 7.17440 6.76600
#
# Compressibility (1/GPa) = 0.01842146
#
# Stress axis : x y z
#
# Youngs Moduli (GPa) = 45.70884 63.04027 58.12929
#
# Poissons Ratio (x) = 0.57260 0.66128
# Poissons Ratio (y) = 0.41518 -0.12778
# Poissons Ratio (z) = 0.51999 -0.13857
#
# Static dielectric constant tensor:
#      x y z
#    x 4.191050 -0.107470 -0.025430 
#    y -0.107470 4.008490 0.134330 
#    z -0.025430 0.134330 4.808650 
# 
# 
# High freq. dielectric constant tensor:
#      x y z
#    x 1.861560 -0.014600 0.009140 
#    y -0.014600 1.856780 0.001570 
#    z 0.009140 0.001570 1.859590 
# 
# From -- ./inp_files/557219.got.cif
#   From: 2010.06.25/outbox.cif.g09.slc.cpg/sg2_279_cif.got.tgz:557219.got - 2010.06.27 13:26:56.
