data_PCOD8017907
_publ_section_title
;
Structure prediction by ZEFSAII (Michael W. Deem and Ramdas Pophale) SiO2 
 PCOD8017907
Probable space group: P -1
;
_chemical_formula_sum "Si O2"
_cell_formula_units_Z 16
_cell_length_a 15.161791
_cell_length_b 9.651915
_cell_length_c 16.024100
_cell_angle_alpha 37.421995
_cell_angle_beta 36.099510
_cell_angle_gamma 39.660985
_cell_volume 783.979136
_symmetry_space_group_name_H-M "P -1"
_symmetry_group_IT_number 2
_symmetry_cell_setting 'triclinic'
loop_
_space_group_symop_operation_xyz
x,y,z
-x,-y,-z
loop_
_atom_site_type_symbol
_atom_site_label
_atom_site_fract_x
_atom_site_fract_y
_atom_site_fract_z
Si Si1 0.367314 0.311372 0.145838
Si Si2 0.886820 0.211697 0.543231
Si Si3 0.923030 0.486634 0.976241
Si Si4 0.942507 0.977178 0.202287
Si Si5 0.113076 0.258823 0.487828
Si Si6 0.849643 0.702439 0.256997
Si Si7 0.320747 0.081045 0.125878
Si Si8 0.699021 0.139601 0.049886
O O1 0.269871 0.291657 0.312990
O O2 0.293116 0.211618 0.174361
O O3 0.555157 0.148061 0.093232
O O4 0.346910 0.589306 0.006390
O O5 0.804777 0.491675 0.438718
O O6 0.007102 0.183370 0.539839
O O7 0.732318 0.152345 0.717508
O O8 0.000000 0.000000 0.500000
O O9 0.778144 0.738911 0.956280
O O10 0.044912 0.457033 0.821562
O O11 0.000000 0.500000 0.000000
O O12 0.855638 0.267086 0.120814
O O13 0.843641 0.929688 0.378268
O O14 0.939760 0.818892 0.198112
O O15 0.131995 0.930332 0.095441
O O16 0.000000 0.500000 0.500000
O O17 0.709736 0.936588 0.210975
O O18 0.500000 0.000000 0.000000
#
# Coordination Sequence:
#
# PCOD8017907 Si02
#       8
#     2   2   2   2   2   2   2   2
#     4  11  23  43  63  98 134 169 214 277 335 385
#     4  12  23  43  67  91 132 176 214 272 323 393
#     4  11  23  40  67  99 129 170 223 272 317 390
#     4  11  22  40  70  96 128 171 226 268 322 394
#     4  12  22  40  67  99 124 169 224 261 325 394
#     4  11  22  42  67  95 128 174 225 265 329 392
#     4  12  27  43  66  95 135 174 217 269 342 392
#     4  10  22  39  68  92 130 171 210 276 329 388
#
# _framework density 20.408705000000001
#
# number of rings (size 3 to 8) (size 9 to 14) (size 15 to 20)
#    0.000    0.750    5.000    3.750    5.250    0.000 
#    2.250    1.250    0.000    0.000    0.000    0.000 
#    0.000    0.000    0.000    0.000    0.000    0.000 
#
# Total GULP energy -198261.241376 kJ/mol
# GULP energy per Si atom -12391.327586 kJ/mol
# Density = 2.036225 g / cm^3
# Si number density = 20.408705 Si / 1000 Ang^3
#
#
#
# Elastic Constant Matrix: (Units=GPa)
#
#
# Indices 1 2 3 4 5 6 
#
# 1 116.3147 45.1620 40.3334 -5.7329 3.2026 0.6942
# 2 45.1620 93.9551 58.4982 -16.0896 1.6686 -5.4274
# 3 40.3334 58.4982 125.6392 -20.2120 -2.2216 -12.7537
# 4 -5.7329 -16.0896 -20.2120 43.3972 0.5749 5.9510
# 5 3.2026 1.6686 -2.2216 0.5749 33.4028 -3.1727
# 6 0.6942 -5.4274 -12.7537 5.9510 -3.1727 42.3896
#
#
#
# Elastic Compliance Matrix: (Units=1/GPa)
#
#
# Indices 1 2 3 4 5 6 
#
# 1 0.010882 -0.004332 -0.001748 -0.000801 -0.001046 -0.001225
# 2 -0.004332 0.017031 -0.006090 0.002925 -0.000896 -0.000059
# 3 -0.001748 -0.006090 0.012092 0.002766 0.001476 0.002609
# 4 -0.000801 0.002925 0.002766 0.025649 -0.000557 -0.002423
# 5 -0.001046 -0.000896 0.001476 -0.000557 0.030447 0.002704
# 6 -0.001225 -0.000059 0.002609 -0.002423 0.002704 0.024931
#
#
# Mechanical properties :
#
#
# Convention : Reuss Voigt Hill
#
# Bulk Modulus (GPa) = 63.83749 69.32179 66.57964
# Shear Modulus (GPa) = 33.20178 36.63228 34.91703
#
# Velocity S-wave (km/s) = 4.03779 4.24126 4.14078
# Velocity P-wave (km/s) = 7.28600 7.61741 7.45355
#
# Compressibility (1/GPa) = 0.01566478
#
# Stress axis : x y z
#
# Youngs Moduli (GPa) = 91.89433 58.71683 82.69874
#
# Poissons Ratio (x) = 0.25434 0.14458
# Poissons Ratio (y) = 0.39805 0.50366
# Poissons Ratio (z) = 0.16066 0.35760
#
# Static dielectric constant tensor:
#      x y z
#    x 3.860490 0.061470 0.089630 
#    y 0.061470 3.876810 -0.346790 
#    z 0.089630 -0.346790 3.754270 
# 
# 
# High freq. dielectric constant tensor:
#      x y z
#    x 1.798240 0.013520 0.009500 
#    y 0.013520 1.796290 -0.021710 
#    z 0.009500 -0.021710 1.800100 
# 
# From -- ./inp_files/262778.got.cif
#   From: 2010.06.25/outbox.cif.g09.slc.cpg/sg2_132_cif.got.tgz:262778.got - 2010.06.27 13:26:56.
