data_PCOD8017709
_publ_section_title
;
Structure prediction by ZEFSAII (Michael W. Deem and Ramdas Pophale) SiO2 
 PCOD8017709
Probable space group: P -1
;
_chemical_formula_sum "Si O2"
_cell_formula_units_Z 16
_cell_length_a 6.592653
_cell_length_b 26.061407
_cell_length_c 6.269319
_cell_angle_alpha 124.445636
_cell_angle_beta 77.695836
_cell_angle_gamma 125.927786
_cell_volume 707.827895
_symmetry_space_group_name_H-M "P -1"
_symmetry_group_IT_number 2
_symmetry_cell_setting 'triclinic'
loop_
_space_group_symop_operation_xyz
x,y,z
-x,-y,-z
loop_
_atom_site_type_symbol
_atom_site_label
_atom_site_fract_x
_atom_site_fract_y
_atom_site_fract_z
Si Si1 0.518611 0.652716 0.870163
Si Si2 0.734756 0.018283 0.629752
Si Si3 0.468747 0.778508 0.106429
Si Si4 0.743029 0.483542 0.101225
Si Si5 0.891467 0.856940 0.855868
Si Si6 0.025226 0.251629 0.690001
Si Si7 0.284856 0.383744 0.648923
Si Si8 0.181332 0.080636 0.377109
O O1 0.331620 0.564822 0.778120
O O2 0.652716 0.657335 0.633767
O O3 0.365389 0.690381 0.957814
O O4 0.730569 0.705410 0.117225
O O5 0.916296 0.021651 0.415706
O O6 0.500000 0.000000 0.500000
O O7 0.651575 0.951311 0.667029
O O8 0.884486 0.098258 0.912988
O O9 0.671741 0.832455 0.369382
O O10 0.227267 0.783287 0.189919
O O11 0.613424 0.804844 0.907379
O O12 0.790777 0.564786 0.328150
O O13 0.529616 0.437254 0.864307
O O14 0.000000 0.500000 0.000000
O O15 0.973330 0.812344 0.590920
O O16 0.874271 0.916888 0.854915
O O17 0.047817 0.314740 0.672864
#
# Coordination Sequence:
#
# PCOD8017709 Si02
#       8
#     2   2   2   2   2   2   2   2
#     4  11  22  41  63  95 139 170 229 283 327 407
#     4  10  24  45  71 100 135 178 228 279 339 404
#     4  11  24  41  66  99 135 176 224 279 337 402
#     4  10  22  39  64  93 130 175 225 272 335 401
#     4  11  23  46  71  97 140 179 226 284 336 407
#     4  11  24  42  65  98 134 179 226 276 341 402
#     4  10  22  41  63  94 131 173 223 280 330 396
#     4  10  23  45  66 100 136 172 229 279 331 413
#
# _framework density 22.604365000000001
#
# number of rings (size 3 to 8) (size 9 to 14) (size 15 to 20)
#    0.000    1.500    2.500    1.500    1.750    3.000 
#    6.750    0.000    0.000    0.000    0.000    0.000 
#    0.000    0.000    0.000    0.000    0.000    0.000 
#
# Total GULP energy -198318.740193 kJ/mol
# GULP energy per Si atom -12394.921262 kJ/mol
# Density = 2.255292 g / cm^3
# Si number density = 22.604365 Si / 1000 Ang^3
#
#
#
# Elastic Constant Matrix: (Units=GPa)
#
#
# Indices 1 2 3 4 5 6 
#
# 1 111.2387 53.3718 28.6806 -7.9822 -15.9583 -6.7292
# 2 53.3718 116.9901 23.3798 -7.5529 -7.1667 -16.8881
# 3 28.6806 23.3798 85.2096 -6.1654 -16.6646 -6.2853
# 4 -7.9822 -7.5529 -6.1654 30.7726 -0.9569 -4.5007
# 5 -15.9583 -7.1667 -16.6646 -0.9569 38.0714 -7.6096
# 6 -6.7292 -16.8881 -6.2853 -4.5007 -7.6096 33.0688
#
#
#
# Elastic Compliance Matrix: (Units=1/GPa)
#
#
# Indices 1 2 3 4 5 6 
#
# 1 0.012546 -0.004866 -0.001970 0.001897 0.003688 0.000800
# 2 -0.004866 0.011945 -0.000875 0.002327 0.000981 0.005486
# 3 -0.001970 -0.000875 0.014304 0.002864 0.006074 0.003659
# 4 0.001897 0.002327 0.002864 0.035473 0.004997 0.008097
# 5 0.003688 0.000981 0.006074 0.004997 0.032912 0.010660
# 6 0.000800 0.005486 0.003659 0.008097 0.010660 0.037455
#
#
# Mechanical properties :
#
#
# Convention : Reuss Voigt Hill
#
# Bulk Modulus (GPa) = 42.78401 58.25585 50.51993
# Shear Modulus (GPa) = 29.78906 34.24963 32.01935
#
# Velocity S-wave (km/s) = 3.63415 3.89675 3.76774
# Velocity P-wave (km/s) = 6.04796 6.78779 6.42853
#
# Compressibility (1/GPa) = 0.02337322
#
# Stress axis : x y z
#
# Youngs Moduli (GPa) = 79.70723 83.71926 69.91125
#
# Poissons Ratio (x) = 0.40737 0.13773
# Poissons Ratio (y) = 0.38785 0.06115
# Poissons Ratio (z) = 0.15703 0.07322
#
# Static dielectric constant tensor:
#      x y z
#    x 4.363610 -1.095770 -0.028600 
#    y -1.095770 6.100280 -0.117960 
#    z -0.028600 -0.117960 4.006680 
# 
# 
# High freq. dielectric constant tensor:
#      x y z
#    x 1.877020 -0.012280 -0.006210 
#    y -0.012280 1.906010 0.002610 
#    z -0.006210 0.002610 1.892380 
# 
# From -- ./inp_files/14707.got.cif
#   From: 2010.06.25/outbox.cif.g09.slc.cpg/sg2_8_cif.got.tgz:14707.got - 2010.06.27 13:26:56.
