data_PCOD8017789
_publ_section_title
;
Structure prediction by ZEFSAII (Michael W. Deem and Ramdas Pophale) SiO2 
 PCOD8017789
Probable space group: P -1
;
_chemical_formula_sum "Si O2"
_cell_formula_units_Z 16
_cell_length_a 5.971359
_cell_length_b 5.104563
_cell_length_c 26.450296
_cell_angle_alpha 64.552433
_cell_angle_beta 112.125407
_cell_angle_gamma 96.224007
_cell_volume 673.027943
_symmetry_space_group_name_H-M "P -1"
_symmetry_group_IT_number 2
_symmetry_cell_setting 'triclinic'
loop_
_space_group_symop_operation_xyz
x,y,z
-x,-y,-z
loop_
_atom_site_type_symbol
_atom_site_label
_atom_site_fract_x
_atom_site_fract_y
_atom_site_fract_z
Si Si1 0.049775 0.385705 0.354680
Si Si2 0.130375 0.426725 0.464805
Si Si3 0.988393 0.013582 0.125314
Si Si4 0.301204 0.389095 0.929859
Si Si5 0.242696 0.304975 0.042529
Si Si6 0.576267 0.124985 0.315358
Si Si7 0.721574 0.282676 0.735181
Si Si8 0.472313 0.929766 0.429073
O O1 0.854767 0.203572 0.323304
O O2 0.947788 0.435651 0.399693
O O3 0.105553 0.669154 0.303088
O O4 0.313259 0.225209 0.400784
O O5 0.313792 0.662588 0.446706
O O6 0.286169 0.113203 0.511207
O O7 0.000000 0.500000 0.500000
O O8 0.767649 0.832174 0.101438
O O9 0.105178 0.849369 0.196220
O O10 0.895867 0.337694 0.106591
O O11 0.187978 0.029466 0.095863
O O12 0.558388 0.511033 0.927916
O O13 0.327432 0.214015 0.000340
O O14 0.000000 0.500000 0.000000
O O15 0.402047 0.414982 0.281178
O O16 0.486080 0.938403 0.276107
O O17 0.565257 0.922049 0.380095
#
# Coordination Sequence:
#
# PCOD8017789 Si02
#       8
#     2   2   2   2   2   2   2   2
#     4  11  25  43  67  90 134 169 213 271 337 394
#     4  11  23  39  68  96 127 162 213 268 336 400
#     4  11  23  41  65  93 133 172 224 267 320 379
#     4  10  22  39  65  97 132 176 215 266 324 384
#     4   9  21  39  64  98 137 171 215 267 326 378
#     4  11  25  43  71  91 129 171 220 265 337 384
#     4  11  26  45  65  97 128 174 223 277 316 392
#     4  10  23  41  63  94 131 162 211 269 331 403
#
# _framework density 23.773159
#
# number of rings (size 3 to 8) (size 9 to 14) (size 15 to 20)
#    0.000    1.500    1.250    2.250    3.500   11.500 
#    0.000    0.000    0.000    0.000    0.000    0.000 
#    0.000    0.000    0.000    0.000    0.000    0.000 
#
# Total GULP energy -198341.674822 kJ/mol
# GULP energy per Si atom -12396.354676 kJ/mol
# Density = 2.371905 g / cm^3
# Si number density = 23.773159 Si / 1000 Ang^3
#
#
#
# Elastic Constant Matrix: (Units=GPa)
#
#
# Indices 1 2 3 4 5 6 
#
# 1 90.1016 13.9084 46.9807 -1.6539 0.3156 22.3958
# 2 13.9084 85.3795 42.8113 10.6625 -5.4967 20.9959
# 3 46.9807 42.8113 173.8825 2.3029 -9.0237 17.6380
# 4 -1.6539 10.6625 2.3029 38.9541 6.3031 9.8929
# 5 0.3156 -5.4967 -9.0237 6.3031 21.5578 8.2174
# 6 22.3958 20.9959 17.6380 9.8929 8.2174 29.6726
#
#
#
# Elastic Compliance Matrix: (Units=1/GPa)
#
#
# Indices 1 2 3 4 5 6 
#
# 1 0.015914 0.002219 -0.003353 0.003191 0.003152 -0.013525
# 2 0.002219 0.017063 -0.002908 -0.002379 0.009029 -0.013727
# 3 -0.003353 -0.002908 0.007584 -0.000073 0.002754 -0.000658
# 4 0.003191 -0.002379 -0.000073 0.029695 -0.005962 -0.008931
# 5 0.003152 0.009029 0.002754 -0.005962 0.061209 -0.025368
# 6 -0.013525 -0.013727 -0.000658 -0.008931 -0.025368 0.064017
#
#
# Mechanical properties :
#
#
# Convention : Reuss Voigt Hill
#
# Bulk Modulus (GPa) = 30.79114 61.86271 46.32692
# Shear Modulus (GPa) = 23.32196 34.41443 28.86820
#
# Velocity S-wave (km/s) = 3.13552 3.80888 3.48849
# Velocity P-wave (km/s) = 5.10772 6.73959 5.97959
#
# Compressibility (1/GPa) = 0.03247688
#
# Stress axis : x y z
#
# Youngs Moduli (GPa) = 62.83934 58.60540 131.86490
#
# Poissons Ratio (x) = -0.13006 0.44211
# Poissons Ratio (y) = -0.13945 0.38349
# Poissons Ratio (z) = 0.21069 0.17044
#
# Static dielectric constant tensor:
#      x y z
#    x 4.760220 0.107890 -0.140970 
#    y 0.107890 4.089810 -0.077330 
#    z -0.140970 -0.077330 4.715010 
# 
# 
# High freq. dielectric constant tensor:
#      x y z
#    x 1.942430 0.013860 0.002240 
#    y 0.013860 1.931440 -0.003920 
#    z 0.002240 -0.003920 1.944830 
# 
# From -- ./inp_files/13551.got.cif
#   From: 2010.06.25/outbox.cif.g09.slc.cpg/sg2_7_cif.got.tgz:13551.got - 2010.06.27 13:26:56.
