data_PCOD8017597
_publ_section_title
;
Structure prediction by ZEFSAII (Michael W. Deem and Ramdas Pophale) SiO2 
 PCOD8017597
Probable space group: P -1
;
_chemical_formula_sum "Si O2"
_cell_formula_units_Z 16
_cell_length_a 12.081155
_cell_length_b 9.411529
_cell_length_c 13.810711
_cell_angle_alpha 59.738603
_cell_angle_beta 117.392223
_cell_angle_gamma 68.088094
_cell_volume 739.970395
_symmetry_space_group_name_H-M "P -1"
_symmetry_group_IT_number 2
_symmetry_cell_setting 'triclinic'
loop_
_space_group_symop_operation_xyz
x,y,z
-x,-y,-z
loop_
_atom_site_type_symbol
_atom_site_label
_atom_site_fract_x
_atom_site_fract_y
_atom_site_fract_z
Si Si1 0.016011 0.947002 0.267293
Si Si2 0.687956 0.190562 0.703082
Si Si3 0.701376 0.386313 0.146136
Si Si4 0.733448 0.907699 0.558942
Si Si5 0.733383 0.059692 0.977063
Si Si6 0.363883 0.110451 0.268389
Si Si7 0.681415 0.339363 0.362537
Si Si8 0.808964 0.623034 0.086870
O O1 0.117050 0.977358 0.227292
O O2 0.186705 0.693581 0.495113
O O3 0.859257 0.204408 0.184740
O O4 0.916563 0.906915 0.177311
O O5 0.500000 0.500000 0.500000
O O6 0.768106 0.119365 0.869790
O O7 0.584311 0.124221 0.666328
O O8 0.783446 0.227860 0.335510
O O9 0.668801 0.616537 0.067463
O O10 0.500000 0.500000 0.000000
O O11 0.729279 0.803423 0.691288
O O12 0.958604 0.654291 0.693608
O O13 0.570861 0.000655 0.387286
O O14 0.670235 0.164585 0.460340
O O15 0.531131 0.346159 0.844237
O O16 0.725399 0.872095 0.022022
O O17 0.205297 0.351461 0.044870
#
# Coordination Sequence:
#
# PCOD8017597 Si02
#       8
#     2   2   2   2   2   2   2   2
#     4  12  24  44  70  99 132 185 230 272 338 405
#     4  11  21  42  67  99 143 180 218 280 344 417
#     4  12  25  47  74  97 133 183 240 280 327 400
#     4  11  22  40  68  96 132 179 226 274 337 402
#     4  11  26  43  69 103 139 177 221 284 350 407
#     4  10  22  39  62  98 136 173 222 281 334 400
#     4  12  24  46  71  98 136 182 233 280 331 406
#     4  11  25  43  65 101 135 171 225 283 342 392
#
# _framework density 21.622487
#
# number of rings (size 3 to 8) (size 9 to 14) (size 15 to 20)
#    0.000    0.750    5.000    1.875    1.750    1.500 
#    4.500    0.625    0.000    0.000    0.000    0.000 
#    0.000    0.000    0.000    0.000    0.000    0.000 
#
# Total GULP energy -198348.323808 kJ/mol
# GULP energy per Si atom -12396.770238 kJ/mol
# Density = 2.157327 g / cm^3
# Si number density = 21.622487 Si / 1000 Ang^3
#
#
#
# Elastic Constant Matrix: (Units=GPa)
#
#
# Indices 1 2 3 4 5 6 
#
# 1 118.5040 53.2476 49.5757 3.8828 5.2060 9.7321
# 2 53.2476 103.3987 48.9887 18.1056 8.6319 7.4498
# 3 49.5757 48.9887 100.6729 14.6645 16.3848 17.1978
# 4 3.8828 18.1056 14.6645 48.4509 -3.3177 0.0652
# 5 5.2060 8.6319 16.3848 -3.3177 31.3870 5.0128
# 6 9.7321 7.4498 17.1978 0.0652 5.0128 40.7376
#
#
#
# Elastic Compliance Matrix: (Units=1/GPa)
#
#
# Indices 1 2 3 4 5 6 
#
# 1 0.012259 -0.004814 -0.004229 0.002221 0.001811 -0.000489
# 2 -0.004814 0.014910 -0.004084 -0.004064 -0.001657 0.000358
# 3 -0.004229 -0.004084 0.016286 -0.003493 -0.006355 -0.004331
# 4 0.002221 -0.004064 -0.003493 0.023370 0.004875 0.001050
# 5 0.001811 -0.001657 -0.006355 0.004875 0.036152 -0.001903
# 6 -0.000489 0.000358 -0.004331 0.001050 -0.001903 0.026660
#
#
# Mechanical properties :
#
#
# Convention : Reuss Voigt Hill
#
# Bulk Modulus (GPa) = 58.13991 69.57772 63.85881
# Shear Modulus (GPa) = 30.93623 35.49933 33.21778
#
# Velocity S-wave (km/s) = 3.78662 4.05628 3.92377
# Velocity P-wave (km/s) = 6.78712 7.36113 7.07994
#
# Compressibility (1/GPa) = 0.01719989
#
# Stress axis : x y z
#
# Youngs Moduli (GPa) = 81.57503 67.07123 61.40309
#
# Poissons Ratio (x) = 0.32290 0.25966
# Poissons Ratio (y) = 0.39272 0.25077
# Poissons Ratio (z) = 0.34496 0.27392
#
# Static dielectric constant tensor:
#      x y z
#    x 3.987380 -0.050800 0.006340 
#    y -0.050800 3.921590 0.338630 
#    z 0.006340 0.338630 3.983550 
# 
# 
# High freq. dielectric constant tensor:
#      x y z
#    x 1.844660 0.001400 0.000730 
#    y 0.001400 1.848210 0.021000 
#    z 0.000730 0.021000 1.852210 
# 
# From -- ./inp_files/398081.got.cif
#   From: 2010.06.25/outbox.cif.g09.slc.cpg/sg2_200_cif.got.tgz:398081.got - 2010.06.27 13:26:56.
