data_PCOD8017575
_publ_section_title
;
Structure prediction by ZEFSAII (Michael W. Deem and Ramdas Pophale) SiO2 
 PCOD8017575
Probable space group: P -1
;
_chemical_formula_sum "Si O2"
_cell_formula_units_Z 16
_cell_length_a 25.577099
_cell_length_b 13.851449
_cell_length_c 8.724716
_cell_angle_alpha 131.861243
_cell_angle_beta 150.233682
_cell_angle_gamma 30.518846
_cell_volume 738.524705
_symmetry_space_group_name_H-M "P -1"
_symmetry_group_IT_number 2
_symmetry_cell_setting 'triclinic'
loop_
_space_group_symop_operation_xyz
x,y,z
-x,-y,-z
loop_
_atom_site_type_symbol
_atom_site_label
_atom_site_fract_x
_atom_site_fract_y
_atom_site_fract_z
Si Si1 0.924631 0.768663 0.160716
Si Si2 0.400203 0.067623 0.469266
Si Si3 0.408042 0.333602 0.317909
Si Si4 0.179860 0.138963 0.350562
Si Si5 0.964766 0.093158 0.252163
Si Si6 0.089008 0.734070 0.031561
Si Si7 0.363339 0.716874 0.307008
Si Si8 0.737068 0.662869 0.327141
O O1 0.925720 0.915434 0.377061
O O2 0.080479 0.544129 0.378256
O O3 0.768157 0.843189 0.911378
O O4 0.915509 0.785909 0.973158
O O5 0.364792 0.225746 0.655218
O O6 0.500000 0.000000 0.500000
O O7 0.510446 0.875195 0.650897
O O8 0.267252 0.503774 0.260113
O O9 0.547287 0.315342 0.653930
O O10 0.335152 0.382404 0.011374
O O11 0.262188 0.203448 0.628512
O O12 0.313440 0.898375 0.461042
O O13 0.047474 0.248382 0.266579
O O14 0.920450 0.201254 0.093990
O O15 0.799817 0.214446 0.056075
O O16 0.067668 0.866597 0.243692
O O17 0.500000 0.500000 0.500000
#
# Coordination Sequence:
#
# PCOD8017575 Si02
#       8
#     2   2   2   2   2   2   2   2
#     4  11  22  45  66  93 128 176 210 259 328 389
#     4  11  26  43  64  98 136 159 210 275 323 377
#     4  12  23  43  66  95 130 169 215 266 322 378
#     4  10  23  38  65  92 130 165 218 262 317 388
#     4  10  22  42  63  90 126 169 217 259 311 382
#     4  10  22  39  62  93 125 162 218 263 306 375
#     4  11  20  39  62  89 126 171 211 263 312 370
#     4  11  23  43  67  94 127 176 213 253 326 399
#
# _framework density 21.664812999999999
#
# number of rings (size 3 to 8) (size 9 to 14) (size 15 to 20)
#    0.000    1.250    5.000    1.875    3.500    3.500 
#    4.500    0.625    0.000    0.000    0.000    0.000 
#    0.000    0.000    0.000    0.000    0.000    0.000 
#
# Total GULP energy -198281.854781 kJ/mol
# GULP energy per Si atom -12392.615924 kJ/mol
# Density = 2.161550 g / cm^3
# Si number density = 21.664813 Si / 1000 Ang^3
#
#
#
# Elastic Constant Matrix: (Units=GPa)
#
#
# Indices 1 2 3 4 5 6 
#
# 1 112.3550 35.0073 30.7918 -7.2419 30.5677 -13.8792
# 2 35.0073 109.2264 37.4732 -18.0886 6.2717 -14.0858
# 3 30.7918 37.4732 72.9355 -8.8261 5.8471 -8.7632
# 4 -7.2419 -18.0886 -8.8261 40.3952 -2.0957 8.0389
# 5 30.5677 6.2717 5.8471 -2.0957 29.4727 -11.7541
# 6 -13.8792 -14.0858 -8.7632 8.0389 -11.7541 32.3847
#
#
#
# Elastic Compliance Matrix: (Units=1/GPa)
#
#
# Indices 1 2 3 4 5 6 
#
# 1 0.014469 -0.002681 -0.003724 0.000069 -0.014140 -0.001122
# 2 -0.002681 0.012460 -0.004672 0.003607 0.002519 0.003025
# 3 -0.003724 -0.004672 0.017834 0.000901 0.002071 0.001726
# 4 0.000069 0.003607 0.000901 0.027602 -0.001232 -0.005456
# 5 -0.014140 0.002519 0.002071 -0.001232 0.053699 0.015392
# 6 -0.001122 0.003025 0.001726 -0.005456 0.015392 0.039122
#
#
# Mechanical properties :
#
#
# Convention : Reuss Voigt Hill
#
# Bulk Modulus (GPa) = 44.22998 55.67348 49.95173
# Shear Modulus (GPa) = 25.65736 33.20014 29.42875
#
# Velocity S-wave (km/s) = 3.44508 3.91889 3.68960
# Velocity P-wave (km/s) = 6.02368 6.79929 6.42320
#
# Compressibility (1/GPa) = 0.02260910
#
# Stress axis : x y z
#
# Youngs Moduli (GPa) = 69.11274 80.25510 56.07378
#
# Poissons Ratio (x) = 0.21517 0.20881
# Poissons Ratio (y) = 0.18530 0.26198
# Poissons Ratio (z) = 0.25737 0.37495
#
# Static dielectric constant tensor:
#      x y z
#    x 3.667630 0.078720 0.351400 
#    y 0.078720 4.260790 -0.082300 
#    z 0.351400 -0.082300 3.847540 
# 
# 
# High freq. dielectric constant tensor:
#      x y z
#    x 1.844690 0.006960 0.024900 
#    y 0.006960 1.868870 -0.016530 
#    z 0.024900 -0.016530 1.831550 
# 
# From -- ./inp_files/357349.got.cif
#   From: 2010.06.25/outbox.cif.g09.slc.cpg/sg2_179_cif.got.tgz:357349.got - 2010.06.27 13:26:56.
