data_PCOD8017399
_publ_section_title
;
Structure prediction by ZEFSAII (Michael W. Deem and Ramdas Pophale) SiO2 
 PCOD8017399
Probable space group: P -1
;
_chemical_formula_sum "Si O2"
_cell_formula_units_Z 12
_cell_length_a 6.747588
_cell_length_b 12.386255
_cell_length_c 9.469089
_cell_angle_alpha 131.658460
_cell_angle_beta 118.578506
_cell_angle_gamma 54.505419
_cell_volume 475.806501
_symmetry_space_group_name_H-M "P -1"
_symmetry_group_IT_number 2
_symmetry_cell_setting 'triclinic'
loop_
_space_group_symop_operation_xyz
x,y,z
-x,-y,-z
loop_
_atom_site_type_symbol
_atom_site_label
_atom_site_fract_x
_atom_site_fract_y
_atom_site_fract_z
Si Si1 0.270029 0.152104 0.205929
Si Si2 0.767540 0.327121 0.799488
Si Si3 0.371071 0.444493 0.550208
Si Si4 0.248525 0.413832 0.783167
Si Si5 0.813232 0.963049 0.210357
Si Si6 0.934666 0.250190 0.442339
O O1 0.320654 0.309168 0.331666
O O2 0.106365 0.164603 0.296029
O O3 0.531028 0.003547 0.192181
O O4 0.132859 0.117080 0.995328
O O5 0.660172 0.379889 0.648204
O O6 0.545017 0.312700 0.804826
O O7 0.999006 0.161345 0.725693
O O8 0.843546 0.457729 0.012813
O O9 0.803804 0.509241 0.327280
O O10 0.308010 0.600029 0.567841
O O11 0.096714 0.304489 0.655119
O O12 0.852796 0.123427 0.375216
#
# Coordination Sequence:
#
# PCOD8017399 Si02
#       6
#     2   2   2   2   2   2
#     4  10  22  39  56  82 116 154 179 224 289 333
#     4   9  18  35  59  83 112 151 181 228 287 328
#     4   9  18  35  60  79 110 150 189 222 275 332
#     4   8  17  33  59  81 107 151 188 216 282 336
#     4  11  23  36  58  85 117 143 185 235 278 327
#     4  11  20  37  62  85 106 148 195 229 264 336
#
# _framework density 25.220338000000002
#
# number of rings (size 3 to 8) (size 9 to 14) (size 15 to 20)
#    1.000    1.333    0.000    4.500    0.000    2.000 
#    0.000    0.000    0.000    5.000    0.000    0.000 
#    0.000    0.000    0.000    0.000    0.000    0.000 
#
# Total GULP energy -148818.495092 kJ/mol
# GULP energy per Si atom -12401.541258 kJ/mol
# Density = 2.516294 g / cm^3
# Si number density = 25.220338 Si / 1000 Ang^3
#
#
#
# Elastic Constant Matrix: (Units=GPa)
#
#
# Indices 1 2 3 4 5 6 
#
# 1 66.2171 44.2908 27.0123 1.2580 -1.4080 -14.3682
# 2 44.2908 151.8138 53.9734 5.7737 -5.9923 -15.2721
# 3 27.0123 53.9734 178.5172 -13.3242 -10.7899 5.5935
# 4 1.2580 5.7737 -13.3242 25.6626 -8.3747 -2.8060
# 5 -1.4080 -5.9923 -10.7899 -8.3747 32.0182 0.1330
# 6 -14.3682 -15.2721 5.5935 -2.8060 0.1330 35.8919
#
#
#
# Elastic Compliance Matrix: (Units=1/GPa)
#
#
# Indices 1 2 3 4 5 6 
#
# 1 0.020388 -0.004602 -0.001986 -0.000550 -0.000805 0.006473
# 2 -0.004602 0.009080 -0.002327 -0.002798 -0.000028 0.002166
# 3 -0.001986 -0.002327 0.007272 0.005197 0.003298 -0.002525
# 4 -0.000550 -0.002798 0.005197 0.046865 0.013456 0.001393
# 5 -0.000805 -0.000028 0.003298 0.013456 0.035822 0.000071
# 6 0.006473 0.002166 -0.002525 0.001393 0.000071 0.031876
#
#
# Mechanical properties :
#
#
# Convention : Reuss Voigt Hill
#
# Bulk Modulus (GPa) = 52.88287 71.90012 62.39150
# Shear Modulus (GPa) = 28.50017 36.79933 32.64975
#
# Velocity S-wave (km/s) = 3.36526 3.82398 3.60193
# Velocity P-wave (km/s) = 6.00948 6.93309 6.48774
#
# Compressibility (1/GPa) = 0.01890972
#
# Stress axis : x y z
#
# Youngs Moduli (GPa) = 49.04874 110.13098 137.50930
#
# Poissons Ratio (x) = 0.50677 0.27313
# Poissons Ratio (y) = 0.22570 0.32004
# Poissons Ratio (z) = 0.09743 0.25632
#
# Static dielectric constant tensor:
#      x y z
#    x 4.542260 -0.428620 -0.138250 
#    y -0.428620 4.251900 -0.173300 
#    z -0.138250 -0.173300 4.580030 
# 
# 
# High freq. dielectric constant tensor:
#      x y z
#    x 2.025000 -0.027930 -0.017300 
#    y -0.027930 1.984800 -0.014090 
#    z -0.017300 -0.014090 2.018340 
# 
# From -- ./inp_files/505992.got.cif
#   From: 2010.06.25/outbox.cif.g09.slc.cpg/sg2_253_cif.got.tgz:505992.got - 2010.06.27 13:26:56.
