data_PCOD8017498
_publ_section_title
;
Structure prediction by ZEFSAII (Michael W. Deem and Ramdas Pophale) SiO2 
 PCOD8017498
Probable space group: P -1
;
_chemical_formula_sum "Si O2"
_cell_formula_units_Z 14
_cell_length_a 8.807457
_cell_length_b 12.379120
_cell_length_c 14.103010
_cell_angle_alpha 134.472769
_cell_angle_beta 41.030337
_cell_angle_gamma 124.005312
_cell_volume 718.727519
_symmetry_space_group_name_H-M "P -1"
_symmetry_group_IT_number 2
_symmetry_cell_setting 'triclinic'
loop_
_space_group_symop_operation_xyz
x,y,z
-x,-y,-z
loop_
_atom_site_type_symbol
_atom_site_label
_atom_site_fract_x
_atom_site_fract_y
_atom_site_fract_z
Si Si1 0.963737 0.134359 0.171171
Si Si2 0.228562 0.978792 0.098412
Si Si3 0.796333 0.395195 0.863330
Si Si4 0.494766 0.642824 0.198250
Si Si5 0.516359 0.137977 0.504213
Si Si6 0.987901 0.897291 0.350169
Si Si7 0.978455 0.706934 0.939784
O O1 0.706023 0.117835 0.322856
O O2 0.998833 0.283094 0.179893
O O3 0.149152 0.120463 0.160192
O O4 0.000000 0.000000 0.000000
O O5 0.097971 0.989736 0.266637
O O6 0.162878 0.817772 0.977908
O O7 0.500000 0.000000 0.000000
O O8 0.723423 0.342825 0.759490
O O9 0.872098 0.253529 0.799249
O O10 0.005583 0.529032 0.843170
O O11 0.569540 0.467902 0.062253
O O12 0.420472 0.705196 0.373048
O O13 0.718197 0.748034 0.118605
O O14 0.277314 0.153803 0.572801
O O15 0.500000 0.000000 0.500000
O O16 0.000000 0.000000 0.500000
#
# Coordination Sequence:
#
# PCOD8017498 Si02
#       7
#     2   2   2   2   2   2   2
#     4  10  22  39  61  86 124 167 205 251 318 369
#     4  11  24  37  60  96 126 163 208 254 313 371
#     4   9  21  39  67  91 123 163 212 252 330 361
#     4   9  19  39  66  86 122 163 216 254 300 381
#     4  12  21  39  61  92 122 165 218 259 300 366
#     4  12  25  38  64  95 128 160 212 269 305 371
#     4   9  19  42  62  85 124 166 204 247 313 378
#
# _framework density 19.478870000000001
#
# number of rings (size 3 to 8) (size 9 to 14) (size 15 to 20)
#    0.857    0.857    2.857    1.714    6.000    2.286 
#    0.000    1.429    3.143    0.000    0.000    0.000 
#    0.000    0.000    0.000    0.000    0.000    0.000 
#
# Total GULP energy -173489.434315 kJ/mol
# GULP energy per Si atom -12392.102451 kJ/mol
# Density = 1.943453 g / cm^3
# Si number density = 19.478870 Si / 1000 Ang^3
#
#
#
# Elastic Constant Matrix: (Units=GPa)
#
#
# Indices 1 2 3 4 5 6 
#
# 1 120.3112 21.1079 43.7160 1.1097 4.2446 7.1305
# 2 21.1079 57.6137 22.8224 -3.1153 9.4446 -6.7706
# 3 43.7160 22.8224 108.2199 -13.3608 10.7196 -5.7607
# 4 1.1097 -3.1153 -13.3608 35.4523 0.7571 -0.9014
# 5 4.2446 9.4446 10.7196 0.7571 40.3403 -1.3955
# 6 7.1305 -6.7706 -5.7607 -0.9014 -1.3955 41.1315
#
#
#
# Elastic Compliance Matrix: (Units=1/GPa)
#
#
# Indices 1 2 3 4 5 6 
#
# 1 0.010466 -0.002751 -0.004131 -0.002212 0.000583 -0.002874
# 2 -0.002751 0.020428 -0.002511 0.001100 -0.003729 0.003385
# 3 -0.004131 -0.002511 0.012350 0.004664 -0.002275 0.002057
# 4 -0.002212 0.001100 0.004664 0.030214 -0.001768 0.001820
# 5 0.000583 -0.003729 -0.002275 -0.001768 0.026232 -0.000182
# 6 -0.002874 0.003385 0.002057 0.001820 -0.000182 0.025690
#
#
# Mechanical properties :
#
#
# Convention : Reuss Voigt Hill
#
# Bulk Modulus (GPa) = 40.88870 51.27082 46.07976
# Shear Modulus (GPa) = 32.82567 36.61804 34.72185
#
# Velocity S-wave (km/s) = 4.10956 4.34047 4.22659
# Velocity P-wave (km/s) = 6.59961 7.17621 6.89394
#
# Compressibility (1/GPa) = 0.02445663
#
# Stress axis : x y z
#
# Youngs Moduli (GPa) = 95.54969 48.95161 80.97373
#
# Poissons Ratio (x) = 0.13465 0.33454
# Poissons Ratio (y) = 0.26283 0.20336
# Poissons Ratio (z) = 0.39476 0.12294
#
# Static dielectric constant tensor:
#      x y z
#    x 3.833090 -0.330940 0.173160 
#    y -0.330940 3.853900 -0.108970 
#    z 0.173160 -0.108970 3.545390 
# 
# 
# High freq. dielectric constant tensor:
#      x y z
#    x 1.767200 -0.002650 0.007500 
#    y -0.002650 1.739600 0.001650 
#    z 0.007500 0.001650 1.746790 
# 
# From -- ./inp_files/498252.got.cif
#   From: 2010.06.25/outbox.cif.g09.slc.cpg/sg2_250_cif.got.tgz:498252.got - 2010.06.27 13:26:56.
