data_PCOD8017042
_publ_section_title
;
Structure prediction by ZEFSAII (Michael W. Deem and Ramdas Pophale) SiO2 
 PCOD8017042
Probable space group: P -1
;
_chemical_formula_sum "Si O2"
_cell_formula_units_Z 12
_cell_length_a 14.491479
_cell_length_b 9.179846
_cell_length_c 6.255751
_cell_angle_alpha 77.180811
_cell_angle_beta 77.364733
_cell_angle_gamma 41.679228
_cell_volume 537.778549
_symmetry_space_group_name_H-M "P -1"
_symmetry_group_IT_number 2
_symmetry_cell_setting 'triclinic'
loop_
_space_group_symop_operation_xyz
x,y,z
-x,-y,-z
loop_
_atom_site_type_symbol
_atom_site_label
_atom_site_fract_x
_atom_site_fract_y
_atom_site_fract_z
Si Si1 0.935744 0.474784 0.353113
Si Si2 0.436470 0.382812 0.908423
Si Si3 0.572186 0.037018 0.604676
Si Si4 0.335846 0.816780 0.807005
Si Si5 0.776385 0.562488 0.769928
Si Si6 0.934686 0.760304 0.029330
O O1 0.820881 0.501181 0.514224
O O2 0.873298 0.666001 0.150807
O O3 0.000000 0.500000 0.500000
O O4 0.048578 0.246005 0.236239
O O5 0.456482 0.239791 0.756019
O O6 0.382466 0.601284 0.765726
O O7 0.581451 0.237249 0.003094
O O8 0.324189 0.457163 0.115003
O O9 0.643284 0.087257 0.420392
O O10 0.500000 0.000000 0.500000
O O11 0.692195 0.816555 0.755355
O O12 0.173571 0.994349 0.902439
O O13 0.911926 0.394073 0.902266
#
# Coordination Sequence:
#
# PCOD8017042 Si02
#       6
#     2   2   2   2   2   2
#     4   9  20  35  60  97 128 160 210 267 320 372
#     4  11  27  43  64  96 135 170 214 263 328 392
#     4  12  25  41  72  96 127 172 222 269 316 380
#     4  11  25  46  64  94 134 175 208 264 333 387
#     4  11  23  39  66  99 122 165 222 267 316 377
#     4  10  22  37  66  93 129 166 212 272 319 373
#
# _framework density 22.314018000000001
#
# number of rings (size 3 to 8) (size 9 to 14) (size 15 to 20)
#    0.000    1.333    3.333    1.000    9.333    0.667 
#    0.000    0.833    0.000    0.000    0.000    0.000 
#    0.000    0.000    0.000    0.000    0.000    0.000 
#
# Total GULP energy -148727.998408 kJ/mol
# GULP energy per Si atom -12393.999867 kJ/mol
# Density = 2.226323 g / cm^3
# Si number density = 22.314018 Si / 1000 Ang^3
#
#
#
# Elastic Constant Matrix: (Units=GPa)
#
#
# Indices 1 2 3 4 5 6 
#
# 1 83.1711 65.4999 46.7963 3.8539 -11.4767 -3.5125
# 2 65.4999 129.4780 51.7098 3.9240 -0.0969 -13.6615
# 3 46.7963 51.7098 114.9317 26.8452 -14.0137 -0.4427
# 4 3.8539 3.9240 26.8452 41.9252 -2.6928 -3.9299
# 5 -11.4767 -0.0969 -14.0137 -2.6928 36.6632 -2.0724
# 6 -3.5125 -13.6615 -0.4427 -3.9299 -2.0724 33.2534
#
#
#
# Elastic Compliance Matrix: (Units=1/GPa)
#
#
# Indices 1 2 3 4 5 6 
#
# 1 0.023208 -0.010016 -0.004768 0.002104 0.005506 -0.001135
# 2 -0.010016 0.014606 -0.003414 0.001941 -0.003983 0.004879
# 3 -0.004768 -0.003414 0.014580 -0.008602 0.003297 -0.002523
# 4 0.002104 0.001941 -0.008602 0.029380 -0.000220 0.004364
# 5 0.005506 -0.003983 0.003297 -0.000220 0.030280 0.000850
# 6 -0.001135 0.004879 -0.002523 0.004364 0.000850 0.032492
#
#
# Mechanical properties :
#
#
# Convention : Reuss Voigt Hill
#
# Bulk Modulus (GPa) = 62.50220 72.84364 67.67292
# Shear Modulus (GPa) = 26.84218 33.27336 30.05777
#
# Velocity S-wave (km/s) = 3.47209 3.86572 3.67418
# Velocity P-wave (km/s) = 6.64417 7.25539 6.95650
#
# Compressibility (1/GPa) = 0.01599944
#
# Stress axis : x y z
#
# Youngs Moduli (GPa) = 43.08849 68.46322 68.58884
#
# Poissons Ratio (x) = 0.68571 0.32701
# Poissons Ratio (y) = 0.43156 0.23415
# Poissons Ratio (z) = 0.20543 0.23372
#
# Static dielectric constant tensor:
#      x y z
#    x 3.818570 -0.149590 -0.404310 
#    y -0.149590 4.181660 0.205470 
#    z -0.404310 0.205470 4.517100 
# 
# 
# High freq. dielectric constant tensor:
#      x y z
#    x 1.852450 -0.018160 -0.013210 
#    y -0.018160 1.874840 0.009700 
#    z -0.013210 0.009700 1.890660 
# 
# From -- ./inp_files/90054.got.cif
#   From: 2010.06.25/outbox.cif.g09.slc.cpg/sg2_46_cif.got.tgz:90054.got - 2010.06.27 13:26:56.
