data_PCOD8017381
_publ_section_title
;
Structure prediction by ZEFSAII (Michael W. Deem and Ramdas Pophale) SiO2 
 PCOD8017381
Probable space group: P -1
;
_chemical_formula_sum "Si O2"
_cell_formula_units_Z 16
_cell_length_a 8.721501
_cell_length_b 22.759117
_cell_length_c 9.719010
_cell_angle_alpha 26.733995
_cell_angle_beta 116.000191
_cell_angle_gamma 112.954045
_cell_volume 779.994999
_symmetry_space_group_name_H-M "P -1"
_symmetry_group_IT_number 2
_symmetry_cell_setting 'triclinic'
loop_
_space_group_symop_operation_xyz
x,y,z
-x,-y,-z
loop_
_atom_site_type_symbol
_atom_site_label
_atom_site_fract_x
_atom_site_fract_y
_atom_site_fract_z
Si Si1 0.910636 0.211150 0.301795
Si Si2 0.375498 0.619879 0.666845
Si Si3 0.955983 0.802151 0.096669
Si Si4 0.473538 0.106161 0.927317
Si Si5 0.887179 0.374574 0.689206
Si Si6 0.782770 0.975468 0.227226
Si Si7 0.328023 0.029917 0.298602
Si Si8 0.068759 0.641948 0.708047
O O1 0.930791 0.286013 0.296286
O O2 0.093318 0.151446 0.444031
O O3 0.772889 0.100138 0.510203
O O4 0.835172 0.309701 0.950195
O O5 0.481981 0.752288 0.413058
O O6 0.273650 0.590349 0.545535
O O7 0.251248 0.638694 0.709167
O O8 0.500000 0.500000 0.000000
O O9 0.997501 0.731950 0.118527
O O10 0.930584 0.705946 0.416791
O O11 0.786461 0.882997 0.826851
O O12 0.104150 0.896716 0.010031
O O13 0.335056 0.033221 0.933524
O O14 0.374190 0.121978 0.996710
O O15 0.642397 0.012078 0.214415
O O16 0.000000 0.500000 0.500000
O O17 0.500000 0.000000 0.500000
O O18 0.000000 0.500000 0.000000
#
# Coordination Sequence:
#
# PCOD8017381 Si02
#       8
#     2   2   2   2   2   2   2   2
#     4  11  24  42  67  98 131 167 221 269 332 393
#     4  11  26  46  68  95 133 176 221 272 322 393
#     4  10  22  44  64  93 129 173 220 263 324 398
#     4  11  22  41  64 101 131 165 220 268 334 389
#     4  11  24  45  68  94 130 177 223 264 326 395
#     4  10  22  38  70  91 128 169 210 269 330 390
#     4  11  25  38  64  96 133 167 208 274 333 384
#     4  11  23  43  68  93 124 173 225 264 317 389
#
# _framework density 20.512951999999999
#
# number of rings (size 3 to 8) (size 9 to 14) (size 15 to 20)
#    0.000    1.250    2.500    3.750    8.750    3.000 
#    2.250    0.625    0.000    0.000    0.000    0.000 
#    0.000    0.000    0.000    0.000    0.000    0.000 
#
# Total GULP energy -198250.946212 kJ/mol
# GULP energy per Si atom -12390.684138 kJ/mol
# Density = 2.046626 g / cm^3
# Si number density = 20.512952 Si / 1000 Ang^3
#
#
#
# Elastic Constant Matrix: (Units=GPa)
#
#
# Indices 1 2 3 4 5 6 
#
# 1 105.4557 41.5628 54.3190 -6.5171 7.9774 10.0587
# 2 41.5628 85.0050 41.7594 -12.9409 3.1471 1.0436
# 3 54.3190 41.7594 105.2094 -5.1384 -1.4499 0.4436
# 4 -6.5171 -12.9409 -5.1384 36.9853 3.5916 -2.7066
# 5 7.9774 3.1471 -1.4499 3.5916 45.8408 4.7684
# 6 10.0587 1.0436 0.4436 -2.7066 4.7684 32.0464
#
#
#
# Elastic Compliance Matrix: (Units=1/GPa)
#
#
# Indices 1 2 3 4 5 6 
#
# 1 0.014743 -0.004108 -0.005981 0.000231 -0.002066 -0.004084
# 2 -0.004108 0.016604 -0.004260 0.004697 -0.001070 0.001364
# 3 -0.005981 -0.004260 0.014270 -0.000613 0.001675 0.001517
# 4 0.000231 0.004697 -0.000613 0.029119 -0.002942 0.002680
# 5 -0.002066 -0.001070 0.001675 -0.002942 0.022842 -0.002987
# 6 -0.004084 0.001364 0.001517 0.002680 -0.002987 0.033092
#
#
# Mechanical properties :
#
#
# Convention : Reuss Voigt Hill
#
# Bulk Modulus (GPa) = 59.10926 63.43917 61.27421
# Shear Modulus (GPa) = 30.30169 33.50975 31.90572
#
# Velocity S-wave (km/s) = 3.84760 4.04615 3.94813
# Velocity P-wave (km/s) = 6.97258 7.26788 7.12176
#
# Compressibility (1/GPa) = 0.01691782
#
# Stress axis : x y z
#
# Youngs Moduli (GPa) = 67.83050 60.22777 70.07534
#
# Poissons Ratio (x) = 0.24744 0.41911
# Poissons Ratio (y) = 0.27868 0.29853
# Poissons Ratio (z) = 0.40568 0.25658
#
# Static dielectric constant tensor:
#      x y z
#    x 3.847600 -0.013600 -0.007980 
#    y -0.013600 3.697640 0.064120 
#    z -0.007980 0.064120 3.923050 
# 
# 
# High freq. dielectric constant tensor:
#      x y z
#    x 1.808820 -0.000420 0.001000 
#    y -0.000420 1.805880 -0.004330 
#    z 0.001000 -0.004330 1.806670 
# 
# From -- ./inp_files/222876.got.cif
#   From: 2010.06.25/outbox.cif.g09.slc.cpg/sg2_112_cif.got.tgz:222876.got - 2010.06.27 13:26:56.
