data_PCOD8017156
_publ_section_title
;
Structure prediction by ZEFSAII (Michael W. Deem and Ramdas Pophale) SiO2 
 PCOD8017156
Probable space group: P -1
;
_chemical_formula_sum "Si O2"
_cell_formula_units_Z 12
_cell_length_a 10.826957
_cell_length_b 8.858585
_cell_length_c 8.870103
_cell_angle_alpha 71.434531
_cell_angle_beta 50.588440
_cell_angle_gamma 54.721501
_cell_volume 535.006707
_symmetry_space_group_name_H-M "P -1"
_symmetry_group_IT_number 2
_symmetry_cell_setting 'triclinic'
loop_
_space_group_symop_operation_xyz
x,y,z
-x,-y,-z
loop_
_atom_site_type_symbol
_atom_site_label
_atom_site_fract_x
_atom_site_fract_y
_atom_site_fract_z
Si Si1 0.792146 0.675787 0.497025
Si Si2 0.144192 0.368943 0.202475
Si Si3 0.561525 0.623813 0.203622
Si Si4 0.541701 0.280003 0.408816
Si Si5 0.900101 0.977411 0.350399
Si Si6 0.226912 0.962571 0.236710
O O1 0.783063 0.617627 0.692937
O O2 0.579663 0.788072 0.567210
O O3 0.892518 0.795103 0.382143
O O4 0.918091 0.497616 0.347090
O O5 0.210604 0.160007 0.166778
O O6 0.226738 0.451143 0.990523
O O7 0.510511 0.463563 0.291300
O O8 0.538774 0.693245 0.369501
O O9 0.437649 0.787816 0.126127
O O10 0.762760 0.130628 0.286773
O O11 0.111283 0.937827 0.196609
O O12 0.837878 0.057532 0.540843
#
# Coordination Sequence:
#
# PCOD8017156 Si02
#       6
#     2   2   2   2   2   2
#     4  10  22  38  61  87 120 153 191 243 295 337
#     4  10  22  38  62  89 115 154 199 238 286 348
#     4  10  22  38  62  89 115 154 199 238 286 348
#     4  10  22  38  61  87 120 153 191 243 295 337
#     4   9  19  38  60  85 117 155 193 236 291 347
#     4   9  19  36  63  84 114 155 199 235 281 350
#
# _framework density 22.429625000000001
#
# number of rings (size 3 to 8) (size 9 to 14) (size 15 to 20)
#    0.000    2.333    0.000    1.000   14.000    1.333 
#    0.000    0.833    0.000    0.000    0.000    0.000 
#    0.000    0.000    0.000    0.000    0.000    0.000 
#
# Total GULP energy -148714.920025 kJ/mol
# GULP energy per Si atom -12392.910002 kJ/mol
# Density = 2.237857 g / cm^3
# Si number density = 22.429625 Si / 1000 Ang^3
#
#
#
# Elastic Constant Matrix: (Units=GPa)
#
#
# Indices 1 2 3 4 5 6 
#
# 1 138.4283 40.7794 10.0074 -11.9967 -15.2780 -10.9815
# 2 40.7794 101.1150 19.3740 -5.8376 0.3612 -8.8887
# 3 10.0074 19.3740 61.6029 -16.7481 -9.2928 0.7681
# 4 -11.9967 -5.8376 -16.7481 12.4614 1.7718 -4.9942
# 5 -15.2780 0.3612 -9.2928 1.7718 13.3399 1.4445
# 6 -10.9815 -8.8887 0.7681 -4.9942 1.4445 30.3124
#
#
#
# Elastic Compliance Matrix: (Units=1/GPa)
#
#
# Indices 1 2 3 4 5 6 
#
# 1 0.011721 -0.004586 0.006637 0.017869 0.015262 0.004950
# 2 -0.004586 0.012832 -0.005847 -0.004127 -0.009344 0.002015
# 3 0.006637 -0.005847 0.033603 0.048037 0.024073 0.006606
# 4 0.017869 -0.004127 0.048037 0.168227 0.028404 0.030409
# 5 0.015262 -0.009344 0.024073 0.028404 0.105494 0.001832
# 6 0.004950 0.002015 0.006606 0.030409 0.001832 0.040129
#
#
# Mechanical properties :
#
#
# Convention : Reuss Voigt Hill
#
# Bulk Modulus (GPa) = 19.77743 49.05198 34.41471
# Shear Modulus (GPa) = 12.61182 26.62180 19.61681
#
# Velocity S-wave (km/s) = 2.37383 3.44888 2.96056
# Velocity P-wave (km/s) = 4.04352 6.14626 5.20224
#
# Compressibility (1/GPa) = 0.05056269
#
# Stress axis : x y z
#
# Youngs Moduli (GPa) = 85.31676 77.93013 29.75961
#
# Poissons Ratio (x) = 0.35743 -0.19752
# Poissons Ratio (y) = 0.39130 0.17401
# Poissons Ratio (z) = -0.56626 0.45567
#
# Static dielectric constant tensor:
#      x y z
#    x 4.073060 -0.276710 -0.080620 
#    y -0.276710 3.987480 0.062790 
#    z -0.080620 0.062790 3.601880 
# 
# 
# High freq. dielectric constant tensor:
#      x y z
#    x 1.884810 -0.008090 -0.012030 
#    y -0.008090 1.881530 -0.001700 
#    z -0.012030 -0.001700 1.848940 
# 
# From -- ./inp_files/147724.got.cif
#   From: 2010.06.25/outbox.cif.g09.slc.cpg/sg2_74_cif.got.tgz:147724.got - 2010.06.27 13:26:56.
