data_PCOD8017471
_publ_section_title
;
Structure prediction by ZEFSAII (Michael W. Deem and Ramdas Pophale) SiO2 
 PCOD8017471
Probable space group: P -1
;
_chemical_formula_sum "Si O2"
_cell_formula_units_Z 14
_cell_length_a 5.213563
_cell_length_b 11.845007
_cell_length_c 11.402952
_cell_angle_alpha 104.949811
_cell_angle_beta 67.989170
_cell_angle_gamma 99.560497
_cell_volume 628.865565
_symmetry_space_group_name_H-M "P -1"
_symmetry_group_IT_number 2
_symmetry_cell_setting 'triclinic'
loop_
_space_group_symop_operation_xyz
x,y,z
-x,-y,-z
loop_
_atom_site_type_symbol
_atom_site_label
_atom_site_fract_x
_atom_site_fract_y
_atom_site_fract_z
Si Si1 0.283820 0.864589 0.127280
Si Si2 0.611227 0.351858 0.823959
Si Si3 0.167529 0.997830 0.852265
Si Si4 0.259132 0.354304 0.407962
Si Si5 0.887006 0.575545 0.936570
Si Si6 0.363411 0.627393 0.437070
Si Si7 0.332902 0.770611 0.837536
O O1 0.195423 0.742457 0.176993
O O2 0.540216 0.926643 0.170220
O O3 0.376784 0.837883 0.971280
O O4 0.023747 0.946099 0.198695
O O5 0.755174 0.484041 0.838943
O O6 0.545729 0.321945 0.692221
O O7 0.334215 0.341964 0.948616
O O8 0.225395 0.861762 0.784022
O O9 0.000000 0.000000 0.000000
O O10 0.341278 0.487814 0.396893
O O11 0.400544 0.325141 0.499948
O O12 0.373792 0.272409 0.265248
O O13 0.930091 0.325816 0.463447
O O14 0.119123 0.656482 0.852027
O O15 0.000000 0.500000 0.000000
#
# Coordination Sequence:
#
# PCOD8017471 Si02
#       7
#     2   2   2   2   2   2   2
#     4  11  23  40  62  93 123 161 201 256 314 366
#     4  11  24  38  62  89 131 163 201 252 317 378
#     4  10  22  39  60  91 123 160 205 251 311 362
#     4  10  24  40  61  88 123 168 208 249 297 361
#     4  11  23  37  58  99 126 160 198 252 325 377
#     4  10  24  41  59  87 127 167 208 243 299 373
#     4  11  22  40  66  91 129 158 207 260 307 369
#
# _framework density 22.262309999999999
#
# number of rings (size 3 to 8) (size 9 to 14) (size 15 to 20)
#    0.000    1.429    1.429    4.286   10.000    3.429 
#    0.000    0.000    0.000    5.143    0.000    0.000 
#    0.000    0.000    0.000    0.000    0.000    0.000 
#
# Total GULP energy -173607.760145 kJ/mol
# GULP energy per Si atom -12400.554296 kJ/mol
# Density = 2.221164 g / cm^3
# Si number density = 22.262310 Si / 1000 Ang^3
#
#
#
# Elastic Constant Matrix: (Units=GPa)
#
#
# Indices 1 2 3 4 5 6 
#
# 1 122.7624 44.7276 24.5994 3.9638 -10.3598 -26.5995
# 2 44.7276 108.3501 39.7687 2.1106 -15.5325 -26.3000
# 3 24.5994 39.7687 74.7107 3.5455 -6.0650 -16.9193
# 4 3.9638 2.1106 3.5455 18.5796 -10.2474 -0.0581
# 5 -10.3598 -15.5325 -6.0650 -10.2474 31.3571 -0.9324
# 6 -26.5995 -26.3000 -16.9193 -0.0581 -0.9324 37.7933
#
#
#
# Elastic Compliance Matrix: (Units=1/GPa)
#
#
# Indices 1 2 3 4 5 6 
#
# 1 0.010566 -0.002460 -0.000736 -0.000675 0.002071 0.005445
# 2 -0.002460 0.014552 -0.005138 0.003603 0.006765 0.006267
# 3 -0.000736 -0.005138 0.017297 -0.002661 -0.000205 0.003640
# 4 -0.000675 0.003603 -0.002661 0.066693 0.022887 0.001508
# 5 0.002071 0.006765 -0.000205 0.022887 0.043580 0.007185
# 6 0.005445 0.006267 0.003640 0.001508 0.007185 0.036463
#
#
# Mechanical properties :
#
#
# Convention : Reuss Voigt Hill
#
# Bulk Modulus (GPa) = 38.84191 58.22384 48.53287
# Shear Modulus (GPa) = 23.32085 30.66117 26.99101
#
# Velocity S-wave (km/s) = 3.24010 3.71518 3.48574
# Velocity P-wave (km/s) = 5.61096 6.67935 6.16833
#
# Compressibility (1/GPa) = 0.02574539
#
# Stress axis : x y z
#
# Youngs Moduli (GPa) = 94.64367 68.72079 57.81443
#
# Poissons Ratio (x) = 0.16902 0.04257
# Poissons Ratio (y) = 0.23278 0.29708
# Poissons Ratio (z) = 0.06970 0.35312
#
# Static dielectric constant tensor:
#      x y z
#    x 4.492660 -0.547140 -0.186230 
#    y -0.547140 4.349860 0.206380 
#    z -0.186230 0.206380 3.693270 
# 
# 
# High freq. dielectric constant tensor:
#      x y z
#    x 1.888390 -0.021010 -0.006130 
#    y -0.021010 1.872170 0.004170 
#    z -0.006130 0.004170 1.838680 
# 
# From -- ./inp_files/363274.got.cif
#   From: 2010.06.25/outbox.cif.g09.slc.cpg/sg2_182_cif.got.tgz:363274.got - 2010.06.27 13:26:56.
