data_PCOD8017032
_publ_section_title
;
Structure prediction by ZEFSAII (Michael W. Deem and Ramdas Pophale) SiO2 
 PCOD8017032
Probable space group: P -1
;
_chemical_formula_sum "Si O2"
_cell_formula_units_Z 16
_cell_length_a 23.084899
_cell_length_b 8.661850
_cell_length_c 7.940064
_cell_angle_alpha 52.752793
_cell_angle_beta 49.377903
_cell_angle_gamma 33.195527
_cell_volume 652.763966
_symmetry_space_group_name_H-M "P -1"
_symmetry_group_IT_number 2
_symmetry_cell_setting 'triclinic'
loop_
_space_group_symop_operation_xyz
x,y,z
-x,-y,-z
loop_
_atom_site_type_symbol
_atom_site_label
_atom_site_fract_x
_atom_site_fract_y
_atom_site_fract_z
Si Si1 0.128629 0.169700 0.651496
Si Si2 0.192855 0.389114 0.912077
Si Si3 0.793975 0.074645 0.815885
Si Si4 0.522465 0.179644 0.544795
Si Si5 0.660714 0.299343 0.247847
Si Si6 0.986369 0.811698 0.833700
Si Si7 0.354896 0.374980 0.467248
Si Si8 0.949409 0.304045 0.699378
O O1 0.119616 0.415477 0.468468
O O2 0.074274 0.154404 0.606064
O O3 0.259099 0.870388 0.627140
O O4 0.063140 0.244399 0.897535
O O5 0.303883 0.310949 0.735540
O O6 0.120980 0.530536 0.778031
O O7 0.115458 0.620789 0.052937
O O8 0.227546 0.105727 0.079162
O O9 0.745262 0.300878 0.614687
O O10 0.928779 0.860653 0.730509
O O11 0.730942 0.251893 0.990612
O O12 0.614756 0.175579 0.362659
O O13 0.441020 0.365104 0.736827
O O14 0.449347 0.323717 0.416737
O O15 0.586350 0.853309 0.647575
O O16 0.955173 0.093514 0.729309
#
# Coordination Sequence:
#
# PCOD8017032 Si02
#       8
#     2   2   2   2   2   2   2   2
#     4   9  20  38  65  94 133 156 214 262 309 378
#     4  11  23  41  62  96 137 167 204 264 319 378
#     4  11  25  41  66  98 129 172 203 259 332 377
#     4  10  24  46  66  92 124 169 217 277 311 366
#     4  10  22  44  70  91 128 166 214 272 316 369
#     4  10  23  39  64  98 132 167 213 254 308 395
#     4  11  26  44  66  93 132 165 217 264 322 376
#     4  10  22  37  66 102 123 175 211 249 318 391
#
# _framework density 24.511158999999999
#
# number of rings (size 3 to 8) (size 9 to 14) (size 15 to 20)
#    0.000    1.750    1.250    1.875    8.750    3.500 
#    0.000    0.000    0.000    0.000    0.000    0.000 
#    0.000    0.000    0.000    0.000    0.000    0.000 
#
# Total GULP energy -198432.497778 kJ/mol
# GULP energy per Si atom -12402.031111 kJ/mol
# Density = 2.445537 g / cm^3
# Si number density = 24.511159 Si / 1000 Ang^3
#
#
#
# Elastic Constant Matrix: (Units=GPa)
#
#
# Indices 1 2 3 4 5 6 
#
# 1 102.9654 11.1472 17.8805 -11.0784 -13.6895 -11.6234
# 2 11.1472 85.3266 14.1732 -9.8451 -12.0972 -4.9788
# 3 17.8805 14.1732 52.6670 -19.9787 -19.5423 -8.0724
# 4 -11.0784 -9.8451 -19.9787 35.0642 -3.6782 -1.6956
# 5 -13.6895 -12.0972 -19.5423 -3.6782 20.5286 1.2640
# 6 -11.6234 -4.9788 -8.0724 -1.6956 1.2640 41.4857
#
#
#
# Elastic Compliance Matrix: (Units=1/GPa)
#
#
# Indices 1 2 3 4 5 6 
#
# 1 0.012139 0.000941 0.005173 0.008822 0.014882 0.004428
# 2 0.000941 0.014168 0.005893 0.009467 0.016097 0.003007
# 3 0.005173 0.005893 0.064801 0.048932 0.076488 0.014435
# 4 0.008822 0.009467 0.048932 0.069826 0.069701 0.013859
# 5 0.014882 0.016097 0.076488 0.069701 0.152242 0.019195
# 6 0.004428 0.003007 0.014435 0.013859 0.019195 0.028497
#
#
# Mechanical properties :
#
#
# Convention : Reuss Voigt Hill
#
# Bulk Modulus (GPa) = 8.68648 36.37340 22.52994
# Shear Modulus (GPa) = 14.04357 32.59957 23.32157
#
# Velocity S-wave (km/s) = 2.39623 3.65086 3.08793
# Velocity P-wave (km/s) = 3.34775 5.71344 4.68246
#
# Compressibility (1/GPa) = 0.11512143
#
# Stress axis : x y z
#
# Youngs Moduli (GPa) = 82.37572 70.58229 15.43182
#
# Poissons Ratio (x) = -0.06642 -0.07982
# Poissons Ratio (y) = -0.07752 -0.09094
# Poissons Ratio (z) = -0.42610 -0.41593
#
# Static dielectric constant tensor:
#      x y z
#    x 4.570260 -0.181080 -0.047360 
#    y -0.181080 4.519370 0.019720 
#    z -0.047360 0.019720 4.189910 
# 
# 
# High freq. dielectric constant tensor:
#      x y z
#    x 1.977860 0.004790 -0.009000 
#    y 0.004790 1.983750 0.001850 
#    z -0.009000 0.001850 1.954040 
# 
# From -- ./inp_files/352030.got.cif
#   From: 2010.06.25/outbox.cif.g09.slc.cpg/sg2_177_cif.got.tgz:352030.got - 2010.06.27 13:26:56.
