data_PCOD8017339
_publ_section_title
;
Structure prediction by ZEFSAII (Michael W. Deem and Ramdas Pophale) SiO2 
 PCOD8017339
Probable space group: P -1
;
_chemical_formula_sum "Si O2"
_cell_formula_units_Z 14
_cell_length_a 10.074276
_cell_length_b 13.373469
_cell_length_c 18.426520
_cell_angle_alpha 29.337690
_cell_angle_beta 136.899423
_cell_angle_gamma 146.241897
_cell_volume 675.777922
_symmetry_space_group_name_H-M "P -1"
_symmetry_group_IT_number 2
_symmetry_cell_setting 'triclinic'
loop_
_space_group_symop_operation_xyz
x,y,z
-x,-y,-z
loop_
_atom_site_type_symbol
_atom_site_label
_atom_site_fract_x
_atom_site_fract_y
_atom_site_fract_z
Si Si1 0.201780 0.801817 0.591211
Si Si2 0.109248 0.561890 0.425295
Si Si3 0.206661 0.398734 0.024624
Si Si4 0.605895 0.642151 0.377332
Si Si5 0.876538 0.538705 0.761845
Si Si6 0.081331 0.156665 0.276808
Si Si7 0.605172 0.871123 0.803271
O O1 0.448800 0.858610 0.681356
O O2 0.099456 0.595242 0.617616
O O3 0.006075 0.705409 0.637106
O O4 0.245550 0.057301 0.417803
O O5 0.300339 0.496542 0.541182
O O6 0.000000 0.500000 0.500000
O O7 0.240262 0.854149 0.273984
O O8 0.204369 0.364657 0.131357
O O9 0.216691 0.191159 0.117137
O O10 0.437300 0.677879 0.921521
O O11 0.965591 0.364038 0.924224
O O12 0.500000 0.500000 0.500000
O O13 0.406625 0.634363 0.254792
O O14 0.815898 0.931739 0.289306
O O15 0.945209 0.725496 0.737183
#
# Coordination Sequence:
#
# PCOD8017339 Si02
#       7
#     2   2   2   2   2   2   2
#     4  10  22  38  67  94 117 162 221 258 310 369
#     4  11  23  40  66  99 123 157 213 272 306 365
#     4  10  24  41  60  94 130 170 209 250 315 389
#     4  11  23  39  67  98 120 161 216 262 316 364
#     4  11  22  40  62  94 126 171 205 257 321 369
#     4  11  22  39  63  95 128 155 213 270 303 374
#     4  10  22  44  65  84 132 172 201 258 320 371
#
# _framework density 20.716864000000001
#
# number of rings (size 3 to 8) (size 9 to 14) (size 15 to 20)
#    0.000    1.429    2.857    3.429    4.000    4.000 
#    0.000   10.714    0.000    0.000    0.000    0.000 
#    0.000    0.000    0.000    0.000    0.000    0.000 
#
# Total GULP energy -173664.619876 kJ/mol
# GULP energy per Si atom -12404.615705 kJ/mol
# Density = 2.066971 g / cm^3
# Si number density = 20.716864 Si / 1000 Ang^3
#
#
#
# Elastic Constant Matrix: (Units=GPa)
#
#
# Indices 1 2 3 4 5 6 
#
# 1 132.2941 56.4116 57.6569 -1.1420 3.2891 -19.2236
# 2 56.4116 85.3611 65.2001 -5.6265 22.4472 -13.3150
# 3 57.6569 65.2001 119.8598 13.9436 8.1648 2.0526
# 4 -1.1420 -5.6265 13.9436 23.8277 1.8804 1.5201
# 5 3.2891 22.4472 8.1648 1.8804 48.9474 8.6993
# 6 -19.2236 -13.3150 2.0526 1.5201 8.6993 29.5228
#
#
#
# Elastic Compliance Matrix: (Units=1/GPa)
#
#
# Indices 1 2 3 4 5 6 
#
# 1 0.011777 -0.004084 -0.003745 0.001370 0.000617 0.005834
# 2 -0.004084 0.042004 -0.022586 0.023086 -0.020124 0.022596
# 3 -0.003745 -0.022586 0.024281 -0.019487 0.010208 -0.016317
# 4 0.001370 0.023086 -0.019487 0.058998 -0.012036 0.013168
# 5 0.000617 -0.020124 0.010208 -0.012036 0.031589 -0.018073
# 6 0.005834 0.022596 -0.016317 0.013168 -0.018073 0.053644
#
#
# Mechanical properties :
#
#
# Convention : Reuss Voigt Hill
#
# Bulk Modulus (GPa) = 58.03082 77.33913 67.68498
# Shear Modulus (GPa) = 17.30900 31.00933 24.15916
#
# Velocity S-wave (km/s) = 2.89364 3.87307 3.41861
# Velocity P-wave (km/s) = 6.26390 7.57716 6.95161
#
# Compressibility (1/GPa) = 0.01723222
#
# Stress axis : x y z
#
# Youngs Moduli (GPa) = 84.91246 23.80735 41.18372
#
# Poissons Ratio (x) = 0.09724 0.15422
# Poissons Ratio (y) = 0.34682 0.93017
# Poissons Ratio (z) = 0.31797 0.53771
#
# Static dielectric constant tensor:
#      x y z
#    x 3.874710 0.056430 0.049930 
#    y 0.056430 3.707020 0.068180 
#    z 0.049930 0.068180 3.847220 
# 
# 
# High freq. dielectric constant tensor:
#      x y z
#    x 1.825150 -0.001050 0.004280 
#    y -0.001050 1.799670 0.005720 
#    z 0.004280 0.005720 1.815090 
# 
# From -- ./inp_files/205629.got.cif
#   From: 2010.06.25/outbox.cif.g09.slc.cpg/sg2_103_cif.got.tgz:205629.got - 2010.06.27 13:26:56.
