data_PCOD8017123
_publ_section_title
;
Structure prediction by ZEFSAII (Michael W. Deem and Ramdas Pophale) SiO2 
 PCOD8017123
Probable space group: P -1
;
_chemical_formula_sum "Si O2"
_cell_formula_units_Z 16
_cell_length_a 14.142979
_cell_length_b 10.877116
_cell_length_c 6.096494
_cell_angle_alpha 90.669255
_cell_angle_beta 54.461908
_cell_angle_gamma 104.504122
_cell_volume 728.087279
_symmetry_space_group_name_H-M "P -1"
_symmetry_group_IT_number 2
_symmetry_cell_setting 'triclinic'
loop_
_space_group_symop_operation_xyz
x,y,z
-x,-y,-z
loop_
_atom_site_type_symbol
_atom_site_label
_atom_site_fract_x
_atom_site_fract_y
_atom_site_fract_z
Si Si1 0.298317 0.724055 0.117361
Si Si2 0.833477 0.681561 0.753900
Si Si3 0.641673 0.065836 0.287793
Si Si4 0.173024 0.086595 0.963748
Si Si5 0.026406 0.167147 0.809380
Si Si6 0.837675 0.267731 0.305051
Si Si7 0.626888 0.480290 0.767903
Si Si8 0.780759 0.479196 0.157553
O O1 0.176028 0.727063 0.412985
O O2 0.380425 0.669367 0.174679
O O3 0.352475 0.868544 0.958647
O O4 0.278324 0.627028 0.942960
O O5 0.937276 0.724743 0.427909
O O6 0.717218 0.580314 0.807592
O O7 0.804074 0.809940 0.871272
O O8 0.865925 0.609443 0.925697
O O9 0.709745 0.173907 0.376249
O O10 0.500000 0.000000 0.500000
O O11 0.703987 0.952311 0.215086
O O12 0.143661 0.144252 0.771255
O O13 0.058166 0.965342 0.183138
O O14 0.949155 0.214777 0.098055
O O15 0.863946 0.415884 0.192099
O O16 0.674627 0.509879 0.452004
O O17 0.500000 0.500000 0.000000
#
# Coordination Sequence:
#
# PCOD8017123 Si02
#       8
#     2   2   2   2   2   2   2   2
#     4   9  20  38  60  85 117 155 196 245 299 351
#     4  11  22  37  61  90 121 158 201 247 302 357
#     4  10  22  38  60  88 119 156 201 250 300 358
#     4  10  23  39  58  88 123 159 204 247 296 356
#     4  10  22  40  61  87 123 161 200 250 297 353
#     4   9  20  40  61  86 121 158 199 247 302 357
#     4  10  22  40  63  88 121 160 198 248 302 358
#     4   9  20  39  59  88 117 147 197 246 298 357
#
# _framework density 21.975390000000001
#
# number of rings (size 3 to 8) (size 9 to 14) (size 15 to 20)
#    0.000    2.250    0.000    1.125    0.000   14.000 
#    0.000    8.750    0.000    0.000    0.000    0.000 
#    0.000    0.000    0.000    0.000    0.000    0.000 
#
# Total GULP energy -198212.336880 kJ/mol
# GULP energy per Si atom -12388.271055 kJ/mol
# Density = 2.192537 g / cm^3
# Si number density = 21.975390 Si / 1000 Ang^3
#
#
#
# Elastic Constant Matrix: (Units=GPa)
#
#
# Indices 1 2 3 4 5 6 
#
# 1 86.4529 43.8563 57.3331 -9.2366 -7.7179 -18.8195
# 2 43.8563 112.2007 66.7036 5.5745 -5.4498 -19.0735
# 3 57.3331 66.7036 151.1388 -7.4568 15.2196 -28.2146
# 4 -9.2366 5.5745 -7.4568 44.6184 -6.4071 5.7994
# 5 -7.7179 -5.4498 15.2196 -6.4071 26.5578 0.7995
# 6 -18.8195 -19.0735 -28.2146 5.7994 0.7995 35.6700
#
#
#
# Elastic Compliance Matrix: (Units=1/GPa)
#
#
# Indices 1 2 3 4 5 6 
#
# 1 0.019067 -0.003152 -0.006072 0.004321 0.009337 0.002659
# 2 -0.003152 0.013871 -0.005086 -0.002925 0.004076 0.002115
# 3 -0.006072 -0.005086 0.013092 -0.000574 -0.010593 0.004763
# 4 0.004321 -0.002925 -0.000574 0.025123 0.007165 -0.003983
# 5 0.009337 0.004076 -0.010593 0.007165 0.049109 -0.003539
# 6 0.002659 0.002115 0.004763 -0.003983 -0.003539 0.035064
#
#
# Mechanical properties :
#
#
# Convention : Reuss Voigt Hill
#
# Bulk Modulus (GPa) = 57.43930 76.17538 66.80734
# Shear Modulus (GPa) = 26.35046 33.49586 29.92316
#
# Velocity S-wave (km/s) = 3.46654 3.90839 3.69408
# Velocity P-wave (km/s) = 6.49749 7.42338 6.97581
#
# Compressibility (1/GPa) = 0.01740968
#
# Stress axis : x y z
#
# Youngs Moduli (GPa) = 52.44667 72.09164 76.38130
#
# Poissons Ratio (x) = 0.22722 0.46382
# Poissons Ratio (y) = 0.16530 0.38849
# Poissons Ratio (z) = 0.31848 0.36667
#
# Static dielectric constant tensor:
#      x y z
#    x 3.952400 -0.381020 0.499540 
#    y -0.381020 4.409340 -0.176080 
#    z 0.499540 -0.176080 4.173080 
# 
# 
# High freq. dielectric constant tensor:
#      x y z
#    x 1.839530 -0.013760 0.021630 
#    y -0.013760 1.881510 0.004340 
#    z 0.021630 0.004340 1.863180 
# 
# From -- ./inp_files/94859.got.cif
#   From: 2010.06.25/outbox.cif.g09.slc.cpg/sg2_48_cif.got.tgz:94859.got - 2010.06.27 13:26:56.
