data_PCOD8017795
_publ_section_title
;
Structure prediction by ZEFSAII (Michael W. Deem and Ramdas Pophale) SiO2 
 PCOD8017795
Probable space group: P -1
;
_chemical_formula_sum "Si O2"
_cell_formula_units_Z 16
_cell_length_a 21.362848
_cell_length_b 5.258114
_cell_length_c 13.501246
_cell_angle_alpha 55.520146
_cell_angle_beta 145.977963
_cell_angle_gamma 110.829081
_cell_volume 677.912927
_symmetry_space_group_name_H-M "P -1"
_symmetry_group_IT_number 2
_symmetry_cell_setting 'triclinic'
loop_
_space_group_symop_operation_xyz
x,y,z
-x,-y,-z
loop_
_atom_site_type_symbol
_atom_site_label
_atom_site_fract_x
_atom_site_fract_y
_atom_site_fract_z
Si Si1 0.445472 0.452781 0.646412
Si Si2 0.685147 0.424869 0.879567
Si Si3 0.746772 0.093352 0.826581
Si Si4 0.427586 0.736556 0.774238
Si Si5 0.852770 0.290975 0.297196
Si Si6 0.004062 0.384381 0.319830
Si Si7 0.973748 0.277223 0.099003
Si Si8 0.182808 0.725531 0.530208
O O1 0.548648 0.490607 0.702353
O O2 0.325067 0.633997 0.399791
O O3 0.463952 0.609584 0.740594
O O4 0.447578 0.083439 0.742513
O O5 0.716456 0.194485 0.877550
O O6 0.716437 0.763561 0.832588
O O7 0.753185 0.232998 0.105638
O O8 0.883300 0.076295 0.989012
O O9 0.295290 0.739352 0.615741
O O10 0.500000 0.500000 0.000000
O O11 0.792746 0.423619 0.293408
O O12 0.917720 0.526605 0.268639
O O13 0.954652 0.990008 0.524411
O O14 0.118278 0.507823 0.431756
O O15 0.927950 0.461649 0.101386
O O16 0.098171 0.072951 0.342189
O O17 0.000000 0.500000 0.000000
#
# Coordination Sequence:
#
# PCOD8017795 Si02
#       8
#     2   2   2   2   2   2   2   2
#     4  12  27  49  73 105 145 189 241 304 356 425
#     4  12  25  45  76 103 142 189 244 296 362 420
#     4  12  26  46  72 107 146 189 244 291 358 431
#     4  12  28  48  75 106 143 186 245 294 367 430
#     4  10  22  39  66 100 135 181 232 298 348 417
#     4  10  22  41  64  99 136 179 237 289 352 424
#     4  11  25  43  67 103 146 189 235 292 360 435
#     4  11  25  41  70  97 143 187 237 291 364 421
#
# _framework density 23.601852000000001
#
# number of rings (size 3 to 8) (size 9 to 14) (size 15 to 20)
#    0.000    0.750    1.250    5.250    8.750    0.500 
#    0.000    0.000    0.000    0.000    0.000    0.000 
#    0.000    0.000    0.000    0.000    0.000    0.000 
#
# Total GULP energy -198328.767513 kJ/mol
# GULP energy per Si atom -12395.547970 kJ/mol
# Density = 2.354813 g / cm^3
# Si number density = 23.601852 Si / 1000 Ang^3
#
#
#
# Elastic Constant Matrix: (Units=GPa)
#
#
# Indices 1 2 3 4 5 6 
#
# 1 88.8450 25.4004 17.0163 -2.8984 1.4169 13.8824
# 2 25.4004 93.3685 -2.7675 7.2421 -0.2802 17.1627
# 3 17.0163 -2.7675 97.2690 6.3383 -14.3265 3.8839
# 4 -2.8984 7.2421 6.3383 30.2105 7.2827 1.2856
# 5 1.4169 -0.2802 -14.3265 7.2827 49.3594 8.9162
# 6 13.8824 17.1627 3.8839 1.2856 8.9162 43.1382
#
#
#
# Elastic Compliance Matrix: (Units=1/GPa)
#
#
# Indices 1 2 3 4 5 6 
#
# 1 0.013273 -0.003474 -0.002695 0.003063 -0.001185 -0.002493
# 2 -0.003474 0.012849 0.001724 -0.004087 0.002081 -0.004458
# 3 -0.002695 0.001724 0.011789 -0.004140 0.004422 -0.001670
# 4 0.003063 -0.004087 -0.004140 0.036873 -0.006999 0.001361
# 5 -0.001185 0.002081 0.004422 -0.006999 0.023618 -0.005518
# 6 -0.002493 -0.004458 -0.001670 0.001361 -0.005518 0.027008
#
#
# Mechanical properties :
#
#
# Convention : Reuss Voigt Hill
#
# Bulk Modulus (GPa) = 34.45717 39.86455 37.16086
# Shear Modulus (GPa) = 34.72858 40.53050 37.62954
#
# Velocity S-wave (km/s) = 3.84009 4.14848 3.99726
# Velocity P-wave (km/s) = 5.85600 6.31455 6.08960
#
# Compressibility (1/GPa) = 0.02902153
#
# Stress axis : x y z
#
# Youngs Moduli (GPa) = 75.33898 77.82681 84.82427
#
# Poissons Ratio (x) = 0.27035 0.22864
# Poissons Ratio (y) = 0.26171 -0.14625
# Poissons Ratio (z) = 0.20307 -0.13419
#
# Static dielectric constant tensor:
#      x y z
#    x 4.781650 -0.103050 0.013090 
#    y -0.103050 4.137790 0.037350 
#    z 0.013090 0.037350 4.887860 
# 
# 
# High freq. dielectric constant tensor:
#      x y z
#    x 1.946280 0.002800 -0.004250 
#    y 0.002800 1.930150 0.005270 
#    z -0.004250 0.005270 1.948400 
# 
# From -- ./inp_files/542006.got.cif
#   From: 2010.06.25/outbox.cif.g09.slc.cpg/sg2_272_cif.got.tgz:542006.got - 2010.06.27 13:26:56.
