data_PCOD8017713
_publ_section_title
;
Structure prediction by ZEFSAII (Michael W. Deem and Ramdas Pophale) SiO2 
 PCOD8017713
Probable space group: P -1
;
_chemical_formula_sum "Si O2"
_cell_formula_units_Z 12
_cell_length_a 13.897781
_cell_length_b 9.275000
_cell_length_c 6.652729
_cell_angle_alpha 119.537973
_cell_angle_beta 82.962255
_cell_angle_gamma 56.051485
_cell_volume 516.391540
_symmetry_space_group_name_H-M "P -1"
_symmetry_group_IT_number 2
_symmetry_cell_setting 'triclinic'
loop_
_space_group_symop_operation_xyz
x,y,z
-x,-y,-z
loop_
_atom_site_type_symbol
_atom_site_label
_atom_site_fract_x
_atom_site_fract_y
_atom_site_fract_z
Si Si1 0.429130 0.238488 0.787998
Si Si2 0.676364 0.998288 0.804841
Si Si3 0.880089 0.277393 0.246685
Si Si4 0.882942 0.560804 0.704019
Si Si5 0.617547 0.417274 0.261189
Si Si6 0.164410 0.396927 0.832158
O O1 0.448007 0.383281 0.753042
O O2 0.268997 0.378612 0.939959
O O3 0.500000 0.000000 0.500000
O O4 0.510965 0.166390 0.928725
O O5 0.733154 0.822902 0.859028
O O6 0.760706 0.843742 0.473357
O O7 0.695683 0.168694 0.961651
O O8 0.885028 0.360714 0.520094
O O9 0.729968 0.379512 0.335515
O O10 0.907024 0.387042 0.149767
O O11 0.000000 0.000000 0.000000
O O12 0.000000 0.500000 0.500000
O O13 0.929937 0.548992 0.915912
O O14 0.500000 0.500000 0.500000
#
# Coordination Sequence:
#
# PCOD8017713 Si02
#       6
#     2   2   2   2   2   2
#     4   9  20  41  61  93 131 169 214 260 333 388
#     4  10  22  39  64  94 130 169 217 260 331 394
#     4  10  23  46  64  95 133 175 222 266 335 402
#     4  11  24  43  66  97 126 174 228 269 327 392
#     4  11  24  40  65 104 135 169 221 278 325 391
#     4   9  22  42  66  92 132 172 215 278 322 387
#
# _framework density 23.238181000000001
#
# number of rings (size 3 to 8) (size 9 to 14) (size 15 to 20)
#    0.000    2.000    0.000    2.500    7.000    4.000 
#    3.000    0.000    0.000    0.000    0.000    0.000 
#    0.000    0.000    0.000    0.000    0.000    0.000 
#
# Total GULP energy -148733.456726 kJ/mol
# GULP energy per Si atom -12394.454727 kJ/mol
# Density = 2.318529 g / cm^3
# Si number density = 23.238181 Si / 1000 Ang^3
#
#
#
# Elastic Constant Matrix: (Units=GPa)
#
#
# Indices 1 2 3 4 5 6 
#
# 1 55.6816 15.9223 32.2324 3.6362 24.5857 8.7904
# 2 15.9223 125.9477 65.3343 18.4235 16.9638 3.5382
# 3 32.2324 65.3343 150.4366 -0.1955 24.9071 17.1323
# 4 3.6362 18.4235 -0.1955 46.7417 3.9944 8.5241
# 5 24.5857 16.9638 24.9071 3.9944 43.4766 -1.5091
# 6 8.7904 3.5382 17.1323 8.5241 -1.5091 41.1888
#
#
#
# Elastic Compliance Matrix: (Units=1/GPa)
#
#
# Indices 1 2 3 4 5 6 
#
# 1 0.026314 0.000146 -0.002922 -0.000078 -0.013426 -0.004889
# 2 0.000146 0.011300 -0.004988 -0.004758 -0.001127 0.002016
# 3 -0.002922 -0.004988 0.010361 0.003207 -0.002771 -0.004023
# 4 -0.000078 -0.004758 0.003207 0.024605 -0.002409 -0.006089
# 5 -0.013426 -0.001127 -0.002771 -0.002409 0.033044 0.005824
# 6 -0.004889 0.002016 -0.004023 -0.006089 0.005824 0.028295
#
#
# Mechanical properties :
#
#
# Convention : Reuss Voigt Hill
#
# Bulk Modulus (GPa) = 30.81955 62.11597 46.46776
# Shear Modulus (GPa) = 31.19889 40.85321 36.02605
#
# Velocity S-wave (km/s) = 3.66809 4.19742 3.94165
# Velocity P-wave (km/s) = 5.58847 7.09079 6.38398
#
# Compressibility (1/GPa) = 0.03244694
#
# Stress axis : x y z
#
# Youngs Moduli (GPa) = 38.00285 88.49624 96.51779
#
# Poissons Ratio (x) = -0.01294 0.28202
# Poissons Ratio (y) = -0.00556 0.48144
# Poissons Ratio (z) = 0.11104 0.44142
#
# Static dielectric constant tensor:
#      x y z
#    x 5.445450 -0.883580 0.778360 
#    y -0.883580 4.651470 -0.202670 
#    z 0.778360 -0.202670 4.460950 
# 
# 
# High freq. dielectric constant tensor:
#      x y z
#    x 1.945730 -0.016150 0.018010 
#    y -0.016150 1.916760 0.003070 
#    z 0.018010 0.003070 1.911990 
# 
# From -- ./inp_files/24634.got.cif
#   From: 2010.06.25/outbox.cif.g09.slc.cpg/sg2_13_cif.got.tgz:24634.got - 2010.06.27 13:26:56.
