data_PCOD8017978
_publ_section_title
;
Structure prediction by ZEFSAII (Michael W. Deem and Ramdas Pophale) SiO2 
 PCOD8017978
Probable space group: P -1
;
_chemical_formula_sum "Si O2"
_cell_formula_units_Z 16
_cell_length_a 9.147446
_cell_length_b 18.334188
_cell_length_c 11.804570
_cell_angle_alpha 56.143579
_cell_angle_beta 141.447620
_cell_angle_gamma 94.959213
_cell_volume 756.188231
_symmetry_space_group_name_H-M "P -1"
_symmetry_group_IT_number 2
_symmetry_cell_setting 'triclinic'
loop_
_space_group_symop_operation_xyz
x,y,z
-x,-y,-z
loop_
_atom_site_type_symbol
_atom_site_label
_atom_site_fract_x
_atom_site_fract_y
_atom_site_fract_z
Si Si1 0.465749 0.272662 0.718261
Si Si2 0.829764 0.774043 0.599900
Si Si3 0.319269 0.519926 0.179896
Si Si4 0.125417 0.730835 0.214969
Si Si5 0.048308 0.467939 0.865406
Si Si6 0.525113 0.774585 0.785203
Si Si7 0.752730 0.132998 0.690787
Si Si8 0.153990 0.866447 0.709432
O O1 0.330205 0.221790 0.614893
O O2 0.722872 0.260907 0.810015
O O3 0.169469 0.411684 0.445399
O O4 0.620296 0.199219 0.989184
O O5 0.605040 0.799062 0.544419
O O6 0.863480 0.870244 0.532484
O O7 0.193844 0.645856 0.950353
O O8 0.695594 0.406273 0.522796
O O9 0.170619 0.548186 0.190846
O O10 0.214470 0.474371 0.064949
O O11 0.141681 0.796589 0.269608
O O12 0.762312 0.797466 0.916172
O O13 0.301977 0.358898 0.031689
O O14 0.253943 0.868147 0.448616
O O15 0.363881 0.796537 0.787247
O O16 0.000000 0.000000 0.000000
O O17 0.000000 0.000000 0.500000
#
# Coordination Sequence:
#
# PCOD8017978 Si02
#       8
#     2   2   2   2   2   2   2   2
#     4   9  22  43  66  96 126 172 212 259 330 389
#     4  10  22  45  70  92 126 177 214 264 329 382
#     4   9  16  38  70 102 128 156 207 271 337 380
#     4  10  22  39  72 102 128 161 212 278 326 375
#     4   9  17  37  67  99 131 155 210 272 326 383
#     4  12  25  41  64 100 132 169 214 272 319 376
#     4  11  24  42  70  97 125 165 227 275 315 371
#     4  12  30  45  59  88 139 183 220 255 316 395
#
# _framework density 21.158753000000001
#
# number of rings (size 3 to 8) (size 9 to 14) (size 15 to 20)
#    0.000    1.750    2.500    2.250    7.000    3.500 
#    0.000    1.250    0.000    0.000    0.000    0.000 
#    0.000    0.000    0.000    0.000    0.000    0.000 
#
# Total GULP energy -198345.013370 kJ/mol
# GULP energy per Si atom -12396.563336 kJ/mol
# Density = 2.111059 g / cm^3
# Si number density = 21.158753 Si / 1000 Ang^3
#
#
#
# Elastic Constant Matrix: (Units=GPa)
#
#
# Indices 1 2 3 4 5 6 
#
# 1 61.1508 38.3618 27.4893 9.4666 -19.6410 -18.7708
# 2 38.3618 90.6655 32.3963 -9.1942 -10.8095 4.2069
# 3 27.4893 32.3963 112.8244 5.0325 -28.4425 -10.1667
# 4 9.4666 -9.1942 5.0325 25.7720 -7.7054 -3.5590
# 5 -19.6410 -10.8095 -28.4425 -7.7054 29.9513 0.8045
# 6 -18.7708 4.2069 -10.1667 -3.5590 0.8045 30.2394
#
#
#
# Elastic Compliance Matrix: (Units=1/GPa)
#
#
# Indices 1 2 3 4 5 6 
#
# 1 0.047238 -0.021660 0.003749 -0.014903 0.022047 0.031256
# 2 -0.021660 0.023327 -0.005279 0.012892 -0.007031 -0.016761
# 3 0.003749 -0.005279 0.013377 -0.001068 0.012791 0.007093
# 4 -0.014903 0.012892 -0.001068 0.050390 0.006981 -0.005659
# 5 0.022047 -0.007031 0.012791 0.006981 0.058761 0.018222
# 6 0.031256 -0.016761 0.007093 -0.005659 0.018222 0.056037
#
#
# Mechanical properties :
#
#
# Convention : Reuss Voigt Hill
#
# Bulk Modulus (GPa) = 26.62152 51.23729 38.92940
# Shear Modulus (GPa) = 16.23224 28.28542 22.25883
#
# Velocity S-wave (km/s) = 2.77278 3.66022 3.24696
# Velocity P-wave (km/s) = 4.78123 6.49085 5.70050
#
# Compressibility (1/GPa) = 0.03756360
#
# Stress axis : x y z
#
# Youngs Moduli (GPa) = 21.16939 42.86875 74.75541
#
# Poissons Ratio (x) = 0.92852 -0.28026
# Poissons Ratio (y) = 0.45852 0.39460
# Poissons Ratio (z) = -0.07936 0.22628
#
# Static dielectric constant tensor:
#      x y z
#    x 3.510950 -0.125470 -0.040110 
#    y -0.125470 3.951860 -0.011770 
#    z -0.040110 -0.011770 3.924900 
# 
# 
# High freq. dielectric constant tensor:
#      x y z
#    x 1.789300 -0.011540 -0.008530 
#    y -0.011540 1.841530 0.004640 
#    z -0.008530 0.004640 1.839720 
# 
# From -- ./inp_files/403057.got.cif
#   From: 2010.06.25/outbox.cif.g09.slc.cpg/sg2_202_cif.got.tgz:403057.got - 2010.06.27 13:26:56.
