data_PCOD8017448
_publ_section_title
;
Structure prediction by ZEFSAII (Michael W. Deem and Ramdas Pophale) SiO2 
 PCOD8017448
Probable space group: P -1
;
_chemical_formula_sum "Si O2"
_cell_formula_units_Z 16
_cell_length_a 9.647770
_cell_length_b 5.275114
_cell_length_c 15.496824
_cell_angle_alpha 101.670752
_cell_angle_beta 75.368338
_cell_angle_gamma 105.253387
_cell_volume 728.385610
_symmetry_space_group_name_H-M "P -1"
_symmetry_group_IT_number 2
_symmetry_cell_setting 'triclinic'
loop_
_space_group_symop_operation_xyz
x,y,z
-x,-y,-z
loop_
_atom_site_type_symbol
_atom_site_label
_atom_site_fract_x
_atom_site_fract_y
_atom_site_fract_z
Si Si1 0.411047 0.199234 0.489582
Si Si2 0.084942 0.771666 0.962978
Si Si3 0.762053 0.494373 0.802465
Si Si4 0.540780 0.044897 0.704307
Si Si5 0.529489 0.798193 0.854574
Si Si6 0.744665 0.864187 0.325270
Si Si7 0.100924 0.614794 0.757097
Si Si8 0.658411 0.277285 0.976065
O O1 0.500000 0.500000 0.500000
O O2 0.266389 0.163166 0.570179
O O3 0.500000 0.000000 0.500000
O O4 0.380251 0.108939 0.389121
O O5 0.122610 0.743102 0.855890
O O6 0.235188 0.872037 0.998616
O O7 0.000000 0.500000 0.000000
O O8 0.000000 0.000000 0.000000
O O9 0.670750 0.239947 0.748338
O O10 0.689118 0.738795 0.806715
O O11 0.753979 0.483871 0.908040
O O12 0.930230 0.539460 0.750678
O O13 0.420870 0.196114 0.694049
O O14 0.458206 0.827320 0.773514
O O15 0.543697 0.075371 0.921442
O O16 0.427527 0.591328 0.924710
O O17 0.834910 0.650142 0.266723
O O18 0.820814 0.166748 0.309609
#
# Coordination Sequence:
#
# PCOD8017448 Si02
#       8
#     2   2   2   2   2   2   2   2
#     4  10  22  43  73 103 136 167 222 285 344 399
#     4  12  24  40  64  91 132 178 230 262 333 393
#     4  11  24  41  65  93 139 180 222 273 350 394
#     4  10  24  41  71 100 126 177 225 284 341 404
#     4  10  22  40  64  90 133 166 234 278 335 391
#     4  11  25  45  70 103 133 174 229 280 339 406
#     4  12  26  44  68  99 143 181 222 279 340 405
#     4  10  22  39  59  94 122 181 228 280 322 394
#
# _framework density 21.966387999999998
#
# number of rings (size 3 to 8) (size 9 to 14) (size 15 to 20)
#    0.000    1.250    1.250    4.125   10.500    0.000 
#    0.000    1.250    0.000    0.000    0.000    0.000 
#    0.000    0.000    0.000    0.000    0.000    0.000 
#
# Total GULP energy -198242.219413 kJ/mol
# GULP energy per Si atom -12390.138713 kJ/mol
# Density = 2.191639 g / cm^3
# Si number density = 21.966388 Si / 1000 Ang^3
#
#
#
# Elastic Constant Matrix: (Units=GPa)
#
#
# Indices 1 2 3 4 5 6 
#
# 1 106.5894 28.2992 45.0478 3.8620 -8.2616 -10.7874
# 2 28.2992 105.4258 42.8072 -7.0980 -3.9924 -11.3306
# 3 45.0478 42.8072 172.0927 -8.1274 2.5437 -2.2491
# 4 3.8620 -7.0980 -8.1274 35.6051 -0.5424 -11.9535
# 5 -8.2616 -3.9924 2.5437 -0.5424 29.2481 3.5940
# 6 -10.7874 -11.3306 -2.2491 -11.9535 3.5940 34.5129
#
#
#
# Elastic Compliance Matrix: (Units=1/GPa)
#
#
# Indices 1 2 3 4 5 6 
#
# 1 0.011456 -0.001774 -0.002645 -0.001482 0.002950 0.002006
# 2 -0.001774 0.011571 -0.002210 0.003417 0.000818 0.004199
# 3 -0.002645 -0.002210 0.007131 0.001290 -0.001587 -0.000475
# 4 -0.001482 0.003417 0.001290 0.033371 -0.000969 0.012402
# 5 0.002950 0.000818 -0.001587 -0.000969 0.035619 -0.002958
# 6 0.002006 0.004199 -0.000475 0.012402 -0.002958 0.035552
#
#
# Mechanical properties :
#
#
# Convention : Reuss Voigt Hill
#
# Bulk Modulus (GPa) = 59.16763 68.49072 63.82918
# Shear Modulus (GPa) = 32.55419 37.73678 35.14548
#
# Velocity S-wave (km/s) = 3.85385 4.14929 4.00430
# Velocity P-wave (km/s) = 6.84083 7.36227 7.10633
#
# Compressibility (1/GPa) = 0.01690113
#
# Stress axis : x y z
#
# Youngs Moduli (GPa) = 87.29201 86.42328 140.23224
#
# Poissons Ratio (x) = 0.15328 0.37090
# Poissons Ratio (y) = 0.15482 0.30989
# Poissons Ratio (z) = 0.23088 0.19098
#
# Static dielectric constant tensor:
#      x y z
#    x 4.105590 -0.449310 -0.886150 
#    y -0.449310 4.860360 2.006140 
#    z -0.886150 2.006140 9.605150 
# 
# 
# High freq. dielectric constant tensor:
#      x y z
#    x 1.851870 -0.012140 -0.003220 
#    y -0.012140 1.859770 -0.008710 
#    z -0.003220 -0.008710 1.878610 
# 
# From -- ./inp_files/134918.got.cif
#   From: 2010.06.25/outbox.cif.g09.slc.cpg/sg2_68_cif.got.tgz:134918.got - 2010.06.27 13:26:56.
