data_PCOD8017981
_publ_section_title
;
Structure prediction by ZEFSAII (Michael W. Deem and Ramdas Pophale) SiO2 
 PCOD8017981
Probable space group: P -1
;
_chemical_formula_sum "Si O2"
_cell_formula_units_Z 12
_cell_length_a 12.608477
_cell_length_b 8.999775
_cell_length_c 9.190192
_cell_angle_alpha 130.827849
_cell_angle_beta 129.895025
_cell_angle_gamma 48.867536
_cell_volume 551.973885
_symmetry_space_group_name_H-M "P -1"
_symmetry_group_IT_number 2
_symmetry_cell_setting 'triclinic'
loop_
_space_group_symop_operation_xyz
x,y,z
-x,-y,-z
loop_
_atom_site_type_symbol
_atom_site_label
_atom_site_fract_x
_atom_site_fract_y
_atom_site_fract_z
Si Si1 0.616381 0.556035 0.045221
Si Si2 0.694266 0.112446 0.740872
Si Si3 0.849092 0.961414 0.349302
Si Si4 0.141883 0.299205 0.550486
Si Si5 0.548177 0.254740 0.419353
Si Si6 0.625888 0.019067 0.944332
O O1 0.711145 0.646536 0.289987
O O2 0.507460 0.752616 0.970060
O O3 0.500000 0.500000 0.000000
O O4 0.729093 0.329148 0.924390
O O5 0.552362 0.195158 0.556540
O O6 0.652092 0.038986 0.809456
O O7 0.833186 0.907217 0.662046
O O8 0.887919 0.741690 0.333323
O O9 0.718805 0.147865 0.442139
O O10 0.000000 0.000000 0.500000
O O11 0.784892 0.953529 0.126569
O O12 0.000000 0.500000 0.500000
O O13 0.500000 0.500000 0.500000
O O14 0.433860 0.164320 0.190197
#
# Coordination Sequence:
#
# PCOD8017981 Si02
#       6
#     2   2   2   2   2   2
#     4  10  22  39  73 100 130 171 226 279 342 394
#     4  10  23  42  70 101 132 172 227 275 344 396
#     4  11  26  45  63  95 143 182 220 282 344 395
#     4  11  26  46  66  96 140 179 226 279 339 407
#     4  11  23  41  71 101 135 174 232 283 337 404
#     4  11  22  44  71 100 135 174 230 284 337 409
#
# _framework density 21.740159999999999
#
# number of rings (size 3 to 8) (size 9 to 14) (size 15 to 20)
#    0.000    1.333    3.333    2.000    9.333    2.000 
#    3.000    1.667    0.000    0.000    0.000    0.000 
#    0.000    0.000    0.000    0.000    0.000    0.000 
#
# Total GULP energy -148669.141351 kJ/mol
# GULP energy per Si atom -12389.095113 kJ/mol
# Density = 2.169068 g / cm^3
# Si number density = 21.740160 Si / 1000 Ang^3
#
#
#
# Elastic Constant Matrix: (Units=GPa)
#
#
# Indices 1 2 3 4 5 6 
#
# 1 108.5018 50.7019 67.3797 -15.5722 13.8848 15.7494
# 2 50.7019 180.6304 79.3224 -7.1177 6.3979 15.5092
# 3 67.3797 79.3224 133.5524 -3.2264 14.6022 4.9151
# 4 -15.5722 -7.1177 -3.2264 47.7656 -0.4834 1.4071
# 5 13.8848 6.3979 14.6022 -0.4834 42.2911 -2.5860
# 6 15.7494 15.5092 4.9151 1.4071 -2.5860 30.3800
#
#
#
# Elastic Compliance Matrix: (Units=1/GPa)
#
#
# Indices 1 2 3 4 5 6 
#
# 1 0.015988 -0.000445 -0.007069 0.004855 -0.003139 -0.007410
# 2 -0.000445 0.007854 -0.004337 0.000826 0.000276 -0.003092
# 3 -0.007069 -0.004337 0.013610 -0.002154 -0.001524 0.003647
# 4 0.004855 0.000826 -0.002154 0.022596 -0.000944 -0.003717
# 5 -0.003139 0.000276 -0.001524 -0.000944 0.025391 0.003938
# 6 -0.007410 -0.003092 0.003647 -0.003717 0.003938 0.038254
#
#
# Mechanical properties :
#
#
# Convention : Reuss Voigt Hill
#
# Bulk Modulus (GPa) = 72.72053 90.83251 81.77652
# Shear Modulus (GPa) = 32.89978 39.10604 36.00291
#
# Velocity S-wave (km/s) = 3.89436 4.24582 4.07388
# Velocity P-wave (km/s) = 7.33102 8.11835 7.73471
#
# Compressibility (1/GPa) = 0.01375127
#
# Stress axis : x y z
#
# Youngs Moduli (GPa) = 62.54640 127.32875 73.47426
#
# Poissons Ratio (x) = 0.05664 0.51939
# Poissons Ratio (y) = 0.02782 0.31863
# Poissons Ratio (z) = 0.44214 0.55218
#
# Static dielectric constant tensor:
#      x y z
#    x 3.779130 0.089710 -0.398860 
#    y 0.089710 4.607540 0.447770 
#    z -0.398860 0.447770 4.904250 
# 
# 
# High freq. dielectric constant tensor:
#      x y z
#    x 1.834450 0.024870 -0.006660 
#    y 0.024870 1.870000 0.002660 
#    z -0.006660 0.002660 1.856330 
# 
# From -- ./inp_files/158318.got.cif
#   From: 2010.06.25/outbox.cif.g09.slc.cpg/sg2_80_cif.got.tgz:158318.got - 2010.06.27 13:26:56.
