data_PCOD8017547
_publ_section_title
;
Structure prediction by ZEFSAII (Michael W. Deem and Ramdas Pophale) SiO2 
 PCOD8017547
Probable space group: P -1
;
_chemical_formula_sum "Si O2"
_cell_formula_units_Z 16
_cell_length_a 9.207551
_cell_length_b 25.459862
_cell_length_c 14.699313
_cell_angle_alpha 32.090866
_cell_angle_beta 148.066772
_cell_angle_gamma 123.757956
_cell_volume 787.979613
_symmetry_space_group_name_H-M "P -1"
_symmetry_group_IT_number 2
_symmetry_cell_setting 'triclinic'
loop_
_space_group_symop_operation_xyz
x,y,z
-x,-y,-z
loop_
_atom_site_type_symbol
_atom_site_label
_atom_site_fract_x
_atom_site_fract_y
_atom_site_fract_z
Si Si1 0.206641 0.994206 0.816226
Si Si2 0.067337 0.781978 0.760964
Si Si3 0.705711 0.527230 0.183843
Si Si4 0.840336 0.295185 0.506166
Si Si5 0.342510 0.382284 0.387773
Si Si6 0.623320 0.177178 0.692222
Si Si7 0.391363 0.469141 0.665053
Si Si8 0.491123 0.210591 0.871150
O O1 0.116535 0.940609 0.932293
O O2 0.327851 0.911347 0.912284
O O3 0.907807 0.130519 0.425753
O O4 0.500000 0.000000 0.000000
O O5 0.679802 0.827764 0.500593
O O6 0.276700 0.646120 0.034262
O O7 0.215251 0.788256 0.925765
O O8 0.738088 0.403745 0.362174
O O9 0.618829 0.564475 0.187348
O O10 0.064595 0.501755 0.387689
O O11 0.417764 0.643743 0.804156
O O12 0.814582 0.191923 0.689873
O O13 0.226710 0.221760 0.786448
O O14 0.482924 0.292533 0.510732
O O15 0.599616 0.414488 0.507016
O O16 0.275674 0.326939 0.520084
O O17 0.000000 0.500000 0.000000
#
# Coordination Sequence:
#
# PCOD8017547 Si02
#       8
#     2   2   2   2   2   2   2   2
#     4   9  22  44  66  85 116 159 210 251 298 356
#     4  11  22  39  66  89 118 157 211 255 290 348
#     4  10  23  35  57  89 134 159 188 248 301 369
#     4  11  22  39  59  90 126 160 194 244 311 354
#     4  11  21  35  59  88 124 161 203 237 294 368
#     4  10  22  39  62  88 123 160 202 245 302 358
#     4  11  21  37  59  91 124 164 200 236 305 361
#     4  11  24  39  65  92 119 159 203 254 299 349
#
# _framework density 20.305094
#
# number of rings (size 3 to 8) (size 9 to 14) (size 15 to 20)
#    0.000    1.500    3.750    1.125    7.000    0.500 
#    0.000    3.125    0.000    0.000    0.000    0.000 
#    0.000    0.000    0.000    0.000    0.000    0.000 
#
# Total GULP energy -198361.983159 kJ/mol
# GULP energy per Si atom -12397.623947 kJ/mol
# Density = 2.025888 g / cm^3
# Si number density = 20.305094 Si / 1000 Ang^3
#
#
#
# Elastic Constant Matrix: (Units=GPa)
#
#
# Indices 1 2 3 4 5 6 
#
# 1 81.0970 30.9828 9.3727 3.0848 -8.7297 14.2853
# 2 30.9828 105.2436 29.6316 7.8505 -8.3574 1.4097
# 3 9.3727 29.6316 48.7308 6.3598 -10.8773 4.9964
# 4 3.0848 7.8505 6.3598 27.9931 5.0375 -5.6281
# 5 -8.7297 -8.3574 -10.8773 5.0375 19.9531 -0.9571
# 6 14.2853 1.4097 4.9964 -5.6281 -0.9571 38.0528
#
#
#
# Elastic Compliance Matrix: (Units=1/GPa)
#
#
# Indices 1 2 3 4 5 6 
#
# 1 0.015745 -0.004383 0.002297 -0.003556 0.006895 -0.006403
# 2 -0.004383 0.012823 -0.006999 -0.001140 0.000018 0.001921
# 3 0.002297 -0.006999 0.029714 -0.009067 0.016300 -0.005435
# 4 -0.003556 -0.001140 -0.009067 0.043364 -0.017514 0.008541
# 5 0.006895 0.000018 0.016300 -0.017514 0.066178 -0.005655
# 6 -0.006403 0.001921 -0.005435 0.008541 -0.005655 0.030446
#
#
# Mechanical properties :
#
#
# Convention : Reuss Voigt Hill
#
# Bulk Modulus (GPa) = 24.93018 41.67173 33.30096
# Shear Modulus (GPa) = 21.75691 28.20542 24.98116
#
# Velocity S-wave (km/s) = 3.27693 3.73108 3.51136
# Velocity P-wave (km/s) = 5.15966 6.25529 5.73371
#
# Compressibility (1/GPa) = 0.04011202
#
# Stress axis : x y z
#
# Youngs Moduli (GPa) = 63.51029 77.98242 33.65447
#
# Poissons Ratio (x) = 0.34183 -0.07729
# Poissons Ratio (y) = 0.27839 0.23553
# Poissons Ratio (z) = -0.14586 0.54576
#
# Static dielectric constant tensor:
#      x y z
#    x 3.987960 0.703330 -1.221370 
#    y 0.703330 4.912040 -1.373010 
#    z -1.221370 -1.373010 5.990220 
# 
# 
# High freq. dielectric constant tensor:
#      x y z
#    x 1.777800 -0.002370 -0.021200 
#    y -0.002370 1.809720 0.003810 
#    z -0.021200 0.003810 1.783560 
# 
# From -- ./inp_files/179433.got.cif
#   From: 2010.06.25/outbox.cif.g09.slc.cpg/sg2_90_cif.got.tgz:179433.got - 2010.06.27 13:26:56.
