data_PCOD8017447
_publ_section_title
;
Structure prediction by ZEFSAII (Michael W. Deem and Ramdas Pophale) SiO2 
 PCOD8017447
Probable space group: P -1
;
_chemical_formula_sum "Si O2"
_cell_formula_units_Z 14
_cell_length_a 7.642052
_cell_length_b 12.240191
_cell_length_c 15.329540
_cell_angle_alpha 129.306398
_cell_angle_beta 122.340842
_cell_angle_gamma 98.351222
_cell_volume 629.966851
_symmetry_space_group_name_H-M "P -1"
_symmetry_group_IT_number 2
_symmetry_cell_setting 'triclinic'
loop_
_space_group_symop_operation_xyz
x,y,z
-x,-y,-z
loop_
_atom_site_type_symbol
_atom_site_label
_atom_site_fract_x
_atom_site_fract_y
_atom_site_fract_z
Si Si1 0.174131 0.819462 0.863686
Si Si2 0.748154 0.829231 0.948783
Si Si3 0.610677 0.418289 0.441795
Si Si4 0.981948 0.991441 0.351562
Si Si5 0.650307 0.339679 0.074318
Si Si6 0.889423 0.173424 0.555409
Si Si7 0.676835 0.938852 0.689283
O O1 0.188970 0.735734 0.915840
O O2 0.977902 0.633605 0.644225
O O3 0.500000 0.000000 0.000000
O O4 0.072188 0.932264 0.910538
O O5 0.553572 0.667816 0.737492
O O6 0.495034 0.717792 0.898685
O O7 0.020958 0.863549 0.073696
O O8 0.500000 0.500000 0.500000
O O9 0.558587 0.259486 0.410073
O O10 0.092600 0.920912 0.405973
O O11 0.015897 0.159066 0.494647
O O12 0.617591 0.787745 0.133385
O O13 0.194069 0.093660 0.372811
O O14 0.903543 0.585895 0.246502
O O15 0.525098 0.029848 0.380151
#
# Coordination Sequence:
#
# PCOD8017447 Si02
#       7
#     2   2   2   2   2   2   2
#     4  10  22  39  59  93 129 168 212 260 309 382
#     4  10  24  40  60  95 136 171 209 261 316 386
#     4  12  24  38  61  93 133 176 210 258 317 389
#     4  10  25  44  66  95 129 162 220 280 318 379
#     4  10  22  39  66  91 129 170 213 265 321 384
#     4  11  23  44  70  94 122 172 220 268 330 375
#     4  11  23  44  66  95 132 171 212 265 324 383
#
# _framework density 22.223392
#
# number of rings (size 3 to 8) (size 9 to 14) (size 15 to 20)
#    0.000    1.429    2.857    1.286    4.000    2.286 
#    0.000    0.000    0.000    6.857    0.000    0.000 
#    0.000    0.000    0.000    0.000    0.000    0.000 
#
# Total GULP energy -173468.448737 kJ/mol
# GULP energy per Si atom -12390.603481 kJ/mol
# Density = 2.217281 g / cm^3
# Si number density = 22.223392 Si / 1000 Ang^3
#
#
#
# Elastic Constant Matrix: (Units=GPa)
#
#
# Indices 1 2 3 4 5 6 
#
# 1 50.0886 14.7061 30.0083 -10.4882 4.6372 -3.4235
# 2 14.7061 56.5855 42.5354 -10.6685 4.4965 -10.7565
# 3 30.0083 42.5354 166.8522 -19.5932 8.4535 -4.1544
# 4 -10.4882 -10.6685 -19.5932 42.1158 -2.5930 7.7091
# 5 4.6372 4.4965 8.4535 -2.5930 36.1668 -3.4613
# 6 -3.4235 -10.7565 -4.1544 7.7091 -3.4613 31.3365
#
#
#
# Elastic Compliance Matrix: (Units=1/GPa)
#
#
# Indices 1 2 3 4 5 6 
#
# 1 0.023545 -0.003088 -0.002938 0.003601 -0.001685 0.000051
# 2 -0.003088 0.024002 -0.005173 0.001632 -0.000617 0.006746
# 3 -0.002938 -0.005173 0.008074 0.001954 -0.000881 -0.001604
# 4 0.003601 0.001632 0.001954 0.026968 0.000296 -0.005389
# 5 -0.001685 -0.000617 -0.000881 0.000296 0.028414 0.002553
# 6 0.000051 0.006746 -0.001604 -0.005389 0.002553 0.035628
#
#
# Mechanical properties :
#
#
# Convention : Reuss Voigt Hill
#
# Bulk Modulus (GPa) = 30.09832 49.78067 39.93949
# Shear Modulus (GPa) = 27.76177 34.34223 31.05200
#
# Velocity S-wave (km/s) = 3.53826 3.93532 3.74206
# Velocity P-wave (km/s) = 5.50139 6.56489 6.05653
#
# Compressibility (1/GPa) = 0.03322445
#
# Stress axis : x y z
#
# Youngs Moduli (GPa) = 42.47197 41.66259 123.84723
#
# Poissons Ratio (x) = 0.12867 0.36383
# Poissons Ratio (y) = 0.13117 0.64062
# Poissons Ratio (z) = 0.12477 0.21551
#
# Static dielectric constant tensor:
#      x y z
#    x 4.346210 -0.463050 0.369250 
#    y -0.463050 3.816020 -0.556260 
#    z 0.369250 -0.556260 3.377150 
# 
# 
# High freq. dielectric constant tensor:
#      x y z
#    x 1.869740 -0.011080 0.019220 
#    y -0.011080 1.864450 -0.013130 
#    z 0.019220 -0.013130 1.893250 
# 
# From -- ./inp_files/39039.got.cif
#   From: 2010.06.25/outbox.cif.g09.slc.cpg/sg2_20_cif.got.tgz:39039.got - 2010.06.27 13:26:56.
