data_PCOD8017368
_publ_section_title
;
Structure prediction by ZEFSAII (Michael W. Deem and Ramdas Pophale) SiO2 
 PCOD8017368
Probable space group: P -1
;
_chemical_formula_sum "Si O2"
_cell_formula_units_Z 16
_cell_length_a 9.384745
_cell_length_b 12.059673
_cell_length_c 9.794535
_cell_angle_alpha 87.658607
_cell_angle_beta 136.119294
_cell_angle_gamma 104.679892
_cell_volume 726.483247
_symmetry_space_group_name_H-M "P -1"
_symmetry_group_IT_number 2
_symmetry_cell_setting 'triclinic'
loop_
_space_group_symop_operation_xyz
x,y,z
-x,-y,-z
loop_
_atom_site_type_symbol
_atom_site_label
_atom_site_fract_x
_atom_site_fract_y
_atom_site_fract_z
Si Si1 0.145435 0.356395 0.607611
Si Si2 0.356138 0.709915 0.369039
Si Si3 0.979634 0.895863 0.389833
Si Si4 0.873697 0.106371 0.792949
Si Si5 0.348286 0.129235 0.216153
Si Si6 0.399905 0.664996 0.097441
Si Si7 0.484320 0.126249 0.021574
Si Si8 0.973986 0.494259 0.705564
O O1 0.009157 0.217331 0.512836
O O2 0.399896 0.376710 0.812049
O O3 0.109961 0.413415 0.438921
O O4 0.050312 0.410024 0.663291
O O5 0.180439 0.775571 0.230147
O O6 0.549706 0.774351 0.602953
O O7 0.457263 0.706511 0.290286
O O8 0.229583 0.579259 0.340583
O O9 0.752162 0.866438 0.161121
O O10 0.152149 0.929702 0.383846
O O11 0.000000 0.000000 0.500000
O O12 0.694649 0.002060 0.752091
O O13 0.115255 0.138126 0.016353
O O14 0.520940 0.148898 0.208660
O O15 0.364239 0.769156 0.972986
O O16 0.175255 0.559176 0.939242
O O17 0.500000 0.000000 0.000000
#
# Coordination Sequence:
#
# PCOD8017368 Si02
#       8
#     2   2   2   2   2   2   2   2
#     4  10  24  45  67 102 129 182 226 271 338 401
#     4  12  25  42  69  99 133 180 221 279 340 394
#     4  10  22  38  68  98 133 170 218 279 330 397
#     4  10  22  43  63  97 138 178 217 269 343 401
#     4  10  24  40  64  95 136 178 219 270 335 406
#     4  11  26  43  68 100 134 173 229 285 328 394
#     4  10  23  39  62  99 129 172 218 272 334 395
#     4  11  25  44  71  94 135 182 227 276 335 400
#
# _framework density 22.023907999999999
#
# number of rings (size 3 to 8) (size 9 to 14) (size 15 to 20)
#    0.000    1.500    1.250    1.875   10.500    2.500 
#    0.000    0.000    0.000    0.000    0.000    0.000 
#    0.000    0.000    0.000    0.000    0.000    0.000 
#
# Total GULP energy -198393.741705 kJ/mol
# GULP energy per Si atom -12399.608857 kJ/mol
# Density = 2.197378 g / cm^3
# Si number density = 22.023908 Si / 1000 Ang^3
#
#
#
# Elastic Constant Matrix: (Units=GPa)
#
#
# Indices 1 2 3 4 5 6 
#
# 1 88.2642 46.1543 30.7859 -6.7214 -21.5118 18.7014
# 2 46.1543 137.4537 51.6429 -8.4067 -11.9260 10.9724
# 3 30.7859 51.6429 99.4065 5.9614 -15.5034 14.8699
# 4 -6.7214 -8.4067 5.9614 40.7906 -0.1994 2.1304
# 5 -21.5118 -11.9260 -15.5034 -0.1994 35.4740 -2.7078
# 6 18.7014 10.9724 14.8699 2.1304 -2.7078 38.9607
#
#
#
# Elastic Compliance Matrix: (Units=1/GPa)
#
#
# Indices 1 2 3 4 5 6 
#
# 1 0.017385 -0.003998 -0.001240 0.002592 0.008188 -0.006318
# 2 -0.003998 0.010300 -0.004452 0.002082 -0.000854 0.000544
# 3 -0.001240 -0.004452 0.013955 -0.002984 0.003599 -0.003064
# 4 0.002592 0.002082 -0.002984 0.025919 0.000957 -0.002042
# 5 0.008188 -0.000854 0.003599 0.000957 0.034238 -0.002737
# 6 -0.006318 0.000544 -0.003064 -0.002042 -0.002737 0.029637
#
#
# Mechanical properties :
#
#
# Convention : Reuss Voigt Hill
#
# Bulk Modulus (GPa) = 44.92590 64.69893 54.81242
# Shear Modulus (GPa) = 31.59854 36.14782 33.87318
#
# Velocity S-wave (km/s) = 3.79190 4.05569 3.92601
# Velocity P-wave (km/s) = 6.29399 7.16742 6.74486
#
# Compressibility (1/GPa) = 0.02225887
#
# Stress axis : x y z
#
# Youngs Moduli (GPa) = 57.52221 97.08479 71.65644
#
# Poissons Ratio (x) = 0.38816 0.08886
# Poissons Ratio (y) = 0.22998 0.31905
# Poissons Ratio (z) = 0.07134 0.43226
#
# Static dielectric constant tensor:
#      x y z
#    x 4.128640 0.273990 -0.132760 
#    y 0.273990 4.106930 -0.342110 
#    z -0.132760 -0.342110 3.970430 
# 
# 
# High freq. dielectric constant tensor:
#      x y z
#    x 1.869480 0.007630 -0.002190 
#    y 0.007630 1.870410 -0.012240 
#    z -0.002190 -0.012240 1.871050 
# 
# From -- ./inp_files/188064.got.cif
#   From: 2010.06.25/outbox.cif.g09.slc.cpg/sg2_95_cif.got.tgz:188064.got - 2010.06.27 13:26:56.
