data_PCOD8017558
_publ_section_title
;
Structure prediction by ZEFSAII (Michael W. Deem and Ramdas Pophale) SiO2 
 PCOD8017558
Probable space group: P -1
;
_chemical_formula_sum "Si O2"
_cell_formula_units_Z 12
_cell_length_a 9.907720
_cell_length_b 14.015098
_cell_length_c 7.543889
_cell_angle_alpha 65.766185
_cell_angle_beta 67.490643
_cell_angle_gamma 31.958021
_cell_volume 504.294475
_symmetry_space_group_name_H-M "P -1"
_symmetry_group_IT_number 2
_symmetry_cell_setting 'triclinic'
loop_
_space_group_symop_operation_xyz
x,y,z
-x,-y,-z
loop_
_atom_site_type_symbol
_atom_site_label
_atom_site_fract_x
_atom_site_fract_y
_atom_site_fract_z
Si Si1 0.953492 0.406761 0.087520
Si Si2 0.523387 0.511950 0.275394
Si Si3 0.034651 0.094123 0.802556
Si Si4 0.961696 0.101053 0.279161
Si Si5 0.279341 0.115419 0.879403
Si Si6 0.275084 0.062511 0.370509
O O1 0.660430 0.543903 0.157501
O O2 0.119125 0.262330 0.277986
O O3 0.000000 0.500000 0.000000
O O4 0.033461 0.322572 0.913325
O O5 0.500000 0.500000 0.500000
O O6 0.686672 0.321426 0.249631
O O7 0.241716 0.689670 0.201595
O O8 0.196019 0.044454 0.926361
O O9 0.184951 0.048135 0.590963
O O10 0.023063 0.973228 0.862015
O O11 0.186807 0.054582 0.233931
O O12 0.000000 0.000000 0.500000
O O13 0.418642 0.092478 0.658019
O O14 0.500000 0.000000 0.000000
#
# Coordination Sequence:
#
# PCOD8017558 Si02
#       6
#     2   2   2   2   2   2
#     4  10  22  39  62  90 132 174 199 265 338 370
#     4  11  20  39  66  98 130 160 224 267 307 401
#     4  11  21  39  69  96 123 172 217 270 318 376
#     4   9  18  34  64  97 120 161 206 266 325 359
#     4  10  23  42  59  88 135 170 211 268 325 388
#     4   9  19  40  64  92 124 167 218 256 319 399
#
# _framework density 23.795621000000001
#
# number of rings (size 3 to 8) (size 9 to 14) (size 15 to 20)
#    0.000    2.000    5.000    0.500    2.333    0.667 
#    6.000    8.333    0.000    0.000    0.000    0.000 
#    0.000    0.000    0.000    0.000    0.000    0.000 
#
# Total GULP energy -148660.756660 kJ/mol
# GULP energy per Si atom -12388.396388 kJ/mol
# Density = 2.374146 g / cm^3
# Si number density = 23.795621 Si / 1000 Ang^3
#
#
#
# Elastic Constant Matrix: (Units=GPa)
#
#
# Indices 1 2 3 4 5 6 
#
# 1 213.5009 77.5979 65.8022 11.0162 -14.9354 18.1133
# 2 77.5979 107.4212 28.1318 9.7058 -1.0360 14.1890
# 3 65.8022 28.1318 52.2049 10.6290 -0.5762 11.0161
# 4 11.0162 9.7058 10.6290 31.9267 -1.8655 -5.9947
# 5 -14.9354 -1.0360 -0.5762 -1.8655 47.3973 7.1988
# 6 18.1133 14.1890 11.0161 -5.9947 7.1988 55.0097
#
#
#
# Elastic Compliance Matrix: (Units=1/GPa)
#
#
# Indices 1 2 3 4 5 6 
#
# 1 0.009393 -0.004307 -0.009724 0.001424 0.002842 -0.000251
# 2 -0.004307 0.013095 -0.000665 -0.002702 -0.000881 -0.002006
# 3 -0.009724 -0.000665 0.034421 -0.008824 -0.002374 -0.004171
# 4 0.001424 -0.002702 -0.008824 0.035722 0.000810 0.005782
# 5 0.002842 -0.000881 -0.002374 0.000810 0.022446 -0.003082
# 6 -0.000251 -0.002006 -0.004171 0.005782 -0.003082 0.020647
#
#
# Mechanical properties :
#
#
# Convention : Reuss Voigt Hill
#
# Bulk Modulus (GPa) = 36.34039 79.57677 57.95858
# Shear Modulus (GPa) = 28.68852 40.30641 34.49747
#
# Velocity S-wave (km/s) = 3.47597 4.12012 3.81168
# Velocity P-wave (km/s) = 5.60490 7.49321 6.61676
#
# Compressibility (1/GPa) = 0.02751759
#
# Stress axis : x y z
#
# Youngs Moduli (GPa) = 106.46608 76.36723 29.05235
#
# Poissons Ratio (x) = 0.32888 0.28251
# Poissons Ratio (y) = 0.45850 0.01931
# Poissons Ratio (z) = 1.03528 0.05075
#
# Static dielectric constant tensor:
#      x y z
#    x 4.544490 -0.338900 0.970940 
#    y -0.338900 4.619890 1.138170 
#    z 0.970940 1.138170 2.202770 
# 
# 
# High freq. dielectric constant tensor:
#      x y z
#    x 1.970400 0.003060 -0.025650 
#    y 0.003060 1.911780 0.026740 
#    z -0.025650 0.026740 1.976420 
# 
# From -- ./inp_files/154964.got.cif
#   From: 2010.06.25/outbox.cif.g09.slc.cpg/sg2_78_cif.got.tgz:154964.got - 2010.06.27 13:26:56.
