data_PCOD8017162
_publ_section_title
;
Structure prediction by ZEFSAII (Michael W. Deem and Ramdas Pophale) SiO2 
 PCOD8017162
Probable space group: P -1
;
_chemical_formula_sum "Si O2"
_cell_formula_units_Z 12
_cell_length_a 12.678124
_cell_length_b 16.148905
_cell_length_c 9.994708
_cell_angle_alpha 135.336044
_cell_angle_beta 147.299347
_cell_angle_gamma 31.639574
_cell_volume 579.825072
_symmetry_space_group_name_H-M "P -1"
_symmetry_group_IT_number 2
_symmetry_cell_setting 'triclinic'
loop_
_space_group_symop_operation_xyz
x,y,z
-x,-y,-z
loop_
_atom_site_type_symbol
_atom_site_label
_atom_site_fract_x
_atom_site_fract_y
_atom_site_fract_z
Si Si1 0.218647 0.903878 0.735416
Si Si2 0.939115 0.596979 0.737911
Si Si3 0.946910 0.823048 0.522530
Si Si4 0.208685 0.578052 0.750113
Si Si5 0.798807 0.640354 0.041753
Si Si6 0.411693 0.069152 0.137234
O O1 0.500778 0.754518 0.801467
O O2 0.148574 0.836996 0.695647
O O3 0.000000 0.000000 0.500000
O O4 0.253830 0.019551 0.970434
O O5 0.044492 0.637553 0.779774
O O6 0.766144 0.559342 0.451583
O O7 0.771642 0.741788 0.832290
O O8 0.187018 0.436999 0.892049
O O9 0.055795 0.737062 0.682102
O O10 0.657033 0.997780 0.416190
O O11 0.906238 0.729496 0.272385
O O12 0.500000 0.500000 0.000000
O O13 0.000000 0.500000 0.000000
O O14 0.500000 0.000000 0.000000
#
# Coordination Sequence:
#
# PCOD8017162 Si02
#       6
#     2   2   2   2   2   2
#     4  11  22  37  59  87 127 165 200 249 310 376
#     4  10  22  41  65  90 121 167 204 257 316 365
#     4  10  22  39  60  88 122 166 203 254 313 370
#     4  10  22  43  64  87 122 161 220 261 294 364
#     4  10  22  38  61  90 124 160 205 258 316 372
#     4  11  22  41  63  92 132 160 199 257 324 377
#
# _framework density 20.695896999999999
#
# number of rings (size 3 to 8) (size 9 to 14) (size 15 to 20)
#    0.000    1.667    1.667    3.000    0.000    4.000 
#    3.000    1.667    0.000    0.000    0.000    0.000 
#    0.000    0.000    0.000    0.000    0.000    0.000 
#
# Total GULP energy -148718.678450 kJ/mol
# GULP energy per Si atom -12393.223204 kJ/mol
# Density = 2.064879 g / cm^3
# Si number density = 20.695897 Si / 1000 Ang^3
#
#
#
# Elastic Constant Matrix: (Units=GPa)
#
#
# Indices 1 2 3 4 5 6 
#
# 1 107.2648 45.2376 47.4375 1.6832 11.6569 22.5843
# 2 45.2376 123.6651 45.1488 -12.3428 7.2688 -0.4593
# 3 47.4375 45.1488 112.6400 -28.8764 18.6027 -3.5501
# 4 1.6832 -12.3428 -28.8764 39.3867 0.2781 -3.0044
# 5 11.6569 7.2688 18.6027 0.2781 34.5537 0.8661
# 6 22.5843 -0.4593 -3.5501 -3.0044 0.8661 39.1121
#
#
#
# Elastic Compliance Matrix: (Units=1/GPa)
#
#
# Indices 1 2 3 4 5 6 
#
# 1 0.017345 -0.004269 -0.008235 -0.008993 -0.000159 -0.011500
# 2 -0.004269 0.010527 -0.001734 0.002409 0.000074 0.002615
# 3 -0.008235 -0.001734 0.017866 0.013531 -0.006774 0.007546
# 4 -0.008993 0.002409 0.013531 0.037205 -0.005293 0.009424
# 5 -0.000159 0.000074 -0.006774 -0.005293 0.032709 -0.001653
# 6 -0.011500 0.002615 0.007546 0.009424 -0.001653 0.033684
#
#
# Mechanical properties :
#
#
# Convention : Reuss Voigt Hill
#
# Bulk Modulus (GPa) = 57.93089 68.80196 63.36643
# Shear Modulus (GPa) = 27.23816 36.32689 31.78253
#
# Velocity S-wave (km/s) = 3.63176 4.19414 3.92304
# Velocity P-wave (km/s) = 6.75563 7.53464 7.15574
#
# Compressibility (1/GPa) = 0.01726195
#
# Stress axis : x y z
#
# Youngs Moduli (GPa) = 57.65390 94.99529 55.97203
#
# Poissons Ratio (x) = 0.40556 0.46093
# Poissons Ratio (y) = 0.24614 0.09704
# Poissons Ratio (z) = 0.47478 0.16469
#
# Static dielectric constant tensor:
#      x y z
#    x 3.975700 0.530790 0.010010 
#    y 0.530790 4.274230 -0.350620 
#    z 0.010010 -0.350620 3.930570 
# 
# 
# High freq. dielectric constant tensor:
#      x y z
#    x 1.803050 0.028180 0.010150 
#    y 0.028180 1.822430 -0.018560 
#    z 0.010150 -0.018560 1.806070 
# 
# From -- ./inp_files/265736.got.cif
#   From: 2010.06.25/outbox.cif.g09.slc.cpg/sg2_133_cif.got.tgz:265736.got - 2010.06.27 13:26:56.
