data_PCOD8017920
_publ_section_title
;
Structure prediction by ZEFSAII (Michael W. Deem and Ramdas Pophale) SiO2 
 PCOD8017920
Probable space group: P -1
;
_chemical_formula_sum "Si O2"
_cell_formula_units_Z 16
_cell_length_a 17.794702
_cell_length_b 9.774239
_cell_length_c 11.600080
_cell_angle_alpha 53.635933
_cell_angle_beta 135.950932
_cell_angle_gamma 148.635409
_cell_volume 728.916436
_symmetry_space_group_name_H-M "P -1"
_symmetry_group_IT_number 2
_symmetry_cell_setting 'triclinic'
loop_
_space_group_symop_operation_xyz
x,y,z
-x,-y,-z
loop_
_atom_site_type_symbol
_atom_site_label
_atom_site_fract_x
_atom_site_fract_y
_atom_site_fract_z
Si Si1 0.073829 0.675441 0.231826
Si Si2 0.275864 0.741663 0.046663
Si Si3 0.971700 0.635124 0.477936
Si Si4 0.606589 0.030119 0.697425
Si Si5 0.406714 0.259368 0.861244
Si Si6 0.457006 0.638589 0.278648
Si Si7 0.765569 0.914338 0.603654
Si Si8 0.338404 0.491762 0.796487
O O1 0.036296 0.443171 0.360863
O O2 0.236312 0.872189 0.234601
O O3 0.916273 0.539597 0.048207
O O4 0.109650 0.858215 0.277742
O O5 0.311929 0.968004 0.919858
O O6 0.318166 0.767449 0.215989
O O7 0.396416 0.749732 0.113006
O O8 0.802428 0.537605 0.318004
O O9 0.000000 0.500000 0.500000
O O10 0.125709 0.949260 0.464346
O O11 0.500000 0.000000 0.500000
O O12 0.490151 0.747946 0.762393
O O13 0.451506 0.347332 0.733211
O O14 0.284406 0.260496 0.777834
O O15 0.587042 0.477328 0.014597
O O16 0.596003 0.821175 0.442763
O O17 0.293582 0.343697 0.294918
#
# Coordination Sequence:
#
# PCOD8017920 Si02
#       8
#     2   2   2   2   2   2   2   2
#     4  11  22  42  65  97 130 172 219 268 334 387
#     4  11  25  39  65 102 132 170 223 274 321 393
#     4  10  22  39  68  97 129 169 224 266 325 393
#     4  11  21  41  68  95 129 175 213 268 327 392
#     4  10  23  41  67  94 135 174 220 268 332 388
#     4  11  23  44  66  96 130 174 223 271 328 392
#     4  10  24  42  66  95 129 172 221 270 330 391
#     4  10  22  43  66 100 129 177 217 269 329 395
#
# _framework density 21.950389999999999
#
# number of rings (size 3 to 8) (size 9 to 14) (size 15 to 20)
#    0.000    1.500    1.250    3.000    8.750    1.500 
#    9.000    1.250    0.000    0.000    0.000    0.000 
#    0.000    0.000    0.000    0.000    0.000    0.000 
#
# Total GULP energy -198288.079091 kJ/mol
# GULP energy per Si atom -12393.004943 kJ/mol
# Density = 2.190043 g / cm^3
# Si number density = 21.950390 Si / 1000 Ang^3
#
#
#
# Elastic Constant Matrix: (Units=GPa)
#
#
# Indices 1 2 3 4 5 6 
#
# 1 103.0179 43.4042 31.8381 -3.6552 23.3154 4.9382
# 2 43.4042 118.5932 44.1686 5.8508 0.7499 9.4550
# 3 31.8381 44.1686 111.2931 13.8839 9.9779 -2.7769
# 4 -3.6552 5.8508 13.8839 33.0451 2.5838 -1.7854
# 5 23.3154 0.7499 9.9779 2.5838 39.7903 -7.1554
# 6 4.9382 9.4550 -2.7769 -1.7854 -7.1554 35.5262
#
#
#
# Elastic Compliance Matrix: (Units=1/GPa)
#
#
# Indices 1 2 3 4 5 6 
#
# 1 0.014414 -0.004408 -0.002148 0.003807 -0.008525 -0.002524
# 2 -0.004408 0.011566 -0.003469 -0.001427 0.002929 -0.002219
# 3 -0.002148 -0.003469 0.011652 -0.004348 -0.001008 0.001711
# 4 0.003807 -0.001427 -0.004348 0.033038 -0.003163 0.000534
# 5 -0.008525 0.002929 -0.001008 -0.003163 0.031709 0.006554
# 6 -0.002524 -0.002219 0.001711 0.000534 0.006554 0.030570
#
#
# Mechanical properties :
#
#
# Convention : Reuss Voigt Hill
#
# Bulk Modulus (GPa) = 56.87608 63.52514 60.20061
# Shear Modulus (GPa) = 31.47440 35.90522 33.68981
#
# Velocity S-wave (km/s) = 3.79078 4.04882 3.92192
# Velocity P-wave (km/s) = 6.71770 7.13165 6.92777
#
# Compressibility (1/GPa) = 0.01758208
#
# Stress axis : x y z
#
# Youngs Moduli (GPa) = 69.37919 86.45789 85.82317
#
# Poissons Ratio (x) = 0.38112 0.18431
# Poissons Ratio (y) = 0.30583 0.29774
# Poissons Ratio (z) = 0.14899 0.29994
#
# Static dielectric constant tensor:
#      x y z
#    x 4.150600 0.172910 -0.575390 
#    y 0.172910 4.012980 -0.063070 
#    z -0.575390 -0.063070 4.945760 
# 
# 
# High freq. dielectric constant tensor:
#      x y z
#    x 1.854240 0.010610 -0.005680 
#    y 0.010610 1.860380 -0.000920 
#    z -0.005680 -0.000920 1.867880 
# 
# From -- ./inp_files/462010.got.cif
#   From: 2010.06.25/outbox.cif.g09.slc.cpg/sg2_232_cif.got.tgz:462010.got - 2010.06.27 13:26:56.
