data_PCOD8017119
_publ_section_title
;
Structure prediction by ZEFSAII (Michael W. Deem and Ramdas Pophale) SiO2 
 PCOD8017119
Probable space group: P -1
;
_chemical_formula_sum "Si O2"
_cell_formula_units_Z 16
_cell_length_a 26.090262
_cell_length_b 8.789115
_cell_length_c 6.789152
_cell_angle_alpha 53.626554
_cell_angle_beta 42.404664
_cell_angle_gamma 49.044168
_cell_volume 774.486020
_symmetry_space_group_name_H-M "P -1"
_symmetry_group_IT_number 2
_symmetry_cell_setting 'triclinic'
loop_
_space_group_symop_operation_xyz
x,y,z
-x,-y,-z
loop_
_atom_site_type_symbol
_atom_site_label
_atom_site_fract_x
_atom_site_fract_y
_atom_site_fract_z
Si Si1 0.407501 0.750939 0.140147
Si Si2 0.316195 0.574289 0.844039
Si Si3 0.866123 0.746614 0.707539
Si Si4 0.726567 0.812252 0.755389
Si Si5 0.801578 0.966711 0.109934
Si Si6 0.551811 0.511187 0.155817
Si Si7 0.960595 0.955192 0.837507
Si Si8 0.047530 0.709874 0.115356
O O1 0.366453 0.618645 0.484448
O O2 0.495088 0.712143 0.032669
O O3 0.354705 0.994366 0.091458
O O4 0.422830 0.679171 0.924052
O O5 0.239151 0.786209 0.947175
O O6 0.366009 0.488031 0.974516
O O7 0.284574 0.397979 0.009890
O O8 0.808544 0.806710 0.634833
O O9 0.882131 0.516998 0.906156
O O10 0.955411 0.748617 0.419064
O O11 0.815002 0.912449 0.885906
O O12 0.743282 0.857840 0.446661
O O13 0.889477 0.878504 0.040977
O O14 0.500000 0.500000 0.500000
O O15 0.920502 0.151889 0.944808
O O16 0.000000 0.000000 0.500000
O O17 0.037497 0.776670 0.864829
#
# Coordination Sequence:
#
# PCOD8017119 Si02
#       8
#     2   2   2   2   2   2   2   2
#     4   9  20  39  64  87 121 157 193 240 291 343
#     4  10  22  38  60  87 120 156 200 239 292 352
#     4  11  22  39  56  82 117 150 197 249 299 355
#     4  11  23  40  58  88 123 157 198 245 294 355
#     4  11  23  39  59  86 116 159 200 249 300 355
#     4   9  18  39  64  91 121 156 192 238 288 348
#     4  11  21  40  60  83 112 153 202 250 304 356
#     4  10  23  37  58  84 110 149 198 251 304 357
#
# _framework density 20.658863
#
# number of rings (size 3 to 8) (size 9 to 14) (size 15 to 20)
#    0.000    1.750    2.500    1.500    0.000    4.000 
#    0.000    5.625    0.000    0.000    0.000    0.000 
#    0.000    0.000    0.000    0.000    0.000    0.000 
#
# Total GULP energy -198273.827846 kJ/mol
# GULP energy per Si atom -12392.114240 kJ/mol
# Density = 2.061184 g / cm^3
# Si number density = 20.658863 Si / 1000 Ang^3
#
#
#
# Elastic Constant Matrix: (Units=GPa)
#
#
# Indices 1 2 3 4 5 6 
#
# 1 68.7052 2.7193 17.8893 5.4865 14.0118 -3.6726
# 2 2.7193 108.5187 34.5735 0.8694 8.7650 -5.7742
# 3 17.8893 34.5735 84.1486 4.6910 24.2561 7.0834
# 4 5.4865 0.8694 4.6910 33.5472 5.2466 -2.0707
# 5 14.0118 8.7650 24.2561 5.2466 24.7117 -0.3660
# 6 -3.6726 -5.7742 7.0834 -2.0707 -0.3660 27.3917
#
#
#
# Elastic Compliance Matrix: (Units=1/GPa)
#
#
# Indices 1 2 3 4 5 6 
#
# 1 0.016829 0.000970 -0.001921 -0.001131 -0.007720 0.002769
# 2 0.000970 0.011020 -0.005282 0.000424 0.000693 0.003860
# 3 -0.001921 -0.005282 0.019806 -0.000146 -0.016547 -0.006725
# 4 -0.001131 0.000424 -0.000146 0.031069 -0.005929 0.002245
# 5 -0.007720 0.000693 -0.016547 -0.005929 0.062154 0.003772
# 6 0.002769 0.003860 -0.006725 0.002245 0.003772 0.039652
#
#
# Mechanical properties :
#
#
# Convention : Reuss Voigt Hill
#
# Bulk Modulus (GPa) = 28.41800 41.30406 34.86103
# Shear Modulus (GPa) = 24.42280 30.87615 27.64948
#
# Velocity S-wave (km/s) = 3.44204 3.87016 3.66236
# Velocity P-wave (km/s) = 5.43898 6.32516 5.89874
#
# Compressibility (1/GPa) = 0.03518896
#
# Stress axis : x y z
#
# Youngs Moduli (GPa) = 59.41952 90.74732 50.48872
#
# Poissons Ratio (x) = -0.08806 0.09701
# Poissons Ratio (y) = -0.05766 0.26669
# Poissons Ratio (z) = 0.11417 0.47935
#
# Static dielectric constant tensor:
#      x y z
#    x 4.293430 -0.522180 0.067600 
#    y -0.522180 4.135340 0.115100 
#    z 0.067600 0.115100 3.667060 
# 
# 
# High freq. dielectric constant tensor:
#      x y z
#    x 1.814380 -0.014500 0.015250 
#    y -0.014500 1.804850 0.008620 
#    z 0.015250 0.008620 1.801370 
# 
# From -- ./inp_files/52394.got.cif
#   From: 2010.06.25/outbox.cif.g09.slc.cpg/sg2_27_cif.got.tgz:52394.got - 2010.06.27 13:26:56.
