data_PCOD8017089
_publ_section_title
;
Structure prediction by ZEFSAII (Michael W. Deem and Ramdas Pophale) SiO2 
 PCOD8017089
Probable space group: P -1
;
_chemical_formula_sum "Si O2"
_cell_formula_units_Z 14
_cell_length_a 20.104980
_cell_length_b 17.951308
_cell_length_c 6.595458
_cell_angle_alpha 42.497347
_cell_angle_beta 132.005656
_cell_angle_gamma 157.682221
_cell_volume 609.885870
_symmetry_space_group_name_H-M "P -1"
_symmetry_group_IT_number 2
_symmetry_cell_setting 'triclinic'
loop_
_space_group_symop_operation_xyz
x,y,z
-x,-y,-z
loop_
_atom_site_type_symbol
_atom_site_label
_atom_site_fract_x
_atom_site_fract_y
_atom_site_fract_z
Si Si1 0.540425 0.207357 0.023371
Si Si2 0.398233 0.283097 0.530096
Si Si3 0.153459 0.977056 0.295233
Si Si4 0.077284 0.713435 0.367354
Si Si5 0.101165 0.327045 0.254601
Si Si6 0.232826 0.234899 0.627172
Si Si7 0.727940 0.240979 0.601822
O O1 0.607767 0.217611 0.342846
O O2 0.395010 0.973144 0.086909
O O3 0.445657 0.220262 0.871136
O O4 0.712258 0.417989 0.817299
O O5 0.242938 0.179695 0.545012
O O6 0.567930 0.539904 0.338602
O O7 0.331375 0.180757 0.376240
O O8 0.172460 0.887236 0.380852
O O9 0.986865 0.789871 0.476121
O O10 0.125417 0.051975 0.941397
O O11 0.213239 0.764770 0.468979
O O12 0.905983 0.473095 0.604895
O O13 0.015320 0.719320 0.033910
O O14 0.136160 0.248592 0.365485
#
# Coordination Sequence:
#
# PCOD8017089 Si02
#       7
#     2   2   2   2   2   2   2
#     4   9  18  38  61  83 113 149 194 239 280 338
#     4  10  22  40  61  86 116 152 194 237 285 342
#     4  12  22  36  58  87 120 153 190 237 285 342
#     4  10  22  39  60  87 117 150 192 241 290 339
#     4  10  22  38  58  87 119 151 191 235 285 344
#     4  10  22  40  61  84 117 157 191 233 286 341
#     4   9  18  39  65  83 111 155 194 237 293 340
#
# _framework density 22.955114999999999
#
# number of rings (size 3 to 8) (size 9 to 14) (size 15 to 20)
#    0.000    2.000    0.000    3.429    0.000    3.429 
#    0.000   28.571    0.000    0.000    0.000    0.000 
#    0.000    0.000    0.000    0.000    0.000    0.000 
#
# Total GULP energy -173525.912393 kJ/mol
# GULP energy per Si atom -12394.708028 kJ/mol
# Density = 2.290287 g / cm^3
# Si number density = 22.955115 Si / 1000 Ang^3
#
#
#
# Elastic Constant Matrix: (Units=GPa)
#
#
# Indices 1 2 3 4 5 6 
#
# 1 79.5382 30.9805 39.8519 3.5770 10.1185 -1.7032
# 2 30.9805 95.0990 27.0447 -5.1976 -5.3826 -12.1062
# 3 39.8519 27.0447 83.1812 -21.1715 3.1740 -5.0934
# 4 3.5770 -5.1976 -21.1715 29.9301 3.7464 0.1047
# 5 10.1185 -5.3826 3.1740 3.7464 35.0115 -2.8536
# 6 -1.7032 -12.1062 -5.0934 0.1047 -2.8536 37.4954
#
#
#
# Elastic Compliance Matrix: (Units=1/GPa)
#
#
# Indices 1 2 3 4 5 6 
#
# 1 0.021154 -0.004873 -0.011239 -0.010703 -0.004901 -0.002482
# 2 -0.004873 0.013366 -0.001570 0.001302 0.003806 0.004167
# 3 -0.011239 -0.001570 0.022383 0.016982 -0.000683 0.001924
# 4 -0.010703 0.001302 0.016982 0.047318 -0.003157 0.001869
# 5 -0.004901 0.003806 -0.000683 -0.003157 0.031232 0.003299
# 6 -0.002482 0.004167 0.001924 0.001869 0.003299 0.028410
#
#
# Mechanical properties :
#
#
# Convention : Reuss Voigt Hill
#
# Bulk Modulus (GPa) = 46.42748 50.39696 48.41222
# Shear Modulus (GPa) = 24.22395 31.15014 27.68705
#
# Velocity S-wave (km/s) = 3.25202 3.68775 3.47672
# Velocity P-wave (km/s) = 5.86260 6.33521 6.10348
#
# Compressibility (1/GPa) = 0.02153897
#
# Stress axis : x y z
#
# Youngs Moduli (GPa) = 47.27300 74.81458 44.67628
#
# Poissons Ratio (x) = 0.36460 0.50213
# Poissons Ratio (y) = 0.23038 0.07012
# Poissons Ratio (z) = 0.53131 0.11743
#
# Static dielectric constant tensor:
#      x y z
#    x 3.939620 0.115840 0.263360 
#    y 0.115840 4.438450 -0.630230 
#    z 0.263360 -0.630230 4.113410 
# 
# 
# High freq. dielectric constant tensor:
#      x y z
#    x 1.889590 0.018640 0.029500 
#    y 0.018640 1.917690 -0.041390 
#    z 0.029500 -0.041390 1.895250 
# 
# From -- ./inp_files/27669.got.cif
#   From: 2010.06.25/outbox.cif.g09.slc.cpg/sg2_14_cif.got.tgz:27669.got - 2010.06.27 13:26:56.
