data_PCOD8017788
_publ_section_title
;
Structure prediction by ZEFSAII (Michael W. Deem and Ramdas Pophale) SiO2 
 PCOD8017788
Probable space group: P -1
;
_chemical_formula_sum "Si O2"
_cell_formula_units_Z 16
_cell_length_a 8.891519
_cell_length_b 8.486811
_cell_length_c 17.104445
_cell_angle_alpha 89.985469
_cell_angle_beta 52.339726
_cell_angle_gamma 59.316502
_cell_volume 781.347387
_symmetry_space_group_name_H-M "P -1"
_symmetry_group_IT_number 2
_symmetry_cell_setting 'triclinic'
loop_
_space_group_symop_operation_xyz
x,y,z
-x,-y,-z
loop_
_atom_site_type_symbol
_atom_site_label
_atom_site_fract_x
_atom_site_fract_y
_atom_site_fract_z
Si Si1 0.714200 0.155810 0.113019
Si Si2 0.365907 0.488617 0.113528
Si Si3 0.938352 0.208399 0.491230
Si Si4 0.901916 0.330156 0.330485
Si Si5 0.148146 0.270272 0.665033
Si Si6 0.397346 0.128109 0.110122
Si Si7 0.373405 0.116092 0.434029
Si Si8 0.527286 0.361984 0.335991
O O1 0.570567 0.379273 0.117953
O O2 0.598488 0.053423 0.115887
O O3 0.672001 0.202412 0.218253
O O4 0.000000 0.000000 0.000000
O O5 0.293649 0.350075 0.111442
O O6 0.096483 0.696538 0.227412
O O7 0.500000 0.500000 0.000000
O O8 0.189469 0.176797 0.420605
O O9 0.852498 0.268054 0.428111
O O10 0.710299 0.404533 0.614299
O O11 0.000000 0.000000 0.500000
O O12 0.893287 0.523764 0.339681
O O13 0.708798 0.374003 0.327975
O O14 0.178357 0.136222 0.213768
O O15 0.229348 0.142255 0.558713
O O16 0.372813 0.121400 0.655194
O O17 0.500000 0.000000 0.000000
O O18 0.430326 0.271138 0.420181
#
# Coordination Sequence:
#
# PCOD8017788 Si02
#       8
#     2   2   2   2   2   2   2   2
#     4  10  22  39  65  97 127 167 224 263 328 389
#     4   9  21  39  64  92 128 164 214 268 319 387
#     4  12  26  42  62  98 134 170 221 273 331 392
#     4  11  23  42  63  90 131 174 215 268 332 386
#     4  10  22  41  63  93 130 172 215 268 329 396
#     4   9  20  40  64  89 125 165 212 265 323 381
#     4  11  24  38  68  93 131 168 220 265 332 391
#     4  12  24  41  69  92 132 177 219 274 326 399
#
# _framework density 20.477446
#
# number of rings (size 3 to 8) (size 9 to 14) (size 15 to 20)
#    0.750    0.750    1.250    3.750    5.250    0.000 
#    2.250    0.000    0.000    2.250    0.000    0.000 
#    0.000    0.000    0.000    0.000    0.000    0.000 
#
# Total GULP energy -198257.306339 kJ/mol
# GULP energy per Si atom -12391.081646 kJ/mol
# Density = 2.043084 g / cm^3
# Si number density = 20.477446 Si / 1000 Ang^3
#
#
#
# Elastic Constant Matrix: (Units=GPa)
#
#
# Indices 1 2 3 4 5 6 
#
# 1 92.5270 23.7215 43.8974 7.0570 -13.6275 -20.5560
# 2 23.7215 83.7430 40.6164 4.4459 -9.6318 -8.0179
# 3 43.8974 40.6164 161.7140 13.3033 -16.0355 -11.7206
# 4 7.0570 4.4459 13.3033 34.8494 -4.4754 -8.5989
# 5 -13.6275 -9.6318 -16.0355 -4.4754 40.2055 4.2016
# 6 -20.5560 -8.0179 -11.7206 -8.5989 4.2016 30.5701
#
#
#
# Elastic Compliance Matrix: (Units=1/GPa)
#
#
# Indices 1 2 3 4 5 6 
#
# 1 0.014736 -0.001783 -0.002745 0.000661 0.002689 0.008205
# 2 -0.001783 0.014106 -0.002829 0.000146 0.001533 0.001247
# 3 -0.002745 -0.002829 0.007917 -0.002006 0.001358 -0.000303
# 4 0.000661 0.000146 -0.002006 0.031632 0.002111 0.008321
# 5 0.002689 0.001533 0.001358 0.002111 0.026967 -0.000382
# 6 0.008205 0.001247 -0.000303 0.008321 -0.000382 0.040833
#
#
# Mechanical properties :
#
#
# Convention : Reuss Voigt Hill
#
# Bulk Modulus (GPa) = 45.36131 61.60606 53.48368
# Shear Modulus (GPa) = 31.59497 36.44159 34.01828
#
# Velocity S-wave (km/s) = 3.93226 4.22310 4.08027
# Velocity P-wave (km/s) = 6.54345 7.34368 6.95508
#
# Compressibility (1/GPa) = 0.02204522
#
# Stress axis : x y z
#
# Youngs Moduli (GPa) = 67.86316 70.89104 126.30910
#
# Poissons Ratio (x) = 0.12639 0.34676
# Poissons Ratio (y) = 0.12099 0.35728
# Poissons Ratio (z) = 0.18631 0.20052
#
# Static dielectric constant tensor:
#      x y z
#    x 3.694180 -0.054430 -0.145600 
#    y -0.054430 3.719090 0.292700 
#    z -0.145600 0.292700 3.992740 
# 
# 
# High freq. dielectric constant tensor:
#      x y z
#    x 1.795310 -0.009990 -0.011230 
#    y -0.009990 1.781370 0.009400 
#    z -0.011230 0.009400 1.812820 
# 
# From -- ./inp_files/556203.got.cif
#   From: 2010.06.25/outbox.cif.g09.slc.cpg/sg2_279_cif.got.tgz:556203.got - 2010.06.27 13:26:56.
