data_PCOD8017361
_publ_section_title
;
Structure prediction by ZEFSAII (Michael W. Deem and Ramdas Pophale) SiO2 
 PCOD8017361
Probable space group: P -1
;
_chemical_formula_sum "Si O2"
_cell_formula_units_Z 14
_cell_length_a 12.575623
_cell_length_b 17.771241
_cell_length_c 17.799502
_cell_angle_alpha 26.163196
_cell_angle_beta 157.958187
_cell_angle_gamma 143.688020
_cell_volume 649.975832
_symmetry_space_group_name_H-M "P -1"
_symmetry_group_IT_number 2
_symmetry_cell_setting 'triclinic'
loop_
_space_group_symop_operation_xyz
x,y,z
-x,-y,-z
loop_
_atom_site_type_symbol
_atom_site_label
_atom_site_fract_x
_atom_site_fract_y
_atom_site_fract_z
Si Si1 0.903904 0.609704 0.680529
Si Si2 0.380623 0.647008 0.847283
Si Si3 0.302691 0.746940 0.103415
Si Si4 0.216093 0.823974 0.804196
Si Si5 0.262645 0.917070 0.319925
Si Si6 0.162169 0.034357 0.303550
Si Si7 0.272955 0.193168 0.957358
O O1 0.618149 0.737342 0.353615
O O2 0.829035 0.424967 0.816632
O O3 0.112576 0.587635 0.766046
O O4 0.054731 0.680606 0.787933
O O5 0.284733 0.834102 0.580216
O O6 0.500000 0.500000 0.000000
O O7 0.637638 0.659509 0.063178
O O8 0.300063 0.780064 0.983746
O O9 0.117603 0.905779 0.884002
O O10 0.515555 0.838321 0.946763
O O11 0.000000 0.000000 0.500000
O O12 0.109335 0.049859 0.165449
O O13 0.591693 0.847641 0.621350
O O14 0.283378 0.009406 0.170932
O O15 0.067183 0.762142 0.327504
#
# Coordination Sequence:
#
# PCOD8017361 Si02
#       7
#     2   2   2   2   2   2   2
#     4  10  25  43  64  97 131 173 217 267 326 380
#     4  10  22  41  62  93 131 162 211 268 321 386
#     4  11  24  44  67  95 129 175 219 265 325 385
#     4  11  23  41  66  96 131 169 216 270 320 390
#     4   9  19  37  60  93 121 156 216 259 314 381
#     4  10  22  38  68  92 121 170 213 264 321 385
#     4   9  20  38  59  91 126 161 207 263 320 378
#
# _framework density 21.539262999999998
#
# number of rings (size 3 to 8) (size 9 to 14) (size 15 to 20)
#    0.000    2.000    0.000    3.000   10.000    1.143 
#    0.000    2.143    0.000    0.000    0.000    0.000 
#    0.000    0.000    0.000    0.000    0.000    0.000 
#
# Total GULP energy -173508.454738 kJ/mol
# GULP energy per Si atom -12393.461053 kJ/mol
# Density = 2.149024 g / cm^3
# Si number density = 21.539263 Si / 1000 Ang^3
#
#
#
# Elastic Constant Matrix: (Units=GPa)
#
#
# Indices 1 2 3 4 5 6 
#
# 1 164.4760 42.1882 57.4028 9.3375 15.8573 1.8284
# 2 42.1882 85.1210 53.5835 20.6656 16.9600 9.8369
# 3 57.4028 53.5835 92.9281 5.8358 14.1538 -2.3528
# 4 9.3375 20.6656 5.8358 36.4187 -1.5004 8.3817
# 5 15.8573 16.9600 14.1538 -1.5004 36.9291 -1.3810
# 6 1.8284 9.8369 -2.3528 8.3817 -1.3810 29.7249
#
#
#
# Elastic Compliance Matrix: (Units=1/GPa)
#
#
# Indices 1 2 3 4 5 6 
#
# 1 0.007936 -0.000705 -0.004216 -0.000931 -0.001521 -0.000397
# 2 -0.000705 0.024351 -0.012049 -0.010537 -0.006927 -0.006319
# 3 -0.004216 -0.012049 0.020224 0.003560 -0.000082 0.004840
# 4 -0.000931 -0.010537 0.003560 0.034627 0.005068 -0.005702
# 5 -0.001521 -0.006927 -0.000082 0.005068 0.031240 0.002402
# 6 -0.000397 -0.006319 0.004840 -0.005702 0.002402 0.037860
#
#
# Mechanical properties :
#
#
# Convention : Reuss Voigt Hill
#
# Bulk Modulus (GPa) = 53.84375 72.09713 62.97044
# Shear Modulus (GPa) = 25.46246 33.23791 29.35019
#
# Velocity S-wave (km/s) = 3.44196 3.93253 3.69540
# Velocity P-wave (km/s) = 6.39127 7.35968 6.89250
#
# Compressibility (1/GPa) = 0.01857226
#
# Stress axis : x y z
#
# Youngs Moduli (GPa) = 126.01074 41.06665 49.44588
#
# Poissons Ratio (x) = 0.02893 0.20845
# Poissons Ratio (y) = 0.08878 0.59577
# Poissons Ratio (z) = 0.53123 0.49481
#
# Static dielectric constant tensor:
#      x y z
#    x 4.370060 0.087850 -0.065290 
#    y 0.087850 4.176840 0.505320 
#    z -0.065290 0.505320 3.885990 
# 
# 
# High freq. dielectric constant tensor:
#      x y z
#    x 1.866120 0.005260 0.003270 
#    y 0.005260 1.851910 0.031740 
#    z 0.003270 0.031740 1.826520 
# 
# From -- ./inp_files/234050.got.cif
#   From: 2010.06.25/outbox.cif.g09.slc.cpg/sg2_118_cif.got.tgz:234050.got - 2010.06.27 13:26:56.
