data_PCOD8017085
_publ_section_title
;
Structure prediction by ZEFSAII (Michael W. Deem and Ramdas Pophale) SiO2 
 PCOD8017085
Probable space group: P -1
;
_chemical_formula_sum "Si O2"
_cell_formula_units_Z 12
_cell_length_a 26.129171
_cell_length_b 13.179472
_cell_length_c 16.358910
_cell_angle_alpha 24.745564
_cell_angle_beta 15.046234
_cell_angle_gamma 19.329133
_cell_volume 483.744990
_symmetry_space_group_name_H-M "P -1"
_symmetry_group_IT_number 2
_symmetry_cell_setting 'triclinic'
loop_
_space_group_symop_operation_xyz
x,y,z
-x,-y,-z
loop_
_atom_site_type_symbol
_atom_site_label
_atom_site_fract_x
_atom_site_fract_y
_atom_site_fract_z
Si Si1 0.161761 0.112794 0.406217
Si Si2 0.720668 0.452490 0.068071
Si Si3 0.087840 0.845935 0.391346
Si Si4 0.717382 0.041002 0.489423
Si Si5 0.397242 0.405369 0.030221
Si Si6 0.520507 0.734056 0.712499
O O1 0.247125 0.318523 0.102733
O O2 0.327619 0.889153 0.392551
O O3 0.153181 0.996394 0.413285
O O4 0.883217 0.304388 0.729148
O O5 0.535899 0.611153 0.157839
O O6 0.986593 0.182173 0.817361
O O7 0.607923 0.347091 0.383453
O O8 0.239906 0.473685 0.443533
O O9 0.272363 0.906060 0.023702
O O10 0.000000 0.000000 0.500000
O O11 0.585980 0.897885 0.760280
O O12 0.560180 0.466198 0.789028
O O13 0.500000 0.000000 0.500000
#
# Coordination Sequence:
#
# PCOD8017085 Si02
#       6
#     2   2   2   2   2   2
#     4   8  15  27  44  73 105 134 176 222 267 321
#     4   8  13  22  43  70  99 134 170 217 272 321
#     4  10  22  39  58  82 114 150 188 231 276 327
#     4   8  13  23  43  71 101 134 171 218 271 320
#     4   8  15  27  44  73 106 134 174 222 268 322
#     4  10  22  38  58  84 113 149 189 229 276 330
#
# _framework density 24.806459
#
# number of rings (size 3 to 8) (size 9 to 14) (size 15 to 20)
#    0.000    3.333    0.000    2.000    0.000   10.000 
#    0.000    0.000    0.000    4.000    0.000    7.000 
#    0.000    0.000    0.000    0.000    0.000    0.000 
#
# Total GULP energy -148670.259076 kJ/mol
# GULP energy per Si atom -12389.188256 kJ/mol
# Density = 2.475000 g / cm^3
# Si number density = 24.806459 Si / 1000 Ang^3
#
#
#
# Elastic Constant Matrix: (Units=GPa)
#
#
# Indices 1 2 3 4 5 6 
#
# 1 177.8880 71.7707 85.2075 -17.2857 8.9922 10.5330
# 2 71.7707 65.4780 53.7222 -18.9538 11.0920 -8.8394
# 3 85.2075 53.7222 123.2090 -35.3026 22.8687 -9.3063
# 4 -17.2857 -18.9538 -35.3026 45.5255 -13.1731 15.8442
# 5 8.9922 11.0920 22.8687 -13.1731 46.4441 7.1451
# 6 10.5330 -8.8394 -9.3063 15.8442 7.1451 64.6443
#
#
#
# Elastic Compliance Matrix: (Units=1/GPa)
#
#
# Indices 1 2 3 4 5 6 
#
# 1 0.012449 -0.010932 -0.005135 -0.001479 0.002960 -0.004227
# 2 -0.010932 0.033720 -0.005268 0.003019 -0.003295 0.005258
# 3 -0.005135 -0.005268 0.016943 0.007360 -0.004189 0.001214
# 4 -0.001479 0.003019 0.007360 0.032606 0.006262 -0.006970
# 5 0.002960 -0.003295 -0.004189 0.006262 0.026507 -0.006001
# 6 -0.004227 0.005258 0.001214 -0.006970 -0.006001 0.019424
#
#
# Mechanical properties :
#
#
# Convention : Reuss Voigt Hill
#
# Bulk Modulus (GPa) = 48.92360 87.55287 68.23824
# Shear Modulus (GPa) = 26.15976 41.71441 33.93709
#
# Velocity S-wave (km/s) = 3.25091 4.10517 3.70276
# Velocity P-wave (km/s) = 5.81861 7.60532 6.77116
#
# Compressibility (1/GPa) = 0.02044003
#
# Stress axis : x y z
#
# Youngs Moduli (GPa) = 80.32862 29.65616 59.02225
#
# Poissons Ratio (x) = 0.32421 0.30307
# Poissons Ratio (y) = 0.87819 0.31095
# Poissons Ratio (z) = 0.41248 0.15624
#
# Static dielectric constant tensor:
#      x y z
#    x 6.107630 -0.428000 0.047180 
#    y -0.428000 4.841650 0.532760 
#    z 0.047180 0.532760 4.607000 
# 
# 
# High freq. dielectric constant tensor:
#      x y z
#    x 2.005540 0.000750 0.018000 
#    y 0.000750 2.014530 0.049620 
#    z 0.018000 0.049620 1.983970 
# 
# From -- ./inp_files/251313.got.cif
#   From: 2010.06.25/outbox.cif.g09.slc.cpg/sg2_126_cif.got.tgz:251313.got - 2010.06.27 13:26:56.
