data_PCOD8017856
_publ_section_title
;
Structure prediction by ZEFSAII (Michael W. Deem and Ramdas Pophale) SiO2 
 PCOD8017856
Probable space group: P -1
;
_chemical_formula_sum "Si O2"
_cell_formula_units_Z 16
_cell_length_a 11.715029
_cell_length_b 9.581876
_cell_length_c 16.256116
_cell_angle_alpha 144.569745
_cell_angle_beta 108.948519
_cell_angle_gamma 50.793919
_cell_volume 742.477754
_symmetry_space_group_name_H-M "P -1"
_symmetry_group_IT_number 2
_symmetry_cell_setting 'triclinic'
loop_
_space_group_symop_operation_xyz
x,y,z
-x,-y,-z
loop_
_atom_site_type_symbol
_atom_site_label
_atom_site_fract_x
_atom_site_fract_y
_atom_site_fract_z
Si Si1 0.114817 0.585718 0.713081
Si Si2 0.713910 0.864596 0.620556
Si Si3 0.193896 0.781239 0.105868
Si Si4 0.913800 0.401627 0.589780
Si Si5 0.174561 0.355551 0.999515
Si Si6 0.806462 0.328965 0.696787
Si Si7 0.634616 0.488263 0.151839
Si Si8 0.542252 0.221924 0.132925
O O1 0.223717 0.324046 0.541477
O O2 0.224380 0.541111 0.789530
O O3 0.989117 0.558622 0.708295
O O4 0.999193 0.957586 0.833265
O O5 0.784173 0.600723 0.581906
O O6 0.774190 0.057495 0.740549
O O7 0.518980 0.127008 0.703262
O O8 0.241044 0.461963 0.001661
O O9 0.309657 0.671220 0.001793
O O10 0.823201 0.395203 0.639755
O O11 0.062760 0.039826 0.420872
O O12 0.163739 0.480112 0.147705
O O13 0.000000 0.500000 0.000000
O O14 0.312814 0.960489 0.851734
O O15 0.628569 0.438783 0.713007
O O16 0.597523 0.294386 0.100242
O O17 0.500000 0.000000 0.000000
#
# Coordination Sequence:
#
# PCOD8017856 Si02
#       8
#     2   2   2   2   2   2   2   2
#     4  11  23  41  66  92 131 164 210 262 333 365
#     4  11  23  40  67  92 127 164 220 254 322 373
#     4  11  24  40  65  96 126 165 221 255 307 390
#     4  10  22  39  67  87 120 170 212 260 295 394
#     4  11  23  38  64  90 132 163 202 258 325 368
#     4  10  22  41  61  89 125 165 215 245 317 376
#     4  12  25  40  67  99 129 160 214 274 315 373
#     4  10  23  39  63  89 131 166 205 251 322 375
#
# _framework density 21.549468999999998
#
# number of rings (size 3 to 8) (size 9 to 14) (size 15 to 20)
#    0.000    1.250    0.000    7.125   10.500    0.000 
#    0.000    0.000    0.000    3.750    0.000    0.000 
#    0.000    0.000    0.000    0.000    0.000    0.000 
#
# Total GULP energy -198378.459318 kJ/mol
# GULP energy per Si atom -12398.653707 kJ/mol
# Density = 2.150042 g / cm^3
# Si number density = 21.549469 Si / 1000 Ang^3
#
#
#
# Elastic Constant Matrix: (Units=GPa)
#
#
# Indices 1 2 3 4 5 6 
#
# 1 69.9978 33.6571 20.0477 5.2172 -18.4141 1.3794
# 2 33.6571 120.6593 25.3491 25.5432 -10.8845 -10.1458
# 3 20.0477 25.3491 68.0885 8.7808 -21.7124 3.5528
# 4 5.2172 25.5432 8.7808 32.8452 -6.5645 -1.6526
# 5 -18.4141 -10.8845 -21.7124 -6.5645 31.7198 3.3388
# 6 1.3794 -10.1458 3.5528 -1.6526 3.3388 48.4283
#
#
#
# Elastic Compliance Matrix: (Units=1/GPa)
#
#
# Indices 1 2 3 4 5 6 
#
# 1 0.019406 -0.005149 -0.000992 0.003012 0.009667 -0.002122
# 2 -0.005149 0.012063 -0.002984 -0.008201 -0.002886 0.002812
# 3 -0.000992 -0.002984 0.020304 -0.000603 0.012486 -0.002968
# 4 0.003012 -0.008201 -0.000603 0.037745 0.006429 -0.000915
# 5 0.009667 -0.002886 0.012486 0.006429 0.046528 -0.004784
# 6 -0.002122 0.002812 -0.002968 -0.000915 -0.004784 0.021815
#
#
# Mechanical properties :
#
#
# Convention : Reuss Voigt Hill
#
# Bulk Modulus (GPa) = 29.83034 46.31703 38.07369
# Shear Modulus (GPa) = 26.69684 34.57810 30.63747
#
# Velocity S-wave (km/s) = 3.52357 4.01008 3.77467
# Velocity P-wave (km/s) = 5.51605 6.55599 6.05838
#
# Compressibility (1/GPa) = 0.03352292
#
# Stress axis : x y z
#
# Youngs Moduli (GPa) = 51.52940 82.89605 49.25084
#
# Poissons Ratio (x) = 0.42683 0.04886
# Poissons Ratio (y) = 0.26532 0.14698
# Poissons Ratio (z) = 0.05112 0.24740
#
# Static dielectric constant tensor:
#      x y z
#    x 3.853650 -0.235400 -0.209180 
#    y -0.235400 4.526390 0.481540 
#    z -0.209180 0.481540 3.893650 
# 
# 
# High freq. dielectric constant tensor:
#      x y z
#    x 1.843200 -0.002100 -0.015450 
#    y -0.002100 1.869830 0.020540 
#    z -0.015450 0.020540 1.830780 
# 
# From -- ./inp_files/505219.got.cif
#   From: 2010.06.25/outbox.cif.g09.slc.cpg/sg2_253_cif.got.tgz:505219.got - 2010.06.27 13:26:56.
