data_PCOD8017808
_publ_section_title
;
Structure prediction by ZEFSAII (Michael W. Deem and Ramdas Pophale) SiO2 
 PCOD8017808
Probable space group: P -1
;
_chemical_formula_sum "Si O2"
_cell_formula_units_Z 16
_cell_length_a 15.064112
_cell_length_b 8.746131
_cell_length_c 30.122771
_cell_angle_alpha 142.302867
_cell_angle_beta 160.698665
_cell_angle_gamma 46.444390
_cell_volume 768.753294
_symmetry_space_group_name_H-M "P -1"
_symmetry_group_IT_number 2
_symmetry_cell_setting 'triclinic'
loop_
_space_group_symop_operation_xyz
x,y,z
-x,-y,-z
loop_
_atom_site_type_symbol
_atom_site_label
_atom_site_fract_x
_atom_site_fract_y
_atom_site_fract_z
Si Si1 0.680442 0.639634 0.416862
Si Si2 0.133490 0.496682 0.904012
Si Si3 0.180363 0.974403 0.973147
Si Si4 0.611138 0.308534 0.122636
Si Si5 0.881979 0.737219 0.911668
Si Si6 0.289487 0.634832 0.720011
Si Si7 0.144075 0.376953 0.334962
Si Si8 0.665452 0.208081 0.552330
O O1 0.455910 0.399905 0.280903
O O2 0.703484 0.589030 0.363309
O O3 0.983786 0.677108 0.590080
O O4 0.581735 0.898873 0.434860
O O5 0.209386 0.761060 0.973033
O O6 0.032566 0.533955 0.915383
O O7 0.892769 0.279504 0.715226
O O8 0.412483 0.408556 0.018867
O O9 0.972168 0.858797 0.808601
O O10 0.056542 0.186275 0.989579
O O11 0.492275 0.094126 0.129488
O O12 0.618516 0.436015 0.204153
O O13 0.924059 0.399919 0.272968
O O14 0.500000 0.000000 0.000000
O O15 0.000000 0.000000 0.000000
O O16 0.401469 0.309131 0.465791
O O17 0.227661 0.651325 0.411616
#
# Coordination Sequence:
#
# PCOD8017808 Si02
#       8
#     2   2   2   2   2   2   2   2
#     4  10  22  39  66  86 123 165 202 247 308 370
#     4  10  23  38  64  93 120 164 205 244 308 362
#     4   9  19  41  65  83 123 165 203 245 300 374
#     4  12  24  38  60  94 126 157 202 261 298 355
#     4   9  20  39  62  91 115 155 205 253 297 360
#     4  10  22  40  61  93 123 157 204 253 308 356
#     4  10  23  40  61  90 127 161 204 253 303 351
#     4  10  23  41  62  90 123 165 205 248 302 368
#
# _framework density 20.812918
#
# number of rings (size 3 to 8) (size 9 to 14) (size 15 to 20)
#    0.000    2.000    1.250    0.750    5.250    2.500 
#    0.000    4.375    0.000    0.000    0.000    0.000 
#    0.000    0.000    0.000    0.000    0.000    0.000 
#
# Total GULP energy -198328.312508 kJ/mol
# GULP energy per Si atom -12395.519532 kJ/mol
# Density = 2.076555 g / cm^3
# Si number density = 20.812918 Si / 1000 Ang^3
#
#
#
# Elastic Constant Matrix: (Units=GPa)
#
#
# Indices 1 2 3 4 5 6 
#
# 1 107.8630 34.3016 47.0378 -5.4647 6.6420 -7.1714
# 2 34.3016 75.7936 36.9480 -2.8158 -0.3535 -5.2969
# 3 47.0378 36.9480 111.9587 -2.2363 13.8064 5.8399
# 4 -5.4647 -2.8158 -2.2363 33.9456 1.5874 -0.6757
# 5 6.6420 -0.3535 13.8064 1.5874 42.3763 -4.8443
# 6 -7.1714 -5.2969 5.8399 -0.6757 -4.8443 17.5194
#
#
#
# Elastic Compliance Matrix: (Units=1/GPa)
#
#
# Indices 1 2 3 4 5 6 
#
# 1 0.012724 -0.003022 -0.004640 0.001605 0.000110 0.005934
# 2 -0.003022 0.017638 -0.005270 0.000619 0.003084 0.006729
# 3 -0.004640 -0.005270 0.013704 -0.000242 -0.004848 -0.009411
# 4 0.001605 0.000619 -0.000242 0.029839 -0.001082 0.001776
# 5 0.000110 0.003084 -0.004848 -0.001082 0.026351 0.009838
# 6 0.005934 0.006729 -0.009411 0.001776 0.009838 0.067469
#
#
# Mechanical properties :
#
#
# Convention : Reuss Voigt Hill
#
# Bulk Modulus (GPa) = 54.93546 59.13221 57.03384
# Shear Modulus (GPa) = 25.04291 30.59014 27.81653
#
# Velocity S-wave (km/s) = 3.47254 3.83791 3.65979
# Velocity P-wave (km/s) = 6.52152 6.93631 6.73211
#
# Compressibility (1/GPa) = 0.01820318
#
# Stress axis : x y z
#
# Youngs Moduli (GPa) = 78.58895 56.69541 72.96969
#
# Poissons Ratio (x) = 0.17133 0.33856
# Poissons Ratio (y) = 0.23750 0.38456
# Poissons Ratio (z) = 0.36463 0.29879
#
# Static dielectric constant tensor:
#      x y z
#    x 4.175110 -0.198160 0.046290 
#    y -0.198160 3.497080 0.105350 
#    z 0.046290 0.105350 3.948710 
# 
# 
# High freq. dielectric constant tensor:
#      x y z
#    x 1.828400 -0.010250 0.005740 
#    y -0.010250 1.786970 0.009380 
#    z 0.005740 0.009380 1.825910 
# 
# From -- ./inp_files/354510.got.cif
#   From: 2010.06.25/outbox.cif.g09.slc.cpg/sg2_178_cif.got.tgz:354510.got - 2010.06.27 13:26:56.
