data_PCOD8017288
_publ_section_title
;
Structure prediction by ZEFSAII (Michael W. Deem and Ramdas Pophale) SiO2 
 PCOD8017288
Probable space group: P -1
;
_chemical_formula_sum "Si O2"
_cell_formula_units_Z 16
_cell_length_a 15.348180
_cell_length_b 14.540781
_cell_length_c 8.495874
_cell_angle_alpha 138.795817
_cell_angle_beta 82.941703
_cell_angle_gamma 127.935873
_cell_volume 745.431005
_symmetry_space_group_name_H-M "P -1"
_symmetry_group_IT_number 2
_symmetry_cell_setting 'triclinic'
loop_
_space_group_symop_operation_xyz
x,y,z
-x,-y,-z
loop_
_atom_site_type_symbol
_atom_site_label
_atom_site_fract_x
_atom_site_fract_y
_atom_site_fract_z
Si Si1 0.066314 0.213887 0.664361
Si Si2 0.083842 0.336865 0.140168
Si Si3 0.502643 0.529847 0.724029
Si Si4 0.186629 0.162326 0.971106
Si Si5 0.217936 0.044363 0.126694
Si Si6 0.523400 0.989859 0.722415
Si Si7 0.295495 0.841326 0.801459
Si Si8 0.382253 0.649161 0.044241
O O1 0.095679 0.369753 0.989891
O O2 0.219358 0.379330 0.755044
O O3 0.000000 0.000000 0.500000
O O4 0.942958 0.094468 0.409591
O O5 0.161522 0.565219 0.499545
O O6 0.159769 0.293046 0.130823
O O7 0.913418 0.121147 0.936236
O O8 0.500000 0.500000 0.500000
O O9 0.364892 0.265977 0.479809
O O10 0.658989 0.675154 0.940464
O O11 0.482321 0.664704 0.951001
O O12 0.190780 0.128440 0.109811
O O13 0.233896 0.915754 0.870718
O O14 0.395403 0.919242 0.736185
O O15 0.454199 0.777145 0.361247
O O16 0.624613 0.218704 0.888133
O O17 0.618486 0.039184 0.899855
#
# Coordination Sequence:
#
# PCOD8017288 Si02
#       8
#     2   2   2   2   2   2   2   2
#     4  10  22  41  63  95 133 171 214 273 325 387
#     4  11  23  42  64  94 134 173 217 269 332 390
#     4  10  22  38  65  96 129 156 219 276 319 377
#     4  10  23  40  66  93 127 173 219 267 335 391
#     4  11  24  41  64  98 129 170 221 274 326 392
#     4  10  24  40  71  95 133 177 222 268 330 391
#     4  11  24  42  66  98 137 169 222 275 328 382
#     4  11  22  44  67 101 129 175 223 270 325 401
#
# _framework density 21.464092999999998
#
# number of rings (size 3 to 8) (size 9 to 14) (size 15 to 20)
#    0.000    1.500    1.250    3.750    8.750    1.000 
#    0.000    4.375    0.000    0.000    0.000    0.000 
#    0.000    0.000    0.000    0.000    0.000    0.000 
#
# Total GULP energy -198382.356814 kJ/mol
# GULP energy per Si atom -12398.897301 kJ/mol
# Density = 2.141524 g / cm^3
# Si number density = 21.464093 Si / 1000 Ang^3
#
#
#
# Elastic Constant Matrix: (Units=GPa)
#
#
# Indices 1 2 3 4 5 6 
#
# 1 74.0954 10.3656 45.3021 1.7416 -5.3243 21.6607
# 2 10.3656 75.0058 30.7131 5.7203 7.3434 17.2783
# 3 45.3021 30.7131 129.5422 6.1910 6.2686 10.4403
# 4 1.7416 5.7203 6.1910 45.4119 8.2697 2.4587
# 5 -5.3243 7.3434 6.2686 8.2697 30.6663 9.1433
# 6 21.6607 17.2783 10.4403 2.4587 9.1433 31.9728
#
#
#
# Elastic Compliance Matrix: (Units=1/GPa)
#
#
# Indices 1 2 3 4 5 6 
#
# 1 0.024373 0.003339 -0.008285 -0.001222 0.011021 -0.018669
# 2 0.003339 0.017018 -0.004360 -0.001267 0.000766 -0.010156
# 3 -0.008285 -0.004360 0.011427 -0.000203 -0.004311 0.005487
# 4 -0.001222 -0.001267 -0.000203 0.023379 -0.006676 0.001690
# 5 0.011021 0.000766 -0.004311 -0.006676 0.042414 -0.018088
# 6 -0.018669 -0.010156 0.005487 0.001690 -0.018088 0.052664
#
#
# Mechanical properties :
#
#
# Convention : Reuss Voigt Hill
#
# Bulk Modulus (GPa) = 29.23637 50.15612 39.69624
# Shear Modulus (GPa) = 24.83993 34.42771 29.63382
#
# Velocity S-wave (km/s) = 3.40557 4.00930 3.71970
# Velocity P-wave (km/s) = 5.39579 6.69708 6.08134
#
# Compressibility (1/GPa) = 0.03420398
#
# Stress axis : x y z
#
# Youngs Moduli (GPa) = 41.02911 58.76284 87.51270
#
# Poissons Ratio (x) = -0.19622 0.72508
# Poissons Ratio (y) = -0.13700 0.38159
# Poissons Ratio (z) = 0.33994 0.25623
#
# Static dielectric constant tensor:
#      x y z
#    x 3.775480 0.214300 0.241950 
#    y 0.214300 3.912510 0.033860 
#    z 0.241950 0.033860 4.467570 
# 
# 
# High freq. dielectric constant tensor:
#      x y z
#    x 1.824660 0.015660 0.003960 
#    y 0.015660 1.842390 0.006630 
#    z 0.003960 0.006630 1.859040 
# 
# From -- ./inp_files/316092.got.cif
#   From: 2010.06.25/outbox.cif.g09.slc.cpg/sg2_159_cif.got.tgz:316092.got - 2010.06.27 13:26:56.
