data_PCOD8017568
_publ_section_title
;
Structure prediction by ZEFSAII (Michael W. Deem and Ramdas Pophale) SiO2 
 PCOD8017568
Probable space group: P -1
;
_chemical_formula_sum "Si O2"
_cell_formula_units_Z 16
_cell_length_a 9.155951
_cell_length_b 21.437939
_cell_length_c 6.003094
_cell_angle_alpha 104.307073
_cell_angle_beta 46.712383
_cell_angle_gamma 120.675374
_cell_volume 727.710452
_symmetry_space_group_name_H-M "P -1"
_symmetry_group_IT_number 2
_symmetry_cell_setting 'triclinic'
loop_
_space_group_symop_operation_xyz
x,y,z
-x,-y,-z
loop_
_atom_site_type_symbol
_atom_site_label
_atom_site_fract_x
_atom_site_fract_y
_atom_site_fract_z
Si Si1 0.321576 0.458173 0.342587
Si Si2 0.536842 0.721064 0.326704
Si Si3 0.152426 0.967455 0.213616
Si Si4 0.274014 0.778252 0.952910
Si Si5 0.032078 0.832291 0.935241
Si Si6 0.570712 0.406954 0.361796
Si Si7 0.382169 0.908853 0.251298
Si Si8 0.174157 0.650198 0.251418
O O1 0.393128 0.407328 0.367599
O O2 0.300458 0.516127 0.576483
O O3 0.076096 0.405804 0.438110
O O4 0.500000 0.500000 0.000000
O O5 0.452045 0.765471 0.610244
O O6 0.563074 0.659077 0.382269
O O7 0.362893 0.683448 0.274448
O O8 0.788787 0.779960 0.024045
O O9 0.246283 0.945741 0.312514
O O10 0.011111 0.897251 0.141636
O O11 0.000000 0.000000 0.500000
O O12 0.361964 0.028097 0.898775
O O13 0.077529 0.781175 0.013910
O O14 0.417086 0.855131 0.998096
O O15 0.150658 0.714160 0.206099
O O16 0.243352 0.864933 0.573375
O O17 0.764585 0.395960 0.027106
#
# Coordination Sequence:
#
# PCOD8017568 Si02
#       8
#     2   2   2   2   2   2   2   2
#     4  11  24  42  65  91 122 162 205 253 307 362
#     4  11  24  40  63  93 123 162 205 250 306 366
#     4  10  22  40  62  89 125 162 202 252 304 357
#     4  10  23  41  62  88 125 162 202 252 306 362
#     4  11  23  40  64  92 124 161 205 252 304 363
#     4  10  24  42  63  90 124 160 204 252 306 364
#     4  10  22  39  62  92 121 159 207 253 301 358
#     4  11  24  42  64  91 125 161 203 252 305 366
#
# _framework density 21.986764999999998
#
# number of rings (size 3 to 8) (size 9 to 14) (size 15 to 20)
#    0.000    1.500    0.000    3.750    0.000   16.500 
#    0.000    0.000    0.000    0.000    0.000    0.000 
#    0.000    0.000    0.000    0.000    0.000    0.000 
#
# Total GULP energy -198444.091917 kJ/mol
# GULP energy per Si atom -12402.755745 kJ/mol
# Density = 2.193672 g / cm^3
# Si number density = 21.986765 Si / 1000 Ang^3
#
#
#
# Elastic Constant Matrix: (Units=GPa)
#
#
# Indices 1 2 3 4 5 6 
#
# 1 123.5581 80.4172 59.4420 -17.0212 0.7579 12.2624
# 2 80.4172 115.2671 50.4575 -14.4845 -12.8263 -10.8498
# 3 59.4420 50.4575 105.4522 -29.1623 1.1639 -1.5030
# 4 -17.0212 -14.4845 -29.1623 37.3786 4.8147 -14.6979
# 5 0.7579 -12.8263 1.1639 4.8147 30.5021 -4.8991
# 6 12.2624 -10.8498 -1.5030 -14.6979 -4.8991 38.5438
#
#
#
# Elastic Compliance Matrix: (Units=1/GPa)
#
#
# Indices 1 2 3 4 5 6 
#
# 1 0.022366 -0.015718 -0.006937 -0.006238 -0.008366 -0.015253
# 2 -0.015718 0.023409 -0.000606 0.005953 0.011780 0.015333
# 3 -0.006937 -0.000606 0.017552 0.013529 -0.001656 0.007669
# 4 -0.006238 0.005953 0.013529 0.045347 -0.001599 0.021277
# 5 -0.008366 0.011780 -0.001656 -0.001599 0.039929 0.010378
# 6 -0.015253 0.015333 0.007669 0.021277 0.010378 0.044845
#
#
# Mechanical properties :
#
#
# Convention : Reuss Voigt Hill
#
# Bulk Modulus (GPa) = 59.50420 80.54563 70.02492
# Shear Modulus (GPa) = 20.36070 31.54894 25.95482
#
# Velocity S-wave (km/s) = 3.04640 3.79213 3.43953
# Velocity P-wave (km/s) = 6.28462 7.47575 6.90591
#
# Compressibility (1/GPa) = 0.01680554
#
# Stress axis : x y z
#
# Youngs Moduli (GPa) = 44.71043 42.71923 56.97270
#
# Poissons Ratio (x) = 0.67145 0.39521
# Poissons Ratio (y) = 0.70275 0.03453
# Poissons Ratio (z) = 0.31015 0.02589
#
# Static dielectric constant tensor:
#      x y z
#    x 3.888030 -0.154740 0.079370 
#    y -0.154740 4.275390 0.050590 
#    z 0.079370 0.050590 3.794870 
# 
# 
# High freq. dielectric constant tensor:
#      x y z
#    x 1.858420 -0.007420 -0.001620 
#    y -0.007420 1.887150 0.004180 
#    z -0.001620 0.004180 1.861730 
# 
# From -- ./inp_files/12778.got.cif
#   From: 2010.06.25/outbox.cif.g09.slc.cpg/sg2_7_cif.got.tgz:12778.got - 2010.06.27 13:26:56.
