data_PCOD8017675
_publ_section_title
;
Structure prediction by ZEFSAII (Michael W. Deem and Ramdas Pophale) SiO2 
 PCOD8017675
Probable space group: P -1
;
_chemical_formula_sum "Si O2"
_cell_formula_units_Z 16
_cell_length_a 11.601690
_cell_length_b 6.493606
_cell_length_c 11.627574
_cell_angle_alpha 110.941994
_cell_angle_beta 105.643972
_cell_angle_gamma 87.526071
_cell_volume 786.432196
_symmetry_space_group_name_H-M "P -1"
_symmetry_group_IT_number 2
_symmetry_cell_setting 'triclinic'
loop_
_space_group_symop_operation_xyz
x,y,z
-x,-y,-z
loop_
_atom_site_type_symbol
_atom_site_label
_atom_site_fract_x
_atom_site_fract_y
_atom_site_fract_z
Si Si1 0.389474 0.053894 0.401583
Si Si2 0.361249 0.625899 0.156193
Si Si3 0.466939 0.120118 0.899998
Si Si4 0.497928 0.682072 0.702375
Si Si5 0.241666 0.580642 0.688905
Si Si6 0.761295 0.621276 0.109021
Si Si7 0.097740 0.989597 0.686794
Si Si8 0.850381 0.852667 0.515995
O O1 0.431241 0.284941 0.393449
O O2 0.276686 0.097106 0.457029
O O3 0.500000 0.000000 0.500000
O O4 0.343643 0.845542 0.268108
O O5 0.445350 0.674685 0.076877
O O6 0.416182 0.435994 0.209799
O O7 0.239019 0.522755 0.039075
O O8 0.335439 0.197344 0.893917
O O9 0.473280 0.936621 0.767997
O O10 0.500000 0.000000 0.000000
O O11 0.365304 0.562761 0.645450
O O12 0.269127 0.529220 0.818546
O O13 0.184608 0.814556 0.726613
O O14 0.147747 0.404510 0.569479
O O15 0.883764 0.774412 0.194301
O O16 0.957679 0.909811 0.646515
O O17 0.131281 0.001584 0.563974
#
# Coordination Sequence:
#
# PCOD8017675 Si02
#       8
#     2   2   2   2   2   2   2   2
#     4  11  25  40  58  85 122 158 193 236 286 356
#     4  11  23  36  55  89 124 157 192 230 299 355
#     4  11  19  32  55  88 126 152 184 243 293 343
#     4  11  21  34  57  88 120 155 186 236 298 351
#     4  11  20  35  63  88 116 149 193 245 298 342
#     4  11  21  34  58  92 118 148 197 242 290 351
#     4  10  22  39  64  85 114 151 194 254 293 331
#     4  10  23  42  58  87 117 151 203 240 285 350
#
# _framework density 20.345047999999998
#
# number of rings (size 3 to 8) (size 9 to 14) (size 15 to 20)
#    0.000    1.250    3.750    3.000    3.500    3.000 
#    0.000    0.625    0.000    1.500    0.000    0.000 
#    0.000    0.000    0.000    0.000    0.000    0.000 
#
# Total GULP energy -198253.253058 kJ/mol
# GULP energy per Si atom -12390.828316 kJ/mol
# Density = 2.029874 g / cm^3
# Si number density = 20.345048 Si / 1000 Ang^3
#
#
#
# Elastic Constant Matrix: (Units=GPa)
#
#
# Indices 1 2 3 4 5 6 
#
# 1 85.7522 26.7365 34.4648 -9.5046 12.5968 9.3082
# 2 26.7365 99.3654 38.8370 -15.8964 4.5941 12.9928
# 3 34.4648 38.8370 98.5451 -0.4790 21.7002 11.2344
# 4 -9.5046 -15.8964 -0.4790 38.8183 1.7974 -1.1510
# 5 12.5968 4.5941 21.7002 1.7974 27.6532 3.9334
# 6 9.3082 12.9928 11.2344 -1.1510 3.9334 22.9093
#
#
#
# Elastic Compliance Matrix: (Units=1/GPa)
#
#
# Indices 1 2 3 4 5 6 
#
# 1 0.014671 -0.001645 -0.003384 0.002965 -0.003577 -0.002606
# 2 -0.001645 0.013693 -0.004815 0.004877 0.002639 -0.004945
# 3 -0.003384 -0.004815 0.015517 -0.002233 -0.009406 -0.002001
# 4 0.002965 0.004877 -0.002233 0.028522 -0.002109 -0.001081
# 5 -0.003577 0.002639 -0.009406 -0.002109 0.045343 -0.003322
# 6 -0.002606 -0.004945 -0.002001 -0.001081 -0.003322 0.049011
#
#
# Mechanical properties :
#
#
# Convention : Reuss Voigt Hill
#
# Bulk Modulus (GPa) = 41.33184 53.74882 47.54033
# Shear Modulus (GPa) = 25.70568 30.11780 27.91174
#
# Velocity S-wave (km/s) = 3.55841 3.85171 3.70796
# Velocity P-wave (km/s) = 6.10267 6.80124 6.46140
#
# Compressibility (1/GPa) = 0.02419443
#
# Stress axis : x y z
#
# Youngs Moduli (GPa) = 68.16077 73.03000 64.44476
#
# Poissons Ratio (x) = 0.12010 0.21807
# Poissons Ratio (y) = 0.11209 0.31031
# Poissons Ratio (z) = 0.23065 0.35164
#
# Static dielectric constant tensor:
#      x y z
#    x 3.310160 0.569120 -0.151480 
#    y 0.569120 3.531350 0.393620 
#    z -0.151480 0.393620 3.856520 
# 
# 
# High freq. dielectric constant tensor:
#      x y z
#    x 1.758610 0.016420 0.016550 
#    y 0.016420 1.813920 0.004620 
#    z 0.016550 0.004620 1.799150 
# 
# From -- ./inp_files/71120.got.cif
#   From: 2010.06.25/outbox.cif.g09.slc.cpg/sg2_36_cif.got.tgz:71120.got - 2010.06.27 13:26:56.
