data_PCOD8017528
_publ_section_title
;
Structure prediction by ZEFSAII (Michael W. Deem and Ramdas Pophale) SiO2 
 PCOD8017528
Probable space group: P -1
;
_chemical_formula_sum "Si O2"
_cell_formula_units_Z 14
_cell_length_a 8.973118
_cell_length_b 12.627762
_cell_length_c 5.703603
_cell_angle_alpha 111.949203
_cell_angle_beta 98.323332
_cell_angle_gamma 81.242951
_cell_volume 589.717893
_symmetry_space_group_name_H-M "P -1"
_symmetry_group_IT_number 2
_symmetry_cell_setting 'triclinic'
loop_
_space_group_symop_operation_xyz
x,y,z
-x,-y,-z
loop_
_atom_site_type_symbol
_atom_site_label
_atom_site_fract_x
_atom_site_fract_y
_atom_site_fract_z
Si Si1 0.076140 0.530426 0.293160
Si Si2 0.663399 0.068934 0.169127
Si Si3 0.617623 0.838085 0.570954
Si Si4 0.177478 0.143672 0.755820
Si Si5 0.603115 0.242166 0.919435
Si Si6 0.322578 0.335467 0.173160
Si Si7 0.854144 0.232987 0.646189
O O1 0.246486 0.465219 0.281968
O O2 0.090726 0.666208 0.417273
O O3 0.000000 0.500000 0.500000
O O4 0.000000 0.500000 0.000000
O O5 0.487853 0.067552 0.219081
O O6 0.752304 0.153533 0.415971
O O7 0.755577 0.941874 0.091063
O O8 0.658236 0.120271 0.951121
O O9 0.743133 0.901368 0.508959
O O10 0.506856 0.778997 0.330601
O O11 0.700173 0.733053 0.650373
O O12 0.997078 0.150152 0.708609
O O13 0.227712 0.270784 0.906260
O O14 0.753889 0.290741 0.889873
O O15 0.503259 0.329981 0.146491
#
# Coordination Sequence:
#
# PCOD8017528 Si02
#       7
#     2   2   2   2   2   2   2
#     4  12  27  47  74 103 134 174 227 286 340 402
#     4  10  22  39  61  94 132 177 215 275 334 404
#     4   9  20  39  62  92 129 173 223 273 327 399
#     4  11  21  37  64  95 131 172 223 272 334 399
#     4   9  22  41  61  93 134 170 224 268 338 397
#     4  10  22  41  67  95 128 175 223 275 332 399
#     4  11  24  41  64  95 134 173 219 281 336 403
#
# _framework density 23.740165000000001
#
# number of rings (size 3 to 8) (size 9 to 14) (size 15 to 20)
#    0.000    1.714    1.429    1.714    4.000    9.714 
#    0.000    6.429    0.000    0.000    0.000    0.000 
#    0.000    0.000    0.000    0.000    0.000    0.000 
#
# Total GULP energy -173501.655259 kJ/mol
# GULP energy per Si atom -12392.975376 kJ/mol
# Density = 2.368613 g / cm^3
# Si number density = 23.740165 Si / 1000 Ang^3
#
#
#
# Elastic Constant Matrix: (Units=GPa)
#
#
# Indices 1 2 3 4 5 6 
#
# 1 139.8618 41.5837 31.2885 -13.3361 -24.8603 -15.8501
# 2 41.5837 105.6094 9.6613 -8.1405 -10.0656 -26.9630
# 3 31.2885 9.6613 66.8216 -18.7364 -15.4695 -5.7047
# 4 -13.3361 -8.1405 -18.7364 31.0253 3.8959 -1.9022
# 5 -24.8603 -10.0656 -15.4695 3.8959 31.0191 -5.1903
# 6 -15.8501 -26.9630 -5.7047 -1.9022 -5.1903 42.4113
#
#
#
# Elastic Compliance Matrix: (Units=1/GPa)
#
#
# Indices 1 2 3 4 5 6 
#
# 1 0.009921 -0.002228 -0.002084 0.001789 0.006447 0.002880
# 2 -0.002228 0.012998 0.001877 0.003556 0.004322 0.008371
# 3 -0.002084 0.001877 0.021461 0.011730 0.008993 0.004928
# 4 0.001789 0.003556 0.011730 0.040881 0.004455 0.006886
# 5 0.006447 0.004322 0.008993 0.004455 0.044748 0.012043
# 6 0.002880 0.008371 0.004928 0.006886 0.012043 0.032423
#
#
# Mechanical properties :
#
#
# Convention : Reuss Voigt Hill
#
# Bulk Modulus (GPa) = 25.31015 53.03997 39.17506
# Shear Modulus (GPa) = 27.70513 36.20841 31.95677
#
# Velocity S-wave (km/s) = 3.41987 3.90961 3.67291
# Velocity P-wave (km/s) = 5.12625 6.53991 5.87575
#
# Compressibility (1/GPa) = 0.03950983
#
# Stress axis : x y z
#
# Youngs Moduli (GPa) = 100.79234 76.93523 46.59566
#
# Poissons Ratio (x) = 0.17144 0.09708
# Poissons Ratio (y) = 0.22460 -0.08744
# Poissons Ratio (z) = 0.21000 -0.14437
#
# Static dielectric constant tensor:
#      x y z
#    x 4.714460 -0.220490 -0.450200 
#    y -0.220490 4.068250 -0.187000 
#    z -0.450200 -0.187000 4.668580 
# 
# 
# High freq. dielectric constant tensor:
#      x y z
#    x 1.944730 -0.019860 -0.003190 
#    y -0.019860 1.925790 -0.019200 
#    z -0.003190 -0.019200 1.945370 
# 
# From -- ./inp_files/26732.got.cif
#   From: 2010.06.25/outbox.cif.g09.slc.cpg/sg2_14_cif.got.tgz:26732.got - 2010.06.27 13:26:56.
