data_PCOD8017222
_publ_section_title
;
Structure prediction by ZEFSAII (Michael W. Deem and Ramdas Pophale) SiO2 
 PCOD8017222
Probable space group: P -1
;
_chemical_formula_sum "Si O2"
_cell_formula_units_Z 16
_cell_length_a 16.752114
_cell_length_b 12.615533
_cell_length_c 8.757677
_cell_angle_alpha 94.425876
_cell_angle_beta 94.454065
_cell_angle_gamma 154.080314
_cell_volume 759.286325
_symmetry_space_group_name_H-M "P -1"
_symmetry_group_IT_number 2
_symmetry_cell_setting 'triclinic'
loop_
_space_group_symop_operation_xyz
x,y,z
-x,-y,-z
loop_
_atom_site_type_symbol
_atom_site_label
_atom_site_fract_x
_atom_site_fract_y
_atom_site_fract_z
Si Si1 0.747392 0.085591 0.674683
Si Si2 0.443351 0.309400 0.967119
Si Si3 0.110677 0.519196 0.346659
Si Si4 0.824342 0.662227 0.165317
Si Si5 0.307567 0.580375 0.568071
Si Si6 0.044429 0.766819 0.005626
Si Si7 0.982223 0.912109 0.636966
Si Si8 0.229110 0.001996 0.628171
O O1 0.824614 0.281086 0.618396
O O2 0.890258 0.235000 0.852183
O O3 0.733569 0.968467 0.543068
O O4 0.530959 0.844205 0.675989
O O5 0.602169 0.428206 0.084412
O O6 0.236093 0.048624 0.991273
O O7 0.500000 0.500000 0.000000
O O8 0.426923 0.245617 0.783135
O O9 0.265949 0.641902 0.485934
O O10 0.900624 0.254543 0.364031
O O11 0.092708 0.457811 0.161927
O O12 0.824628 0.595491 0.317646
O O13 0.906794 0.690942 0.045460
O O14 0.957786 0.930962 0.206882
O O15 0.236894 0.401051 0.419372
O O16 0.125487 0.985958 0.656496
O O17 0.000000 0.000000 0.500000
#
# Coordination Sequence:
#
# PCOD8017222 Si02
#       8
#     2   2   2   2   2   2   2   2
#     4  12  22  41  67  93 125 171 216 265 318 368
#     4  11  23  43  63  97 133 164 212 262 309 386
#     4  10  23  43  62  91 129 166 217 268 313 374
#     4  11  22  43  66  91 136 167 204 260 321 381
#     4  10  22  40  63  94 128 163 217 264 306 383
#     4  11  25  42  68  95 127 172 209 259 327 373
#     4   9  18  37  58  86 123 161 198 254 306 375
#     4  10  22  38  63  91 127 167 214 257 317 378
#
# _framework density 21.072419
#
# number of rings (size 3 to 8) (size 9 to 14) (size 15 to 20)
#    0.000    1.500    2.500    3.375    1.750    1.500 
#    0.000    3.125    0.000    0.000    0.000    0.000 
#    0.000    0.000    0.000    0.000    0.000    0.000 
#
# Total GULP energy -198272.916680 kJ/mol
# GULP energy per Si atom -12392.057292 kJ/mol
# Density = 2.102446 g / cm^3
# Si number density = 21.072419 Si / 1000 Ang^3
#
#
#
# Elastic Constant Matrix: (Units=GPa)
#
#
# Indices 1 2 3 4 5 6 
#
# 1 96.1941 28.2858 36.5380 -1.1180 8.3808 -5.5108
# 2 28.2858 57.1416 7.4965 4.6811 -0.7447 -4.6463
# 3 36.5380 7.4965 102.6154 -4.5751 1.7616 8.5714
# 4 -1.1180 4.6811 -4.5751 27.6662 0.2601 3.4297
# 5 8.3808 -0.7447 1.7616 0.2601 36.9611 -1.8950
# 6 -5.5108 -4.6463 8.5714 3.4297 -1.8950 32.4174
#
#
#
# Elastic Compliance Matrix: (Units=1/GPa)
#
#
# Indices 1 2 3 4 5 6 
#
# 1 0.014556 -0.006446 -0.004850 0.000585 -0.003071 0.002591
# 2 -0.006446 0.021208 0.000326 -0.004113 0.002026 0.002411
# 3 -0.004850 0.000326 0.011888 0.002225 0.000312 -0.004138
# 4 0.000585 -0.004113 0.002225 0.037877 -0.000851 -0.005135
# 5 -0.003071 0.002026 0.000312 -0.000851 0.027856 0.001404
# 6 0.002591 0.002411 -0.004138 -0.005135 0.001404 0.033353
#
#
# Mechanical properties :
#
#
# Convention : Reuss Voigt Hill
#
# Bulk Modulus (GPa) = 38.89176 44.51019 41.70097
# Shear Modulus (GPa) = 28.20911 31.65099 29.93005
#
# Velocity S-wave (km/s) = 3.66276 3.87978 3.77283
# Velocity P-wave (km/s) = 6.03192 6.42173 6.22987
#
# Compressibility (1/GPa) = 0.02571239
#
# Stress axis : x y z
#
# Youngs Moduli (GPa) = 68.69990 47.15207 84.12152
#
# Poissons Ratio (x) = 0.30396 0.40796
# Poissons Ratio (y) = 0.44286 -0.02746
# Poissons Ratio (z) = 0.33317 -0.01539
#
# Static dielectric constant tensor:
#      x y z
#    x 3.915240 -0.274950 0.048760 
#    y -0.274950 3.861580 0.314550 
#    z 0.048760 0.314550 4.136070 
# 
# 
# High freq. dielectric constant tensor:
#      x y z
#    x 1.821030 -0.010190 0.015500 
#    y -0.010190 1.814840 0.010990 
#    z 0.015500 0.010990 1.838590 
# 
# From -- ./inp_files/185763.got.cif
#   From: 2010.06.25/outbox.cif.g09.slc.cpg/sg2_93_cif.got.tgz:185763.got - 2010.06.27 13:26:56.
