data_PCOD8017410
_publ_section_title
;
Structure prediction by ZEFSAII (Michael W. Deem and Ramdas Pophale) SiO2 
 PCOD8017410
Probable space group: P -1
;
_chemical_formula_sum "Si O2"
_cell_formula_units_Z 16
_cell_length_a 8.705152
_cell_length_b 12.000359
_cell_length_c 14.805251
_cell_angle_alpha 110.664325
_cell_angle_beta 114.305509
_cell_angle_gamma 35.959701
_cell_volume 827.143241
_symmetry_space_group_name_H-M "P -1"
_symmetry_group_IT_number 2
_symmetry_cell_setting 'triclinic'
loop_
_space_group_symop_operation_xyz
x,y,z
-x,-y,-z
loop_
_atom_site_type_symbol
_atom_site_label
_atom_site_fract_x
_atom_site_fract_y
_atom_site_fract_z
Si Si1 0.695602 0.512068 0.630637
Si Si2 0.099242 0.821730 0.515790
Si Si3 0.001500 0.576308 0.157060
Si Si4 0.567471 0.757756 0.236271
Si Si5 0.028684 0.440061 0.389386
Si Si6 0.254824 0.781794 0.028660
Si Si7 0.720485 0.930761 0.599834
Si Si8 0.822275 0.438313 0.993773
O O1 0.384926 0.657948 0.586639
O O2 0.889548 0.292999 0.587242
O O3 0.749017 0.521392 0.749045
O O4 0.744588 0.599071 0.605531
O O5 0.898417 0.915341 0.575937
O O6 0.000000 0.000000 0.500000
O O7 0.040661 0.632260 0.092095
O O8 0.725599 0.750751 0.197081
O O9 0.992560 0.439286 0.094869
O O10 0.378401 0.762773 0.146420
O O11 0.768300 0.583389 0.304327
O O12 0.388998 0.939941 0.304820
O O13 0.112381 0.258929 0.361378
O O14 0.000000 0.500000 0.500000
O O15 0.140894 0.711924 0.997227
O O16 0.500339 0.647546 0.975989
O O17 0.000000 0.000000 0.000000
O O18 0.500000 0.000000 0.500000
#
# Coordination Sequence:
#
# PCOD8017410 Si02
#       8
#     2   2   2   2   2   2   2   2
#     4  10  22  39  57  85 119 153 200 243 292 350
#     4  11  24  37  54  83 120 158 191 244 293 348
#     4   9  19  41  63  86 114 157 197 248 296 355
#     4  10  23  37  59  92 120 156 204 244 297 361
#     4  11  20  39  63  83 118 163 203 245 290 351
#     4  10  22  40  61  92 123 152 197 251 300 362
#     4  12  22  37  61  87 119 162 202 242 296 355
#     4   9  20  41  66  84 119 154 195 247 308 351
#
# _framework density 19.343688
#
# number of rings (size 3 to 8) (size 9 to 14) (size 15 to 20)
#    0.000    1.750    2.500    1.500    0.000    7.000 
#    0.000    9.375    0.000    0.000    0.000    0.000 
#    0.000    0.000    0.000    0.000    0.000    0.000 
#
# Total GULP energy -198249.208222 kJ/mol
# GULP energy per Si atom -12390.575514 kJ/mol
# Density = 1.929966 g / cm^3
# Si number density = 19.343688 Si / 1000 Ang^3
#
#
#
# Elastic Constant Matrix: (Units=GPa)
#
#
# Indices 1 2 3 4 5 6 
#
# 1 116.9431 52.8192 56.7913 9.4518 -13.7302 12.1801
# 2 52.8192 125.6188 44.3874 7.9262 -13.5582 9.3654
# 3 56.7913 44.3874 133.0876 8.7090 -7.1537 -8.4880
# 4 9.4518 7.9262 8.7090 30.2352 -8.4574 0.3986
# 5 -13.7302 -13.5582 -7.1537 -8.4574 33.4741 0.0699
# 6 12.1801 9.3654 -8.4880 0.3986 0.0699 29.4201
#
#
#
# Elastic Compliance Matrix: (Units=1/GPa)
#
#
# Indices 1 2 3 4 5 6 
#
# 1 0.013324 -0.003078 -0.004808 -0.001075 0.002931 -0.005916
# 2 -0.003078 0.010528 -0.002212 -0.000448 0.002422 -0.002715
# 3 -0.004808 -0.002212 0.010711 -0.001339 -0.000929 0.005805
# 4 -0.001075 -0.000448 -0.001339 0.036223 0.008244 -0.000309
# 5 0.002931 0.002422 -0.000929 0.008244 0.033947 -0.002445
# 6 -0.005916 -0.002715 0.005805 -0.000309 -0.002445 0.038989
#
#
# Mechanical properties :
#
#
# Convention : Reuss Voigt Hill
#
# Bulk Modulus (GPa) = 69.60220 75.96059 72.78140
# Shear Modulus (GPa) = 29.63719 33.40264 31.51991
#
# Velocity S-wave (km/s) = 3.91850 4.15998 4.04105
# Velocity P-wave (km/s) = 7.51883 7.90115 7.71236
#
# Compressibility (1/GPa) = 0.01436736
#
# Stress axis : x y z
#
# Youngs Moduli (GPa) = 75.05430 94.98197 93.36007
#
# Poissons Ratio (x) = 0.29235 0.44891
# Poissons Ratio (y) = 0.23101 0.20648
# Poissons Ratio (z) = 0.36089 0.21007
#
# Static dielectric constant tensor:
#      x y z
#    x 3.464310 0.000840 0.114860 
#    y 0.000840 3.543380 0.132610 
#    z 0.114860 0.132610 3.733230 
# 
# 
# High freq. dielectric constant tensor:
#      x y z
#    x 1.764260 -0.006280 0.003850 
#    y -0.006280 1.739680 0.008860 
#    z 0.003850 0.008860 1.764640 
# 
# From -- ./inp_files/500579.got.cif
#   From: 2010.06.25/outbox.cif.g09.slc.cpg/sg2_251_cif.got.tgz:500579.got - 2010.06.27 13:26:56.
