data_PCOD8017129
_publ_section_title
;
Structure prediction by ZEFSAII (Michael W. Deem and Ramdas Pophale) SiO2 
 PCOD8017129
Probable space group: P -1
;
_chemical_formula_sum "Si O2"
_cell_formula_units_Z 14
_cell_length_a 5.295730
_cell_length_b 6.025641
_cell_length_c 17.615909
_cell_angle_alpha 75.707867
_cell_angle_beta 103.264368
_cell_angle_gamma 79.285860
_cell_volume 512.365285
_symmetry_space_group_name_H-M "P -1"
_symmetry_group_IT_number 2
_symmetry_cell_setting 'triclinic'
loop_
_space_group_symop_operation_xyz
x,y,z
-x,-y,-z
loop_
_atom_site_type_symbol
_atom_site_label
_atom_site_fract_x
_atom_site_fract_y
_atom_site_fract_z
Si Si1 0.309369 0.833709 0.983767
Si Si2 0.108795 0.733353 0.554511
Si Si3 0.518685 0.285841 0.291461
Si Si4 0.736580 0.381894 0.153143
Si Si5 0.801674 0.061381 0.730514
Si Si6 0.877019 0.269279 0.870522
Si Si7 0.311993 0.505358 0.407106
O O1 0.397473 0.663648 0.931355
O O2 0.320885 0.663879 0.074008
O O3 0.018849 0.998983 0.928293
O O4 0.500000 0.000000 0.000000
O O5 0.190689 0.743400 0.647607
O O6 0.373291 0.598585 0.532988
O O7 0.888955 0.584511 0.543948
O O8 0.000000 0.000000 0.500000
O O9 0.504593 0.449706 0.199329
O O10 0.297647 0.394067 0.331303
O O11 0.458838 0.042503 0.280594
O O12 0.913172 0.568640 0.136570
O O13 0.919887 0.138485 0.223590
O O14 0.745922 0.244477 0.781918
O O15 0.790236 0.211149 0.638158
#
# Coordination Sequence:
#
# PCOD8017129 Si02
#       7
#     2   2   2   2   2   2   2
#     4  10  22  39  59  88 128 169 223 274 336 392
#     4  10  22  45  71  99 134 177 216 270 331 394
#     4  10  23  37  66  94 131 169 220 271 325 397
#     4  11  23  39  64  90 132 170 224 275 333 397
#     4  11  22  39  62  96 128 172 224 271 330 386
#     4  10  22  38  60  90 128 170 221 277 332 391
#     4  10  24  42  70  96 137 173 221 269 330 391
#
# _framework density 27.324256999999999
#
# number of rings (size 3 to 8) (size 9 to 14) (size 15 to 20)
#    0.857    0.857    0.000    4.286    2.000    4.000 
#    0.000    1.429    0.000    0.000    0.000    0.000 
#    0.000    0.000    0.000    0.000    0.000    0.000 
#
# Total GULP energy -173534.366523 kJ/mol
# GULP energy per Si atom -12395.311894 kJ/mol
# Density = 2.726207 g / cm^3
# Si number density = 27.324257 Si / 1000 Ang^3
#
#
#
# Elastic Constant Matrix: (Units=GPa)
#
#
# Indices 1 2 3 4 5 6 
#
# 1 141.4001 60.2564 46.9624 5.8990 -34.6232 30.9992
# 2 60.2564 102.5776 32.4544 -2.3527 -8.9550 17.4258
# 3 46.9624 32.4544 124.7434 -31.7382 -1.3222 5.1031
# 4 5.8990 -2.3527 -31.7382 67.6360 3.8370 3.6929
# 5 -34.6232 -8.9550 -1.3222 3.8370 51.9659 -2.5469
# 6 30.9992 17.4258 5.1031 3.6929 -2.5469 58.9737
#
#
#
# Elastic Compliance Matrix: (Units=1/GPa)
#
#
# Indices 1 2 3 4 5 6 
#
# 1 0.014209 -0.005406 -0.004624 -0.003811 0.008461 -0.004868
# 2 -0.005406 0.013411 -0.001306 0.000465 -0.001412 -0.001098
# 3 -0.004624 -0.001306 0.011503 0.005876 -0.003383 0.001307
# 4 -0.003811 0.000465 0.005876 0.018094 -0.003642 0.000067
# 5 0.008461 -0.001412 -0.003383 -0.003642 0.024700 -0.002443
# 6 -0.004868 -0.001098 0.001307 0.000067 -0.002443 0.019617
#
#
# Mechanical properties :
#
#
# Convention : Reuss Voigt Hill
#
# Bulk Modulus (GPa) = 60.78114 72.00750 66.39432
# Shear Modulus (GPa) = 38.55357 50.98497 44.76927
#
# Velocity S-wave (km/s) = 3.76036 4.32432 4.05216
# Velocity P-wave (km/s) = 6.41454 7.16541 6.80035
#
# Compressibility (1/GPa) = 0.01645247
#
# Stress axis : x y z
#
# Youngs Moduli (GPa) = 70.37631 74.56379 86.93671
#
# Poissons Ratio (x) = 0.40308 0.40198
# Poissons Ratio (y) = 0.38044 0.11351
# Poissons Ratio (z) = 0.32541 0.09736
#
# Static dielectric constant tensor:
#      x y z
#    x 4.869930 -0.354380 0.113510 
#    y -0.354380 5.016210 0.053450 
#    z 0.113510 0.053450 5.715440 
# 
# 
# High freq. dielectric constant tensor:
#      x y z
#    x 2.098580 -0.023330 0.004660 
#    y -0.023330 2.122430 0.001340 
#    z 0.004660 0.001340 2.153470 
# 
# From -- ./inp_files/114704.got.cif
#   From: 2010.06.25/outbox.cif.g09.slc.cpg/sg2_58_cif.got.tgz:114704.got - 2010.06.27 13:26:56.
