data_PCOD8017311
_publ_section_title
;
Structure prediction by ZEFSAII (Michael W. Deem and Ramdas Pophale) SiO2 
 PCOD8017311
Probable space group: P -1
;
_chemical_formula_sum "Si O2"
_cell_formula_units_Z 16
_cell_length_a 15.258989
_cell_length_b 19.438931
_cell_length_c 24.641376
_cell_angle_alpha 162.082680
_cell_angle_beta 159.162957
_cell_angle_gamma 30.512597
_cell_volume 773.704576
_symmetry_space_group_name_H-M "P -1"
_symmetry_group_IT_number 2
_symmetry_cell_setting 'triclinic'
loop_
_space_group_symop_operation_xyz
x,y,z
-x,-y,-z
loop_
_atom_site_type_symbol
_atom_site_label
_atom_site_fract_x
_atom_site_fract_y
_atom_site_fract_z
Si Si1 0.140928 0.105374 0.500218
Si Si2 0.136274 0.202319 0.690693
Si Si3 0.907460 0.608141 0.826461
Si Si4 0.266899 0.094702 0.966047
Si Si5 0.148952 0.608889 0.588265
Si Si6 0.591993 0.014783 0.624830
Si Si7 0.205687 0.588396 0.492453
Si Si8 0.621393 0.501445 0.258796
O O1 0.183413 0.076798 0.567666
O O2 0.063427 0.347596 0.627240
O O3 0.403297 0.106423 0.623436
O O4 0.908431 0.906197 0.189926
O O5 0.963288 0.375558 0.707486
O O6 0.391701 0.353986 0.979859
O O7 0.000000 0.000000 0.500000
O O8 0.763814 0.694791 0.856601
O O9 0.727763 0.549486 0.624251
O O10 0.141901 0.798442 0.079924
O O11 0.574705 0.167622 0.187551
O O12 0.159613 0.867396 0.769303
O O13 0.185820 0.461332 0.444375
O O14 0.369478 0.615681 0.764985
O O15 0.873740 0.494172 0.366871
O O16 0.607289 0.759783 0.459098
O O17 0.500000 0.000000 0.500000
#
# Coordination Sequence:
#
# PCOD8017311 Si02
#       8
#     2   2   2   2   2   2   2   2
#     4  10  22  38  66  92 117 166 205 256 305 364
#     4  11  26  41  61  93 129 160 206 256 312 364
#     4  11  23  40  67  93 121 162 209 257 307 357
#     4  11  20  42  65  89 125 161 212 250 304 369
#     4  10  22  40  62  89 121 169 206 244 313 368
#     4  12  20  42  66  94 123 157 213 257 304 369
#     4  10  23  37  64  91 124 160 208 257 298 369
#     4  11  23  41  63  88 127 166 198 256 310 365
#
# _framework density 20.679728000000001
#
# number of rings (size 3 to 8) (size 9 to 14) (size 15 to 20)
#    0.000    1.250    3.750    2.625    7.000    1.000 
#    2.250    1.875    0.000    0.000    0.000    0.000 
#    0.000    0.000    0.000    0.000    0.000    0.000 
#
# Total GULP energy -198274.428806 kJ/mol
# GULP energy per Si atom -12392.151800 kJ/mol
# Density = 2.063266 g / cm^3
# Si number density = 20.679728 Si / 1000 Ang^3
#
#
#
# Elastic Constant Matrix: (Units=GPa)
#
#
# Indices 1 2 3 4 5 6 
#
# 1 128.3463 38.0884 25.0050 5.3117 -20.1586 30.8218
# 2 38.0884 63.5698 26.6310 2.2676 -3.9109 16.8429
# 3 25.0050 26.6310 97.5004 3.4976 -6.5431 18.9518
# 4 5.3117 2.2676 3.4976 26.5231 0.3553 -5.2964
# 5 -20.1586 -3.9109 -6.5431 0.3553 39.9456 -6.1699
# 6 30.8218 16.8429 18.9518 -5.2964 -6.1699 33.3489
#
#
#
# Elastic Compliance Matrix: (Units=1/GPa)
#
#
# Indices 1 2 3 4 5 6 
#
# 1 0.012060 -0.004618 0.000310 -0.003877 0.004360 -0.008799
# 2 -0.004618 0.021309 -0.003747 -0.001355 -0.001599 -0.004876
# 3 0.000310 -0.003747 0.012465 -0.002537 0.000974 -0.005701
# 4 -0.003877 -0.001355 -0.002537 0.041358 -0.001005 0.012092
# 5 0.004360 -0.001599 0.000974 -0.001005 0.027422 0.001138
# 6 -0.008799 -0.004876 -0.005701 0.012092 0.001138 0.045952
#
#
# Mechanical properties :
#
#
# Convention : Reuss Voigt Hill
#
# Bulk Modulus (GPa) = 33.64197 52.09612 42.86905
# Shear Modulus (GPa) = 26.79789 33.27632 30.03711
#
# Velocity S-wave (km/s) = 3.60370 4.01574 3.81529
# Velocity P-wave (km/s) = 5.79819 6.83726 6.33905
#
# Compressibility (1/GPa) = 0.02972477
#
# Stress axis : x y z
#
# Youngs Moduli (GPa) = 82.92118 46.92824 80.22701
#
# Poissons Ratio (x) = 0.21671 -0.02491
# Poissons Ratio (y) = 0.38292 0.30061
# Poissons Ratio (z) = -0.02575 0.17584
#
# Static dielectric constant tensor:
#      x y z
#    x 4.200210 0.069620 -0.340450 
#    y 0.069620 3.583540 -0.194910 
#    z -0.340450 -0.194910 3.694400 
# 
# 
# High freq. dielectric constant tensor:
#      x y z
#    x 1.835460 -0.004690 -0.015270 
#    y -0.004690 1.784530 -0.016180 
#    z -0.015270 -0.016180 1.814090 
# 
# From -- ./inp_files/259632.got.cif
#   From: 2010.06.25/outbox.cif.g09.slc.cpg/sg2_130_cif.got.tgz:259632.got - 2010.06.27 13:26:56.
