data_PCOD8017355
_publ_section_title
;
Structure prediction by ZEFSAII (Michael W. Deem and Ramdas Pophale) SiO2 
 PCOD8017355
Probable space group: P -1
;
_chemical_formula_sum "Si O2"
_cell_formula_units_Z 16
_cell_length_a 11.775022
_cell_length_b 14.996135
_cell_length_c 8.456110
_cell_angle_alpha 146.875266
_cell_angle_beta 105.762057
_cell_angle_gamma 78.504610
_cell_volume 784.155298
_symmetry_space_group_name_H-M "P -1"
_symmetry_group_IT_number 2
_symmetry_cell_setting 'triclinic'
loop_
_space_group_symop_operation_xyz
x,y,z
-x,-y,-z
loop_
_atom_site_type_symbol
_atom_site_label
_atom_site_fract_x
_atom_site_fract_y
_atom_site_fract_z
Si Si1 0.343193 0.302216 0.795871
Si Si2 0.397775 0.959827 0.278027
Si Si3 0.219314 0.163528 0.849278
Si Si4 0.459285 0.497152 0.663237
Si Si5 0.169619 0.835156 0.180461
Si Si6 0.461539 0.148219 0.102590
Si Si7 0.949161 0.677298 0.745263
Si Si8 0.765994 0.509413 0.238725
O O1 0.360555 0.135307 0.455939
O O2 0.258354 0.259754 0.848516
O O3 0.295554 0.442086 0.874613
O O4 0.468891 0.369227 0.008823
O O5 0.500000 0.000000 0.500000
O O6 0.288183 0.861218 0.165649
O O7 0.446035 0.838982 0.987852
O O8 0.328465 0.129145 0.955768
O O9 0.156023 0.986752 0.519596
O O10 0.126383 0.279078 0.064215
O O11 0.500000 0.500000 0.500000
O O12 0.321506 0.518387 0.683411
O O13 0.481448 0.312743 0.456690
O O14 0.173904 0.663707 0.024185
O O15 0.057961 0.814437 0.984735
O O16 0.500000 0.000000 0.000000
O O17 0.860067 0.662836 0.540327
O O18 0.000000 0.500000 0.500000
#
# Coordination Sequence:
#
# PCOD8017355 Si02
#       8
#     2   2   2   2   2   2   2   2
#     4  11  23  37  61  90 127 159 200 252 305 369
#     4  11  20  40  60  89 126 160 196 246 314 364
#     4  11  22  43  62  90 124 162 200 252 312 360
#     4  12  21  37  58  91 126 165 199 244 306 363
#     4  10  22  38  68  84 119 163 205 246 303 365
#     4  12  24  36  61  93 129 157 198 249 305 368
#     4  10  22  43  65  87 117 163 211 253 298 362
#     4  11  22  38  60  91 120 160 208 250 299 357
#
# _framework density 20.404121
#
# number of rings (size 3 to 8) (size 9 to 14) (size 15 to 20)
#    0.000    1.000    5.000    3.000    1.750    1.000 
#    0.000    5.000    2.750    0.000    0.000    0.000 
#    0.000    0.000    0.000    0.000    0.000    0.000 
#
# Total GULP energy -198230.066203 kJ/mol
# GULP energy per Si atom -12389.379138 kJ/mol
# Density = 2.035768 g / cm^3
# Si number density = 20.404121 Si / 1000 Ang^3
#
#
#
# Elastic Constant Matrix: (Units=GPa)
#
#
# Indices 1 2 3 4 5 6 
#
# 1 109.8258 23.4362 43.3341 -7.5913 8.2963 -11.8015
# 2 23.4362 73.6337 15.8036 4.4743 8.1724 -4.0888
# 3 43.3341 15.8036 136.5579 13.2590 3.5520 -8.7260
# 4 -7.5913 4.4743 13.2590 28.5631 -7.1159 2.4136
# 5 8.2963 8.1724 3.5520 -7.1159 47.2790 -0.6019
# 6 -11.8015 -4.0888 -8.7260 2.4136 -0.6019 15.9657
#
#
#
# Elastic Compliance Matrix: (Units=1/GPa)
#
#
# Indices 1 2 3 4 5 6 
#
# 1 0.012128 -0.003012 -0.003598 0.004764 -0.000550 0.005486
# 2 -0.003012 0.015234 -0.000228 -0.003914 -0.002651 0.002042
# 3 -0.003598 -0.000228 0.009270 -0.005702 -0.000843 0.003179
# 4 0.004764 -0.003914 -0.005702 0.041709 0.006462 -0.006659
# 5 -0.000550 -0.002651 -0.000843 0.006462 0.022720 -0.001667
# 6 0.005486 0.002042 0.003179 -0.006659 -0.001667 0.069894
#
#
# Mechanical properties :
#
#
# Convention : Reuss Voigt Hill
#
# Bulk Modulus (GPa) = 43.56017 53.90723 48.73370
# Shear Modulus (GPa) = 26.00355 34.19111 30.09733
#
# Velocity S-wave (km/s) = 3.57378 4.09797 3.84482
# Velocity P-wave (km/s) = 6.19873 6.99058 6.60653
#
# Compressibility (1/GPa) = 0.02295675
#
# Stress axis : x y z
#
# Youngs Moduli (GPa) = 82.45376 65.64422 107.87865
#
# Poissons Ratio (x) = 0.19770 0.38812
# Poissons Ratio (y) = 0.24833 0.02457
# Poissons Ratio (z) = 0.29665 0.01495
#
# Static dielectric constant tensor:
#      x y z
#    x 3.819600 -0.248790 0.100850 
#    y -0.248790 3.596620 0.009500 
#    z 0.100850 0.009500 4.381040 
# 
# 
# High freq. dielectric constant tensor:
#      x y z
#    x 1.799400 -0.011690 -0.001360 
#    y -0.011690 1.765100 0.010910 
#    z -0.001360 0.010910 1.826110 
# 
# From -- ./inp_files/184857.got.cif
#   From: 2010.06.25/outbox.cif.g09.slc.cpg/sg2_93_cif.got.tgz:184857.got - 2010.06.27 13:26:56.
