data_PCOD8017420
_publ_section_title
;
Structure prediction by ZEFSAII (Michael W. Deem and Ramdas Pophale) SiO2 
 PCOD8017420
Probable space group: P -1
;
_chemical_formula_sum "Si O2"
_cell_formula_units_Z 16
_cell_length_a 9.613161
_cell_length_b 21.248906
_cell_length_c 6.788951
_cell_angle_alpha 134.101661
_cell_angle_beta 126.193634
_cell_angle_gamma 61.857127
_cell_volume 799.254830
_symmetry_space_group_name_H-M "P -1"
_symmetry_group_IT_number 2
_symmetry_cell_setting 'triclinic'
loop_
_space_group_symop_operation_xyz
x,y,z
-x,-y,-z
loop_
_atom_site_type_symbol
_atom_site_label
_atom_site_fract_x
_atom_site_fract_y
_atom_site_fract_z
Si Si1 0.655078 0.838331 0.006390
Si Si2 0.633760 0.689145 0.360862
Si Si3 0.934497 0.601239 0.676980
Si Si4 0.759383 0.277934 0.875473
Si Si5 0.828376 0.709311 0.181819
Si Si6 0.158000 0.040471 0.815094
Si Si7 0.270942 0.872907 0.783368
Si Si8 0.068101 0.816595 0.835440
O O1 0.777253 0.790705 0.169906
O O2 0.723564 0.930247 0.200759
O O3 0.649876 0.782734 0.679645
O O4 0.466935 0.853635 0.978452
O O5 0.769747 0.617757 0.428308
O O6 0.432985 0.668075 0.169120
O O7 0.677110 0.691708 0.170301
O O8 0.000000 0.500000 0.500000
O O9 0.874035 0.622780 0.897730
O O10 0.091628 0.657100 0.871527
O O11 0.785209 0.207530 0.568158
O O12 0.783621 0.221435 0.972431
O O13 0.996851 0.731961 0.490655
O O14 0.263387 0.966070 0.870611
O O15 0.000000 0.000000 0.500000
O O16 0.092907 0.126452 0.073853
O O17 0.150642 0.880469 0.890655
#
# Coordination Sequence:
#
# PCOD8017420 Si02
#       8
#     2   2   2   2   2   2   2   2
#     4  10  22  39  58  87 123 163 205 253 302 349
#     4  10  22  41  65  91 124 163 201 247 299 369
#     4  11  24  43  67  95 124 155 195 251 311 369
#     4  11  22  42  64  90 125 162 203 248 307 363
#     4  11  20  41  66  88 122 161 206 246 302 368
#     4  12  22  38  57  86 125 160 209 258 300 345
#     4  11  23  38  59  87 123 164 207 255 299 353
#     4  12  21  39  63  88 117 165 210 246 299 362
#
# _framework density 20.018646
#
# number of rings (size 3 to 8) (size 9 to 14) (size 15 to 20)
#    0.000    1.000    5.000    3.000    0.000    1.000 
#    0.000    1.875    0.000    0.000    0.000    0.000 
#    0.000    0.000    0.000    0.000    0.000    0.000 
#
# Total GULP energy -198417.248470 kJ/mol
# GULP energy per Si atom -12401.078029 kJ/mol
# Density = 1.997308 g / cm^3
# Si number density = 20.018646 Si / 1000 Ang^3
#
#
#
# Elastic Constant Matrix: (Units=GPa)
#
#
# Indices 1 2 3 4 5 6 
#
# 1 107.0277 34.6403 31.5405 -9.4928 -2.6656 -3.9721
# 2 34.6403 82.5185 25.1148 4.5051 6.8686 -14.6873
# 3 31.5405 25.1148 64.6217 -6.6335 0.7311 -4.0509
# 4 -9.4928 4.5051 -6.6335 24.3229 -1.2105 -0.7324
# 5 -2.6656 6.8686 0.7311 -1.2105 29.3086 -9.2399
# 6 -3.9721 -14.6873 -4.0509 -0.7324 -9.2399 28.7527
#
#
#
# Elastic Compliance Matrix: (Units=1/GPa)
#
#
# Indices 1 2 3 4 5 6 
#
# 1 0.012422 -0.004548 -0.003851 0.004752 0.002408 -0.000255
# 2 -0.004548 0.017142 -0.004637 -0.006144 -0.002517 0.006510
# 3 -0.003851 -0.004637 0.019647 0.004743 0.000488 0.000145
# 4 0.004752 -0.006144 0.004743 0.045607 0.003819 0.000575
# 5 0.002408 -0.002517 0.000488 0.003819 0.038752 0.011666
# 6 -0.000255 0.006510 0.000145 0.000575 0.011666 0.041853
#
#
# Mechanical properties :
#
#
# Convention : Reuss Voigt Hill
#
# Bulk Modulus (GPa) = 43.21455 48.52879 45.87167
# Shear Modulus (GPa) = 23.89968 27.33502 25.61735
#
# Velocity S-wave (km/s) = 3.45899 3.69925 3.58113
# Velocity P-wave (km/s) = 6.13081 6.52229 6.32958
#
# Compressibility (1/GPa) = 0.02314036
#
# Stress axis : x y z
#
# Youngs Moduli (GPa) = 80.50111 58.33487 50.89933
#
# Poissons Ratio (x) = 0.26530 0.19601
# Poissons Ratio (y) = 0.36611 0.23600
# Poissons Ratio (z) = 0.31000 0.27048
#
# Static dielectric constant tensor:
#      x y z
#    x 2.860050 0.190120 0.430150 
#    y 0.190120 3.550210 -0.348500 
#    z 0.430150 -0.348500 3.375060 
# 
# 
# High freq. dielectric constant tensor:
#      x y z
#    x 1.794620 -0.000480 0.000840 
#    y -0.000480 1.767550 -0.018760 
#    z 0.000840 -0.018760 1.774730 
# 
# From -- ./inp_files/37905.got.cif
#   From: 2010.06.25/outbox.cif.g09.slc.cpg/sg2_19_cif.got.tgz:37905.got - 2010.06.27 13:26:56.
