data_PCOD8017412
_publ_section_title
;
Structure prediction by ZEFSAII (Michael W. Deem and Ramdas Pophale) SiO2 
 PCOD8017412
Probable space group: P -1
;
_chemical_formula_sum "Si O2"
_cell_formula_units_Z 14
_cell_length_a 14.490007
_cell_length_b 13.706434
_cell_length_c 9.931951
_cell_angle_alpha 105.426481
_cell_angle_beta 134.628059
_cell_angle_gamma 38.773286
_cell_volume 681.272577
_symmetry_space_group_name_H-M "P -1"
_symmetry_group_IT_number 2
_symmetry_cell_setting 'triclinic'
loop_
_space_group_symop_operation_xyz
x,y,z
-x,-y,-z
loop_
_atom_site_type_symbol
_atom_site_label
_atom_site_fract_x
_atom_site_fract_y
_atom_site_fract_z
Si Si1 0.040760 0.691549 0.597688
Si Si2 0.503891 0.120419 0.248154
Si Si3 0.143356 0.010859 0.031222
Si Si4 0.070513 0.284089 0.994997
Si Si5 0.080151 0.517244 0.812270
Si Si6 0.059167 0.055605 0.258903
Si Si7 0.733198 0.568866 0.506676
O O1 0.131427 0.544864 0.740679
O O2 0.177675 0.582090 0.555782
O O3 0.115234 0.752467 0.755688
O O4 0.728244 0.897052 0.334842
O O5 0.326958 0.175714 0.188920
O O6 0.639114 0.120785 0.470600
O O7 0.336956 0.279074 0.014763
O O8 0.428457 0.780188 0.272014
O O9 0.133530 0.123020 0.982821
O O10 0.991787 0.122698 0.058180
O O11 0.003530 0.019394 0.799278
O O12 0.983634 0.364443 0.087169
O O13 0.841024 0.472617 0.730527
O O14 0.843901 0.600209 0.577432
#
# Coordination Sequence:
#
# PCOD8017412 Si02
#       7
#     2   2   2   2   2   2   2
#     4  10  22  39  57  88 121 154 188 238 302 334
#     4   9  20  37  58  84 122 143 195 242 282 343
#     4  11  21  40  61  84 122 152 199 235 287 345
#     4  11  21  37  63  90 114 152 196 244 288 334
#     4  11  20  36  63  89 116 153 196 236 295 343
#     4   9  21  41  59  85 118 158 191 241 283 348
#     4  11  24  36  60  93 117 150 195 243 288 350
#
# _framework density 20.549778
#
# number of rings (size 3 to 8) (size 9 to 14) (size 15 to 20)
#    0.857    0.857    1.429    4.714    0.000    5.714 
#    2.571    2.857    0.000    0.000    0.000    0.000 
#    0.000    0.000    0.000    0.000    0.000    0.000 
#
# Total GULP energy -173557.967639 kJ/mol
# GULP energy per Si atom -12396.997688 kJ/mol
# Density = 2.050301 g / cm^3
# Si number density = 20.549778 Si / 1000 Ang^3
#
#
#
# Elastic Constant Matrix: (Units=GPa)
#
#
# Indices 1 2 3 4 5 6 
#
# 1 44.6327 21.8696 39.7269 3.8843 14.6941 26.2654
# 2 21.8696 93.2108 24.9520 11.9388 3.7269 12.5787
# 3 39.7269 24.9520 59.8315 2.3515 16.1948 18.9951
# 4 3.8843 11.9388 2.3515 37.0797 7.9988 -0.0143
# 5 14.6941 3.7269 16.1948 7.9988 23.5075 10.8944
# 6 26.2654 12.5787 18.9951 -0.0143 10.8944 34.2179
#
#
#
# Elastic Compliance Matrix: (Units=1/GPa)
#
#
# Indices 1 2 3 4 5 6 
#
# 1 0.088156 -0.002852 -0.042820 -0.004680 -0.004342 -0.041469
# 2 -0.002852 0.013190 -0.004177 -0.004787 0.005111 -0.001970
# 3 -0.042820 -0.004177 0.045855 0.005504 -0.011946 0.012754
# 4 -0.004680 -0.004787 0.005504 0.031680 -0.014027 0.006776
# 5 -0.004342 0.005111 -0.011946 -0.014027 0.062997 -0.011977
# 6 -0.041469 -0.001970 0.012754 0.006776 -0.011977 0.058516
#
#
# Mechanical properties :
#
#
# Convention : Reuss Voigt Hill
#
# Bulk Modulus (GPa) = 21.05086 41.19687 31.12387
# Shear Modulus (GPa) = 12.02135 26.36943 19.19539
#
# Velocity S-wave (km/s) = 2.42127 3.58606 3.05961
# Velocity P-wave (km/s) = 4.25239 6.10224 5.25929
#
# Compressibility (1/GPa) = 0.04750400
#
# Stress axis : x y z
#
# Youngs Moduli (GPa) = 11.34353 75.81353 21.80781
#
# Poissons Ratio (x) = 0.21620 0.93381
# Poissons Ratio (y) = 0.03235 0.09109
# Poissons Ratio (z) = 0.48573 0.31668
#
# Static dielectric constant tensor:
#      x y z
#    x 3.434610 0.175520 0.098650 
#    y 0.175520 3.761750 0.089700 
#    z 0.098650 0.089700 3.605900 
# 
# 
# High freq. dielectric constant tensor:
#      x y z
#    x 1.779000 0.008790 0.002070 
#    y 0.008790 1.810540 0.005210 
#    z 0.002070 0.005210 1.795510 
# 
# From -- ./inp_files/315489.got.cif
#   From: 2010.06.25/outbox.cif.g09.slc.cpg/sg2_158_cif.got.tgz:315489.got - 2010.06.27 13:26:56.
