data_PCOD8017852
_publ_section_title
;
Structure prediction by ZEFSAII (Michael W. Deem and Ramdas Pophale) SiO2 
 PCOD8017852
Probable space group: P -1
;
_chemical_formula_sum "Si O2"
_cell_formula_units_Z 14
_cell_length_a 4.984727
_cell_length_b 18.397935
_cell_length_c 9.426989
_cell_angle_alpha 49.805335
_cell_angle_beta 63.787276
_cell_angle_gamma 58.224686
_cell_volume 554.454961
_symmetry_space_group_name_H-M "P -1"
_symmetry_group_IT_number 2
_symmetry_cell_setting 'triclinic'
loop_
_space_group_symop_operation_xyz
x,y,z
-x,-y,-z
loop_
_atom_site_type_symbol
_atom_site_label
_atom_site_fract_x
_atom_site_fract_y
_atom_site_fract_z
Si Si1 0.411279 0.795693 0.325210
Si Si2 0.907440 0.999136 0.184451
Si Si3 0.202346 0.311693 0.369002
Si Si4 0.039565 0.523899 0.245551
Si Si5 0.253467 0.125054 0.101024
Si Si6 0.471501 0.418882 0.499015
Si Si7 0.110551 0.694140 0.834820
O O1 0.671616 0.764161 0.431475
O O2 0.298533 0.701069 0.417843
O O3 0.571045 0.834268 0.111866
O O4 0.090706 0.884706 0.343288
O O5 0.522378 0.034884 0.239302
O O6 0.006057 0.080219 0.147761
O O7 0.000000 0.000000 0.000000
O O8 0.940026 0.424985 0.338958
O O9 0.511337 0.330990 0.209843
O O10 0.031325 0.272479 0.331765
O O11 0.393732 0.464439 0.300523
O O12 0.843994 0.592603 0.335597
O O13 0.042185 0.593282 0.024358
O O14 0.061186 0.214246 0.136512
O O15 0.500000 0.500000 0.500000
#
# Coordination Sequence:
#
# PCOD8017852 Si02
#       7
#     2   2   2   2   2   2   2
#     4  10  22  45  66  99 132 172 218 279 325 389
#     4  10  22  41  70 103 127 167 222 280 330 383
#     4  11  27  41  66  96 135 175 222 257 336 392
#     4  10  23  41  61  96 134 174 218 265 327 393
#     4  11  23  44  71  99 128 172 227 272 329 388
#     4  10  22  39  67 104 130 167 222 276 326 382
#     4  12  25  45  65  97 133 181 213 272 323 393
#
# _framework density 25.250022999999999
#
# number of rings (size 3 to 8) (size 9 to 14) (size 15 to 20)
#    0.000    1.429    1.429    3.429    6.000    5.714 
#    5.143    4.286    0.000    0.000    0.000    0.000 
#    0.000    0.000    0.000    0.000    0.000    0.000 
#
# Total GULP energy -173513.367840 kJ/mol
# GULP energy per Si atom -12393.811989 kJ/mol
# Density = 2.519255 g / cm^3
# Si number density = 25.250023 Si / 1000 Ang^3
#
#
#
# Elastic Constant Matrix: (Units=GPa)
#
#
# Indices 1 2 3 4 5 6 
#
# 1 103.3857 35.5141 18.6505 -2.3648 26.2377 6.8020
# 2 35.5141 145.8860 59.3868 -12.3271 16.2199 -6.6724
# 3 18.6505 59.3868 96.3796 -4.5391 17.1315 -6.6494
# 4 -2.3648 -12.3271 -4.5391 37.7752 -2.7185 -0.8052
# 5 26.2377 16.2199 17.1315 -2.7185 32.9103 -2.0148
# 6 6.8020 -6.6724 -6.6494 -0.8052 -2.0148 50.3297
#
#
#
# Elastic Compliance Matrix: (Units=1/GPa)
#
#
# Indices 1 2 3 4 5 6 
#
# 1 0.013018 -0.002478 0.000521 -0.000676 -0.009632 -0.002415
# 2 -0.002478 0.009921 -0.005487 0.002459 0.000205 0.000973
# 3 0.000521 -0.005487 0.014646 -0.000361 -0.005309 0.000919
# 4 -0.000676 0.002459 -0.000361 0.027339 0.001827 0.000880
# 5 -0.009632 0.000205 -0.005309 0.001827 0.041019 0.002299
# 6 -0.002415 0.000973 0.000919 0.000880 0.002299 0.020552
#
#
# Mechanical properties :
#
#
# Convention : Reuss Voigt Hill
#
# Bulk Modulus (GPa) = 44.05816 63.63936 53.84876
# Shear Modulus (GPa) = 33.56890 39.67638 36.62264
#
# Velocity S-wave (km/s) = 3.65013 3.96831 3.81254
# Velocity P-wave (km/s) = 5.93728 6.80111 6.38382
#
# Compressibility (1/GPa) = 0.02269727
#
# Stress axis : x y z
#
# Youngs Moduli (GPa) = 76.81922 100.79627 68.27891
#
# Poissons Ratio (x) = 0.24976 -0.03560
# Poissons Ratio (y) = 0.19035 0.37465
# Poissons Ratio (z) = -0.04005 0.55308
#
# Static dielectric constant tensor:
#      x y z
#    x 4.753800 0.323010 0.122540 
#    y 0.323010 3.407490 -0.603520 
#    z 0.122540 -0.603520 4.476790 
# 
# 
# High freq. dielectric constant tensor:
#      x y z
#    x 2.028280 -0.011660 -0.003220 
#    y -0.011660 2.034530 0.003300 
#    z -0.003220 0.003300 1.996990 
# 
# From -- ./inp_files/138483.got.cif
#   From: 2010.06.25/outbox.cif.g09.slc.cpg/sg2_70_cif.got.tgz:138483.got - 2010.06.27 13:26:56.
