data_PCOD8017961
_publ_section_title
;
Structure prediction by ZEFSAII (Michael W. Deem and Ramdas Pophale) SiO2 
 PCOD8017961
Probable space group: P -1
;
_chemical_formula_sum "Si O2"
_cell_formula_units_Z 16
_cell_length_a 9.691080
_cell_length_b 15.079080
_cell_length_c 7.963487
_cell_angle_alpha 72.225096
_cell_angle_beta 94.031621
_cell_angle_gamma 141.099897
_cell_volume 668.112463
_symmetry_space_group_name_H-M "P -1"
_symmetry_group_IT_number 2
_symmetry_cell_setting 'triclinic'
loop_
_space_group_symop_operation_xyz
x,y,z
-x,-y,-z
loop_
_atom_site_type_symbol
_atom_site_label
_atom_site_fract_x
_atom_site_fract_y
_atom_site_fract_z
Si Si1 0.168903 0.456671 0.425454
Si Si2 0.500239 0.192311 0.781910
Si Si3 0.575783 0.891133 0.814569
Si Si4 0.935177 0.366607 0.135453
Si Si5 0.842426 0.671225 0.003350
Si Si6 0.176395 0.807776 0.215245
Si Si7 0.734256 0.867445 0.517900
Si Si8 0.625372 0.607308 0.701503
O O1 0.325881 0.631509 0.348047
O O2 0.297780 0.431385 0.397895
O O3 0.958511 0.367601 0.335726
O O4 0.044227 0.369413 0.640989
O O5 0.619073 0.154326 0.826406
O O6 0.311919 0.092723 0.673360
O O7 0.389982 0.147743 0.984120
O O8 0.320996 0.796662 0.843312
O O9 0.615763 0.846474 0.685175
O O10 0.743896 0.070612 0.716430
O O11 0.000000 0.500000 0.000000
O O12 0.134359 0.415241 0.035076
O O13 0.629485 0.558693 0.175198
O O14 0.084177 0.816205 0.038333
O O15 0.790746 0.712389 0.818380
O O16 0.625383 0.708072 0.554512
O O17 0.000000 0.000000 0.500000
#
# Coordination Sequence:
#
# PCOD8017961 Si02
#       8
#     2   2   2   2   2   2   2   2
#     4  11  24  43  74 105 143 191 234 296 359 420
#     4  12  27  47  76 106 142 187 247 296 353 430
#     4  12  27  46  75 106 144 192 235 295 366 424
#     4  11  20  41  69 102 139 178 237 290 355 415
#     4  10  22  39  70  94 140 178 232 290 347 410
#     4  12  25  45  70 110 141 182 238 304 358 420
#     4  12  29  48  69 104 151 187 237 294 356 431
#     4  10  24  44  66 103 141 188 235 286 348 429
#
# _framework density 23.948060999999999
#
# number of rings (size 3 to 8) (size 9 to 14) (size 15 to 20)
#    0.000    0.750    2.500    3.750    5.250    6.500 
#    0.000    0.000    0.000    0.000    0.000    0.000 
#    0.000    0.000    0.000    0.000    0.000    0.000 
#
# Total GULP energy -198324.750991 kJ/mol
# GULP energy per Si atom -12395.296937 kJ/mol
# Density = 2.389355 g / cm^3
# Si number density = 23.948061 Si / 1000 Ang^3
#
#
#
# Elastic Constant Matrix: (Units=GPa)
#
#
# Indices 1 2 3 4 5 6 
#
# 1 103.7169 23.3951 27.2685 15.7497 10.9869 11.8123
# 2 23.3951 72.0439 3.2781 13.5726 9.1744 3.4373
# 3 27.2685 3.2781 89.0537 18.7811 7.2020 17.6205
# 4 15.7497 13.5726 18.7811 39.1698 5.4213 12.3057
# 5 10.9869 9.1744 7.2020 5.4213 35.8181 4.3500
# 6 11.8123 3.4373 17.6205 12.3057 4.3500 47.6628
#
#
#
# Elastic Compliance Matrix: (Units=1/GPa)
#
#
# Indices 1 2 3 4 5 6 
#
# 1 0.011621 -0.003039 -0.002727 -0.001730 -0.001850 -0.001037
# 2 -0.003039 0.016041 0.001476 -0.004829 -0.002810 0.000554
# 3 -0.002727 0.001476 0.013754 -0.004854 -0.001189 -0.003153
# 4 -0.001730 -0.004829 -0.004854 0.032188 -0.001447 -0.005607
# 5 -0.001850 -0.002810 -0.001189 -0.001447 0.029816 -0.001247
# 6 -0.001037 0.000554 -0.003153 -0.005607 -0.001247 0.023925
#
#
# Mechanical properties :
#
#
# Convention : Reuss Voigt Hill
#
# Bulk Modulus (GPa) = 30.45303 41.41090 35.93197
# Shear Modulus (GPa) = 34.04403 38.58831 36.31617
#
# Velocity S-wave (km/s) = 3.77447 4.01850 3.89839
# Velocity P-wave (km/s) = 5.63377 6.23383 5.94138
#
# Compressibility (1/GPa) = 0.03283746
#
# Stress axis : x y z
#
# Youngs Moduli (GPa) = 86.05272 62.33948 72.70778
#
# Poissons Ratio (x) = 0.18942 0.19825
# Poissons Ratio (y) = 0.26147 -0.10732
# Poissons Ratio (z) = 0.23464 -0.09202
#
# Static dielectric constant tensor:
#      x y z
#    x 3.574190 -0.344060 0.325410 
#    y -0.344060 3.978710 0.290500 
#    z 0.325410 0.290500 4.460180 
# 
# 
# High freq. dielectric constant tensor:
#      x y z
#    x 1.956870 0.011450 0.010120 
#    y 0.011450 1.948030 0.014140 
#    z 0.010120 0.014140 1.957450 
# 
# From -- ./inp_files/206976.got.cif
#   From: 2010.06.25/outbox.cif.g09.slc.cpg/sg2_104_cif.got.tgz:206976.got - 2010.06.27 13:26:56.
