data_PCOD8017231
_publ_section_title
;
Structure prediction by ZEFSAII (Michael W. Deem and Ramdas Pophale) SiO2 
 PCOD8017231
Probable space group: P -1
;
_chemical_formula_sum "Si O2"
_cell_formula_units_Z 16
_cell_length_a 6.608536
_cell_length_b 22.975394
_cell_length_c 10.686222
_cell_angle_alpha 146.289188
_cell_angle_beta 104.459223
_cell_angle_gamma 61.135274
_cell_volume 749.138509
_symmetry_space_group_name_H-M "P -1"
_symmetry_group_IT_number 2
_symmetry_cell_setting 'triclinic'
loop_
_space_group_symop_operation_xyz
x,y,z
-x,-y,-z
loop_
_atom_site_type_symbol
_atom_site_label
_atom_site_fract_x
_atom_site_fract_y
_atom_site_fract_z
Si Si1 0.697017 0.275798 0.864919
Si Si2 0.002225 0.316663 0.467175
Si Si3 0.464378 0.462687 0.698443
Si Si4 0.513656 0.825424 0.161803
Si Si5 0.808415 0.912126 0.512195
Si Si6 0.946090 0.128650 0.267199
Si Si7 0.550906 0.683927 0.358022
Si Si8 0.812073 0.633468 0.661451
O O1 0.606113 0.245984 0.924126
O O2 0.499367 0.313995 0.792566
O O3 0.951916 0.157879 0.660295
O O4 0.721520 0.394562 0.105737
O O5 0.989927 0.195733 0.277800
O O6 0.197504 0.318895 0.593577
O O7 0.067223 0.320934 0.340835
O O8 0.737710 0.433641 0.664483
O O9 0.427144 0.436774 0.790678
O O10 0.410700 0.374854 0.446995
O O11 0.622940 0.868333 0.366503
O O12 0.310169 0.943431 0.267523
O O13 0.721209 0.733503 0.935024
O O14 0.871963 0.882759 0.614750
O O15 0.669172 0.199407 0.398269
O O16 0.000000 0.000000 0.000000
O O17 0.000000 0.500000 0.500000
#
# Coordination Sequence:
#
# PCOD8017231 Si02
#       8
#     2   2   2   2   2   2   2   2
#     4  11  21  40  64  89 124 166 202 254 312 365
#     4  10  22  40  61  92 124 161 207 254 316 360
#     4  10  22  38  63  93 124 157 208 259 309 365
#     4  11  24  41  63  88 128 166 208 251 302 375
#     4  10  24  43  60  91 124 162 208 258 304 370
#     4  10  22  41  65  91 123 159 210 263 304 365
#     4   9  21  39  60  94 122 158 206 253 313 369
#     4  11  24  42  62  93 126 164 208 253 306 372
#
# _framework density 21.357866999999999
#
# number of rings (size 3 to 8) (size 9 to 14) (size 15 to 20)
#    0.000    1.750    0.000    3.000    5.250    5.000 
#    9.000    0.000    0.000    0.000    0.000    0.000 
#    0.000    0.000    0.000    0.000    0.000    0.000 
#
# Total GULP energy -198445.805733 kJ/mol
# GULP energy per Si atom -12402.862858 kJ/mol
# Density = 2.130926 g / cm^3
# Si number density = 21.357867 Si / 1000 Ang^3
#
#
#
# Elastic Constant Matrix: (Units=GPa)
#
#
# Indices 1 2 3 4 5 6 
#
# 1 98.8742 33.4993 33.6431 11.3863 -4.3574 7.3480
# 2 33.4993 94.8697 38.1063 21.3613 -6.9917 8.6026
# 3 33.6431 38.1063 119.5068 23.4776 -3.6179 12.4274
# 4 11.3863 21.3613 23.4776 36.0392 -1.6822 2.6504
# 5 -4.3574 -6.9917 -3.6179 -1.6822 23.2525 0.6718
# 6 7.3480 8.6026 12.4274 2.6504 0.6718 41.5490
#
#
#
# Elastic Compliance Matrix: (Units=1/GPa)
#
#
# Indices 1 2 3 4 5 6 
#
# 1 0.012079 -0.003142 -0.002203 -0.000414 0.000970 -0.000816
# 2 -0.003142 0.014194 -0.002291 -0.005689 0.002951 -0.001383
# 3 -0.002203 -0.002291 0.010904 -0.004882 0.000302 -0.002091
# 4 -0.000414 -0.005689 -0.004882 0.034389 -0.000075 0.000519
# 5 0.000970 0.002951 0.000302 -0.000075 0.044163 -0.001582
# 6 -0.000816 -0.001383 -0.002091 0.000519 -0.001582 0.025117
#
#
# Mechanical properties :
#
#
# Convention : Reuss Voigt Hill
#
# Bulk Modulus (GPa) = 45.65015 58.19422 51.92219
# Shear Modulus (GPa) = 30.59641 34.03494 32.31567
#
# Velocity S-wave (km/s) = 3.78902 3.99627 3.89402
# Velocity P-wave (km/s) = 6.36888 6.97136 6.67692
#
# Compressibility (1/GPa) = 0.02190573
#
# Stress axis : x y z
#
# Youngs Moduli (GPa) = 82.78870 70.45194 91.70941
#
# Poissons Ratio (x) = 0.22133 0.20205
# Poissons Ratio (y) = 0.26009 0.21009
# Poissons Ratio (z) = 0.18240 0.16139
#
# Static dielectric constant tensor:
#      x y z
#    x 3.740060 -0.093830 0.032030 
#    y -0.093830 4.124740 0.106830 
#    z 0.032030 0.106830 3.699440 
# 
# 
# High freq. dielectric constant tensor:
#      x y z
#    x 1.836100 -0.003340 0.002300 
#    y -0.003340 1.854670 0.009020 
#    z 0.002300 0.009020 1.831560 
# 
# From -- ./inp_files/69179.got.cif
#   From: 2010.06.25/outbox.cif.g09.slc.cpg/sg2_35_cif.got.tgz:69179.got - 2010.06.27 13:26:56.
