data_PCOD8017573
_publ_section_title
;
Structure prediction by ZEFSAII (Michael W. Deem and Ramdas Pophale) SiO2 
 PCOD8017573
Probable space group: P -1
;
_chemical_formula_sum "Si O2"
_cell_formula_units_Z 14
_cell_length_a 18.121496
_cell_length_b 5.451366
_cell_length_c 10.104506
_cell_angle_alpha 58.174232
_cell_angle_beta 136.261966
_cell_angle_gamma 119.794274
_cell_volume 574.835648
_symmetry_space_group_name_H-M "P -1"
_symmetry_group_IT_number 2
_symmetry_cell_setting 'triclinic'
loop_
_space_group_symop_operation_xyz
x,y,z
-x,-y,-z
loop_
_atom_site_type_symbol
_atom_site_label
_atom_site_fract_x
_atom_site_fract_y
_atom_site_fract_z
Si Si1 0.417403 0.478472 0.280048
Si Si2 0.443461 0.056193 0.042733
Si Si3 0.815902 0.828008 0.881190
Si Si4 0.590961 0.435499 0.302205
Si Si5 0.121381 0.127370 0.573322
Si Si6 0.819340 0.494816 0.705913
Si Si7 0.122347 0.504401 0.700414
O O1 0.500000 0.500000 0.500000
O O2 0.313418 0.222750 0.242903
O O3 0.482113 0.441128 0.242155
O O4 0.370350 0.777589 0.103414
O O5 0.550947 0.141885 0.250956
O O6 0.376392 0.307243 0.842054
O O7 0.500000 0.000000 0.000000
O O8 0.840685 0.676914 0.818332
O O9 0.859361 0.182000 0.844047
O O10 0.879007 0.683993 0.115114
O O11 0.690710 0.427482 0.529387
O O12 0.115253 0.304873 0.379871
O O13 0.180748 0.352207 0.700930
O O14 0.180750 0.848334 0.702839
O O15 0.000000 0.000000 0.500000
O O16 0.000000 0.500000 0.500000
#
# Coordination Sequence:
#
# PCOD8017573 Si02
#       7
#     2   2   2   2   2   2   2
#     4  11  22  39  62  93 144 180 233 275 343 399
#     4   9  21  37  57  91 125 186 234 279 323 395
#     4  12  27  43  70 109 141 186 230 289 356 411
#     4  10  22  39  62  92 137 189 232 281 334 394
#     4  10  23  47  75 101 133 182 226 293 354 417
#     4  12  26  44  69 105 145 179 236 288 348 424
#     4  10  23  48  74 103 135 178 235 286 355 422
#
# _framework density 24.354787999999999
#
# number of rings (size 3 to 8) (size 9 to 14) (size 15 to 20)
#    0.000    1.429    1.429    2.571    6.000    4.571 
#    0.000   17.143    0.000    0.000    0.000    0.000 
#    0.000    0.000    0.000    0.000    0.000    0.000 
#
# Total GULP energy -173435.830470 kJ/mol
# GULP energy per Si atom -12388.273605 kJ/mol
# Density = 2.429935 g / cm^3
# Si number density = 24.354788 Si / 1000 Ang^3
#
#
#
# Elastic Constant Matrix: (Units=GPa)
#
#
# Indices 1 2 3 4 5 6 
#
# 1 92.2613 62.2431 45.1464 -1.4078 -35.2068 -9.6721
# 2 62.2431 162.2361 47.2889 -34.8303 -29.9098 -37.6864
# 3 45.1464 47.2889 152.4329 -16.9163 -27.7123 -17.3661
# 4 -1.4078 -34.8303 -16.9163 44.3973 1.7846 -12.4765
# 5 -35.2068 -29.9098 -27.7123 1.7846 41.3313 3.6233
# 6 -9.6721 -37.6864 -17.3661 -12.4765 3.6233 48.1664
#
#
#
# Elastic Compliance Matrix: (Units=1/GPa)
#
#
# Indices 1 2 3 4 5 6 
#
# 1 0.022348 -0.009858 -0.003840 -0.011249 0.010543 -0.008317
# 2 -0.009858 0.018623 0.002200 0.020110 0.004083 0.018286
# 3 -0.003840 0.002200 0.009028 0.006476 0.003603 0.005611
# 4 -0.011249 0.020110 0.006476 0.048059 0.004792 0.027899
# 5 0.010543 0.004083 0.003603 0.004792 0.037900 0.005000
# 6 -0.008317 0.018286 0.005611 0.027899 0.005000 0.042272
#
#
# Mechanical properties :
#
#
# Convention : Reuss Voigt Hill
#
# Bulk Modulus (GPa) = 37.03434 79.58747 58.31090
# Shear Modulus (GPa) = 23.78381 43.59579 33.68980
#
# Velocity S-wave (km/s) = 3.12838 4.23546 3.72330
# Velocity P-wave (km/s) = 5.31867 7.52783 6.51753
#
# Compressibility (1/GPa) = 0.02700197
#
# Stress axis : x y z
#
# Youngs Moduli (GPa) = 44.74671 53.69793 110.76614
#
# Poissons Ratio (x) = 0.52936 0.42532
# Poissons Ratio (y) = 0.44112 -0.24365
# Poissons Ratio (z) = 0.17182 -0.11812
#
# Static dielectric constant tensor:
#      x y z
#    x 5.447140 -0.938390 -0.882140 
#    y -0.938390 6.316730 -0.641920 
#    z -0.882140 -0.641920 5.433140 
# 
# 
# High freq. dielectric constant tensor:
#      x y z
#    x 1.953670 -0.010960 -0.021550 
#    y -0.010960 1.985300 -0.006450 
#    z -0.021550 -0.006450 1.975990 
# 
# From -- ./inp_files/323390.got.cif
#   From: 2010.06.25/outbox.cif.g09.slc.cpg/sg2_162_cif.got.tgz:323390.got - 2010.06.27 13:26:56.
