data_PCOD8017007
_publ_section_title
;
Structure prediction by ZEFSAII (Michael W. Deem and Ramdas Pophale) SiO2 
 PCOD8017007
Probable space group: P -1
;
_chemical_formula_sum "Si O2"
_cell_formula_units_Z 14
_cell_length_a 16.227600
_cell_length_b 5.482472
_cell_length_c 11.756242
_cell_angle_alpha 51.164857
_cell_angle_beta 56.442807
_cell_angle_gamma 48.475932
_cell_volume 592.882211
_symmetry_space_group_name_H-M "P -1"
_symmetry_group_IT_number 2
_symmetry_cell_setting 'triclinic'
loop_
_space_group_symop_operation_xyz
x,y,z
-x,-y,-z
loop_
_atom_site_type_symbol
_atom_site_label
_atom_site_fract_x
_atom_site_fract_y
_atom_site_fract_z
Si Si1 0.277732 0.656587 0.777714
Si Si2 0.881945 0.231755 0.463032
Si Si3 0.344365 0.532014 0.185401
Si Si4 0.543856 0.583400 0.099970
Si Si5 0.835837 0.764907 0.952262
Si Si6 0.753207 0.907304 0.531032
Si Si7 0.076076 0.289189 0.860333
O O1 0.379743 0.612797 0.792125
O O2 0.307283 0.733512 0.605819
O O3 0.151457 0.970850 0.810974
O O4 0.265237 0.304353 0.905561
O O5 0.808511 0.558579 0.508918
O O6 0.899798 0.383473 0.284674
O O7 0.829999 0.971508 0.545913
O O8 0.000000 0.000000 0.500000
O O9 0.437539 0.510119 0.210351
O O10 0.336199 0.166161 0.307843
O O11 0.221085 0.891517 0.189876
O O12 0.379095 0.595505 0.015728
O O13 0.500000 0.000000 0.000000
O O14 0.940763 0.431313 0.903631
O O15 0.890938 0.846122 0.996150
#
# Coordination Sequence:
#
# PCOD8017007 Si02
#       7
#     2   2   2   2   2   2   2
#     4  11  22  43  67  97 138 179 225 285 342 405
#     4  11  23  43  65 100 142 187 222 279 341 414
#     4  11  25  43  68 102 129 181 234 284 346 405
#     4  11  24  43  70  94 133 177 233 290 340 407
#     4  11  20  39  65  94 133 174 225 277 329 414
#     4  11  26  43  70  98 143 176 230 284 349 407
#     4  10  22  37  63  98 131 177 226 267 341 402
#
# _framework density 23.613458999999999
#
# number of rings (size 3 to 8) (size 9 to 14) (size 15 to 20)
#    0.000    1.143    4.286    1.714    2.000    1.714 
#    2.571    0.714    0.000    0.000    0.000    0.000 
#    0.000    0.000    0.000    0.000    0.000    0.000 
#
# Total GULP energy -173514.083270 kJ/mol
# GULP energy per Si atom -12393.863091 kJ/mol
# Density = 2.355971 g / cm^3
# Si number density = 23.613459 Si / 1000 Ang^3
#
#
#
# Elastic Constant Matrix: (Units=GPa)
#
#
# Indices 1 2 3 4 5 6 
#
# 1 173.3183 28.4011 51.4192 -11.8993 -17.8330 0.1259
# 2 28.4011 60.4421 5.5740 -8.3293 4.0350 -2.9732
# 3 51.4192 5.5740 92.2239 -23.8599 -18.5673 -2.4909
# 4 -11.8993 -8.3293 -23.8599 25.2926 7.3789 -0.0490
# 5 -17.8330 4.0350 -18.5673 7.3789 40.6364 -4.1111
# 6 0.1259 -2.9732 -2.4909 -0.0490 -4.1111 35.3907
#
#
#
# Elastic Compliance Matrix: (Units=1/GPa)
#
#
# Indices 1 2 3 4 5 6 
#
# 1 0.007698 -0.003698 -0.004210 -0.002205 0.002183 -0.000384
# 2 -0.003698 0.019489 0.002179 0.007860 -0.003851 0.001367
# 3 -0.004210 0.002179 0.017499 0.014216 0.003539 0.001860
# 4 -0.002205 0.007860 0.014216 0.056053 -0.005317 0.001129
# 5 0.002183 -0.003851 0.003539 -0.005317 0.028861 0.003263
# 6 -0.000384 0.001367 0.001860 0.001129 0.003263 0.028884
#
#
# Mechanical properties :
#
#
# Convention : Reuss Voigt Hill
#
# Bulk Modulus (GPa) = 30.09430 55.19700 42.64565
# Shear Modulus (GPa) = 27.62161 36.30328 31.96244
#
# Velocity S-wave (km/s) = 3.42386 3.92522 3.68308
# Velocity P-wave (km/s) = 5.32941 6.63092 6.01547
#
# Compressibility (1/GPa) = 0.03322888
#
# Stress axis : x y z
#
# Youngs Moduli (GPa) = 129.90140 51.31157 57.14498
#
# Poissons Ratio (x) = 0.18973 0.24057
# Poissons Ratio (y) = 0.48032 -0.12450
# Poissons Ratio (z) = 0.54687 -0.11179
#
# Static dielectric constant tensor:
#      x y z
#    x 4.208550 -0.109510 -0.213890 
#    y -0.109510 4.196320 -0.015610 
#    z -0.213890 -0.015610 4.748710 
# 
# 
# High freq. dielectric constant tensor:
#      x y z
#    x 1.933140 -0.004730 -0.003400 
#    y -0.004730 1.922100 -0.010980 
#    z -0.003400 -0.010980 1.939710 
# 
# From -- ./inp_files/28462.got.cif
#   From: 2010.06.25/outbox.cif.g09.slc.cpg/sg2_15_cif.got.tgz:28462.got - 2010.06.27 13:26:56.
