data_PCOD8017612
_publ_section_title
;
Structure prediction by ZEFSAII (Michael W. Deem and Ramdas Pophale) SiO2 
 PCOD8017612
Probable space group: P -1
;
_chemical_formula_sum "Si O2"
_cell_formula_units_Z 14
_cell_length_a 15.014769
_cell_length_b 9.060780
_cell_length_c 15.956236
_cell_angle_alpha 59.936802
_cell_angle_beta 28.734111
_cell_angle_gamma 78.690796
_cell_volume 732.898426
_symmetry_space_group_name_H-M "P -1"
_symmetry_group_IT_number 2
_symmetry_cell_setting 'triclinic'
loop_
_space_group_symop_operation_xyz
x,y,z
-x,-y,-z
loop_
_atom_site_type_symbol
_atom_site_label
_atom_site_fract_x
_atom_site_fract_y
_atom_site_fract_z
Si Si1 0.776551 0.335022 0.282995
Si Si2 0.101289 0.065975 0.141282
Si Si3 0.561724 0.469913 0.311662
Si Si4 0.225912 0.792731 0.044491
Si Si5 0.393176 0.105455 0.426778
Si Si6 0.427040 0.021527 0.963718
Si Si7 0.778296 0.408168 0.451448
O O1 0.587641 0.377452 0.403123
O O2 0.822909 0.352988 0.339082
O O3 0.688682 0.101475 0.392150
O O4 0.000000 0.500000 0.000000
O O5 0.154747 0.956300 0.053810
O O6 0.201135 0.302817 0.965296
O O7 0.236505 0.071391 0.111827
O O8 0.831826 0.930837 0.419441
O O9 0.526484 0.315197 0.311010
O O10 0.347213 0.479412 0.490224
O O11 0.017470 0.561060 0.257610
O O12 0.439601 0.876985 0.785636
O O13 0.312149 0.804344 0.066421
O O14 0.640581 0.205777 0.681614
O O15 0.500000 0.000000 0.000000
#
# Coordination Sequence:
#
# PCOD8017612 Si02
#       7
#     2   2   2   2   2   2   2
#     4  12  23  37  58  90 124 164 207 247 291 355
#     4   9  21  40  59  89 119 159 202 246 302 359
#     4  11  21  38  60  85 123 166 202 249 293 352
#     4  10  22  39  63  90 120 163 194 251 309 354
#     4  12  21  40  61  88 127 162 203 245 300 358
#     4   9  20  42  67  88 118 156 201 253 307 361
#     4  11  22  41  61  90 124 161 204 247 302 363
#
# _framework density 19.102236999999999
#
# number of rings (size 3 to 8) (size 9 to 14) (size 15 to 20)
#    0.857    0.571    4.286    1.714    0.000    0.571 
#    0.000    2.857    0.000    4.286    0.000    0.000 
#    0.000    0.000    0.000    0.000    0.000    0.000 
#
# Total GULP energy -173455.254105 kJ/mol
# GULP energy per Si atom -12389.661007 kJ/mol
# Density = 1.905876 g / cm^3
# Si number density = 19.102237 Si / 1000 Ang^3
#
#
#
# Elastic Constant Matrix: (Units=GPa)
#
#
# Indices 1 2 3 4 5 6 
#
# 1 129.3506 29.2273 56.4447 -9.9268 0.6885 7.6955
# 2 29.2273 86.8528 34.9705 -0.6823 -1.2680 11.1230
# 3 56.4447 34.9705 108.0430 7.5367 -14.2743 5.9074
# 4 -9.9268 -0.6823 7.5367 29.2690 1.5387 -9.6143
# 5 0.6885 -1.2680 -14.2743 1.5387 31.2967 -2.9190
# 6 7.6955 11.1230 5.9074 -9.6143 -2.9190 27.8055
#
#
#
# Elastic Compliance Matrix: (Units=1/GPa)
#
#
# Indices 1 2 3 4 5 6 
#
# 1 0.011208 -0.001283 -0.006309 0.005694 -0.003422 0.000361
# 2 -0.001283 0.014059 -0.003774 -0.000649 -0.001544 -0.004854
# 3 -0.006309 -0.003774 0.015307 -0.007105 0.007158 -0.001702
# 4 0.005694 -0.000649 -0.007105 0.042925 -0.004141 0.014600
# 5 -0.003422 -0.001544 0.007158 -0.004141 0.035653 0.002355
# 6 0.000361 -0.004854 -0.001702 0.014600 0.002355 0.043463
#
#
# Mechanical properties :
#
#
# Convention : Reuss Voigt Hill
#
# Bulk Modulus (GPa) = 56.04524 62.83685 59.44104
# Shear Modulus (GPa) = 26.13786 31.24781 28.69284
#
# Velocity S-wave (km/s) = 3.70309 4.04891 3.87986
# Velocity P-wave (km/s) = 6.90559 7.40437 7.15932
#
# Compressibility (1/GPa) = 0.01784273
#
# Stress axis : x y z
#
# Youngs Moduli (GPa) = 89.22510 71.12998 65.32784
#
# Poissons Ratio (x) = 0.09124 0.41216
# Poissons Ratio (y) = 0.11445 0.24653
# Poissons Ratio (z) = 0.56293 0.26842
#
# Static dielectric constant tensor:
#      x y z
#    x 3.454420 0.034580 -0.328050 
#    y 0.034580 3.582530 -0.072730 
#    z -0.328050 -0.072730 3.372860 
# 
# 
# High freq. dielectric constant tensor:
#      x y z
#    x 1.723200 0.006180 -0.032590 
#    y 0.006180 1.748010 -0.002550 
#    z -0.032590 -0.002550 1.739310 
# 
# From -- ./inp_files/312912.got.cif
#   From: 2010.06.25/outbox.cif.g09.slc.cpg/sg2_157_cif.got.tgz:312912.got - 2010.06.27 13:26:56.
