data_PCOD8017904
_publ_section_title
;
Structure prediction by ZEFSAII (Michael W. Deem and Ramdas Pophale) SiO2 
 PCOD8017904
Probable space group: P -1
;
_chemical_formula_sum "Si O2"
_cell_formula_units_Z 16
_cell_length_a 9.574995
_cell_length_b 19.868555
_cell_length_c 6.616330
_cell_angle_alpha 69.904065
_cell_angle_beta 128.748115
_cell_angle_gamma 132.749797
_cell_volume 713.567651
_symmetry_space_group_name_H-M "P -1"
_symmetry_group_IT_number 2
_symmetry_cell_setting 'triclinic'
loop_
_space_group_symop_operation_xyz
x,y,z
-x,-y,-z
loop_
_atom_site_type_symbol
_atom_site_label
_atom_site_fract_x
_atom_site_fract_y
_atom_site_fract_z
Si Si1 0.168536 0.312159 0.183425
Si Si2 0.253601 0.445595 0.475412
Si Si3 0.037293 0.624713 0.335603
Si Si4 0.553861 0.969916 0.380425
Si Si5 0.529383 0.701624 0.807322
Si Si6 0.164945 0.088990 0.198538
Si Si7 0.874672 0.106412 0.205628
Si Si8 0.343201 0.543553 0.083633
O O1 0.237059 0.379949 0.358738
O O2 0.386743 0.339870 0.223292
O O3 0.048386 0.215103 0.283039
O O4 0.997656 0.308291 0.875215
O O5 0.276486 0.525639 0.282529
O O6 0.483110 0.480907 0.773560
O O7 0.032918 0.391593 0.474596
O O8 0.307686 0.677665 0.518555
O O9 0.883915 0.524555 0.190867
O O10 0.613963 0.902400 0.547705
O O11 0.500000 0.000000 0.500000
O O12 0.780292 0.060658 0.385940
O O13 0.332686 0.917441 0.094301
O O14 0.726945 0.812129 0.911051
O O15 0.462840 0.648698 0.018064
O O16 0.007723 0.072752 0.262098
O O17 0.000000 0.000000 0.000000
#
# Coordination Sequence:
#
# PCOD8017904 Si02
#       8
#     2   2   2   2   2   2   2   2
#     4  10  23  42  61  94 131 166 211 261 319 377
#     4  10  22  39  68  91 130 173 213 255 321 378
#     4  11  22  43  66  92 134 168 211 268 310 380
#     4  11  22  41  69  92 122 167 217 266 331 381
#     4  11  24  41  65  93 130 169 214 264 321 379
#     4  11  23  43  66  95 130 171 213 267 328 382
#     4  10  23  41  65  94 127 167 214 270 319 387
#     4  10  22  41  63  95 129 172 211 263 318 375
#
# _framework density 22.422542
#
# number of rings (size 3 to 8) (size 9 to 14) (size 15 to 20)
#    0.000    1.500    2.500    1.875    3.500    3.500 
#    4.500    0.000    0.000    0.000    0.000    0.000 
#    0.000    0.000    0.000    0.000    0.000    0.000 
#
# Total GULP energy -198347.347328 kJ/mol
# GULP energy per Si atom -12396.709208 kJ/mol
# Density = 2.237151 g / cm^3
# Si number density = 22.422542 Si / 1000 Ang^3
#
#
#
# Elastic Constant Matrix: (Units=GPa)
#
#
# Indices 1 2 3 4 5 6 
#
# 1 113.8052 32.9270 39.2974 -6.6979 7.1588 -1.4481
# 2 32.9270 102.5856 32.9343 -10.5854 -12.9854 3.1222
# 3 39.2974 32.9343 88.3950 -6.0388 3.2011 -3.7569
# 4 -6.6979 -10.5854 -6.0388 32.8960 6.7253 5.1220
# 5 7.1588 -12.9854 3.2011 6.7253 41.1765 -0.6819
# 6 -1.4481 3.1222 -3.7569 5.1220 -0.6819 21.6504
#
#
#
# Elastic Compliance Matrix: (Units=1/GPa)
#
#
# Indices 1 2 3 4 5 6 
#
# 1 0.011073 -0.002542 -0.003790 0.001270 -0.002638 0.000066
# 2 -0.002542 0.012639 -0.003695 0.002481 0.004259 -0.003087
# 3 -0.003790 -0.003695 0.014592 0.000662 -0.001706 0.002601
# 4 0.001270 0.002481 0.000662 0.033934 -0.005170 -0.008349
# 5 -0.002638 0.004259 -0.001706 -0.005170 0.027081 0.000990
# 6 0.000066 -0.003087 0.002601 -0.008349 0.000990 0.049096
#
#
# Mechanical properties :
#
#
# Convention : Reuss Voigt Hill
#
# Bulk Modulus (GPa) = 54.79652 57.23370 56.01511
# Shear Modulus (GPa) = 28.64460 32.45303 30.54881
#
# Velocity S-wave (km/s) = 3.57808 3.80852 3.69510
# Velocity P-wave (km/s) = 6.44681 6.70226 6.57577
#
# Compressibility (1/GPa) = 0.01824934
#
# Stress axis : x y z
#
# Youngs Moduli (GPa) = 90.31119 79.11919 68.53033
#
# Poissons Ratio (x) = 0.20113 0.25975
# Poissons Ratio (y) = 0.22958 0.25321
# Poissons Ratio (z) = 0.34231 0.29234
#
# Static dielectric constant tensor:
#      x y z
#    x 3.987440 0.203140 -0.057790 
#    y 0.203140 4.101420 -0.285120 
#    z -0.057790 -0.285120 3.813100 
# 
# 
# High freq. dielectric constant tensor:
#      x y z
#    x 1.884710 0.012640 0.011120 
#    y 0.012640 1.884310 -0.013060 
#    z 0.011120 -0.013060 1.885040 
# 
# From -- ./inp_files/52806.got.cif
#   From: 2010.06.25/outbox.cif.g09.slc.cpg/sg2_27_cif.got.tgz:52806.got - 2010.06.27 13:26:56.
