data_PCOD8017503
_publ_section_title
;
Structure prediction by ZEFSAII (Michael W. Deem and Ramdas Pophale) SiO2 
 PCOD8017503
Probable space group: P -1
;
_chemical_formula_sum "Si O2"
_cell_formula_units_Z 14
_cell_length_a 13.850825
_cell_length_b 13.730093
_cell_length_c 14.015666
_cell_angle_alpha 150.029566
_cell_angle_beta 153.749280
_cell_angle_gamma 42.965915
_cell_volume 576.482476
_symmetry_space_group_name_H-M "P -1"
_symmetry_group_IT_number 2
_symmetry_cell_setting 'triclinic'
loop_
_space_group_symop_operation_xyz
x,y,z
-x,-y,-z
loop_
_atom_site_type_symbol
_atom_site_label
_atom_site_fract_x
_atom_site_fract_y
_atom_site_fract_z
Si Si1 0.254563 0.650609 0.920180
Si Si2 0.179263 0.551813 0.121967
Si Si3 0.559054 0.868357 0.799931
Si Si4 0.797296 0.165108 0.779017
Si Si5 0.228532 0.229811 0.482983
Si Si6 0.283515 0.038922 0.178676
Si Si7 0.242201 0.133612 0.819469
O O1 0.140751 0.431237 0.596186
O O2 0.182287 0.670476 0.981200
O O3 0.521478 0.716555 0.208119
O O4 0.160620 0.812941 0.908527
O O5 0.410432 0.656227 0.462162
O O6 0.089673 0.702936 0.097867
O O7 0.222551 0.347729 0.938805
O O8 0.000000 0.500000 0.000000
O O9 0.747703 0.921185 0.928188
O O10 0.406338 0.036508 0.815931
O O11 0.671971 0.838837 0.973698
O O12 0.548495 0.061121 0.443888
O O13 0.904022 0.976693 0.753462
O O14 0.218398 0.195279 0.330039
O O15 0.000000 0.000000 0.500000
#
# Coordination Sequence:
#
# PCOD8017503 Si02
#       7
#     2   2   2   2   2   2   2
#     4   8  13  24  43  73 111 144 183 233 286 345
#     4  11  21  37  58  85 123 161 202 246 292 349
#     4  10  22  39  61  88 120 158 197 246 299 352
#     4   8  16  26  43  75 113 150 188 235 283 339
#     4   8  13  24  43  72 112 143 184 236 283 345
#     4   8  15  27  46  77 112 142 186 236 284 349
#     4  11  23  41  61  85 120 157 201 249 299 354
#
# _framework density 24.285214
#
# number of rings (size 3 to 8) (size 9 to 14) (size 15 to 20)
#    0.000    2.857    1.429    2.143    0.000    6.857 
#    0.000    0.000    0.000    0.000    0.000    8.000 
#   17.143    0.000    0.000    0.286    0.000    0.429 
#
# Total GULP energy -173504.651679 kJ/mol
# GULP energy per Si atom -12393.189406 kJ/mol
# Density = 2.422994 g / cm^3
# Si number density = 24.285214 Si / 1000 Ang^3
#
#
#
# Elastic Constant Matrix: (Units=GPa)
#
#
# Indices 1 2 3 4 5 6 
#
# 1 141.1755 42.6881 55.6777 26.4735 2.6108 31.6634
# 2 42.6881 149.2510 44.4731 28.7725 -7.1969 12.5563
# 3 55.6777 44.4731 120.6398 41.7164 -5.1585 4.4365
# 4 26.4735 28.7725 41.7164 42.0910 -6.7970 -0.2261
# 5 2.6108 -7.1969 -5.1585 -6.7970 36.9714 6.6556
# 6 31.6634 12.5563 4.4365 -0.2261 6.6556 30.2890
#
#
#
# Elastic Compliance Matrix: (Units=1/GPa)
#
#
# Indices 1 2 3 4 5 6 
#
# 1 0.012038 -0.000680 -0.003639 -0.003567 -0.000023 -0.011791
# 2 -0.000680 0.008310 -0.001277 -0.003791 0.001306 -0.002862
# 3 -0.003639 -0.001277 0.014094 -0.010864 -0.000434 0.002284
# 4 -0.003567 -0.003791 -0.010864 0.040079 0.004240 0.006259
# 5 -0.000023 0.001306 -0.000434 0.004240 0.029256 -0.006850
# 6 -0.011791 -0.002862 0.002284 0.006259 -0.006850 0.047745
#
#
# Mechanical properties :
#
#
# Convention : Reuss Voigt Hill
#
# Bulk Modulus (GPa) = 43.01416 77.41602 60.21509
# Shear Modulus (GPa) = 29.33178 39.75212 34.54195
#
# Velocity S-wave (km/s) = 3.47912 4.05023 3.77549
# Velocity P-wave (km/s) = 5.82147 7.33618 6.62228
#
# Compressibility (1/GPa) = 0.02324816
#
# Stress axis : x y z
#
# Youngs Moduli (GPa) = 83.07016 120.33856 70.95354
#
# Poissons Ratio (x) = 0.08187 0.25820
# Poissons Ratio (y) = 0.05651 0.09064
# Poissons Ratio (z) = 0.30229 0.15372
#
# Static dielectric constant tensor:
#      x y z
#    x 4.507210 0.117450 0.091900 
#    y 0.117450 5.194410 0.143950 
#    z 0.091900 0.143950 4.653910 
# 
# 
# High freq. dielectric constant tensor:
#      x y z
#    x 1.953980 -0.007270 0.005210 
#    y -0.007270 1.985090 -0.014590 
#    z 0.005210 -0.014590 1.994020 
# 
# From -- ./inp_files/534653.got.cif
#   From: 2010.06.25/outbox.cif.g09.slc.cpg/sg2_268_cif.got.tgz:534653.got - 2010.06.27 13:26:56.
