data_PCOD8017557
_publ_section_title
;
Structure prediction by ZEFSAII (Michael W. Deem and Ramdas Pophale) SiO2 
 PCOD8017557
Probable space group: P -1
;
_chemical_formula_sum "Si O2"
_cell_formula_units_Z 16
_cell_length_a 16.142852
_cell_length_b 14.717521
_cell_length_c 9.653716
_cell_angle_alpha 80.146313
_cell_angle_beta 119.039842
_cell_angle_gamma 152.188266
_cell_volume 724.265417
_symmetry_space_group_name_H-M "P -1"
_symmetry_group_IT_number 2
_symmetry_cell_setting 'triclinic'
loop_
_space_group_symop_operation_xyz
x,y,z
-x,-y,-z
loop_
_atom_site_type_symbol
_atom_site_label
_atom_site_fract_x
_atom_site_fract_y
_atom_site_fract_z
Si Si1 0.239644 0.321790 0.347643
Si Si2 0.825470 0.670081 0.422769
Si Si3 0.304468 0.616067 0.753059
Si Si4 0.807519 0.531960 0.849502
Si Si5 0.628616 0.867043 0.191979
Si Si6 0.740130 0.773785 0.188706
Si Si7 0.869806 0.261913 0.711100
Si Si8 0.297757 0.691553 0.423958
O O1 0.500000 0.500000 0.500000
O O2 0.305537 0.441115 0.505995
O O3 0.194302 0.358036 0.184254
O O4 0.972000 0.020089 0.211951
O O5 0.656812 0.457846 0.234551
O O6 0.885399 0.828916 0.385171
O O7 0.086275 0.845655 0.606893
O O8 0.314669 0.683732 0.603511
O O9 0.040841 0.392511 0.681902
O O10 0.545601 0.850762 0.991842
O O11 0.552632 0.269606 0.792651
O O12 0.819722 0.496560 0.716369
O O13 0.049105 0.719041 0.089368
O O14 0.625644 0.754128 0.189692
O O15 0.500000 0.500000 0.000000
O O16 0.887003 0.387057 0.720338
O O17 0.578371 0.968610 0.517817
#
# Coordination Sequence:
#
# PCOD8017557 Si02
#       8
#     2   2   2   2   2   2   2   2
#     4  11  23  40  63  94 131 172 217 269 321 388
#     4  11  21  39  63  87 129 175 215 261 323 384
#     4  11  22  40  66  92 126 167 219 260 330 388
#     4  11  22  42  65  93 129 168 216 268 325 387
#     4  10  22  39  62  90 126 173 214 264 318 387
#     4  11  22  39  63  91 131 176 219 267 325 386
#     4  10  25  41  65  97 128 166 211 280 323 398
#     4  11  23  43  66  94 130 165 217 267 339 383
#
# _framework density 22.091349999999998
#
# number of rings (size 3 to 8) (size 9 to 14) (size 15 to 20)
#    0.000    1.250    2.500    4.500    3.500    0.000 
#    0.000    1.250    0.000    8.250    0.000    0.000 
#    0.000    0.000    0.000    0.000    0.000    0.000 
#
# Total GULP energy -198258.846068 kJ/mol
# GULP energy per Si atom -12391.177879 kJ/mol
# Density = 2.204107 g / cm^3
# Si number density = 22.091350 Si / 1000 Ang^3
#
#
#
# Elastic Constant Matrix: (Units=GPa)
#
#
# Indices 1 2 3 4 5 6 
#
# 1 88.9260 23.3529 31.2651 -6.0413 13.7732 -2.8188
# 2 23.3529 71.2497 31.7896 -12.4808 4.2062 2.0659
# 3 31.2651 31.7896 90.0451 -19.3871 12.5820 6.4740
# 4 -6.0413 -12.4808 -19.3871 38.7854 -8.2326 6.1448
# 5 13.7732 4.2062 12.5820 -8.2326 35.2724 -6.6942
# 6 -2.8188 2.0659 6.4740 6.1448 -6.6942 36.1317
#
#
#
# Elastic Compliance Matrix: (Units=1/GPa)
#
#
# Indices 1 2 3 4 5 6 
#
# 1 0.013860 -0.003014 -0.003685 -0.001707 -0.003854 0.001490
# 2 -0.003014 0.017590 -0.004589 0.003299 0.001348 -0.000730
# 3 -0.003685 -0.004589 0.016074 0.006021 -0.003201 -0.004522
# 4 -0.001707 0.003299 0.006021 0.031451 0.004338 -0.005946
# 5 -0.003854 0.001348 -0.003201 0.004338 0.032903 0.005554
# 6 0.001490 -0.000730 -0.004522 -0.005946 0.005554 0.030685
#
#
# Mechanical properties :
#
#
# Convention : Reuss Voigt Hill
#
# Bulk Modulus (GPa) = 40.08159 47.00400 43.54280
# Shear Modulus (GPa) = 28.82604 32.95878 30.89241
#
# Velocity S-wave (km/s) = 3.61620 3.86674 3.74357
# Velocity P-wave (km/s) = 5.96815 6.42331 6.19991
#
# Compressibility (1/GPa) = 0.02494911
#
# Stress axis : x y z
#
# Youngs Moduli (GPa) = 72.14793 56.85096 62.21308
#
# Poissons Ratio (x) = 0.17132 0.22924
# Poissons Ratio (y) = 0.21742 0.28551
# Poissons Ratio (z) = 0.26585 0.26090
#
# Static dielectric constant tensor:
#      x y z
#    x 4.056820 -0.005810 0.213860 
#    y -0.005810 3.799710 -0.123160 
#    z 0.213860 -0.123160 4.075210 
# 
# 
# High freq. dielectric constant tensor:
#      x y z
#    x 1.872760 0.004560 0.014100 
#    y 0.004560 1.860520 -0.008440 
#    z 0.014100 -0.008440 1.878230 
# 
# From -- ./inp_files/315322.got.cif
#   From: 2010.06.25/outbox.cif.g09.slc.cpg/sg2_158_cif.got.tgz:315322.got - 2010.06.27 13:26:56.
