data_PCOD8017458
_publ_section_title
;
Structure prediction by ZEFSAII (Michael W. Deem and Ramdas Pophale) SiO2 
 PCOD8017458
Probable space group: P -1
;
_chemical_formula_sum "Si O2"
_cell_formula_units_Z 10
_cell_length_a 15.294180
_cell_length_b 5.256049
_cell_length_c 15.962569
_cell_angle_alpha 91.600603
_cell_angle_beta 160.559473
_cell_angle_gamma 91.285292
_cell_volume 422.300854
_symmetry_space_group_name_H-M "P -1"
_symmetry_group_IT_number 2
_symmetry_cell_setting 'triclinic'
loop_
_space_group_symop_operation_xyz
x,y,z
-x,-y,-z
loop_
_atom_site_type_symbol
_atom_site_label
_atom_site_fract_x
_atom_site_fract_y
_atom_site_fract_z
Si Si1 0.565253 0.257623 0.006535
Si Si2 0.076509 0.086908 0.476350
Si Si3 0.886264 0.277424 0.055628
Si Si4 0.582379 0.887815 0.487062
Si Si5 0.987917 0.188807 0.747898
O O1 0.500000 0.500000 0.000000
O O2 0.879042 0.285426 0.268322
O O3 0.500000 0.000000 0.000000
O O4 0.381175 0.231218 0.755898
O O5 0.052904 0.845284 0.389415
O O6 0.823302 0.017864 0.052161
O O7 0.000000 0.000000 0.500000
O O8 0.675699 0.275513 0.790297
O O9 0.870781 0.525395 0.101943
O O10 0.187697 0.292370 0.290824
O O11 0.703640 0.123037 0.537600
O O12 0.500000 0.000000 0.500000
#
# Coordination Sequence:
#
# PCOD8017458 Si02
#       5
#     2   2   2   2   2
#     4  10  22  39  60  88 118 161 213 259 307 369
#     4  10  23  42  64  93 127 172 215 262 317 376
#     4  10  25  41  67  98 133 169 216 266 326 384
#     4  10  24  45  69  98 131 171 215 266 326 394
#     4  10  26  42  67  96 137 168 219 269 322 382
#
# _framework density 23.679798000000002
#
# number of rings (size 3 to 8) (size 9 to 14) (size 15 to 20)
#    1.200    0.800    0.000    1.200    5.600    8.000 
#    0.000    0.000    0.000    0.000    0.000    0.000 
#    0.000    0.000    0.000    0.000    0.000    0.000 
#
# Total GULP energy -123882.692711 kJ/mol
# GULP energy per Si atom -12388.269271 kJ/mol
# Density = 2.362590 g / cm^3
# Si number density = 23.679798 Si / 1000 Ang^3
#
#
#
# Elastic Constant Matrix: (Units=GPa)
#
#
# Indices 1 2 3 4 5 6 
#
# 1 103.6549 40.1840 25.5203 13.1741 -11.3970 -32.5458
# 2 40.1840 178.1502 51.2133 18.6321 -24.1062 -14.8590
# 3 25.5203 51.2133 206.6656 1.5204 -46.4888 -10.4469
# 4 13.1741 18.6321 1.5204 31.5971 -12.0562 -14.3750
# 5 -11.3970 -24.1062 -46.4888 -12.0562 28.8196 14.4843
# 6 -32.5458 -14.8590 -10.4469 -14.3750 14.4843 34.6355
#
#
#
# Elastic Compliance Matrix: (Units=1/GPa)
#
#
# Indices 1 2 3 4 5 6 
#
# 1 0.015283 -0.002487 -0.002213 -0.000653 -0.007708 0.015580
# 2 -0.002487 0.006965 -0.000652 -0.002590 0.003822 -0.002218
# 3 -0.002213 -0.000652 0.008993 0.005473 0.017797 -0.004817
# 4 -0.000653 -0.002590 0.005473 0.045650 0.020278 0.010393
# 5 -0.007708 0.003822 0.017797 0.020278 0.086003 -0.027785
# 6 0.015580 -0.002218 -0.004817 0.010393 -0.027785 0.057040
#
#
# Mechanical properties :
#
#
# Convention : Reuss Voigt Hill
#
# Bulk Modulus (GPa) = 48.69023 80.25620 64.47322
# Shear Modulus (GPa) = 21.05415 43.78068 32.41741
#
# Velocity S-wave (km/s) = 2.98504 4.30450 3.70400
# Velocity P-wave (km/s) = 5.69976 7.65969 6.75122
#
# Compressibility (1/GPa) = 0.02053800
#
# Stress axis : x y z
#
# Youngs Moduli (GPa) = 65.43094 143.58401 111.19449
#
# Poissons Ratio (x) = 0.35703 0.24604
# Poissons Ratio (y) = 0.16270 0.07253
# Poissons Ratio (z) = 0.14478 0.09365
#
# Static dielectric constant tensor:
#      x y z
#    x 3.836510 -0.223270 -0.309830 
#    y -0.223270 3.723880 -0.788450 
#    z -0.309830 -0.788450 3.889460 
# 
# 
# High freq. dielectric constant tensor:
#      x y z
#    x 1.911790 -0.023380 -0.011320 
#    y -0.023380 1.929550 -0.003200 
#    z -0.011320 -0.003200 1.954130 
# 
# From -- ./inp_files/571354.got.cif
#   From: 2010.06.25/outbox.cif.g09.slc.cpg/sg2_286_cif.got.tgz:571354.got - 2010.06.27 13:26:56.
