data_PCOD8017247
_publ_section_title
;
Structure prediction by ZEFSAII (Michael W. Deem and Ramdas Pophale) SiO2 
 PCOD8017247
Probable space group: P -1
;
_chemical_formula_sum "Si O2"
_cell_formula_units_Z 14
_cell_length_a 5.226932
_cell_length_b 25.108919
_cell_length_c 15.529695
_cell_angle_alpha 20.604980
_cell_angle_beta 122.312145
_cell_angle_gamma 120.171409
_cell_volume 606.186215
_symmetry_space_group_name_H-M "P -1"
_symmetry_group_IT_number 2
_symmetry_cell_setting 'triclinic'
loop_
_space_group_symop_operation_xyz
x,y,z
-x,-y,-z
loop_
_atom_site_type_symbol
_atom_site_label
_atom_site_fract_x
_atom_site_fract_y
_atom_site_fract_z
Si Si1 0.442344 0.393019 0.271661
Si Si2 0.737726 0.759180 0.375011
Si Si3 0.643522 0.086164 0.061745
Si Si4 0.071041 0.672051 0.830466
Si Si5 0.809063 0.100576 0.632260
Si Si6 0.804665 0.412008 0.668166
Si Si7 0.953715 0.455942 0.815240
O O1 0.490689 0.265359 0.547836
O O2 0.739887 0.489447 0.164348
O O3 0.292121 0.313135 0.280975
O O4 0.174029 0.499565 0.096276
O O5 0.068371 0.803971 0.406870
O O6 0.737146 0.603004 0.555670
O O7 0.610990 0.890406 0.092908
O O8 0.497747 0.984891 0.265065
O O9 0.746214 0.243473 0.882663
O O10 0.935850 0.016092 0.175781
O O11 0.261528 0.790910 0.626690
O O12 0.136114 0.688589 0.920680
O O13 0.500000 0.500000 0.500000
O O14 0.000000 0.500000 0.500000
O O15 0.995721 0.402117 0.806612
#
# Coordination Sequence:
#
# PCOD8017247 Si02
#       7
#     2   2   2   2   2   2   2
#     4   9  19  36  65  97 131 165 222 278 326 377
#     4  10  22  38  64 101 127 170 218 275 332 384
#     4  12  25  44  63  96 135 179 217 258 335 393
#     4   9  21  39  60  99 130 174 217 268 329 387
#     4  11  26  41  65  94 141 175 209 266 328 411
#     4  12  26  47  71  96 132 169 226 280 318 383
#     4  11  22  38  73  96 127 172 227 280 322 375
#
# _framework density 23.095215
#
# number of rings (size 3 to 8) (size 9 to 14) (size 15 to 20)
#    0.000    1.429    1.429    3.857   10.000    0.000 
#    0.000    1.429    0.000    0.000    0.000    0.000 
#    0.000    0.000    0.000    0.000    0.000    0.000 
#
# Total GULP energy -173483.227919 kJ/mol
# GULP energy per Si atom -12391.659137 kJ/mol
# Density = 2.304265 g / cm^3
# Si number density = 23.095215 Si / 1000 Ang^3
#
#
#
# Elastic Constant Matrix: (Units=GPa)
#
#
# Indices 1 2 3 4 5 6 
#
# 1 76.4407 34.8509 21.3140 7.3558 -29.6127 -6.0707
# 2 34.8509 100.8780 55.6179 3.7653 -21.4227 -28.9203
# 3 21.3140 55.6179 108.1288 13.2974 -39.4878 -11.5866
# 4 7.3558 3.7653 13.2974 42.3921 -6.5587 -10.7861
# 5 -29.6127 -21.4227 -39.4878 -6.5587 42.5088 5.8540
# 6 -6.0707 -28.9203 -11.5866 -10.7861 5.8540 28.7775
#
#
#
# Elastic Compliance Matrix: (Units=1/GPa)
#
#
# Indices 1 2 3 4 5 6 
#
# 1 0.021987 -0.009529 0.006465 -0.004259 0.016877 -0.007364
# 2 -0.009529 0.024140 -0.011785 0.007642 -0.007249 0.021844
# 3 0.006465 -0.011785 0.020337 -0.005768 0.017675 -0.008049
# 4 -0.004259 0.007642 -0.005768 0.029152 -0.002155 0.015824
# 5 0.016877 -0.007249 0.017675 -0.002155 0.048725 -0.007327
# 6 -0.007364 0.021844 -0.008049 0.015824 -0.007327 0.059329
#
#
# Mechanical properties :
#
#
# Convention : Reuss Voigt Hill
#
# Bulk Modulus (GPa) = 27.19761 56.55700 41.87731
# Shear Modulus (GPa) = 20.35649 34.31331 27.33490
#
# Velocity S-wave (km/s) = 2.97209 3.85870 3.44404
# Velocity P-wave (km/s) = 4.85588 6.66292 5.82984
#
# Compressibility (1/GPa) = 0.03676793
#
# Stress axis : x y z
#
# Youngs Moduli (GPa) = 45.48173 41.42487 49.17066
#
# Poissons Ratio (x) = 0.39473 -0.31791
# Poissons Ratio (y) = 0.43338 0.57947
# Poissons Ratio (z) = -0.29406 0.48819
#
# Static dielectric constant tensor:
#      x y z
#    x 4.031970 -0.216950 -0.040720 
#    y -0.216950 4.144640 0.206020 
#    z -0.040720 0.206020 4.382990 
# 
# 
# High freq. dielectric constant tensor:
#      x y z
#    x 1.913600 -0.016720 -0.007600 
#    y -0.016720 1.885650 0.020450 
#    z -0.007600 0.020450 1.920820 
# 
# From -- ./inp_files/64332.got.cif
#   From: 2010.06.25/outbox.cif.g09.slc.cpg/sg2_33_cif.got.tgz:64332.got - 2010.06.27 13:26:56.
