data_PCOD8017061
_publ_section_title
;
Structure prediction by ZEFSAII (Michael W. Deem and Ramdas Pophale) SiO2 
 PCOD8017061
Probable space group: P -1
;
_chemical_formula_sum "Si O2"
_cell_formula_units_Z 14
_cell_length_a 12.994397
_cell_length_b 18.931397
_cell_length_c 13.152472
_cell_angle_alpha 153.804182
_cell_angle_beta 32.374866
_cell_angle_gamma 154.586846
_cell_volume 602.932479
_symmetry_space_group_name_H-M "P -1"
_symmetry_group_IT_number 2
_symmetry_cell_setting 'triclinic'
loop_
_space_group_symop_operation_xyz
x,y,z
-x,-y,-z
loop_
_atom_site_type_symbol
_atom_site_label
_atom_site_fract_x
_atom_site_fract_y
_atom_site_fract_z
Si Si1 0.583274 0.080277 0.720048
Si Si2 0.044307 0.122663 0.353353
Si Si3 0.260254 0.223497 0.529432
Si Si4 0.061409 0.885202 0.871613
Si Si5 0.187675 0.453185 0.500581
Si Si6 0.890312 0.520403 0.958912
Si Si7 0.340421 0.933444 0.146804
O O1 0.761797 0.031687 0.470890
O O2 0.719780 0.321767 0.913564
O O3 0.495285 0.989084 0.789981
O O4 0.332175 0.960631 0.712789
O O5 0.168175 0.197058 0.456633
O O6 0.190816 0.315941 0.406445
O O7 0.050187 0.943357 0.072802
O O8 0.550122 0.328978 0.429293
O O9 0.165844 0.006275 0.379012
O O10 0.236487 0.370865 0.809099
O O11 0.869094 0.647353 0.694866
O O12 0.000000 0.000000 0.000000
O O13 0.967772 0.468701 0.723809
O O14 0.152238 0.691906 0.013473
O O15 0.500000 0.000000 0.000000
#
# Coordination Sequence:
#
# PCOD8017061 Si02
#       7
#     2   2   2   2   2   2   2
#     4  11  24  42  67  97 131 170 220 268 321 385
#     4  10  22  37  68  96 131 167 218 267 327 373
#     4  12  23  39  67  97 135 166 217 265 331 384
#     4  10  22  42  64  98 130 172 218 269 320 381
#     4  10  23  39  64  99 130 171 218 270 320 382
#     4  11  23  40  66  98 129 166 218 268 325 375
#     4  12  24  41  64  98 139 169 206 273 333 382
#
# _framework density 23.219846
#
# number of rings (size 3 to 8) (size 9 to 14) (size 15 to 20)
#    0.000    1.143    2.857    3.857    2.000    6.286 
#    0.000    0.714    0.000    1.714    0.000    0.000 
#    0.000    0.000    0.000    0.000    0.000    0.000 
#
# Total GULP energy -173441.669725 kJ/mol
# GULP energy per Si atom -12388.690695 kJ/mol
# Density = 2.316700 g / cm^3
# Si number density = 23.219846 Si / 1000 Ang^3
#
#
#
# Elastic Constant Matrix: (Units=GPa)
#
#
# Indices 1 2 3 4 5 6 
#
# 1 67.5641 29.0846 35.3192 4.6446 -3.7693 22.1679
# 2 29.0846 49.9874 20.6375 -0.3796 2.2753 15.7220
# 3 35.3192 20.6375 154.2973 1.5330 0.4412 9.0705
# 4 4.6446 -0.3796 1.5330 31.3811 6.8862 -5.3027
# 5 -3.7693 2.2753 0.4412 6.8862 29.0325 -3.3701
# 6 22.1679 15.7220 9.0705 -5.3027 -3.3701 37.0975
#
#
#
# Elastic Compliance Matrix: (Units=1/GPa)
#
#
# Indices 1 2 3 4 5 6 
#
# 1 0.025203 -0.010101 -0.003757 -0.006394 0.004434 -0.010372
# 2 -0.010101 0.028434 -0.001151 0.001924 -0.004662 -0.005881
# 3 -0.003757 -0.001151 0.007437 0.000448 -0.000509 0.000932
# 4 -0.006394 0.001924 0.000448 0.035941 -0.008672 0.007246
# 5 0.004434 -0.004662 -0.000509 -0.008672 0.037639 0.001630
# 6 -0.010372 -0.005881 0.000932 0.007246 0.001630 0.036602
#
#
# Mechanical properties :
#
#
# Convention : Reuss Voigt Hill
#
# Bulk Modulus (GPa) = 32.20048 49.10350 40.65199
# Shear Modulus (GPa) = 23.62636 31.95603 27.79120
#
# Velocity S-wave (km/s) = 3.19330 3.71379 3.46334
# Velocity P-wave (km/s) = 5.24347 6.29149 5.79123
#
# Compressibility (1/GPa) = 0.03105544
#
# Stress axis : x y z
#
# Youngs Moduli (GPa) = 39.67747 35.16904 134.45872
#
# Poissons Ratio (x) = 0.35525 0.50523
# Poissons Ratio (y) = 0.40079 0.15476
# Poissons Ratio (z) = 0.14909 0.04048
#
# Static dielectric constant tensor:
#      x y z
#    x 3.987480 0.160220 -0.112440 
#    y 0.160220 4.250370 -0.120820 
#    z -0.112440 -0.120820 5.050640 
# 
# 
# High freq. dielectric constant tensor:
#      x y z
#    x 1.890470 0.016690 -0.015370 
#    y 0.016690 1.917630 -0.009930 
#    z -0.015370 -0.009930 1.937250 
# 
# From -- ./inp_files/437428.got.cif
#   From: 2010.06.25/outbox.cif.g09.slc.cpg/sg2_219_cif.got.tgz:437428.got - 2010.06.27 13:26:56.
