data_PCOD8017341
_publ_section_title
;
Structure prediction by ZEFSAII (Michael W. Deem and Ramdas Pophale) SiO2 
 PCOD8017341
Probable space group: P -1
;
_chemical_formula_sum "Si O2"
_cell_formula_units_Z 16
_cell_length_a 19.332456
_cell_length_b 5.503886
_cell_length_c 9.455379
_cell_angle_alpha 115.267853
_cell_angle_beta 56.504144
_cell_angle_gamma 97.712278
_cell_volume 751.841990
_symmetry_space_group_name_H-M "P -1"
_symmetry_group_IT_number 2
_symmetry_cell_setting 'triclinic'
loop_
_space_group_symop_operation_xyz
x,y,z
-x,-y,-z
loop_
_atom_site_type_symbol
_atom_site_label
_atom_site_fract_x
_atom_site_fract_y
_atom_site_fract_z
Si Si1 0.457447 0.796479 0.160628
Si Si2 0.834374 0.232799 0.238309
Si Si3 0.382768 0.042858 0.021400
Si Si4 0.295076 0.621289 0.343591
Si Si5 0.989275 0.361676 0.256277
Si Si6 0.764131 0.234607 0.853764
Si Si7 0.931787 0.860090 0.622174
Si Si8 0.156770 0.403472 0.954469
O O1 0.375859 0.765712 0.341369
O O2 0.535918 0.940980 0.170764
O O3 0.500000 0.500000 0.000000
O O4 0.421271 0.966410 0.110386
O O5 0.766642 0.387697 0.458929
O O6 0.821499 0.414214 0.157075
O O7 0.928423 0.223781 0.188543
O O8 0.819020 0.919552 0.169181
O O9 0.322118 0.826563 0.986947
O O10 0.324645 0.327430 0.173562
O O11 0.245938 0.779114 0.307333
O O12 0.044964 0.142778 0.238429
O O13 0.933460 0.565408 0.475900
O O14 0.057626 0.492861 0.118236
O O15 0.838631 0.003501 0.751927
O O16 0.787649 0.519053 0.956023
O O17 0.000000 0.000000 0.500000
#
# Coordination Sequence:
#
# PCOD8017341 Si02
#       8
#     2   2   2   2   2   2   2   2
#     4   8  16  34  60 104 124 155 198 271 319 370
#     4  12  28  44  65  92 130 177 220 267 325 383
#     4   9  18  34  66  95 129 156 209 265 318 378
#     4  10  22  38  67  95 126 165 218 266 314 385
#     4  11  25  42  63  90 123 175 221 274 325 380
#     4  11  23  39  64  92 126 170 215 269 323 382
#     4  11  22  38  66  94 123 158 224 282 320 367
#     4  12  28  44  62  91 135 176 216 270 326 389
#
# _framework density 21.281067
#
# number of rings (size 3 to 8) (size 9 to 14) (size 15 to 20)
#    0.000    1.500    1.250    3.000   12.250    0.000 
#    0.000    0.000    0.000    1.500    0.000    0.000 
#    0.000    0.000    0.000    0.000    0.000    0.000 
#
# Total GULP energy -198218.583549 kJ/mol
# GULP energy per Si atom -12388.661472 kJ/mol
# Density = 2.123263 g / cm^3
# Si number density = 21.281067 Si / 1000 Ang^3
#
#
#
# Elastic Constant Matrix: (Units=GPa)
#
#
# Indices 1 2 3 4 5 6 
#
# 1 107.8030 39.3227 39.5149 -10.6470 -21.3072 23.9430
# 2 39.3227 96.8642 23.0471 -9.6358 -1.9007 7.8927
# 3 39.5149 23.0471 60.4067 -19.0401 -1.5926 10.0163
# 4 -10.6470 -9.6358 -19.0401 35.2409 6.0299 -4.2430
# 5 -21.3072 -1.9007 -1.5926 6.0299 22.3469 -6.1896
# 6 23.9430 7.8927 10.0163 -4.2430 -6.1896 53.7799
#
#
#
# Elastic Compliance Matrix: (Units=1/GPa)
#
#
# Indices 1 2 3 4 5 6 
#
# 1 0.018804 -0.004872 -0.010868 -0.004911 0.016938 -0.004070
# 2 -0.004872 0.012682 -0.001126 0.002125 -0.004163 0.000206
# 3 -0.010868 -0.001126 0.028172 0.013664 -0.012298 -0.000581
# 4 -0.004911 0.002125 0.013664 0.037232 -0.013373 0.000728
# 5 0.016938 -0.004163 -0.012298 -0.013373 0.063731 0.001641
# 6 -0.004070 0.000206 -0.000581 0.000728 0.001641 0.020731
#
#
# Mechanical properties :
#
#
# Convention : Reuss Voigt Hill
#
# Bulk Modulus (GPa) = 38.57106 52.09371 45.33239
# Shear Modulus (GPa) = 22.34878 33.15280 27.75079
#
# Velocity S-wave (km/s) = 3.24415 3.95125 3.61503
# Velocity P-wave (km/s) = 5.67421 6.73413 6.22676
#
# Compressibility (1/GPa) = 0.02592617
#
# Stress axis : x y z
#
# Youngs Moduli (GPa) = 53.18089 78.84954 35.49591
#
# Poissons Ratio (x) = 0.38417 0.38577
# Poissons Ratio (y) = 0.25911 0.03996
# Poissons Ratio (z) = 0.57797 0.08877
#
# Static dielectric constant tensor:
#      x y z
#    x 4.936750 -0.025210 -0.351460 
#    y -0.025210 4.356050 -0.188690 
#    z -0.351460 -0.188690 3.809140 
# 
# 
# High freq. dielectric constant tensor:
#      x y z
#    x 1.842430 0.006680 -0.027460 
#    y 0.006680 1.857210 -0.009840 
#    z -0.027460 -0.009840 1.793980 
# 
# From -- ./inp_files/52532.got.cif
#   From: 2010.06.25/outbox.cif.g09.slc.cpg/sg2_27_cif.got.tgz:52532.got - 2010.06.27 13:26:56.
