data_PCOD8017442
_publ_section_title
;
Structure prediction by ZEFSAII (Michael W. Deem and Ramdas Pophale) SiO2 
 PCOD8017442
Probable space group: P -1
;
_chemical_formula_sum "Si O2"
_cell_formula_units_Z 12
_cell_length_a 14.394084
_cell_length_b 14.614874
_cell_length_c 8.851089
_cell_angle_alpha 84.764871
_cell_angle_beta 74.613147
_cell_angle_gamma 20.092603
_cell_volume 542.102112
_symmetry_space_group_name_H-M "P -1"
_symmetry_group_IT_number 2
_symmetry_cell_setting 'triclinic'
loop_
_space_group_symop_operation_xyz
x,y,z
-x,-y,-z
loop_
_atom_site_type_symbol
_atom_site_label
_atom_site_fract_x
_atom_site_fract_y
_atom_site_fract_z
Si Si1 0.750659 0.362560 0.267842
Si Si2 0.747701 0.160843 0.342717
Si Si3 0.832052 0.735208 0.953477
Si Si4 0.162175 0.127642 0.298927
Si Si5 0.191823 0.599695 0.311415
Si Si6 0.207524 0.521749 0.991738
O O1 0.840911 0.174445 0.229564
O O2 0.408205 0.682228 0.448576
O O3 0.008764 0.173944 0.293540
O O4 0.750874 0.412625 0.098387
O O5 0.517778 0.314000 0.305802
O O6 0.067090 0.812600 0.280292
O O7 0.979463 0.650502 0.751420
O O8 0.000000 0.500000 0.000000
O O9 0.860464 0.793751 0.055148
O O10 0.500000 0.000000 0.000000
O O11 0.078501 0.206126 0.500923
O O12 0.538095 0.777817 0.154383
O O13 0.255178 0.478407 0.157144
#
# Coordination Sequence:
#
# PCOD8017442 Si02
#       6
#     2   2   2   2   2   2
#     4   9  21  37  63  88 127 174 208 251 302 347
#     4  10  22  39  59  91 130 168 214 250 291 359
#     4  11  23  43  70  93 118 159 201 251 318 380
#     4  10  22  43  65  90 127 162 202 257 309 363
#     4  11  25  39  62  94 127 165 207 252 303 356
#     4  11  23  41  67  91 125 162 206 254 312 365
#
# _framework density 22.136050999999998
#
# number of rings (size 3 to 8) (size 9 to 14) (size 15 to 20)
#    0.000    1.667    3.333    0.000    7.000    3.333 
#    0.000    1.667    0.000    0.000    0.000    0.000 
#    0.000    0.000    0.000    0.000    0.000    0.000 
#
# Total GULP energy -148678.081479 kJ/mol
# GULP energy per Si atom -12389.840123 kJ/mol
# Density = 2.208567 g / cm^3
# Si number density = 22.136051 Si / 1000 Ang^3
#
#
#
# Elastic Constant Matrix: (Units=GPa)
#
#
# Indices 1 2 3 4 5 6 
#
# 1 97.8153 21.4722 51.2564 -21.0635 -26.5093 2.8199
# 2 21.4722 88.7694 30.2434 -22.2957 -13.6612 12.1677
# 3 51.2564 30.2434 121.7179 -34.1067 1.0596 3.2884
# 4 -21.0635 -22.2957 -34.1067 34.2588 -0.9891 -7.3454
# 5 -26.5093 -13.6612 1.0596 -0.9891 24.0048 -8.9975
# 6 2.8199 12.1677 3.2884 -7.3454 -8.9975 36.5827
#
#
#
# Elastic Compliance Matrix: (Units=1/GPa)
#
#
# Indices 1 2 3 4 5 6 
#
# 1 0.026094 0.004203 -0.009024 0.012669 0.035369 0.008645
# 2 0.004203 0.016105 -0.002927 0.010629 0.014478 0.000277
# 3 -0.009024 -0.002927 0.014722 0.006535 -0.012547 -0.001428
# 4 0.012669 0.010629 0.006535 0.053792 0.026553 0.012232
# 5 0.035369 0.014478 -0.012547 0.026553 0.099358 0.023355
# 6 0.008645 0.000277 -0.001428 0.012232 0.023355 0.034905
#
#
# Mechanical properties :
#
#
# Convention : Reuss Voigt Hill
#
# Bulk Modulus (GPa) = 24.13960 57.13850 40.63905
# Shear Modulus (GPa) = 18.22947 32.65797 25.44372
#
# Velocity S-wave (km/s) = 2.87282 3.84517 3.39399
# Velocity P-wave (km/s) = 4.68326 6.75146 5.81012
#
# Compressibility (1/GPa) = 0.04142571
#
# Stress axis : x y z
#
# Youngs Moduli (GPa) = 38.32338 62.09085 67.92526
#
# Poissons Ratio (x) = -0.26096 0.61295
# Poissons Ratio (y) = -0.16107 0.19880
# Poissons Ratio (z) = 0.34583 0.18172
#
# Static dielectric constant tensor:
#      x y z
#    x 4.139640 -0.072280 -0.359460 
#    y -0.072280 3.724990 -0.350180 
#    z -0.359460 -0.350180 4.032970 
# 
# 
# High freq. dielectric constant tensor:
#      x y z
#    x 1.862050 -0.007090 -0.022880 
#    y -0.007090 1.877320 -0.028470 
#    z -0.022880 -0.028470 1.849540 
# 
# From -- ./inp_files/26390.got.cif
#   From: 2010.06.25/outbox.cif.g09.slc.cpg/sg2_14_cif.got.tgz:26390.got - 2010.06.27 13:26:56.
