data_PCOD8017074
_publ_section_title
;
Structure prediction by ZEFSAII (Michael W. Deem and Ramdas Pophale) SiO2 
 PCOD8017074
Probable space group: P -1
;
_chemical_formula_sum "Si O2"
_cell_formula_units_Z 14
_cell_length_a 12.154438
_cell_length_b 15.665932
_cell_length_c 8.750230
_cell_angle_alpha 115.534045
_cell_angle_beta 111.598073
_cell_angle_gamma 26.884745
_cell_volume 679.288039
_symmetry_space_group_name_H-M "P -1"
_symmetry_group_IT_number 2
_symmetry_cell_setting 'triclinic'
loop_
_space_group_symop_operation_xyz
x,y,z
-x,-y,-z
loop_
_atom_site_type_symbol
_atom_site_label
_atom_site_fract_x
_atom_site_fract_y
_atom_site_fract_z
Si Si1 0.532111 0.538537 0.893822
Si Si2 0.881340 0.283837 0.322389
Si Si3 0.796448 0.064996 0.971796
Si Si4 0.092077 0.156816 0.892146
Si Si5 0.703674 0.753375 0.414074
Si Si6 0.003631 0.630440 0.743605
Si Si7 0.226361 0.107120 0.594925
O O1 0.355649 0.618553 0.731818
O O2 0.812513 0.337838 0.835939
O O3 0.500000 0.500000 0.000000
O O4 0.459451 0.700782 0.003637
O O5 0.820924 0.417672 0.291049
O O6 0.957503 0.262161 0.515690
O O7 0.133888 0.063661 0.214178
O O8 0.808005 0.007564 0.100705
O O9 0.000000 0.000000 0.000000
O O10 0.252484 0.059482 0.747655
O O11 0.119732 0.231326 0.068263
O O12 0.833611 0.570448 0.273020
O O13 0.731188 0.809725 0.335016
O O14 0.804320 0.729110 0.602656
O O15 0.429742 0.915739 0.444200
#
# Coordination Sequence:
#
# PCOD8017074 Si02
#       7
#     2   2   2   2   2   2   2
#     4  11  19  36  62  86 117 157 190 236 283 350
#     4   9  19  35  59  84 118 153 196 227 289 360
#     4   9  18  36  57  82 114 153 198 226 275 352
#     4  11  22  37  60  92 119 146 200 240 283 341
#     4   9  20  40  60  77 118 155 193 239 299 341
#     4   9  18  37  62  84 105 157 200 235 283 356
#     4  10  22  38  56  88 118 152 189 247 294 337
#
# _framework density 20.609812999999999
#
# number of rings (size 3 to 8) (size 9 to 14) (size 15 to 20)
#    0.000    2.286    4.286    0.000    2.000    1.714 
#    7.714    2.857    0.000    0.000    0.000    0.000 
#    0.000    0.000    0.000    0.000    0.000    0.000 
#
# Total GULP energy -173441.388846 kJ/mol
# GULP energy per Si atom -12388.670632 kJ/mol
# Density = 2.056290 g / cm^3
# Si number density = 20.609813 Si / 1000 Ang^3
#
#
#
# Elastic Constant Matrix: (Units=GPa)
#
#
# Indices 1 2 3 4 5 6 
#
# 1 89.8078 40.5399 45.5792 -1.3685 -12.3276 19.1810
# 2 40.5399 98.0634 8.0705 2.1805 -4.1231 30.7670
# 3 45.5792 8.0705 75.0600 -11.7771 -6.1051 11.4940
# 4 -1.3685 2.1805 -11.7771 15.3820 0.0888 5.0984
# 5 -12.3276 -4.1231 -6.1051 0.0888 32.5914 -12.8649
# 6 19.1810 30.7670 11.4940 5.0984 -12.8649 38.1770
#
#
#
# Elastic Compliance Matrix: (Units=1/GPa)
#
#
# Indices 1 2 3 4 5 6 
#
# 1 0.021951 -0.008459 -0.013720 -0.008388 0.005878 0.003020
# 2 -0.008459 0.017269 0.005947 0.006063 -0.005490 -0.014117
# 3 -0.013720 0.005947 0.025404 0.020543 -0.003469 -0.009460
# 4 -0.008388 0.006063 0.020543 0.086032 -0.006960 -0.020691
# 5 0.005878 -0.005490 -0.003469 -0.006960 0.037995 0.016249
# 6 0.003020 -0.014117 -0.009460 -0.020691 0.016249 0.047140
#
#
# Mechanical properties :
#
#
# Convention : Reuss Voigt Hill
#
# Bulk Modulus (GPa) = 31.09675 50.14560 40.62118
# Shear Modulus (GPa) = 17.92272 28.47951 23.20112
#
# Velocity S-wave (km/s) = 2.95213 3.72135 3.35883
# Velocity P-wave (km/s) = 5.17119 6.54586 5.89871
#
# Compressibility (1/GPa) = 0.03215770
#
# Stress axis : x y z
#
# Youngs Moduli (GPa) = 45.55669 57.90837 39.36329
#
# Poissons Ratio (x) = 0.48987 0.54007
# Poissons Ratio (y) = 0.38538 -0.23408
# Poissons Ratio (z) = 0.62505 -0.34436
#
# Static dielectric constant tensor:
#      x y z
#    x 4.034310 0.342930 0.596010 
#    y 0.342930 4.269150 0.053460 
#    z 0.596010 0.053460 3.807350 
# 
# 
# High freq. dielectric constant tensor:
#      x y z
#    x 1.797520 0.014330 0.022370 
#    y 0.014330 1.805770 -0.014590 
#    z 0.022370 -0.014590 1.784670 
# 
# From -- ./inp_files/273783.got.cif
#   From: 2010.06.25/outbox.cif.g09.slc.cpg/sg2_137_cif.got.tgz:273783.got - 2010.06.27 13:26:56.
