data_PCOD8017734
_publ_section_title
;
Structure prediction by ZEFSAII (Michael W. Deem and Ramdas Pophale) SiO2 
 PCOD8017734
Probable space group: P -1
;
_chemical_formula_sum "Si O2"
_cell_formula_units_Z 12
_cell_length_a 20.027922
_cell_length_b 11.668474
_cell_length_c 5.076187
_cell_angle_alpha 98.387422
_cell_angle_beta 95.310841
_cell_angle_gamma 25.429139
_cell_volume 501.786944
_symmetry_space_group_name_H-M "P -1"
_symmetry_group_IT_number 2
_symmetry_cell_setting 'triclinic'
loop_
_space_group_symop_operation_xyz
x,y,z
-x,-y,-z
loop_
_atom_site_type_symbol
_atom_site_label
_atom_site_fract_x
_atom_site_fract_y
_atom_site_fract_z
Si Si1 0.892321 0.672585 0.265880
Si Si2 0.663422 0.699115 0.849688
Si Si3 0.180929 0.999312 0.399555
Si Si4 0.574341 0.588329 0.616809
Si Si5 0.176380 0.462618 0.660267
Si Si6 0.581449 0.253068 0.905439
O O1 0.807524 0.931473 0.320792
O O2 0.783404 0.727980 0.270558
O O3 0.000000 0.500000 0.500000
O O4 0.000000 0.500000 0.000000
O O5 0.656534 0.582551 0.683477
O O6 0.727517 0.676866 0.623826
O O7 0.776870 0.520528 0.085794
O O8 0.500000 0.000000 0.000000
O O9 0.006624 0.228075 0.355468
O O10 0.294388 0.714749 0.393458
O O11 0.240229 0.992805 0.182616
O O12 0.501957 0.690538 0.336594
O O13 0.433669 0.797813 0.850471
O O14 0.500000 0.500000 0.000000
#
# Coordination Sequence:
#
# PCOD8017734 Si02
#       6
#     2   2   2   2   2   2
#     4  10  22  39  64  99 132 165 210 277 346 388
#     4  12  28  46  68  92 142 187 230 270 325 418
#     4  10  23  42  72 100 136 163 231 291 338 396
#     4  11  25  43  68 103 134 185 223 269 342 399
#     4  11  25  45  68 100 130 182 227 278 342 390
#     4  10  22  41  67 103 137 169 216 279 348 397
#
# _framework density 23.914532999999999
#
# number of rings (size 3 to 8) (size 9 to 14) (size 15 to 20)
#    0.000    1.333    0.000    5.500    4.667   13.333 
#    0.000    0.000    0.000    0.000    0.000    0.000 
#    0.000    0.000    0.000    0.000    0.000    0.000 
#
# Total GULP energy -148699.994187 kJ/mol
# GULP energy per Si atom -12391.666182 kJ/mol
# Density = 2.386010 g / cm^3
# Si number density = 23.914533 Si / 1000 Ang^3
#
#
#
# Elastic Constant Matrix: (Units=GPa)
#
#
# Indices 1 2 3 4 5 6 
#
# 1 121.2424 46.9283 60.2142 17.1929 0.2757 -9.7721
# 2 46.9283 89.7869 43.3888 7.4517 -1.3657 -7.1276
# 3 60.2142 43.3888 184.9998 7.4681 -7.5795 -11.9531
# 4 17.1929 7.4517 7.4681 45.0429 -8.9557 3.9813
# 5 0.2757 -1.3657 -7.5795 -8.9557 50.3673 6.3597
# 6 -9.7721 -7.1276 -11.9531 3.9813 6.3597 39.4502
#
#
#
# Elastic Compliance Matrix: (Units=1/GPa)
#
#
# Indices 1 2 3 4 5 6 
#
# 1 0.012032 -0.004564 -0.002623 -0.003883 -0.001527 0.001999
# 2 -0.004564 0.014529 -0.001842 -0.000457 -0.000065 0.000993
# 3 -0.002623 -0.001842 0.006775 0.000287 0.000922 0.000893
# 4 -0.003883 -0.000457 0.000287 0.025098 0.005058 -0.004306
# 5 -0.001527 -0.000065 0.000922 0.005058 0.021413 -0.004073
# 6 0.001999 0.000993 0.000893 -0.004306 -0.004073 0.027385
#
#
# Mechanical properties :
#
#
# Convention : Reuss Voigt Hill
#
# Bulk Modulus (GPa) = 65.44911 77.45463 71.45187
# Shear Modulus (GPa) = 38.34920 43.33862 40.84391
#
# Velocity S-wave (km/s) = 4.00883 4.26165 4.13717
# Velocity P-wave (km/s) = 6.98964 7.52821 7.26392
#
# Compressibility (1/GPa) = 0.01527905
#
# Stress axis : x y z
#
# Youngs Moduli (GPa) = 83.11101 68.82932 147.60310
#
# Poissons Ratio (x) = 0.31411 0.38709
# Poissons Ratio (y) = 0.37929 0.27191
# Poissons Ratio (z) = 0.21796 0.12679
#
# Static dielectric constant tensor:
#      x y z
#    x 5.077880 -0.282200 -0.059930 
#    y -0.282200 4.481850 0.699200 
#    z -0.059930 0.699200 5.605130 
# 
# 
# High freq. dielectric constant tensor:
#      x y z
#    x 1.950780 -0.009100 0.004130 
#    y -0.009100 1.950160 0.002790 
#    z 0.004130 0.002790 1.977380 
# 
# From -- ./inp_files/109288.got.cif
#   From: 2010.06.25/outbox.cif.g09.slc.cpg/sg2_55_cif.got.tgz:109288.got - 2010.06.27 13:26:56.
