data_PCOD8017772
_publ_section_title
;
Structure prediction by ZEFSAII (Michael W. Deem and Ramdas Pophale) SiO2 
 PCOD8017772
Probable space group: P -1
;
_chemical_formula_sum "Si O2"
_cell_formula_units_Z 16
_cell_length_a 12.406160
_cell_length_b 8.965890
_cell_length_c 14.418784
_cell_angle_alpha 37.870492
_cell_angle_beta 127.599970
_cell_angle_gamma 112.495176
_cell_volume 763.711763
_symmetry_space_group_name_H-M "P -1"
_symmetry_group_IT_number 2
_symmetry_cell_setting 'triclinic'
loop_
_space_group_symop_operation_xyz
x,y,z
-x,-y,-z
loop_
_atom_site_type_symbol
_atom_site_label
_atom_site_fract_x
_atom_site_fract_y
_atom_site_fract_z
Si Si1 0.898244 0.262791 0.826898
Si Si2 0.980669 0.381437 0.147906
Si Si3 0.522540 0.785947 0.928304
Si Si4 0.830581 0.523113 0.474751
Si Si5 0.407125 0.689149 0.289103
Si Si6 0.068770 0.800559 0.483321
Si Si7 0.533876 0.709721 0.172448
Si Si8 0.255824 0.607475 0.848490
O O1 0.879616 0.345134 0.672115
O O2 0.752879 0.236151 0.807062
O O3 0.956113 0.462329 0.819273
O O4 0.000000 0.000000 0.000000
O O5 0.819995 0.393618 0.090055
O O6 0.061349 0.095114 0.328521
O O7 0.000000 0.500000 0.000000
O O8 0.365991 0.788142 0.810557
O O9 0.526956 0.069665 0.798437
O O10 0.543788 0.615255 0.117820
O O11 0.649920 0.665070 0.987134
O O12 0.837216 0.350960 0.472159
O O13 0.671978 0.651187 0.335293
O O14 0.916691 0.742520 0.412688
O O15 0.500000 0.500000 0.500000
O O16 0.422964 0.599665 0.232564
O O17 0.131949 0.699047 0.665189
O O18 0.500000 0.000000 0.000000
#
# Coordination Sequence:
#
# PCOD8017772 Si02
#       8
#     2   2   2   2   2   2   2   2
#     4  12  26  45  71 100 144 183 227 286 352 414
#     4  12  28  43  66 102 139 178 223 281 349 409
#     4  10  24  42  68  95 132 175 228 278 342 406
#     4  11  23  44  70 101 135 182 235 282 342 410
#     4  11  24  39  67  98 134 176 226 280 338 412
#     4  11  25  42  71  97 137 177 231 285 338 409
#     4  10  22  39  65  94 129 173 230 277 331 399
#     4  11  23  45  68  96 133 178 224 284 344 409
#
# _framework density 20.950312
#
# number of rings (size 3 to 8) (size 9 to 14) (size 15 to 20)
#    0.000    1.000    3.750    1.875    7.000    2.000 
#    0.000    0.000    0.000    4.500    0.000    0.000 
#    0.000    0.000    0.000    0.000    0.000    0.000 
#
# Total GULP energy -198238.606093 kJ/mol
# GULP energy per Si atom -12389.912881 kJ/mol
# Density = 2.090263 g / cm^3
# Si number density = 20.950312 Si / 1000 Ang^3
#
#
#
# Elastic Constant Matrix: (Units=GPa)
#
#
# Indices 1 2 3 4 5 6 
#
# 1 138.5879 23.9981 55.6666 -5.8664 -0.2393 -7.4290
# 2 23.9981 92.6682 40.7578 -9.3655 0.6354 7.0566
# 3 55.6666 40.7578 121.7289 -5.1116 -3.8825 -1.0943
# 4 -5.8664 -9.3655 -5.1116 27.7165 -0.2907 -5.9790
# 5 -0.2393 0.6354 -3.8825 -0.2907 38.9418 6.5511
# 6 -7.4290 7.0566 -1.0943 -5.9790 6.5511 17.3352
#
#
#
# Elastic Compliance Matrix: (Units=1/GPa)
#
#
# Indices 1 2 3 4 5 6 
#
# 1 0.009285 -0.000894 -0.003850 0.002076 -0.001182 0.005263
# 2 -0.000894 0.013451 -0.004031 0.002456 0.000296 -0.005378
# 3 -0.003850 -0.004031 0.011363 -0.000009 0.001128 0.000279
# 4 0.002076 0.002456 -0.000009 0.040492 -0.002196 0.014685
# 5 -0.001182 0.000296 0.001128 -0.002196 0.027748 -0.011800
# 6 0.005263 -0.005378 0.000279 0.014685 -0.011800 0.071673
#
#
# Mechanical properties :
#
#
# Convention : Reuss Voigt Hill
#
# Bulk Modulus (GPa) = 60.42300 65.98110 63.20205
# Shear Modulus (GPa) = 25.37071 32.30286 28.83679
#
# Velocity S-wave (km/s) = 3.48371 3.93094 3.71406
# Velocity P-wave (km/s) = 6.71456 7.22257 6.97319
#
# Compressibility (1/GPa) = 0.01654999
#
# Stress axis : x y z
#
# Youngs Moduli (GPa) = 107.70376 74.34267 88.00373
#
# Poissons Ratio (x) = 0.06647 0.33879
# Poissons Ratio (y) = 0.09629 0.35472
# Poissons Ratio (z) = 0.41463 0.29966
#
# Static dielectric constant tensor:
#      x y z
#    x 4.573020 -0.398240 -0.108470 
#    y -0.398240 4.009580 0.259800 
#    z -0.108470 0.259800 3.834130 
# 
# 
# High freq. dielectric constant tensor:
#      x y z
#    x 1.842290 -0.013700 0.006390 
#    y -0.013700 1.818480 0.004020 
#    z 0.006390 0.004020 1.821260 
# 
# From -- ./inp_files/514956.got.cif
#   From: 2010.06.25/outbox.cif.g09.slc.cpg/sg2_258_cif.got.tgz:514956.got - 2010.06.27 13:26:56.
