data_PCOD8017622
_publ_section_title
;
Structure prediction by ZEFSAII (Michael W. Deem and Ramdas Pophale) SiO2 
 PCOD8017622
Probable space group: P -1
;
_chemical_formula_sum "Si O2"
_cell_formula_units_Z 14
_cell_length_a 14.176907
_cell_length_b 11.794499
_cell_length_c 11.884149
_cell_angle_alpha 114.079611
_cell_angle_beta 113.540342
_cell_angle_gamma 21.025664
_cell_volume 649.872022
_symmetry_space_group_name_H-M "P -1"
_symmetry_group_IT_number 2
_symmetry_cell_setting 'triclinic'
loop_
_space_group_symop_operation_xyz
x,y,z
-x,-y,-z
loop_
_atom_site_type_symbol
_atom_site_label
_atom_site_fract_x
_atom_site_fract_y
_atom_site_fract_z
Si Si1 0.321927 0.702581 0.826435
Si Si2 0.471418 0.036395 0.657665
Si Si3 0.132315 0.635712 0.709953
Si Si4 0.831036 0.069229 0.920154
Si Si5 0.598956 0.808504 0.867417
Si Si6 0.987054 0.653645 0.441604
Si Si7 0.147005 0.115111 0.771145
O O1 0.169065 0.742423 0.760438
O O2 0.628005 0.329435 0.828444
O O3 0.229850 0.883000 0.747816
O O4 0.286297 0.831837 0.973145
O O5 0.400566 0.258704 0.690656
O O6 0.215654 0.234169 0.595787
O O7 0.562738 0.926664 0.784883
O O8 0.712809 0.732416 0.567464
O O9 0.951992 0.787335 0.582659
O O10 0.991575 0.775793 0.822580
O O11 0.000000 0.000000 0.000000
O O12 0.909189 0.426047 0.865803
O O13 0.416380 0.891089 0.818397
O O14 0.500000 0.000000 0.000000
O O15 0.949349 0.774338 0.358804
#
# Coordination Sequence:
#
# PCOD8017622 Si02
#       7
#     2   2   2   2   2   2   2
#     4  10  23  40  62  91 126 162 206 258 313 363
#     4  10  23  40  62  93 127 160 210 260 308 359
#     4  11  23  37  67  88 124 166 210 250 315 369
#     4   9  22  40  56  91 120 160 206 250 306 366
#     4  10  22  39  63  92 119 167 208 250 310 367
#     4  10  23  43  61  94 125 165 206 260 306 365
#     4  10  23  41  63  88 132 157 202 262 303 365
#
# _framework density 21.542704000000001
#
# number of rings (size 3 to 8) (size 9 to 14) (size 15 to 20)
#    0.000    2.000    0.000    1.286   10.000    2.857 
#    0.000    0.714    0.000    0.000    0.000    0.000 
#    0.000    0.000    0.000    0.000    0.000    0.000 
#
# Total GULP energy -173481.060494 kJ/mol
# GULP energy per Si atom -12391.504321 kJ/mol
# Density = 2.149367 g / cm^3
# Si number density = 21.542704 Si / 1000 Ang^3
#
#
#
# Elastic Constant Matrix: (Units=GPa)
#
#
# Indices 1 2 3 4 5 6 
#
# 1 74.3837 27.4392 20.5459 5.4749 -6.1303 14.1335
# 2 27.4392 80.4530 23.6543 -0.7536 -2.4231 -0.0859
# 3 20.5459 23.6543 120.4663 22.7431 4.7181 5.3491
# 4 5.4749 -0.7536 22.7431 25.7750 -5.7174 -0.5087
# 5 -6.1303 -2.4231 4.7181 -5.7174 15.5155 3.5141
# 6 14.1335 -0.0859 5.3491 -0.5087 3.5141 42.9891
#
#
#
# Elastic Compliance Matrix: (Units=1/GPa)
#
#
# Indices 1 2 3 4 5 6 
#
# 1 0.017824 -0.005284 -0.001926 -0.000589 0.008011 -0.006293
# 2 -0.005284 0.015324 -0.003265 0.005095 0.002720 0.002012
# 3 -0.001926 -0.003265 0.011982 -0.012351 -0.009411 -0.000241
# 4 -0.000589 0.005095 -0.012351 0.055448 0.024665 0.000380
# 5 0.008011 0.002720 -0.009411 0.024665 0.081771 -0.007850
# 6 -0.006293 0.002012 -0.000241 0.000380 -0.007850 0.026011
#
#
# Mechanical properties :
#
#
# Convention : Reuss Voigt Hill
#
# Bulk Modulus (GPa) = 41.35723 46.50909 43.93316
# Shear Modulus (GPa) = 21.06424 30.43349 25.74886
#
# Velocity S-wave (km/s) = 3.13036 3.76267 3.46099
# Velocity P-wave (km/s) = 5.68375 6.36499 6.03399
#
# Compressibility (1/GPa) = 0.02417957
#
# Stress axis : x y z
#
# Youngs Moduli (GPa) = 56.10390 65.25874 83.45985
#
# Poissons Ratio (x) = 0.34482 0.16072
# Poissons Ratio (y) = 0.29644 0.27253
# Poissons Ratio (z) = 0.10804 0.21310
#
# Static dielectric constant tensor:
#      x y z
#    x 3.855540 -0.271570 -0.255250 
#    y -0.271570 4.167330 0.158410 
#    z -0.255250 0.158410 4.540650 
# 
# 
# High freq. dielectric constant tensor:
#      x y z
#    x 1.833170 -0.012120 -0.008650 
#    y -0.012120 1.853720 -0.001630 
#    z -0.008650 -0.001630 1.853270 
# 
# From -- ./inp_files/60465.got.cif
#   From: 2010.06.25/outbox.cif.g09.slc.cpg/sg2_31_cif.got.tgz:60465.got - 2010.06.27 13:26:56.
