data_PCOD8017518
_publ_section_title
;
Structure prediction by ZEFSAII (Michael W. Deem and Ramdas Pophale) SiO2 
 PCOD8017518
Probable space group: P -1
;
_chemical_formula_sum "Si O2"
_cell_formula_units_Z 16
_cell_length_a 9.262867
_cell_length_b 17.250576
_cell_length_c 13.376516
_cell_angle_alpha 31.766088
_cell_angle_beta 116.640128
_cell_angle_gamma 94.822630
_cell_volume 779.896810
_symmetry_space_group_name_H-M "P -1"
_symmetry_group_IT_number 2
_symmetry_cell_setting 'triclinic'
loop_
_space_group_symop_operation_xyz
x,y,z
-x,-y,-z
loop_
_atom_site_type_symbol
_atom_site_label
_atom_site_fract_x
_atom_site_fract_y
_atom_site_fract_z
Si Si1 0.357163 0.988160 0.398880
Si Si2 0.755873 0.748845 0.259939
Si Si3 0.679781 0.698880 0.665501
Si Si4 0.273075 0.677627 0.269832
Si Si5 0.985736 0.050977 0.291088
Si Si6 0.455919 0.832202 0.243335
Si Si7 0.077537 0.348126 0.794461
Si Si8 0.027005 0.736587 0.759863
O O1 0.231561 0.935819 0.476117
O O2 0.500000 0.000000 0.500000
O O3 0.466995 0.840753 0.504125
O O4 0.192511 0.204793 0.076513
O O5 0.576438 0.765169 0.247180
O O6 0.762145 0.718977 0.174071
O O7 0.984544 0.558217 0.574941
O O8 0.719045 0.941005 0.056534
O O9 0.625850 0.744235 0.481348
O O10 0.828190 0.744763 0.699131
O O11 0.776235 0.483793 0.958053
O O12 0.500000 0.500000 0.500000
O O13 0.318545 0.763588 0.281279
O O14 0.130071 0.629042 0.322652
O O15 0.156257 0.833452 0.974707
O O16 0.916237 0.201374 0.192787
O O17 0.971040 0.885620 0.492257
#
# Coordination Sequence:
#
# PCOD8017518 Si02
#       8
#     2   2   2   2   2   2   2   2
#     4  11  22  42  64  89 123 164 206 255 309 363
#     4  10  22  39  61  91 124 156 208 253 302 371
#     4  11  23  41  65  91 123 163 208 257 309 366
#     4  11  22  39  63  90 128 166 200 249 313 369
#     4  10  23  42  63  90 123 164 208 253 306 369
#     4  11  23  39  63  93 125 163 203 253 313 366
#     4  10  22  41  62  90 125 161 207 252 306 370
#     4  10  23  41  64  90 122 160 212 258 302 363
#
# _framework density 20.515533000000001
#
# number of rings (size 3 to 8) (size 9 to 14) (size 15 to 20)
#    0.000    1.500    3.750    0.750    5.250    1.000 
#    0.000    1.250    0.000    0.000    0.000    0.000 
#    0.000    0.000    0.000    0.000    0.000    0.000 
#
# Total GULP energy -198249.715568 kJ/mol
# GULP energy per Si atom -12390.607223 kJ/mol
# Density = 2.046884 g / cm^3
# Si number density = 20.515533 Si / 1000 Ang^3
#
#
#
# Elastic Constant Matrix: (Units=GPa)
#
#
# Indices 1 2 3 4 5 6 
#
# 1 66.4255 19.8054 36.7114 -11.0315 1.3278 -8.0937
# 2 19.8054 71.0762 33.3646 -8.4697 3.1156 5.3181
# 3 36.7114 33.3646 105.8968 -21.9515 -2.9951 3.6312
# 4 -11.0315 -8.4697 -21.9515 32.1140 0.3988 4.6479
# 5 1.3278 3.1156 -2.9951 0.3988 32.9327 -3.3655
# 6 -8.0937 5.3181 3.6312 4.6479 -3.3655 30.6745
#
#
#
# Elastic Compliance Matrix: (Units=1/GPa)
#
#
# Indices 1 2 3 4 5 6 
#
# 1 0.020310 -0.003148 -0.006056 0.001084 -0.000430 0.006410
# 2 -0.003148 0.017390 -0.004048 0.001319 -0.002293 -0.003818
# 3 -0.006056 -0.004048 0.014484 0.007247 0.001494 -0.003545
# 4 0.001084 0.001319 0.007247 0.037776 -0.000641 -0.006595
# 5 -0.000430 -0.002293 0.001494 -0.000641 0.031113 0.003618
# 6 0.006410 -0.003818 -0.003545 -0.006595 0.003618 0.036769
#
#
# Mechanical properties :
#
#
# Convention : Reuss Voigt Hill
#
# Bulk Modulus (GPa) = 38.94183 47.01791 42.97987
# Shear Modulus (GPa) = 25.91926 29.37871 27.64899
#
# Velocity S-wave (km/s) = 3.55829 3.78831 3.67510
# Velocity P-wave (km/s) = 5.99205 6.48869 6.24531
#
# Compressibility (1/GPa) = 0.02567933
#
# Stress axis : x y z
#
# Youngs Moduli (GPa) = 49.23715 57.50337 69.04051
#
# Poissons Ratio (x) = 0.18102 0.41812
# Poissons Ratio (y) = 0.15500 0.27950
# Poissons Ratio (z) = 0.29819 0.23279
#
# Static dielectric constant tensor:
#      x y z
#    x 3.931720 0.086550 -0.093960 
#    y 0.086550 3.681520 -0.173690 
#    z -0.093960 -0.173690 3.873430 
# 
# 
# High freq. dielectric constant tensor:
#      x y z
#    x 1.797070 -0.003390 -0.004680 
#    y -0.003390 1.788620 -0.014380 
#    z -0.004680 -0.014380 1.821350 
# 
# From -- ./inp_files/221730.got.cif
#   From: 2010.06.25/outbox.cif.g09.slc.cpg/sg2_111_cif.got.tgz:221730.got - 2010.06.27 13:26:56.
