data_PCOD8017310
_publ_section_title
;
Structure prediction by ZEFSAII (Michael W. Deem and Ramdas Pophale) SiO2 
 PCOD8017310
Probable space group: P -1
;
_chemical_formula_sum "Si O2"
_cell_formula_units_Z 16
_cell_length_a 13.898635
_cell_length_b 16.970345
_cell_length_c 25.035647
_cell_angle_alpha 159.763229
_cell_angle_beta 157.565222
_cell_angle_gamma 33.402913
_cell_volume 755.600784
_symmetry_space_group_name_H-M "P -1"
_symmetry_group_IT_number 2
_symmetry_cell_setting 'triclinic'
loop_
_space_group_symop_operation_xyz
x,y,z
-x,-y,-z
loop_
_atom_site_type_symbol
_atom_site_label
_atom_site_fract_x
_atom_site_fract_y
_atom_site_fract_z
Si Si1 0.090687 0.794870 0.633582
Si Si2 0.393917 0.007412 0.508459
Si Si3 0.205569 0.645005 0.857810
Si Si4 0.888609 0.481024 0.697564
Si Si5 0.280450 0.508222 0.127835
Si Si6 0.630343 0.902764 0.827003
Si Si7 0.696451 0.488509 0.986159
Si Si8 0.427202 0.881240 0.957948
O O1 0.955842 0.522906 0.378243
O O2 0.370744 0.873454 0.798110
O O3 0.158756 0.824918 0.750685
O O4 0.902342 0.961033 0.625356
O O5 0.424766 0.758392 0.387624
O O6 0.500000 0.000000 0.500000
O O7 0.571328 0.218138 0.767291
O O8 0.507162 0.641580 0.008144
O O9 0.076694 0.537493 0.778812
O O10 0.224859 0.925532 0.037682
O O11 0.781000 0.709060 0.796999
O O12 0.667511 0.238710 0.425183
O O13 0.033237 0.430358 0.792870
O O14 0.270584 0.490656 0.047293
O O15 0.423379 0.321432 0.105494
O O16 0.000000 0.500000 0.000000
O O17 0.647308 0.095702 0.004707
#
# Coordination Sequence:
#
# PCOD8017310 Si02
#       8
#     2   2   2   2   2   2   2   2
#     4  10  22  38  66  91 128 168 204 256 335 373
#     4   9  20  37  57  87 127 159 202 252 308 381
#     4  11  22  46  65  96 129 166 217 266 314 382
#     4  11  25  45  66  91 129 173 214 270 310 375
#     4  11  21  39  61  96 130 160 210 264 315 387
#     4  11  25  43  66  90 131 165 221 264 318 375
#     4  10  23  41  65  92 126 171 210 260 325 373
#     4  11  22  40  63  93 127 169 203 269 320 376
#
# _framework density 21.175201999999999
#
# number of rings (size 3 to 8) (size 9 to 14) (size 15 to 20)
#    0.000    1.500    3.750    0.750    3.500    2.000 
#    2.250    0.000    0.000    0.000    0.000    0.000 
#    0.000    0.000    0.000    0.000    0.000    0.000 
#
# Total GULP energy -198221.854408 kJ/mol
# GULP energy per Si atom -12388.865901 kJ/mol
# Density = 2.112701 g / cm^3
# Si number density = 21.175202 Si / 1000 Ang^3
#
#
#
# Elastic Constant Matrix: (Units=GPa)
#
#
# Indices 1 2 3 4 5 6 
#
# 1 58.0392 14.8475 21.1380 -7.4783 5.4429 -6.7297
# 2 14.8475 82.2471 46.4157 0.9898 -8.8778 -2.3226
# 3 21.1380 46.4157 99.8736 -1.0549 -2.3623 11.0540
# 4 -7.4783 0.9898 -1.0549 42.3988 6.0430 1.4063
# 5 5.4429 -8.8778 -2.3623 6.0430 30.1746 -0.4506
# 6 -6.7297 -2.3226 11.0540 1.4063 -0.4506 32.0368
#
#
#
# Elastic Compliance Matrix: (Units=1/GPa)
#
#
# Indices 1 2 3 4 5 6 
#
# 1 0.020943 -0.001860 -0.004258 0.004223 -0.005422 0.005472
# 2 -0.001860 0.017848 -0.008225 -0.001844 0.005370 0.003898
# 3 -0.004258 -0.008225 0.015482 0.000134 -0.000569 -0.006846
# 4 0.004223 -0.001844 0.000134 0.025301 -0.006368 -0.000493
# 5 -0.005422 0.005370 -0.000569 -0.006368 0.036933 0.000246
# 6 0.005472 0.003898 -0.006846 -0.000493 0.000246 0.035034
#
#
# Mechanical properties :
#
#
# Convention : Reuss Voigt Hill
#
# Bulk Modulus (GPa) = 39.07975 44.99582 42.03779
# Shear Modulus (GPa) = 26.48953 31.43930 28.96441
#
# Velocity S-wave (km/s) = 3.54074 3.85739 3.70245
# Velocity P-wave (km/s) = 5.93391 6.41363 6.17843
#
# Compressibility (1/GPa) = 0.02558870
#
# Stress axis : x y z
#
# Youngs Moduli (GPa) = 47.74830 56.02941 64.59118
#
# Poissons Ratio (x) = 0.10419 0.27501
# Poissons Ratio (y) = 0.08879 0.53126
# Poissons Ratio (z) = 0.20330 0.46084
#
# Static dielectric constant tensor:
#      x y z
#    x 3.722540 -0.106010 0.140300 
#    y -0.106010 3.621780 -0.030720 
#    z 0.140300 -0.030720 3.746140 
# 
# 
# High freq. dielectric constant tensor:
#      x y z
#    x 1.819850 -0.012930 0.011170 
#    y -0.012930 1.826580 0.010090 
#    z 0.011170 0.010090 1.840130 
# 
# From -- ./inp_files/284726.got.cif
#   From: 2010.06.25/outbox.cif.g09.slc.cpg/sg2_143_cif.got.tgz:284726.got - 2010.06.27 13:26:56.
