data_PCOD8017834
_publ_section_title
;
Structure prediction by ZEFSAII (Michael W. Deem and Ramdas Pophale) SiO2 
 PCOD8017834
Probable space group: P -1
;
_chemical_formula_sum "Si O2"
_cell_formula_units_Z 14
_cell_length_a 7.912152
_cell_length_b 11.418319
_cell_length_c 6.928866
_cell_angle_alpha 77.772008
_cell_angle_beta 107.025388
_cell_angle_gamma 124.120453
_cell_volume 494.615776
_symmetry_space_group_name_H-M "P -1"
_symmetry_group_IT_number 2
_symmetry_cell_setting 'triclinic'
loop_
_space_group_symop_operation_xyz
x,y,z
-x,-y,-z
loop_
_atom_site_type_symbol
_atom_site_label
_atom_site_fract_x
_atom_site_fract_y
_atom_site_fract_z
Si Si1 0.744440 0.883513 0.631333
Si Si2 0.682156 0.373320 0.454608
Si Si3 0.196424 0.993839 0.792505
Si Si4 0.366350 0.569352 0.149717
Si Si5 0.245363 0.852841 0.314805
Si Si6 0.797848 0.629972 0.161477
Si Si7 0.392789 0.831116 0.964872
O O1 0.559320 0.721416 0.669717
O O2 0.776747 0.898550 0.405086
O O3 0.672577 0.993638 0.620294
O O4 0.952246 0.912085 0.800263
O O5 0.701422 0.437400 0.651627
O O6 0.756321 0.261910 0.500689
O O7 0.819562 0.509032 0.318689
O O8 0.348634 0.075638 0.003360
O O9 0.254866 0.877504 0.784094
O O10 0.614686 0.638403 0.198476
O O11 0.306638 0.666373 0.967918
O O12 0.246284 0.415350 0.063449
O O13 0.391666 0.867041 0.180600
O O14 0.006599 0.784223 0.187478
#
# Coordination Sequence:
#
# PCOD8017834 Si02
#       7
#     2   2   2   2   2   2   2
#     4  11  23  42  66 101 133 169 227 276 333 409
#     4  11  24  44  68 100 133 181 219 280 336 398
#     4  10  22  39  66  96 129 180 212 275 345 388
#     4  10  23  45  64  94 134 176 231 271 326 408
#     4  11  24  41  64 100 135 170 227 275 329 409
#     4  11  25  43  69  94 137 180 220 279 336 393
#     4  10  22  41  65  96 136 173 220 282 334 393
#
# _framework density 28.304798999999999
#
# number of rings (size 3 to 8) (size 9 to 14) (size 15 to 20)
#    0.000    1.429    2.857    2.143    4.000    6.286 
#    2.571    0.000    0.000    0.000    0.000    0.000 
#    0.000    0.000    0.000    0.000    0.000    0.000 
#
# Total GULP energy -173502.367913 kJ/mol
# GULP energy per Si atom -12393.026279 kJ/mol
# Density = 2.824038 g / cm^3
# Si number density = 28.304799 Si / 1000 Ang^3
#
#
#
# Elastic Constant Matrix: (Units=GPa)
#
#
# Indices 1 2 3 4 5 6 
#
# 1 62.8940 -18.1524 5.6327 4.8085 15.0328 2.3268
# 2 -18.1524 62.9703 9.5772 5.3797 -10.8524 -3.3703
# 3 5.6327 9.5772 45.6726 -12.3185 13.5555 -6.1919
# 4 4.8085 5.3797 -12.3185 34.9353 -15.5719 13.6311
# 5 15.0328 -10.8524 13.5555 -15.5719 40.6990 7.3510
# 6 2.3268 -3.3703 -6.1919 13.6311 7.3510 45.1891
#
#
#
# Elastic Compliance Matrix: (Units=1/GPa)
#
#
# Indices 1 2 3 4 5 6 
#
# 1 0.020979 0.005980 -0.003322 -0.010872 -0.009894 0.003800
# 2 0.005980 0.019757 -0.007096 -0.005538 0.003057 0.001366
# 3 -0.003322 -0.007096 0.028400 0.006951 -0.007958 0.002731
# 4 -0.010872 -0.005538 0.006951 0.050550 0.022790 -0.017856
# 5 -0.009894 0.003057 -0.007958 0.022790 0.042979 -0.014219
# 6 0.003800 0.001366 0.002731 -0.017856 -0.014219 0.030109
#
#
# Mechanical properties :
#
#
# Convention : Reuss Voigt Hill
#
# Bulk Modulus (GPa) = 16.59517 18.40577 17.50047
# Shear Modulus (GPa) = 22.54938 35.79664 29.17301
#
# Velocity S-wave (km/s) = 2.82558 3.56010 3.21389
# Velocity P-wave (km/s) = 4.06460 4.83900 4.46861
#
# Compressibility (1/GPa) = 0.06025851
#
# Stress axis : x y z
#
# Youngs Moduli (GPa) = 47.66736 50.61576 35.21183
#
# Poissons Ratio (x) = -0.30267 0.11697
# Poissons Ratio (y) = -0.28504 0.24987
# Poissons Ratio (z) = 0.15835 0.35917
#
# Static dielectric constant tensor:
#      x y z
#    x 5.156880 -0.089050 0.268090 
#    y -0.089050 5.138610 -0.172720 
#    z 0.268090 -0.172720 5.101910 
# 
# 
# High freq. dielectric constant tensor:
#      x y z
#    x 2.139620 -0.007000 0.010980 
#    y -0.007000 2.145440 -0.006850 
#    z 0.010980 -0.006850 2.144900 
# 
# From -- ./inp_files/178291.got.cif
#   From: 2010.06.25/outbox.cif.g09.slc.cpg/sg2_90_cif.got.tgz:178291.got - 2010.06.27 13:26:56.
