data_PCOD8017426
_publ_section_title
;
Structure prediction by ZEFSAII (Michael W. Deem and Ramdas Pophale) SiO2 
 PCOD8017426
Probable space group: P -1
;
_chemical_formula_sum "Si O2"
_cell_formula_units_Z 16
_cell_length_a 15.013509
_cell_length_b 15.453491
_cell_length_c 9.635673
_cell_angle_alpha 26.152268
_cell_angle_beta 136.658670
_cell_angle_gamma 133.504316
_cell_volume 671.593889
_symmetry_space_group_name_H-M "P -1"
_symmetry_group_IT_number 2
_symmetry_cell_setting 'triclinic'
loop_
_space_group_symop_operation_xyz
x,y,z
-x,-y,-z
loop_
_atom_site_type_symbol
_atom_site_label
_atom_site_fract_x
_atom_site_fract_y
_atom_site_fract_z
Si Si1 0.713554 0.473295 0.700189
Si Si2 0.148827 0.097397 0.699861
Si Si3 0.131330 0.910781 0.242023
Si Si4 0.541349 0.217525 0.396437
Si Si5 0.325665 0.466440 0.728469
Si Si6 0.383268 0.826025 0.760808
Si Si7 0.109690 0.819072 0.819912
Si Si8 0.029438 0.474897 0.412219
O O1 0.788629 0.674600 0.556647
O O2 0.631864 0.526962 0.395204
O O3 0.620429 0.360730 0.872178
O O4 0.805839 0.311346 0.989067
O O5 0.990676 0.086916 0.530220
O O6 0.193248 0.986578 0.769855
O O7 0.183170 0.980836 0.045946
O O8 0.254432 0.946543 0.435655
O O9 0.090675 0.678042 0.553591
O O10 0.000000 0.000000 0.000000
O O11 0.646031 0.313238 0.490000
O O12 0.600552 0.258573 0.252438
O O13 0.506444 0.982491 0.721883
O O14 0.407809 0.318882 0.115754
O O15 0.170685 0.393131 0.666761
O O16 0.022003 0.677287 0.031782
O O17 0.000000 0.500000 0.500000
#
# Coordination Sequence:
#
# PCOD8017426 Si02
#       8
#     2   2   2   2   2   2   2   2
#     4  11  23  42  64  95 129 172 214 278 326 386
#     4  11  22  38  59  92 138 176 211 258 330 396
#     4  12  22  36  64  98 129 169 214 267 325 396
#     4  10  23  46  66  91 128 170 224 274 313 392
#     4  10  23  43  66  94 129 173 218 267 330 381
#     4  11  24  42  68  96 127 171 220 269 330 383
#     4  10  22  39  58  93 137 178 209 263 323 397
#     4  11  20  37  62  94 130 165 209 262 323 387
#
# _framework density 23.823923000000001
#
# number of rings (size 3 to 8) (size 9 to 14) (size 15 to 20)
#    0.000    1.250    1.250    5.625    1.750    1.000 
#    4.500    0.000    0.000    0.000    0.000    0.000 
#    0.000    0.000    0.000    0.000    0.000    0.000 
#
# Total GULP energy -198313.128694 kJ/mol
# GULP energy per Si atom -12394.570543 kJ/mol
# Density = 2.376970 g / cm^3
# Si number density = 23.823923 Si / 1000 Ang^3
#
#
#
# Elastic Constant Matrix: (Units=GPa)
#
#
# Indices 1 2 3 4 5 6 
#
# 1 67.4677 26.4133 11.8256 -18.1473 -25.3114 0.0610
# 2 26.4133 131.9253 18.1163 -35.7294 -27.8281 -13.2130
# 3 11.8256 18.1163 61.4240 -10.5573 -15.5588 -1.8031
# 4 -18.1473 -35.7294 -10.5573 38.9531 0.9866 5.5222
# 5 -25.3114 -27.8281 -15.5588 0.9866 42.9979 -0.4865
# 6 0.0610 -13.2130 -1.8031 5.5222 -0.4865 30.3982
#
#
#
# Elastic Compliance Matrix: (Units=1/GPa)
#
#
# Indices 1 2 3 4 5 6 
#
# 1 0.022696 0.001477 0.000846 0.011979 0.014333 -0.001300
# 2 0.001477 0.012629 0.000362 0.011642 0.008947 0.003536
# 3 0.000846 0.000362 0.018867 0.005598 0.007435 0.000377
# 4 0.011979 0.011642 0.005598 0.043374 0.015591 -0.002261
# 5 0.014333 0.008947 0.007435 0.015591 0.039841 0.002106
# 6 -0.001300 0.003536 0.000377 -0.002261 0.002106 0.034903
#
#
# Mechanical properties :
#
#
# Convention : Reuss Voigt Hill
#
# Bulk Modulus (GPa) = 16.78921 41.50307 29.14614
# Shear Modulus (GPa) = 26.76747 36.10063 31.43405
#
# Velocity S-wave (km/s) = 3.35558 3.89692 3.63634
# Velocity P-wave (km/s) = 4.69848 6.14057 5.46728
#
# Compressibility (1/GPa) = 0.05956207
#
# Stress axis : x y z
#
# Youngs Moduli (GPa) = 44.06139 79.18238 53.00208
#
# Poissons Ratio (x) = -0.11697 -0.04484
# Poissons Ratio (y) = -0.06509 -0.01918
# Poissons Ratio (z) = -0.03728 -0.02865
#
# Static dielectric constant tensor:
#      x y z
#    x 4.149000 -0.164050 0.254810 
#    y -0.164050 4.308080 0.176350 
#    z 0.254810 0.176350 4.922050 
# 
# 
# High freq. dielectric constant tensor:
#      x y z
#    x 1.927160 -0.006920 0.006610 
#    y -0.006920 1.952860 -0.005210 
#    z 0.006610 -0.005210 1.947310 
# 
# From -- ./inp_files/207655.got.cif
#   From: 2010.06.25/outbox.cif.g09.slc.cpg/sg2_104_cif.got.tgz:207655.got - 2010.06.27 13:26:56.
