data_PCOD8017246
_publ_section_title
;
Structure prediction by ZEFSAII (Michael W. Deem and Ramdas Pophale) SiO2 
 PCOD8017246
Probable space group: P -1
;
_chemical_formula_sum "Si O2"
_cell_formula_units_Z 14
_cell_length_a 11.860822
_cell_length_b 9.334255
_cell_length_c 10.044965
_cell_angle_alpha 72.314324
_cell_angle_beta 65.661256
_cell_angle_gamma 124.352308
_cell_volume 586.515088
_symmetry_space_group_name_H-M "P -1"
_symmetry_group_IT_number 2
_symmetry_cell_setting 'triclinic'
loop_
_space_group_symop_operation_xyz
x,y,z
-x,-y,-z
loop_
_atom_site_type_symbol
_atom_site_label
_atom_site_fract_x
_atom_site_fract_y
_atom_site_fract_z
Si Si1 0.261595 0.127690 0.793174
Si Si2 0.563156 0.731924 0.878968
Si Si3 0.883686 0.264612 0.209320
Si Si4 0.714351 0.514042 0.391821
Si Si5 0.534747 0.176204 0.337043
Si Si6 0.128553 0.852459 0.197253
Si Si7 0.253224 0.669968 0.067099
O O1 0.499772 0.317375 0.625114
O O2 0.210632 0.248906 0.751358
O O3 0.137503 0.911760 0.806723
O O4 0.182859 0.018911 0.007669
O O5 0.560604 0.771135 0.711436
O O6 0.786956 0.990457 0.753276
O O7 0.500000 0.500000 0.000000
O O8 0.398830 0.679902 0.052094
O O9 0.029155 0.381628 0.233695
O O10 0.655319 0.096131 0.420345
O O11 0.000000 0.500000 0.000000
O O12 0.699286 0.401924 0.296151
O O13 0.881631 0.600039 0.386128
O O14 0.649311 0.182357 0.167606
O O15 0.234424 0.791971 0.141188
#
# Coordination Sequence:
#
# PCOD8017246 Si02
#       7
#     2   2   2   2   2   2   2
#     4  10  22  38  63  99 130 166 219 280 331 378
#     4  10  24  45  67  92 135 179 218 274 330 390
#     4  11  21  41  67 100 129 174 215 272 337 391
#     4  10  22  39  66  96 129 166 227 276 324 391
#     4   9  23  42  65  98 133 168 223 273 322 398
#     4  12  22  41  66  94 131 177 214 269 332 393
#     4  10  24  40  62  97 132 172 219 269 327 391
#
# _framework density 23.869803000000001
#
# number of rings (size 3 to 8) (size 9 to 14) (size 15 to 20)
#    0.857    0.857    1.429    2.571    2.000    1.714 
#    2.571    1.429    0.000    0.000    0.000    0.000 
#    0.000    0.000    0.000    0.000    0.000    0.000 
#
# Total GULP energy -173539.506037 kJ/mol
# GULP energy per Si atom -12395.679003 kJ/mol
# Density = 2.381547 g / cm^3
# Si number density = 23.869803 Si / 1000 Ang^3
#
#
#
# Elastic Constant Matrix: (Units=GPa)
#
#
# Indices 1 2 3 4 5 6 
#
# 1 114.3663 58.6703 26.7299 -18.8720 -16.5211 -5.9151
# 2 58.6703 148.8650 16.7744 -34.2435 7.4760 6.6655
# 3 26.7299 16.7744 70.1854 -18.5083 -2.7204 -5.8242
# 4 -18.8720 -34.2435 -18.5083 33.3671 -1.9541 -3.1242
# 5 -16.5211 7.4760 -2.7204 -1.9541 27.0467 -12.7294
# 6 -5.9151 6.6655 -5.8242 -3.1242 -12.7294 50.3139
#
#
#
# Elastic Compliance Matrix: (Units=1/GPa)
#
#
# Indices 1 2 3 4 5 6 
#
# 1 0.015123 -0.006109 -0.002735 0.002106 0.013546 0.005829
# 2 -0.006109 0.011415 0.001128 0.008087 -0.007879 -0.003591
# 3 -0.002735 0.001128 0.017924 0.009908 0.001794 0.002673
# 4 0.002106 0.008087 0.009908 0.045704 0.005491 0.004550
# 5 0.013546 -0.007879 0.001794 0.005491 0.056193 0.017402
# 6 0.005829 -0.003591 0.002673 0.004550 0.017402 0.026031
#
#
# Mechanical properties :
#
#
# Convention : Reuss Voigt Hill
#
# Bulk Modulus (GPa) = 34.44841 59.75178 47.10009
# Shear Modulus (GPa) = 25.31658 37.56167 31.43912
#
# Velocity S-wave (km/s) = 3.26024 3.97117 3.63314
# Velocity P-wave (km/s) = 5.35120 6.79071 6.11347
#
# Compressibility (1/GPa) = 0.02902892
#
# Stress axis : x y z
#
# Youngs Moduli (GPa) = 66.12522 87.60512 55.78992
#
# Poissons Ratio (x) = 0.53516 0.15261
# Poissons Ratio (y) = 0.40395 -0.06291
# Poissons Ratio (z) = 0.18088 -0.09879
#
# Static dielectric constant tensor:
#      x y z
#    x 4.577720 0.217490 -0.349450 
#    y 0.217490 4.254400 -0.288530 
#    z -0.349450 -0.288530 4.264050 
# 
# 
# High freq. dielectric constant tensor:
#      x y z
#    x 1.960000 0.000770 -0.018050 
#    y 0.000770 1.943370 -0.024460 
#    z -0.018050 -0.024460 1.934850 
# 
# From -- ./inp_files/449979.got.cif
#   From: 2010.06.25/outbox.cif.g09.slc.cpg/sg2_225_cif.got.tgz:449979.got - 2010.06.27 13:26:56.
