data_PCOD8017470
_publ_section_title
;
Structure prediction by ZEFSAII (Michael W. Deem and Ramdas Pophale) SiO2 
 PCOD8017470
Probable space group: P -1
;
_chemical_formula_sum "Si O2"
_cell_formula_units_Z 16
_cell_length_a 12.139752
_cell_length_b 24.599622
_cell_length_c 6.109872
_cell_angle_alpha 119.409667
_cell_angle_beta 68.541064
_cell_angle_gamma 152.331715
_cell_volume 727.238424
_symmetry_space_group_name_H-M "P -1"
_symmetry_group_IT_number 2
_symmetry_cell_setting 'triclinic'
loop_
_space_group_symop_operation_xyz
x,y,z
-x,-y,-z
loop_
_atom_site_type_symbol
_atom_site_label
_atom_site_fract_x
_atom_site_fract_y
_atom_site_fract_z
Si Si1 0.647645 0.334345 0.520246
Si Si2 0.497116 0.072412 0.629230
Si Si3 0.590669 0.707051 0.768217
Si Si4 0.047205 0.719485 0.028725
Si Si5 0.817494 0.513468 0.052828
Si Si6 0.841451 0.870080 0.289848
Si Si7 0.975910 0.828827 0.426060
Si Si8 0.802031 0.279348 0.470623
O O1 0.593423 0.333155 0.311276
O O2 0.413246 0.232657 0.629910
O O3 0.720490 0.295286 0.389721
O O4 0.841307 0.467711 0.768321
O O5 0.685462 0.181459 0.892553
O O6 0.584863 0.141229 0.468353
O O7 0.500000 0.000000 0.500000
O O8 0.216112 0.962347 0.647171
O O9 0.434687 0.599752 0.854264
O O10 0.735261 0.725438 0.543589
O O11 0.798287 0.843527 0.007511
O O12 0.836620 0.586651 0.048393
O O13 0.003595 0.771568 0.207930
O O14 0.038637 0.698251 0.735478
O O15 0.040141 0.611618 0.250318
O O16 0.954458 0.858972 0.281158
O O17 0.000000 0.000000 0.500000
#
# Coordination Sequence:
#
# PCOD8017470 Si02
#       8
#     2   2   2   2   2   2   2   2
#     4  10  22  39  60  91 122 159 206 249 304 362
#     4   9  21  39  59  89 123 155 198 244 298 366
#     4  10  23  41  62  87 124 164 198 253 304 348
#     4  10  23  39  62  94 121 160 207 246 304 366
#     4  10  22  41  60  89 124 158 207 251 302 366
#     4  10  22  39  61  90 121 158 204 249 299 362
#     4  10  22  40  61  90 124 159 204 248 299 369
#     4  11  22  38  65  91 123 161 196 257 310 350
#
# _framework density 22.001038000000001
#
# number of rings (size 3 to 8) (size 9 to 14) (size 15 to 20)
#    0.000    2.000    0.000    1.875    0.000   16.500 
#    0.000    8.750    0.000    0.000    0.000    0.000 
#    0.000    0.000    0.000    0.000    0.000    0.000 
#
# Total GULP energy -198266.674961 kJ/mol
# GULP energy per Si atom -12391.667185 kJ/mol
# Density = 2.195096 g / cm^3
# Si number density = 22.001038 Si / 1000 Ang^3
#
#
#
# Elastic Constant Matrix: (Units=GPa)
#
#
# Indices 1 2 3 4 5 6 
#
# 1 100.1034 51.8719 48.4676 6.9773 -8.1309 -17.1611
# 2 51.8719 94.7136 24.6951 10.3629 -0.3904 -21.2474
# 3 48.4676 24.6951 97.8462 17.6858 5.7477 -27.0727
# 4 6.9773 10.3629 17.6858 27.8852 -1.6283 1.0109
# 5 -8.1309 -0.3904 5.7477 -1.6283 29.6483 5.7476
# 6 -17.1611 -21.2474 -27.0727 1.0109 5.7476 25.0547
#
#
#
# Elastic Compliance Matrix: (Units=1/GPa)
#
#
# Indices 1 2 3 4 5 6 
#
# 1 0.020194 -0.011372 -0.012643 0.008259 0.010668 -0.012254
# 2 -0.011372 0.020726 0.009504 -0.012282 -0.009782 0.022796
# 3 -0.012643 0.009504 0.028417 -0.020629 -0.016726 0.034775
# 4 0.008259 -0.012282 -0.020629 0.053529 0.015389 -0.032740
# 5 0.010668 -0.009782 -0.016726 0.015389 0.046497 -0.030348
# 6 -0.012254 0.022796 0.034775 -0.032740 -0.030348 0.096711
#
#
# Mechanical properties :
#
#
# Convention : Reuss Voigt Hill
#
# Bulk Modulus (GPa) = 24.80416 60.30362 42.55389
# Shear Modulus (GPa) = 16.20578 27.69286 21.94932
#
# Velocity S-wave (km/s) = 2.71697 3.55167 3.16199
# Velocity P-wave (km/s) = 4.59795 6.65493 5.71967
#
# Compressibility (1/GPa) = 0.04031581
#
# Stress axis : x y z
#
# Youngs Moduli (GPa) = 49.52013 48.24966 35.19025
#
# Poissons Ratio (x) = 0.54868 0.44490
# Poissons Ratio (y) = 0.56313 -0.33445
# Poissons Ratio (z) = 0.62607 -0.45857
#
# Static dielectric constant tensor:
#      x y z
#    x 4.255460 0.117230 0.684240 
#    y 0.117230 4.195340 0.240470 
#    z 0.684240 0.240470 4.289740 
# 
# 
# High freq. dielectric constant tensor:
#      x y z
#    x 1.855230 -0.005960 0.009520 
#    y -0.005960 1.874280 0.010090 
#    z 0.009520 0.010090 1.866180 
# 
# From -- ./inp_files/69717.got.cif
#   From: 2010.06.25/outbox.cif.g09.slc.cpg/sg2_35_cif.got.tgz:69717.got - 2010.06.27 13:26:56.
