data_PCOD8017319
_publ_section_title
;
Structure prediction by ZEFSAII (Michael W. Deem and Ramdas Pophale) SiO2 
 PCOD8017319
Probable space group: P -1
;
_chemical_formula_sum "Si O2"
_cell_formula_units_Z 16
_cell_length_a 7.764395
_cell_length_b 11.251213
_cell_length_c 9.605697
_cell_angle_alpha 119.589618
_cell_angle_beta 77.619360
_cell_angle_gamma 99.202700
_cell_volume 711.291002
_symmetry_space_group_name_H-M "P -1"
_symmetry_group_IT_number 2
_symmetry_cell_setting 'triclinic'
loop_
_space_group_symop_operation_xyz
x,y,z
-x,-y,-z
loop_
_atom_site_type_symbol
_atom_site_label
_atom_site_fract_x
_atom_site_fract_y
_atom_site_fract_z
Si Si1 0.393914 0.682761 0.231103
Si Si2 0.855170 0.911183 0.565144
Si Si3 0.703233 0.003646 0.919014
Si Si4 0.177287 0.802152 0.559854
Si Si5 0.430202 0.574864 0.875131
Si Si6 0.173168 0.712682 0.812426
Si Si7 0.793432 0.755866 0.939901
Si Si8 0.691638 0.887189 0.304101
O O1 0.229128 0.700943 0.369417
O O2 0.534438 0.584876 0.220038
O O3 0.489662 0.833929 0.278614
O O4 0.328870 0.617287 0.057989
O O5 0.733286 0.837070 0.425416
O O6 0.966655 0.811960 0.583961
O O7 0.731207 0.990838 0.739404
O O8 0.000000 0.000000 0.500000
O O9 0.801305 0.884831 0.909842
O O10 0.796674 0.147454 0.027335
O O11 0.500000 0.000000 0.000000
O O12 0.225155 0.731532 0.653994
O O13 0.286247 0.949403 0.620778
O O14 0.300283 0.600254 0.784146
O O15 0.617590 0.661711 0.883861
O O16 0.964539 0.667748 0.835271
O O17 0.809363 0.812971 0.127699
#
# Coordination Sequence:
#
# PCOD8017319 Si02
#       8
#     2   2   2   2   2   2   2   2
#     4  10  24  45  63  90 130 167 220 268 321 394
#     4  10  23  38  58 101 136 166 211 268 337 393
#     4  12  23  38  65  98 140 173 210 273 331 398
#     4  11  22  38  64  97 127 162 210 275 328 383
#     4  10  25  46  64  93 127 174 221 266 319 396
#     4  12  23  39  67  95 131 170 211 269 334 384
#     4  11  22  42  64 100 129 167 219 265 327 397
#     4  10  22  38  66  94 129 165 212 270 331 386
#
# _framework density 22.494308
#
# number of rings (size 3 to 8) (size 9 to 14) (size 15 to 20)
#    0.000    1.250    3.750    2.250    7.000    0.500 
#    2.250    2.500    0.000    0.000    0.000    0.000 
#    0.000    0.000    0.000    0.000    0.000    0.000 
#
# Total GULP energy -198337.127435 kJ/mol
# GULP energy per Si atom -12396.070465 kJ/mol
# Density = 2.244311 g / cm^3
# Si number density = 22.494308 Si / 1000 Ang^3
#
#
#
# Elastic Constant Matrix: (Units=GPa)
#
#
# Indices 1 2 3 4 5 6 
#
# 1 88.6898 17.9377 37.5379 -10.6222 -17.7147 -20.0679
# 2 17.9377 58.2012 16.2678 -19.8499 -1.8139 -17.8343
# 3 37.5379 16.2678 110.3113 -24.1112 -20.2206 3.9563
# 4 -10.6222 -19.8499 -24.1112 30.8988 -2.1986 7.3839
# 5 -17.7147 -1.8139 -20.2206 -2.1986 32.6790 -8.6622
# 6 -20.0679 -17.8343 3.9563 7.3839 -8.6622 28.1592
#
#
#
# Elastic Compliance Matrix: (Units=1/GPa)
#
#
# Indices 1 2 3 4 5 6 
#
# 1 0.020642 0.002016 -0.005635 -0.000050 0.013352 0.020900
# 2 0.002016 0.027089 -0.000910 0.013756 0.007584 0.017447
# 3 -0.005635 -0.000910 0.014707 0.011239 0.004578 -0.008197
# 4 -0.000050 0.013756 0.011239 0.051458 0.010297 -0.003228
# 5 0.013352 0.007584 0.004578 0.010297 0.048662 0.025944
# 6 0.020900 0.017447 -0.008197 -0.003228 0.025944 0.071435
#
#
# Mechanical properties :
#
#
# Convention : Reuss Voigt Hill
#
# Bulk Modulus (GPa) = 18.73331 44.52101 31.62716
# Shear Modulus (GPa) = 19.16866 30.71134 24.94000
#
# Velocity S-wave (km/s) = 2.92234 3.69900 3.33336
# Velocity P-wave (km/s) = 4.44217 6.17078 5.37640
#
# Compressibility (1/GPa) = 0.05338086
#
# Stress axis : x y z
#
# Youngs Moduli (GPa) = 48.44462 36.91586 67.99652
#
# Poissons Ratio (x) = -0.07443 0.38314
# Poissons Ratio (y) = -0.09768 0.06187
# Poissons Ratio (z) = 0.27297 0.03359
#
# Static dielectric constant tensor:
#      x y z
#    x 4.215800 -0.213900 0.108540 
#    y -0.213900 3.993340 -0.288570 
#    z 0.108540 -0.288570 4.269470 
# 
# 
# High freq. dielectric constant tensor:
#      x y z
#    x 1.881760 -0.009110 -0.005950 
#    y -0.009110 1.866830 -0.020500 
#    z -0.005950 -0.020500 1.893550 
# 
# From -- ./inp_files/182363.got.cif
#   From: 2010.06.25/outbox.cif.g09.slc.cpg/sg2_92_cif.got.tgz:182363.got - 2010.06.27 13:26:56.
