data_PCOD8017424
_publ_section_title
;
Structure prediction by ZEFSAII (Michael W. Deem and Ramdas Pophale) SiO2 
 PCOD8017424
Probable space group: P -1
;
_chemical_formula_sum "Si O2"
_cell_formula_units_Z 16
_cell_length_a 15.182939
_cell_length_b 26.347342
_cell_length_c 14.335399
_cell_angle_alpha 162.829338
_cell_angle_beta 142.587190
_cell_angle_gamma 28.609561
_cell_volume 769.448108
_symmetry_space_group_name_H-M "P -1"
_symmetry_group_IT_number 2
_symmetry_cell_setting 'triclinic'
loop_
_space_group_symop_operation_xyz
x,y,z
-x,-y,-z
loop_
_atom_site_type_symbol
_atom_site_label
_atom_site_fract_x
_atom_site_fract_y
_atom_site_fract_z
Si Si1 0.670844 0.548486 0.550908
Si Si2 0.696400 0.081963 0.606287
Si Si3 0.217166 0.843557 0.373190
Si Si4 0.565829 0.532038 0.243575
Si Si5 0.468752 0.422214 0.243745
Si Si6 0.536967 0.066508 0.801384
Si Si7 0.040739 0.353811 0.632491
Si Si8 0.959537 0.278172 0.627967
O O1 0.648192 0.598701 0.508522
O O2 0.632007 0.373073 0.226482
O O3 0.880124 0.441557 0.573580
O O4 0.504568 0.783588 0.879919
O O5 0.599438 0.991786 0.411408
O O6 0.891144 0.970788 0.634709
O O7 0.761034 0.014133 0.431942
O O8 0.543860 0.360004 0.971314
O O9 0.359050 0.763006 0.438973
O O10 0.282414 0.613982 0.971705
O O11 0.000000 0.000000 0.500000
O O12 0.500000 0.500000 0.500000
O O13 0.258293 0.620642 0.369937
O O14 0.490176 0.202758 0.903191
O O15 0.758334 0.835387 0.583006
O O16 0.012891 0.249887 0.514136
O O17 0.017560 0.564078 0.018389
#
# Coordination Sequence:
#
# PCOD8017424 Si02
#       8
#     2   2   2   2   2   2   2   2
#     4  11  23  44  57  97 133 167 207 267 305 373
#     4  10  22  40  66  97 119 165 218 256 312 380
#     4   9  21  43  67  98 120 155 210 265 322 382
#     4   9  23  41  67  92 127 154 206 268 317 370
#     4  10  22  39  58  89 137 168 210 259 301 358
#     4  11  23  40  60  90 132 174 206 256 309 370
#     4  11  24  38  61  87 139 169 217 250 307 368
#     4  11  21  39  60  93 124 177 213 259 300 376
#
# _framework density 20.794124
#
# number of rings (size 3 to 8) (size 9 to 14) (size 15 to 20)
#    0.750    1.000    3.750    0.750    5.250    4.500 
#    0.000    0.625    0.000    1.500    0.000    0.000 
#    0.000    0.000    0.000    0.000    0.000    0.000 
#
# Total GULP energy -198226.303211 kJ/mol
# GULP energy per Si atom -12389.143951 kJ/mol
# Density = 2.074680 g / cm^3
# Si number density = 20.794124 Si / 1000 Ang^3
#
#
#
# Elastic Constant Matrix: (Units=GPa)
#
#
# Indices 1 2 3 4 5 6 
#
# 1 55.6318 59.4643 24.8106 2.3516 -16.0200 -7.8156
# 2 59.4643 197.7537 35.3792 5.2859 -14.7271 6.2959
# 3 24.8106 35.3792 34.7354 10.1506 -10.7313 -1.4858
# 4 2.3516 5.2859 10.1506 30.3087 -3.4804 -5.3873
# 5 -16.0200 -14.7271 -10.7313 -3.4804 34.2982 -0.7595
# 6 -7.8156 6.2959 -1.4858 -5.3873 -0.7595 41.7732
#
#
#
# Elastic Compliance Matrix: (Units=1/GPa)
#
#
# Indices 1 2 3 4 5 6 
#
# 1 0.038307 -0.008076 -0.017814 0.007096 0.009767 0.008843
# 2 -0.008076 0.007984 -0.002745 -0.000514 -0.001319 -0.002902
# 3 -0.017814 -0.002745 0.049933 -0.014869 0.004549 -0.002978
# 4 0.007096 -0.000514 -0.014869 0.038856 0.002516 0.005933
# 5 0.009767 -0.001319 0.004549 0.002516 0.034900 0.003147
# 6 0.008843 -0.002902 -0.002978 0.005933 0.003147 0.026747
#
#
# Mechanical properties :
#
#
# Convention : Reuss Voigt Hill
#
# Bulk Modulus (GPa) = 25.67185 58.60325 42.13755
# Shear Modulus (GPa) = 18.72779 32.50713 25.61746
#
# Velocity S-wave (km/s) = 3.00430 3.95813 3.51373
# Velocity P-wave (km/s) = 4.94034 7.00948 6.06382
#
# Compressibility (1/GPa) = 0.03895317
#
# Stress axis : x y z
#
# Youngs Moduli (GPa) = 26.10476 125.24706 20.02688
#
# Poissons Ratio (x) = 1.01146 0.35677
# Poissons Ratio (y) = 0.21081 0.05498
# Poissons Ratio (z) = 0.46504 0.34386
#
# Static dielectric constant tensor:
#      x y z
#    x 4.054120 0.167700 0.018570 
#    y 0.167700 3.789740 0.061970 
#    z 0.018570 0.061970 3.711690 
# 
# 
# High freq. dielectric constant tensor:
#      x y z
#    x 1.797290 0.007570 -0.016800 
#    y 0.007570 1.822040 0.004400 
#    z -0.016800 0.004400 1.794650 
# 
# From -- ./inp_files/535688.got.cif
#   From: 2010.06.25/outbox.cif.g09.slc.cpg/sg2_268_cif.got.tgz:535688.got - 2010.06.27 13:26:56.
