data_PCOD8017773
_publ_section_title
;
Structure prediction by ZEFSAII (Michael W. Deem and Ramdas Pophale) SiO2 
 PCOD8017773
Probable space group: P -1
;
_chemical_formula_sum "Si O2"
_cell_formula_units_Z 14
_cell_length_a 5.167271
_cell_length_b 10.697796
_cell_length_c 12.198325
_cell_angle_alpha 94.165901
_cell_angle_beta 113.224658
_cell_angle_gamma 92.897119
_cell_volume 615.713953
_symmetry_space_group_name_H-M "P -1"
_symmetry_group_IT_number 2
_symmetry_cell_setting 'triclinic'
loop_
_space_group_symop_operation_xyz
x,y,z
-x,-y,-z
loop_
_atom_site_type_symbol
_atom_site_label
_atom_site_fract_x
_atom_site_fract_y
_atom_site_fract_z
Si Si1 0.457367 0.800264 0.244997
Si Si2 0.905557 0.356152 0.996705
Si Si3 0.326766 0.018246 0.364072
Si Si4 0.266423 0.342525 0.530410
Si Si5 0.709972 0.052951 0.244421
Si Si6 0.369623 0.633440 0.609607
Si Si7 0.510059 0.277877 0.122704
O O1 0.248573 0.880434 0.286918
O O2 0.668795 0.740460 0.359418
O O3 0.635428 0.903224 0.202378
O O4 0.289884 0.693850 0.139378
O O5 0.719742 0.351463 0.075922
O O6 0.179073 0.275980 0.037112
O O7 0.000000 0.500000 0.000000
O O8 0.500000 0.000000 0.500000
O O9 0.535880 0.102350 0.322667
O O10 0.038080 0.083808 0.333328
O O11 0.370691 0.485075 0.583074
O O12 0.419813 0.298228 0.442130
O O13 0.935303 0.318877 0.455091
O O14 0.611501 0.135731 0.131763
O O15 0.463688 0.656037 0.751272
#
# Coordination Sequence:
#
# PCOD8017773 Si02
#       7
#     2   2   2   2   2   2   2
#     4  10  27  41  72  97 142 176 231 275 343 402
#     4  12  28  48  71  98 131 187 232 281 333 401
#     4  10  23  41  65 102 140 179 221 271 336 414
#     4  10  22  39  65  94 133 170 218 281 335 401
#     4  10  25  41  66 103 131 176 224 272 347 395
#     4  10  23  40  63  98 128 175 220 273 344 387
#     4  12  26  45  71  95 140 174 229 285 330 411
#
# _framework density 22.737831
#
# number of rings (size 3 to 8) (size 9 to 14) (size 15 to 20)
#    0.857    0.571    0.000    3.429    8.000    3.429 
#    0.000    0.000    0.000    0.000    0.000    0.000 
#    0.000    0.000    0.000    0.000    0.000    0.000 
#
# Total GULP energy -173541.289604 kJ/mol
# GULP energy per Si atom -12395.806400 kJ/mol
# Density = 2.268608 g / cm^3
# Si number density = 22.737831 Si / 1000 Ang^3
#
#
#
# Elastic Constant Matrix: (Units=GPa)
#
#
# Indices 1 2 3 4 5 6 
#
# 1 142.2643 50.9232 32.9555 -7.6699 -7.9695 0.6161
# 2 50.9232 61.5231 41.0445 -15.2874 -2.3236 -0.4570
# 3 32.9555 41.0445 101.4546 -4.4741 -16.1804 2.7564
# 4 -7.6699 -15.2874 -4.4741 34.7385 -5.9477 3.7986
# 5 -7.9695 -2.3236 -16.1804 -5.9477 30.4035 -8.5668
# 6 0.6161 -0.4570 2.7564 3.7986 -8.5668 34.4053
#
#
#
# Elastic Compliance Matrix: (Units=1/GPa)
#
#
# Indices 1 2 3 4 5 6 
#
# 1 0.010189 -0.009122 0.000655 -0.001348 0.002151 0.000328
# 2 -0.009122 0.033448 -0.010644 0.010792 -0.003562 -0.000618
# 3 0.000655 -0.010644 0.015026 -0.001430 0.007246 0.000605
# 4 -0.001348 0.010792 -0.001430 0.034278 0.005839 -0.002049
# 5 0.002151 -0.003562 0.007246 0.005839 0.040665 0.008814
# 6 0.000328 -0.000618 0.000605 -0.002049 0.008814 0.031424
#
#
# Mechanical properties :
#
#
# Convention : Reuss Voigt Hill
#
# Bulk Modulus (GPa) = 48.91955 61.67648 55.29801
# Shear Modulus (GPa) = 23.80226 31.93072 27.86649
#
# Velocity S-wave (km/s) = 3.23896 3.75146 3.50459
# Velocity P-wave (km/s) = 5.96231 6.77854 6.38348
#
# Compressibility (1/GPa) = 0.02044173
#
# Stress axis : x y z
#
# Youngs Moduli (GPa) = 98.14542 29.89716 66.55138
#
# Poissons Ratio (x) = 0.27272 -0.04362
# Poissons Ratio (y) = 0.89528 0.70838
# Poissons Ratio (z) = -0.06433 0.31823
#
# Static dielectric constant tensor:
#      x y z
#    x 4.312350 -0.061150 -0.066320 
#    y -0.061150 4.204350 -0.103210 
#    z -0.066320 -0.103210 3.897470 
# 
# 
# High freq. dielectric constant tensor:
#      x y z
#    x 1.905260 -0.002840 0.000120 
#    y -0.002840 1.913770 -0.004860 
#    z 0.000120 -0.004860 1.890340 
# 
# From -- ./inp_files/364872.got.cif
#   From: 2010.06.25/outbox.cif.g09.slc.cpg/sg2_183_cif.got.tgz:364872.got - 2010.06.27 13:26:56.
