data_PCOD8017479
_publ_section_title
;
Structure prediction by ZEFSAII (Michael W. Deem and Ramdas Pophale) SiO2 
 PCOD8017479
Probable space group: P -1
;
_chemical_formula_sum "Si O2"
_cell_formula_units_Z 14
_cell_length_a 21.565913
_cell_length_b 9.045432
_cell_length_c 12.194723
_cell_angle_alpha 38.342242
_cell_angle_beta 29.906340
_cell_angle_gamma 56.177512
_cell_volume 674.833137
_symmetry_space_group_name_H-M "P -1"
_symmetry_group_IT_number 2
_symmetry_cell_setting 'triclinic'
loop_
_space_group_symop_operation_xyz
x,y,z
-x,-y,-z
loop_
_atom_site_type_symbol
_atom_site_label
_atom_site_fract_x
_atom_site_fract_y
_atom_site_fract_z
Si Si1 0.859054 0.289831 0.299611
Si Si2 0.778157 0.717728 0.224056
Si Si3 0.942069 0.944908 0.497299
Si Si4 0.347261 0.472141 0.240150
Si Si5 0.860241 0.020714 0.228560
Si Si6 0.647052 0.104141 0.163847
Si Si7 0.140070 0.588254 0.171796
O O1 0.756041 0.438426 0.364748
O O2 0.871922 0.188100 0.220433
O O3 0.830470 0.065181 0.567765
O O4 0.000000 0.500000 0.000000
O O5 0.739709 0.642715 0.451654
O O6 0.687362 0.857436 0.227584
O O7 0.932947 0.927806 0.853654
O O8 0.865178 0.639992 0.769785
O O9 0.000000 0.000000 0.500000
O O10 0.264518 0.258393 0.399637
O O11 0.500000 0.500000 0.000000
O O12 0.348765 0.753035 0.041936
O O13 0.824285 0.154620 0.102448
O O14 0.000000 0.000000 0.000000
O O15 0.500000 0.000000 0.500000
O O16 0.742722 0.331193 0.964743
O O17 0.000000 0.500000 0.500000
#
# Coordination Sequence:
#
# PCOD8017479 Si02
#       7
#     2   2   2   2   2   2   2
#     4  10  22  39  60  93 133 167 211 268 333 387
#     4  11  23  43  63  96 134 173 219 268 334 386
#     4  11  23  39  64  98 133 172 215 275 337 391
#     4  12  24  44  70  95 131 178 223 272 328 393
#     4  12  23  40  66  97 131 169 221 276 327 392
#     4  12  24  42  69  98 132 172 226 274 325 393
#     4  12  21  38  64  98 125 166 222 273 324 387
#
# _framework density 20.745868000000002
#
# number of rings (size 3 to 8) (size 9 to 14) (size 15 to 20)
#    0.000    0.571    4.286    6.000    2.000    0.000 
#    0.000    0.714    0.000    2.571    0.000    0.000 
#    0.000    0.000    0.000    0.000    0.000    0.000 
#
# Total GULP energy -173472.695371 kJ/mol
# GULP energy per Si atom -12390.906812 kJ/mol
# Density = 2.069865 g / cm^3
# Si number density = 20.745868 Si / 1000 Ang^3
#
#
#
# Elastic Constant Matrix: (Units=GPa)
#
#
# Indices 1 2 3 4 5 6 
#
# 1 109.7012 59.8125 42.1569 -2.1367 14.9671 -14.7097
# 2 59.8125 168.3668 43.1090 -14.9737 -0.5533 -17.9963
# 3 42.1569 43.1090 108.8225 -2.0842 -1.4265 -6.3758
# 4 -2.1367 -14.9737 -2.0842 24.4295 -6.7889 8.1147
# 5 14.9671 -0.5533 -1.4265 -6.7889 48.5766 -10.9900
# 6 -14.7097 -17.9963 -6.3758 8.1147 -10.9900 50.2477
#
#
#
# Elastic Compliance Matrix: (Units=1/GPa)
#
#
# Indices 1 2 3 4 5 6 
#
# 1 0.013441 -0.003976 -0.003658 -0.003334 -0.004393 0.001624
# 2 -0.003976 0.008329 -0.001559 0.004805 0.002248 0.001337
# 3 -0.003658 -0.001559 0.011251 0.000056 0.001473 0.000111
# 4 -0.003334 0.004805 0.000056 0.047197 0.006444 -0.005460
# 5 -0.004393 0.002248 0.001473 0.006444 0.023784 0.003867
# 6 0.001624 0.001337 0.000111 -0.005460 0.003867 0.022598
#
#
# Mechanical properties :
#
#
# Convention : Reuss Voigt Hill
#
# Bulk Modulus (GPa) = 68.33249 75.22748 71.77998
# Shear Modulus (GPa) = 33.36347 40.77157 37.06752
#
# Velocity S-wave (km/s) = 4.01459 4.43796 4.23157
# Velocity P-wave (km/s) = 7.38232 7.91207 7.65178
#
# Compressibility (1/GPa) = 0.01463433
#
# Stress axis : x y z
#
# Youngs Moduli (GPa) = 74.39711 120.06785 88.87982
#
# Poissons Ratio (x) = 0.47734 0.32516
# Poissons Ratio (y) = 0.29578 0.13860
# Poissons Ratio (z) = 0.27218 0.18723
#
# Static dielectric constant tensor:
#      x y z
#    x 3.956090 -0.620300 0.337100 
#    y -0.620300 4.942940 -0.449540 
#    z 0.337100 -0.449540 3.788460 
# 
# 
# High freq. dielectric constant tensor:
#      x y z
#    x 1.816620 -0.015400 0.020220 
#    y -0.015400 1.822260 -0.022760 
#    z 0.020220 -0.022760 1.796340 
# 
# From -- ./inp_files/255878.got.cif
#   From: 2010.06.25/outbox.cif.g09.slc.cpg/sg2_128_cif.got.tgz:255878.got - 2010.06.27 13:26:56.
