data_PCOD8017636
_publ_section_title
;
Structure prediction by ZEFSAII (Michael W. Deem and Ramdas Pophale) SiO2 
 PCOD8017636
Probable space group: P -1
;
_chemical_formula_sum "Si O2"
_cell_formula_units_Z 16
_cell_length_a 8.882944
_cell_length_b 13.723418
_cell_length_c 10.431488
_cell_angle_alpha 74.116210
_cell_angle_beta 109.520643
_cell_angle_gamma 49.152442
_cell_volume 655.894844
_symmetry_space_group_name_H-M "P -1"
_symmetry_group_IT_number 2
_symmetry_cell_setting 'triclinic'
loop_
_space_group_symop_operation_xyz
x,y,z
-x,-y,-z
loop_
_atom_site_type_symbol
_atom_site_label
_atom_site_fract_x
_atom_site_fract_y
_atom_site_fract_z
Si Si1 0.015361 0.841826 0.134723
Si Si2 0.111444 0.268868 0.281441
Si Si3 0.188425 0.276784 0.575835
Si Si4 0.379871 0.336002 0.019781
Si Si5 0.464109 0.743927 0.185751
Si Si6 0.279856 0.614001 0.512147
Si Si7 0.341828 0.120835 0.134653
Si Si8 0.319185 0.655471 0.787494
O O1 0.333478 0.711612 0.227822
O O2 0.026680 0.809567 0.301032
O O3 0.930030 0.789714 0.040986
O O4 0.794779 0.045574 0.981923
O O5 0.238544 0.260623 0.442990
O O6 0.331458 0.124875 0.285603
O O7 0.993059 0.223915 0.320907
O O8 0.894927 0.460195 0.081234
O O9 0.282674 0.335156 0.637009
O O10 0.864445 0.419090 0.474657
O O11 0.385678 0.084054 0.757139
O O12 0.361994 0.225231 0.055777
O O13 0.645182 0.242733 0.208997
O O14 0.408501 0.358791 0.874278
O O15 0.500000 0.500000 0.500000
O O16 0.400191 0.602401 0.679457
O O17 0.500000 0.500000 0.000000
#
# Coordination Sequence:
#
# PCOD8017636 Si02
#       8
#     2   2   2   2   2   2   2   2
#     4  10  23  41  65  93 129 172 224 260 335 380
#     4  10  22  39  63  93 128 172 219 265 327 391
#     4  10  23  44  63  93 131 175 216 268 331 383
#     4  11  22  37  64  92 130 167 220 265 327 382
#     4  10  22  42  65  93 129 177 214 271 321 402
#     4  11  24  40  67  98 129 167 218 273 318 385
#     4  11  22  41  67  92 133 172 219 270 322 395
#     4   9  22  42  62  91 133 173 210 261 336 383
#
# _framework density 24.394155000000001
#
# number of rings (size 3 to 8) (size 9 to 14) (size 15 to 20)
#    0.000    1.750    0.000    3.000    8.750    3.500 
#    4.500    6.875    0.000    0.000    0.000    0.000 
#    0.000    0.000    0.000    0.000    0.000    0.000 
#
# Total GULP energy -198308.711338 kJ/mol
# GULP energy per Si atom -12394.294459 kJ/mol
# Density = 2.433863 g / cm^3
# Si number density = 24.394155 Si / 1000 Ang^3
#
#
#
# Elastic Constant Matrix: (Units=GPa)
#
#
# Indices 1 2 3 4 5 6 
#
# 1 146.9283 48.5587 58.9315 16.0766 11.0405 18.1121
# 2 48.5587 70.2557 23.2512 25.3532 7.7496 3.5427
# 3 58.9315 23.2512 135.5042 52.4196 5.1936 4.0724
# 4 16.0766 25.3532 52.4196 41.0720 1.4981 0.3769
# 5 11.0405 7.7496 5.1936 1.4981 48.7774 4.6515
# 6 18.1121 3.5427 4.0724 0.3769 4.6515 47.1308
#
#
#
# Elastic Compliance Matrix: (Units=1/GPa)
#
#
# Indices 1 2 3 4 5 6 
#
# 1 0.012545 -0.009975 -0.008149 0.011695 -0.000420 -0.003419
# 2 -0.009975 0.027125 0.009227 -0.024540 -0.002417 0.001432
# 3 -0.008149 0.009227 0.020361 -0.028464 -0.001011 0.001006
# 4 0.011695 -0.024540 -0.028464 0.071176 0.002190 -0.000975
# 5 -0.000420 -0.002417 -0.001011 0.002190 0.021181 -0.001677
# 6 -0.003419 0.001432 0.001006 -0.000975 -0.001677 0.022510
#
#
# Mechanical properties :
#
#
# Convention : Reuss Voigt Hill
#
# Bulk Modulus (GPa) = 23.67704 68.24121 45.95913
# Shear Modulus (GPa) = 24.18138 42.19249 33.18693
#
# Velocity S-wave (km/s) = 3.15187 4.16338 3.69242
# Velocity P-wave (km/s) = 4.79300 7.15169 6.08767
#
# Compressibility (1/GPa) = 0.04223500
#
# Stress axis : x y z
#
# Youngs Moduli (GPa) = 79.71432 36.86649 49.11437
#
# Poissons Ratio (x) = 0.36775 0.40026
# Poissons Ratio (y) = 0.79516 -0.45317
# Poissons Ratio (z) = 0.64963 -0.34016
#
# Static dielectric constant tensor:
#      x y z
#    x 4.712910 0.016870 0.080770 
#    y 0.016870 4.241590 -0.045160 
#    z 0.080770 -0.045160 5.012320 
# 
# 
# High freq. dielectric constant tensor:
#      x y z
#    x 1.973930 0.002310 0.001930 
#    y 0.002310 1.968690 -0.001860 
#    z 0.001930 -0.001860 1.984130 
# 
# From -- ./inp_files/207009.got.cif
#   From: 2010.06.25/outbox.cif.g09.slc.cpg/sg2_104_cif.got.tgz:207009.got - 2010.06.27 13:26:56.
