data_PCOD8017958
_publ_section_title
;
Structure prediction by ZEFSAII (Michael W. Deem and Ramdas Pophale) SiO2 
 PCOD8017958
Probable space group: P -1
;
_chemical_formula_sum "Si O2"
_cell_formula_units_Z 16
_cell_length_a 17.300824
_cell_length_b 15.192021
_cell_length_c 11.885243
_cell_angle_alpha 122.743661
_cell_angle_beta 145.975898
_cell_angle_gamma 32.109216
_cell_volume 780.892324
_symmetry_space_group_name_H-M "P -1"
_symmetry_group_IT_number 2
_symmetry_cell_setting 'triclinic'
loop_
_space_group_symop_operation_xyz
x,y,z
-x,-y,-z
loop_
_atom_site_type_symbol
_atom_site_label
_atom_site_fract_x
_atom_site_fract_y
_atom_site_fract_z
Si Si1 0.287583 0.351409 0.757105
Si Si2 0.866122 0.620220 0.034217
Si Si3 0.718590 0.229244 0.793960
Si Si4 0.725974 0.558913 0.432386
Si Si5 0.523056 0.581942 0.830604
Si Si6 0.954540 0.188849 0.451065
Si Si7 0.624702 0.978271 0.028774
Si Si8 0.627755 0.208673 0.425113
O O1 0.395556 0.313225 0.738044
O O2 0.000000 0.500000 0.500000
O O3 0.419977 0.160759 0.826168
O O4 0.305973 0.432874 0.925992
O O5 0.777652 0.793641 0.015016
O O6 0.620461 0.707404 0.830870
O O7 0.000000 0.500000 0.000000
O O8 0.064476 0.498215 0.295219
O O9 0.510615 0.307141 0.676450
O O10 0.707873 0.361147 0.892477
O O11 0.627477 0.267170 0.583469
O O12 0.000000 0.000000 0.000000
O O13 0.867329 0.360678 0.426437
O O14 0.290201 0.716151 0.731135
O O15 0.395740 0.689623 0.630785
O O16 0.097915 0.031696 0.416276
O O17 0.177630 0.055982 0.722956
O O18 0.500000 0.000000 0.000000
#
# Coordination Sequence:
#
# PCOD8017958 Si02
#       8
#     2   2   2   2   2   2   2   2
#     4  12  25  41  69  99 132 164 222 280 324 383
#     4  11  22  43  67  93 131 174 220 261 326 387
#     4  11  27  43  63  94 138 177 209 261 337 403
#     4  10  24  43  63  99 131 170 217 270 328 381
#     4  11  25  44  65  99 128 172 222 277 323 379
#     4  10  22  39  70  94 128 166 226 271 319 382
#     4  11  21  41  67  98 124 171 220 265 319 382
#     4  12  22  42  71  95 126 175 221 268 322 394
#
# _framework density 20.489379
#
# number of rings (size 3 to 8) (size 9 to 14) (size 15 to 20)
#    0.000    1.000    3.750    3.000    3.500    1.000 
#    2.250    0.625    0.000    0.000    0.000    0.000 
#    0.000    0.000    0.000    0.000    0.000    0.000 
#
# Total GULP energy -198392.859791 kJ/mol
# GULP energy per Si atom -12399.553737 kJ/mol
# Density = 2.044274 g / cm^3
# Si number density = 20.489379 Si / 1000 Ang^3
#
#
#
# Elastic Constant Matrix: (Units=GPa)
#
#
# Indices 1 2 3 4 5 6 
#
# 1 113.4734 53.5642 35.4832 -2.7539 -18.7614 -1.8752
# 2 53.5642 128.6485 43.5886 -7.8606 -9.6003 -13.0772
# 3 35.4832 43.5886 102.5926 -1.6492 -5.3578 4.5130
# 4 -2.7539 -7.8606 -1.6492 36.9107 0.0906 -3.3824
# 5 -18.7614 -9.6003 -5.3578 0.0906 39.7451 -5.7076
# 6 -1.8752 -13.0772 4.5130 -3.3824 -5.7076 29.5865
#
#
#
# Elastic Compliance Matrix: (Units=1/GPa)
#
#
# Indices 1 2 3 4 5 6 
#
# 1 0.012128 -0.003904 -0.002312 -0.000017 0.004508 0.000264
# 2 -0.003904 0.011503 -0.003691 0.002535 0.001285 0.005938
# 3 -0.002312 -0.003691 0.012228 -0.000768 -0.000893 -0.003903
# 4 -0.000017 0.002535 -0.000768 0.028020 0.001105 0.004653
# 5 0.004508 0.001285 -0.000893 0.001105 0.028424 0.006600
# 6 0.000264 0.005938 -0.003903 0.004653 0.006600 0.038841
#
#
# Mechanical properties :
#
#
# Convention : Reuss Voigt Hill
#
# Bulk Modulus (GPa) = 62.32358 67.77627 65.04992
# Shear Modulus (GPa) = 31.98864 35.38705 33.68784
#
# Velocity S-wave (km/s) = 3.95553 4.16034 4.05922
# Velocity P-wave (km/s) = 7.16555 7.49856 7.33395
#
# Compressibility (1/GPa) = 0.01604529
#
# Stress axis : x y z
#
# Youngs Moduli (GPa) = 82.45511 86.93157 81.78115
#
# Poissons Ratio (x) = 0.33937 0.18911
# Poissons Ratio (y) = 0.32189 0.30182
# Poissons Ratio (z) = 0.19067 0.32082
#
# Static dielectric constant tensor:
#      x y z
#    x 1.960250 -1.179930 0.761250 
#    y -1.179930 3.246440 0.469450 
#    z 0.761250 0.469450 3.519390 
# 
# 
# High freq. dielectric constant tensor:
#      x y z
#    x 1.801050 -0.002150 0.005490 
#    y -0.002150 1.807590 0.000980 
#    z 0.005490 0.000980 1.808460 
# 
# From -- ./inp_files/226671.got.cif
#   From: 2010.06.25/outbox.cif.g09.slc.cpg/sg2_114_cif.got.tgz:226671.got - 2010.06.27 13:26:56.
