data_PCOD8017881
_publ_section_title
;
Structure prediction by ZEFSAII (Michael W. Deem and Ramdas Pophale) SiO2 
 PCOD8017881
Probable space group: P -1
;
_chemical_formula_sum "Si O2"
_cell_formula_units_Z 10
_cell_length_a 12.455750
_cell_length_b 10.564516
_cell_length_c 6.675775
_cell_angle_alpha 66.508920
_cell_angle_beta 63.874554
_cell_angle_gamma 34.412854
_cell_volume 444.658047
_symmetry_space_group_name_H-M "P -1"
_symmetry_group_IT_number 2
_symmetry_cell_setting 'triclinic'
loop_
_space_group_symop_operation_xyz
x,y,z
-x,-y,-z
loop_
_atom_site_type_symbol
_atom_site_label
_atom_site_fract_x
_atom_site_fract_y
_atom_site_fract_z
Si Si1 0.187477 0.744078 0.114500
Si Si2 0.726961 0.806468 0.406329
Si Si3 0.501723 0.558031 0.243651
Si Si4 0.814871 0.962373 0.921190
Si Si5 0.002995 0.684292 0.551965
O O1 0.381295 0.555987 0.213129
O O2 0.097944 0.983614 0.056582
O O3 0.035591 0.770933 0.301654
O O4 0.273358 0.633070 0.892718
O O5 0.809406 0.583817 0.409867
O O6 0.819676 0.763373 0.571782
O O7 0.500000 0.000000 0.500000
O O8 0.779221 0.867381 0.153528
O O9 0.500000 0.500000 0.500000
O O10 0.388919 0.807585 0.161267
O O11 0.964827 0.785653 0.735417
#
# Coordination Sequence:
#
# PCOD8017881 Si02
#       5
#     2   2   2   2   2
#     4   9  21  39  64  98 129 162 216 266 322 382
#     4  11  26  44  65  91 135 175 216 264 317 387
#     4   9  20  36  63  99 132 166 205 265 326 378
#     4  10  22  39  67  96 127 170 215 267 321 382
#     4  11  24  43  68  96 130 172 214 266 326 379
#
# _framework density 22.489194000000001
#
# number of rings (size 3 to 8) (size 9 to 14) (size 15 to 20)
#    1.200    0.800    0.000    2.400    2.800    3.200 
#    0.000    0.000    0.000    0.000    0.000    0.000 
#    0.000    0.000    0.000    0.000    0.000    0.000 
#
# Total GULP energy -123980.994749 kJ/mol
# GULP energy per Si atom -12398.099475 kJ/mol
# Density = 2.243801 g / cm^3
# Si number density = 22.489194 Si / 1000 Ang^3
#
#
#
# Elastic Constant Matrix: (Units=GPa)
#
#
# Indices 1 2 3 4 5 6 
#
# 1 63.7412 48.7727 29.4871 15.8638 -17.4304 15.9262
# 2 48.7727 175.1214 67.3735 13.8499 -9.9349 22.6202
# 3 29.4871 67.3735 154.9462 12.4995 -18.5856 23.5716
# 4 15.8638 13.8499 12.4995 50.9787 4.6415 -1.4807
# 5 -17.4304 -9.9349 -18.5856 4.6415 33.5269 0.6113
# 6 15.9262 22.6202 23.5716 -1.4807 0.6113 36.9474
#
#
#
# Elastic Compliance Matrix: (Units=1/GPa)
#
#
# Indices 1 2 3 4 5 6 
#
# 1 0.028344 -0.005390 0.001081 -0.009304 0.015213 -0.010233
# 2 -0.005390 0.008234 -0.002643 0.000227 -0.001840 -0.000992
# 3 0.001081 -0.002643 0.008928 -0.002414 0.005149 -0.004726
# 4 -0.009304 0.000227 -0.002414 0.024102 -0.009564 0.006536
# 5 0.015213 -0.001840 0.005149 -0.009564 0.041547 -0.009786
# 6 -0.010233 -0.000992 -0.004726 0.006536 -0.009786 0.035523
#
#
# Mechanical properties :
#
#
# Convention : Reuss Voigt Hill
#
# Bulk Modulus (GPa) = 31.64057 76.11948 53.88003
# Shear Modulus (GPa) = 29.21998 40.83562 35.02780
#
# Velocity S-wave (km/s) = 3.60848 4.26583 3.95085
# Velocity P-wave (km/s) = 5.60903 7.62782 6.69496
#
# Compressibility (1/GPa) = 0.03160499
#
# Stress axis : x y z
#
# Youngs Moduli (GPa) = 35.28038 121.44918 112.00115
#
# Poissons Ratio (x) = 0.65456 -0.12112
# Poissons Ratio (y) = 0.19015 0.29598
# Poissons Ratio (z) = -0.03815 0.32095
#
# Static dielectric constant tensor:
#      x y z
#    x 4.211650 -0.687940 -0.333100 
#    y -0.687940 6.007320 0.880550 
#    z -0.333100 0.880550 4.430510 
# 
# 
# High freq. dielectric constant tensor:
#      x y z
#    x 1.871990 -0.005980 0.003700 
#    y -0.005980 1.902490 -0.005420 
#    z 0.003700 -0.005420 1.895270 
# 
# From -- ./inp_files/79519.got.cif
#   From: 2010.06.25/outbox.cif.g09.slc.cpg/sg2_40_cif.got.tgz:79519.got - 2010.06.27 13:26:56.
