data_PCOD8017407
_publ_section_title
;
Structure prediction by ZEFSAII (Michael W. Deem and Ramdas Pophale) SiO2 
 PCOD8017407
Probable space group: P -1
;
_chemical_formula_sum "Si O2"
_cell_formula_units_Z 14
_cell_length_a 8.750394
_cell_length_b 9.115931
_cell_length_c 12.394208
_cell_angle_alpha 118.044206
_cell_angle_beta 116.883338
_cell_angle_gamma 51.283362
_cell_volume 662.639661
_symmetry_space_group_name_H-M "P -1"
_symmetry_group_IT_number 2
_symmetry_cell_setting 'triclinic'
loop_
_space_group_symop_operation_xyz
x,y,z
-x,-y,-z
loop_
_atom_site_type_symbol
_atom_site_label
_atom_site_fract_x
_atom_site_fract_y
_atom_site_fract_z
Si Si1 0.092324 0.543061 0.854893
Si Si2 0.463287 0.649225 0.447235
Si Si3 0.175820 0.108604 0.964898
Si Si4 0.964872 0.230456 0.728059
Si Si5 0.561362 0.804982 0.064828
Si Si6 0.673440 0.954028 0.355367
Si Si7 0.188198 0.429696 0.612261
O O1 0.984470 0.421087 0.803744
O O2 0.318990 0.420987 0.936419
O O3 0.109918 0.564710 0.740357
O O4 0.967824 0.757036 0.938493
O O5 0.500000 0.500000 0.500000
O O6 0.260851 0.712413 0.340484
O O7 0.646683 0.542040 0.385328
O O8 0.458968 0.833413 0.562566
O O9 0.318664 0.185894 0.997369
O O10 0.039026 0.112424 0.824237
O O11 0.328405 0.889259 0.985480
O O12 0.107512 0.089710 0.628801
O O13 0.559826 0.938591 0.209082
O O14 0.707640 0.797687 0.403185
O O15 0.000000 0.500000 0.500000
#
# Coordination Sequence:
#
# PCOD8017407 Si02
#       7
#     2   2   2   2   2   2   2
#     4   9  18  35  55  80 117 150 193 237 273 350
#     4  12  23  36  58  86 118 150 187 245 295 335
#     4   9  16  31  56  82 114 149 189 238 278 340
#     4   9  19  34  53  87 113 141 191 238 292 334
#     4   8  16  29  55  87 105 140 203 226 280 331
#     4   9  20  38  59  82 114 151 188 242 279 353
#     4  10  22  39  57  84 112 155 200 226 286 356
#
# _framework density 21.127623
#
# number of rings (size 3 to 8) (size 9 to 14) (size 15 to 20)
#    0.000    3.143    0.000    4.286    4.000    0.000 
#    2.571    0.714    0.000    3.429    0.000    0.000 
#    0.000    0.000    0.000    0.000    0.000    0.000 
#
# Total GULP energy -173523.945314 kJ/mol
# GULP energy per Si atom -12394.567522 kJ/mol
# Density = 2.107954 g / cm^3
# Si number density = 21.127623 Si / 1000 Ang^3
#
#
#
# Elastic Constant Matrix: (Units=GPa)
#
#
# Indices 1 2 3 4 5 6 
#
# 1 97.4933 33.4770 55.4434 -22.6377 -11.2939 -20.9109
# 2 33.4770 88.5144 49.7185 -23.4870 -9.8670 -19.0221
# 3 55.4434 49.7185 91.7307 -30.6845 -16.9147 -16.3590
# 4 -22.6377 -23.4870 -30.6845 41.5622 -7.8635 6.4363
# 5 -11.2939 -9.8670 -16.9147 -7.8635 32.9404 -6.8885
# 6 -20.9109 -19.0221 -16.3590 6.4363 -6.8885 32.0162
#
#
#
# Elastic Compliance Matrix: (Units=1/GPa)
#
#
# Indices 1 2 3 4 5 6 
#
# 1 0.017482 0.001065 -0.006949 0.004713 0.005706 0.008780
# 2 0.001065 0.018454 -0.005652 0.006688 0.006430 0.008811
# 3 -0.006949 -0.005652 0.026749 0.014571 0.014380 0.005936
# 4 0.004713 0.006688 0.014571 0.044009 0.023863 0.010784
# 5 0.005706 0.006430 0.014380 0.023863 0.051761 0.021234
# 6 0.008780 0.008811 0.005936 0.010784 0.021234 0.047638
#
#
# Mechanical properties :
#
#
# Convention : Reuss Voigt Hill
#
# Bulk Modulus (GPa) = 25.24367 61.66846 43.45607
# Shear Modulus (GPa) = 20.62968 30.57707 25.60338
#
# Velocity S-wave (km/s) = 3.12818 3.80841 3.48493
# Velocity P-wave (km/s) = 5.00215 6.97069 6.06680
#
# Compressibility (1/GPa) = 0.03961389
#
# Stress axis : x y z
#
# Youngs Moduli (GPa) = 57.20224 54.18737 37.38457
#
# Poissons Ratio (x) = -0.05771 0.25978
# Poissons Ratio (y) = -0.06092 0.21129
# Poissons Ratio (z) = 0.39749 0.30626
#
# Static dielectric constant tensor:
#      x y z
#    x 3.579280 -0.296910 -0.199110 
#    y -0.296910 3.803910 -0.313910 
#    z -0.199110 -0.313910 3.827240 
# 
# 
# High freq. dielectric constant tensor:
#      x y z
#    x 1.800610 -0.027950 -0.022330 
#    y -0.027950 1.819630 -0.024120 
#    z -0.022330 -0.024120 1.827960 
# 
# From -- ./inp_files/318938.got.cif
#   From: 2010.06.25/outbox.cif.g09.slc.cpg/sg2_160_cif.got.tgz:318938.got - 2010.06.27 13:26:56.
