data_PCOD8017751
_publ_section_title
;
Structure prediction by ZEFSAII (Michael W. Deem and Ramdas Pophale) SiO2 
 PCOD8017751
Probable space group: P -1
;
_chemical_formula_sum "Si O2"
_cell_formula_units_Z 16
_cell_length_a 14.227429
_cell_length_b 8.571008
_cell_length_c 12.558894
_cell_angle_alpha 146.254738
_cell_angle_beta 81.127271
_cell_angle_gamma 111.334410
_cell_volume 759.205623
_symmetry_space_group_name_H-M "P -1"
_symmetry_group_IT_number 2
_symmetry_cell_setting 'triclinic'
loop_
_space_group_symop_operation_xyz
x,y,z
-x,-y,-z
loop_
_atom_site_type_symbol
_atom_site_label
_atom_site_fract_x
_atom_site_fract_y
_atom_site_fract_z
Si Si1 0.267599 0.183007 0.750578
Si Si2 0.413573 0.246396 0.178447
Si Si3 0.535717 0.180258 0.925404
Si Si4 0.882496 0.164721 0.234979
Si Si5 0.923166 0.802810 0.310494
Si Si6 0.430547 0.910429 0.567266
Si Si7 0.179049 0.901751 0.019966
Si Si8 0.927347 0.803057 0.661140
O O1 0.181762 0.134330 0.644659
O O2 0.203928 0.085508 0.816159
O O3 0.326611 0.964070 0.592086
O O4 0.347087 0.546780 0.951539
O O5 0.402148 0.551772 0.392558
O O6 0.469282 0.135149 0.198772
O O7 0.472823 0.308274 0.089147
O O8 0.299591 0.962999 0.023050
O O9 0.486369 0.110701 0.776245
O O10 0.859661 0.021527 0.041115
O O11 0.871584 0.491084 0.423542
O O12 0.004147 0.251693 0.288136
O O13 0.892411 0.445809 0.130765
O O14 0.000000 0.000000 0.500000
O O15 0.991320 0.898389 0.246193
O O16 0.500000 0.000000 0.500000
O O17 0.166970 0.130683 0.238836
#
# Coordination Sequence:
#
# PCOD8017751 Si02
#       8
#     2   2   2   2   2   2   2   2
#     4  11  23  45  68  99 136 181 218 271 340 393
#     4  11  25  44  70  99 135 176 223 275 338 403
#     4  11  24  47  70  95 142 178 218 280 337 403
#     4  10  22  39  65  90 132 170 217 274 327 385
#     4  11  23  45  67  94 138 176 220 276 334 393
#     4  12  25  43  68 101 136 174 227 278 330 398
#     4  12  22  40  67  97 125 174 223 266 330 398
#     4  10  22  41  62  92 127 171 222 274 322 388
#
# _framework density 21.074659
#
# number of rings (size 3 to 8) (size 9 to 14) (size 15 to 20)
#    0.000    1.000    3.750    3.000    1.750    0.000 
#    4.500    0.000    0.000    0.000    0.000    0.000 
#    0.000    0.000    0.000    0.000    0.000    0.000 
#
# Total GULP energy -198394.714137 kJ/mol
# GULP energy per Si atom -12399.669634 kJ/mol
# Density = 2.102669 g / cm^3
# Si number density = 21.074659 Si / 1000 Ang^3
#
#
#
# Elastic Constant Matrix: (Units=GPa)
#
#
# Indices 1 2 3 4 5 6 
#
# 1 108.7643 34.3655 38.7908 -11.3900 1.1252 -2.5218
# 2 34.3655 96.9747 33.8779 2.6377 0.9332 6.2707
# 3 38.7908 33.8779 93.1516 2.8250 0.5366 -3.1538
# 4 -11.3900 2.6377 2.8250 36.1702 -2.1496 5.4807
# 5 1.1252 0.9332 0.5366 -2.1496 34.3903 4.0178
# 6 -2.5218 6.2707 -3.1538 5.4807 4.0178 35.2814
#
#
#
# Elastic Compliance Matrix: (Units=1/GPa)
#
#
# Indices 1 2 3 4 5 6 
#
# 1 0.012037 -0.002994 -0.004040 0.004266 -0.000026 0.000372
# 2 -0.002994 0.012781 -0.003453 -0.001207 0.000035 -0.002611
# 3 -0.004040 -0.003453 0.013816 -0.002421 -0.000372 0.001979
# 4 0.004266 -0.001207 -0.002421 0.030111 0.002355 -0.004643
# 5 -0.000026 0.000035 -0.000372 0.002355 0.029673 -0.003786
# 6 0.000372 -0.002611 0.001979 -0.004643 -0.003786 0.030163
#
#
# Mechanical properties :
#
#
# Convention : Reuss Voigt Hill
#
# Bulk Modulus (GPa) = 56.62973 56.99543 56.81258
# Shear Modulus (GPa) = 32.16620 33.95883 33.06251
#
# Velocity S-wave (km/s) = 3.91102 4.01853 3.96514
# Velocity P-wave (km/s) = 6.87926 6.97386 6.92672
#
# Compressibility (1/GPa) = 0.01765857
#
# Stress axis : x y z
#
# Youngs Moduli (GPa) = 83.07869 78.24309 72.37905
#
# Poissons Ratio (x) = 0.23425 0.29243
# Poissons Ratio (y) = 0.24873 0.24995
# Poissons Ratio (z) = 0.33566 0.27020
#
# Static dielectric constant tensor:
#      x y z
#    x 3.955780 -0.203670 -0.186270 
#    y -0.203670 4.373810 0.542010 
#    z -0.186270 0.542010 4.163300 
# 
# 
# High freq. dielectric constant tensor:
#      x y z
#    x 1.828420 0.001340 0.000090 
#    y 0.001340 1.843360 0.010980 
#    z 0.000090 0.010980 1.813240 
# 
# From -- ./inp_files/81065.got.cif
#   From: 2010.06.25/outbox.cif.g09.slc.cpg/sg2_41_cif.got.tgz:81065.got - 2010.06.27 13:26:56.
