data_PCOD8017853
_publ_section_title
;
Structure prediction by ZEFSAII (Michael W. Deem and Ramdas Pophale) SiO2 
 PCOD8017853
Probable space group: P -1
;
_chemical_formula_sum "Si O2"
_cell_formula_units_Z 16
_cell_length_a 12.963012
_cell_length_b 11.395470
_cell_length_c 12.937848
_cell_angle_alpha 147.832162
_cell_angle_beta 43.605650
_cell_angle_gamma 135.539675
_cell_volume 674.815122
_symmetry_space_group_name_H-M "P -1"
_symmetry_group_IT_number 2
_symmetry_cell_setting 'triclinic'
loop_
_space_group_symop_operation_xyz
x,y,z
-x,-y,-z
loop_
_atom_site_type_symbol
_atom_site_label
_atom_site_fract_x
_atom_site_fract_y
_atom_site_fract_z
Si Si1 0.678291 0.518609 0.185714
Si Si2 0.371631 0.555681 0.062623
Si Si3 0.171356 0.473399 0.587864
Si Si4 0.317477 0.998313 0.384041
Si Si5 0.401944 0.770434 0.775678
Si Si6 0.126251 0.987054 0.177327
Si Si7 0.966502 0.787887 0.941302
Si Si8 0.064014 0.716795 0.218459
O O1 0.699621 0.788423 0.379238
O O2 0.580788 0.380596 0.249745
O O3 0.586158 0.439400 0.086456
O O4 0.849154 0.470740 0.022911
O O5 0.209432 0.365315 0.056842
O O6 0.368962 0.816499 0.286003
O O7 0.500000 0.500000 0.000000
O O8 0.346655 0.617432 0.597470
O O9 0.168274 0.262347 0.358485
O O10 0.079462 0.630588 0.713193
O O11 0.103045 0.414593 0.711116
O O12 0.428105 0.068663 0.255206
O O13 0.150776 0.862619 0.360401
O O14 0.287684 0.927129 0.997400
O O15 0.045454 0.885079 0.266929
O O16 0.000630 0.890220 0.107669
O O17 0.000000 0.000000 0.000000
#
# Coordination Sequence:
#
# PCOD8017853 Si02
#       8
#     2   2   2   2   2   2   2   2
#     4  10  22  42  69  94 136 174 208 261 332 377
#     4  11  27  45  66  94 126 172 230 270 314 382
#     4  11  22  41  67 104 127 167 215 263 328 400
#     4  11  23  43  67  99 136 170 211 271 322 390
#     4  10  24  39  66 106 139 165 209 261 326 397
#     4  10  24  40  73  93 136 171 209 266 334 381
#     4  11  26  47  65  92 129 171 225 276 315 380
#     4  10  22  39  67 104 131 162 215 263 326 401
#
# _framework density 23.710196
#
# number of rings (size 3 to 8) (size 9 to 14) (size 15 to 20)
#    0.000    1.500    2.500    1.500    7.000    9.000 
#    0.000    0.000    0.000    0.000    0.000    0.000 
#    0.000    0.000    0.000    0.000    0.000    0.000 
#
# Total GULP energy -198436.083439 kJ/mol
# GULP energy per Si atom -12402.255215 kJ/mol
# Density = 2.365623 g / cm^3
# Si number density = 23.710196 Si / 1000 Ang^3
#
#
#
# Elastic Constant Matrix: (Units=GPa)
#
#
# Indices 1 2 3 4 5 6 
#
# 1 97.7082 22.3384 34.4914 21.5623 -21.0761 -18.5041
# 2 22.3384 81.5983 24.5430 24.6019 -13.0831 -12.1026
# 3 34.4914 24.5430 149.3982 46.9871 -8.5241 -7.0861
# 4 21.5623 24.6019 46.9871 38.0847 -0.7272 -9.1820
# 5 -21.0761 -13.0831 -8.5241 -0.7272 19.4117 10.5365
# 6 -18.5041 -12.1026 -7.0861 -9.1820 10.5365 29.7456
#
#
#
# Elastic Compliance Matrix: (Units=1/GPa)
#
#
# Indices 1 2 3 4 5 6 
#
# 1 0.015918 0.001388 0.000063 -0.009279 0.017039 0.001582
# 2 0.001388 0.017954 0.002302 -0.015230 0.014693 -0.001189
# 3 0.000063 0.002302 0.012021 -0.017295 0.008746 -0.004597
# 4 -0.009279 -0.015230 -0.017295 0.066001 -0.034402 0.016470
# 5 0.017039 0.014693 0.008746 -0.034402 0.096697 -0.026210
# 6 0.001582 -0.001189 -0.004597 0.016470 -0.026210 0.047391
#
#
# Mechanical properties :
#
#
# Convention : Reuss Voigt Hill
#
# Bulk Modulus (GPa) = 18.72706 54.60559 36.66632
# Shear Modulus (GPa) = 18.77743 33.93721 26.35732
#
# Velocity S-wave (km/s) = 2.81722 3.78740 3.33775
# Velocity P-wave (km/s) = 4.30091 6.49664 5.50927
#
# Compressibility (1/GPa) = 0.05339867
#
# Stress axis : x y z
#
# Youngs Moduli (GPa) = 62.82220 55.69739 83.18522
#
# Poissons Ratio (x) = -0.07730 -0.00522
# Poissons Ratio (y) = -0.08719 -0.19149
# Poissons Ratio (z) = -0.00394 -0.12822
#
# Static dielectric constant tensor:
#      x y z
#    x 4.148730 0.007940 -0.039030 
#    y 0.007940 4.220240 0.308820 
#    z -0.039030 0.308820 4.465500 
# 
# 
# High freq. dielectric constant tensor:
#      x y z
#    x 1.926490 0.015720 -0.004430 
#    y 0.015720 1.936100 0.020280 
#    z -0.004430 0.020280 1.954950 
# 
# From -- ./inp_files/532135.got.cif
#   From: 2010.06.25/outbox.cif.g09.slc.cpg/sg2_267_cif.got.tgz:532135.got - 2010.06.27 13:26:56.
