data_PCOD8017058
_publ_section_title
;
Structure prediction by ZEFSAII (Michael W. Deem and Ramdas Pophale) SiO2 
 PCOD8017058
Probable space group: P -1
;
_chemical_formula_sum "Si O2"
_cell_formula_units_Z 16
_cell_length_a 8.823950
_cell_length_b 19.948570
_cell_length_c 8.640848
_cell_angle_alpha 75.516936
_cell_angle_beta 107.544206
_cell_angle_gamma 147.938868
_cell_volume 769.787394
_symmetry_space_group_name_H-M "P -1"
_symmetry_group_IT_number 2
_symmetry_cell_setting 'triclinic'
loop_
_space_group_symop_operation_xyz
x,y,z
-x,-y,-z
loop_
_atom_site_type_symbol
_atom_site_label
_atom_site_fract_x
_atom_site_fract_y
_atom_site_fract_z
Si Si1 0.122142 0.127171 0.634192
Si Si2 0.390665 0.110901 0.557918
Si Si3 0.241894 0.939317 0.859972
Si Si4 0.769314 0.467913 0.374137
Si Si5 0.978143 0.340443 0.444516
Si Si6 0.192022 0.599714 0.862943
Si Si7 0.171546 0.133856 0.993065
Si Si8 0.130735 0.259008 0.381540
O O1 0.398524 0.189367 0.600634
O O2 0.185797 0.168813 0.805407
O O3 0.002179 0.156253 0.518767
O O4 0.861619 0.978684 0.599665
O O5 0.669808 0.200526 0.486666
O O6 0.358186 0.040370 0.720484
O O7 0.077388 0.817376 0.788729
O O8 0.008958 0.884154 0.938581
O O9 0.500000 0.000000 0.000000
O O10 0.761597 0.452373 0.196674
O O11 0.442856 0.338583 0.403823
O O12 0.000000 0.500000 0.500000
O O13 0.858559 0.577489 0.393989
O O14 0.974722 0.402456 0.285596
O O15 0.150986 0.342043 0.413083
O O16 0.494200 0.746442 0.919007
O O17 0.000000 0.500000 0.000000
O O18 0.000000 0.000000 0.000000
#
# Coordination Sequence:
#
# PCOD8017058 Si02
#       8
#     2   2   2   2   2   2   2   2
#     4  10  22  37  68  89 134 170 230 268 338 389
#     4  10  22  42  64  99 127 183 227 277 324 413
#     4  11  26  42  65 100 146 174 218 287 355 394
#     4  10  22  45  69  90 127 175 228 272 328 404
#     4  11  25  41  70  93 134 174 232 272 341 405
#     4  11  26  45  69 101 136 179 230 285 339 407
#     4  12  24  42  70 101 136 179 231 283 337 409
#     4  11  24  44  64  98 134 177 221 281 337 410
#
# _framework density 20.784959000000001
#
# number of rings (size 3 to 8) (size 9 to 14) (size 15 to 20)
#    0.000    1.250    2.500    2.625   12.250    1.000 
#    0.000    0.625    0.000    0.000    0.000    0.000 
#    0.000    0.000    0.000    0.000    0.000    0.000 
#
# Total GULP energy -198237.297101 kJ/mol
# GULP energy per Si atom -12389.831069 kJ/mol
# Density = 2.073765 g / cm^3
# Si number density = 20.784959 Si / 1000 Ang^3
#
#
#
# Elastic Constant Matrix: (Units=GPa)
#
#
# Indices 1 2 3 4 5 6 
#
# 1 115.3040 46.7363 55.8948 0.5787 -14.2837 -13.5638
# 2 46.7363 98.7038 37.3626 17.8424 -9.4341 -0.5456
# 3 55.8948 37.3626 104.0685 14.1252 -17.7105 -4.7472
# 4 0.5787 17.8424 14.1252 36.4933 1.4837 -9.5187
# 5 -14.2837 -9.4341 -17.7105 1.4837 36.4310 7.6793
# 6 -13.5638 -0.5456 -4.7472 -9.5187 7.6793 37.3308
#
#
#
# Elastic Compliance Matrix: (Units=1/GPa)
#
#
# Indices 1 2 3 4 5 6 
#
# 1 0.014883 -0.005781 -0.006643 0.006831 -0.000502 0.006324
# 2 -0.005781 0.014898 -0.000936 -0.008121 0.002431 -0.004573
# 3 -0.006643 -0.000936 0.015160 -0.006375 0.005468 -0.003250
# 4 0.006831 -0.008121 -0.006375 0.037242 -0.006658 0.012418
# 5 -0.000502 0.002431 0.005468 -0.006658 0.032461 -0.007827
# 6 0.006324 -0.004573 -0.003250 0.012418 -0.007827 0.033382
#
#
# Mechanical properties :
#
#
# Convention : Reuss Voigt Hill
#
# Bulk Modulus (GPa) = 54.87747 66.45152 60.66449
# Shear Modulus (GPa) = 27.65180 33.92318 30.78749
#
# Velocity S-wave (km/s) = 3.65139 4.04431 3.85286
# Velocity P-wave (km/s) = 6.65106 7.33819 7.00306
#
# Compressibility (1/GPa) = 0.01822242
#
# Stress axis : x y z
#
# Youngs Moduli (GPa) = 67.18950 67.12258 65.96098
#
# Poissons Ratio (x) = 0.38802 0.43815
# Poissons Ratio (y) = 0.38840 0.06177
# Poissons Ratio (z) = 0.44631 0.06286
#
# Static dielectric constant tensor:
#      x y z
#    x 3.694700 -0.063140 -0.237210 
#    y -0.063140 3.890000 0.308070 
#    z -0.237210 0.308070 3.937740 
# 
# 
# High freq. dielectric constant tensor:
#      x y z
#    x 1.810200 0.001060 -0.019910 
#    y 0.001060 1.818140 0.015120 
#    z -0.019910 0.015120 1.814970 
# 
# From -- ./inp_files/221574.got.cif
#   From: 2010.06.25/outbox.cif.g09.slc.cpg/sg2_111_cif.got.tgz:221574.got - 2010.06.27 13:26:56.
