data_PCOD8017604
_publ_section_title
;
Structure prediction by ZEFSAII (Michael W. Deem and Ramdas Pophale) SiO2 
 PCOD8017604
Probable space group: P -1
;
_chemical_formula_sum "Si O2"
_cell_formula_units_Z 16
_cell_length_a 12.630660
_cell_length_b 12.150247
_cell_length_c 9.285748
_cell_angle_alpha 59.976950
_cell_angle_beta 136.303355
_cell_angle_gamma 131.767499
_cell_volume 733.789959
_symmetry_space_group_name_H-M "P -1"
_symmetry_group_IT_number 2
_symmetry_cell_setting 'triclinic'
loop_
_space_group_symop_operation_xyz
x,y,z
-x,-y,-z
loop_
_atom_site_type_symbol
_atom_site_label
_atom_site_fract_x
_atom_site_fract_y
_atom_site_fract_z
Si Si1 0.296110 0.282194 0.531940
Si Si2 0.108075 0.860966 0.229233
Si Si3 0.047366 0.394331 0.534154
Si Si4 0.246489 0.194770 0.215627
Si Si5 0.607205 0.945826 0.232463
Si Si6 0.611191 0.438978 0.392922
Si Si7 0.084375 0.773620 0.749145
Si Si8 0.301909 0.781704 0.238725
O O1 0.317623 0.264391 0.396191
O O2 0.375908 0.185550 0.743233
O O3 0.410649 0.448154 0.596672
O O4 0.087839 0.214461 0.396459
O O5 0.248735 0.843473 0.282937
O O6 0.039568 0.760075 0.368084
O O7 0.207297 0.029533 0.267662
O O8 0.932538 0.807173 0.996156
O O9 0.261582 0.470780 0.676529
O O10 0.000000 0.500000 0.500000
O O11 0.966943 0.367188 0.310668
O O12 0.421686 0.313291 0.219688
O O13 0.508091 0.896858 0.322498
O O14 0.803359 0.086441 0.336840
O O15 0.500000 0.000000 0.000000
O O16 0.709535 0.369977 0.627544
O O17 0.176197 0.758627 0.992985
#
# Coordination Sequence:
#
# PCOD8017604 Si02
#       8
#     2   2   2   2   2   2   2   2
#     4  11  21  42  68  96 136 176 224 274 337 402
#     4  11  25  45  70  96 134 183 229 273 330 408
#     4  11  24  43  64  99 140 174 220 277 345 393
#     4  11  24  44  70  96 132 183 229 274 333 397
#     4  10  22  39  63 102 133 167 223 281 330 386
#     4  11  25  42  70 102 135 180 219 283 338 397
#     4  10  23  41  68  98 135 179 222 280 329 399
#     4  11  22  42  68 102 129 176 232 269 336 396
#
# _framework density 21.804604000000001
#
# number of rings (size 3 to 8) (size 9 to 14) (size 15 to 20)
#    0.000    1.250    3.750    1.500    0.000    6.000 
#    6.750    0.000    0.000    0.000    0.000    0.000 
#    0.000    0.000    0.000    0.000    0.000    0.000 
#
# Total GULP energy -198231.498778 kJ/mol
# GULP energy per Si atom -12389.468674 kJ/mol
# Density = 2.175498 g / cm^3
# Si number density = 21.804604 Si / 1000 Ang^3
#
#
#
# Elastic Constant Matrix: (Units=GPa)
#
#
# Indices 1 2 3 4 5 6 
#
# 1 131.5967 58.1103 27.4950 -1.2341 7.3508 0.5544
# 2 58.1103 127.4755 30.5923 5.0663 9.9164 3.2570
# 3 27.4950 30.5923 69.4136 -8.1778 14.8132 -10.9611
# 4 -1.2341 5.0663 -8.1778 29.4578 -1.2908 7.1332
# 5 7.3508 9.9164 14.8132 -1.2908 33.5047 -3.4439
# 6 0.5544 3.2570 -10.9611 7.1332 -3.4439 49.1889
#
#
#
# Elastic Compliance Matrix: (Units=1/GPa)
#
#
# Indices 1 2 3 4 5 6 
#
# 1 0.009805 -0.003971 -0.002115 0.000603 -0.000060 -0.000411
# 2 -0.003971 0.010690 -0.003421 -0.002732 -0.000999 -0.001099
# 3 -0.002115 -0.003421 0.019231 0.004732 -0.006495 0.003395
# 4 0.000603 -0.002732 0.004732 0.036737 -0.000425 -0.004129
# 5 -0.000060 -0.000999 -0.006495 -0.000425 0.033113 0.000999
# 6 -0.000411 -0.001099 0.003395 -0.004129 0.000999 0.021832
#
#
# Mechanical properties :
#
#
# Convention : Reuss Voigt Hill
#
# Bulk Modulus (GPa) = 48.27773 62.32012 55.29892
# Shear Modulus (GPa) = 31.78111 36.58284 34.18197
#
# Velocity S-wave (km/s) = 3.82192 4.10049 3.96365
# Velocity P-wave (km/s) = 6.45486 7.14576 6.80908
#
# Compressibility (1/GPa) = 0.02071349
#
# Stress axis : x y z
#
# Youngs Moduli (GPa) = 101.98835 93.54412 51.99875
#
# Poissons Ratio (x) = 0.37147 0.10996
# Poissons Ratio (y) = 0.40500 0.17788
# Poissons Ratio (z) = 0.21567 0.32000
#
# Static dielectric constant tensor:
#      x y z
#    x 4.518270 0.637050 -0.051930 
#    y 0.637050 4.672790 -0.358310 
#    z -0.051930 -0.358310 3.994190 
# 
# 
# High freq. dielectric constant tensor:
#      x y z
#    x 1.874960 0.013150 0.013330 
#    y 0.013150 1.869900 -0.004580 
#    z 0.013330 -0.004580 1.839010 
# 
# From -- ./inp_files/262189.got.cif
#   From: 2010.06.25/outbox.cif.g09.slc.cpg/sg2_132_cif.got.tgz:262189.got - 2010.06.27 13:26:56.
