data_PCOD8017911
_publ_section_title
;
Structure prediction by ZEFSAII (Michael W. Deem and Ramdas Pophale) SiO2 
 PCOD8017911
Probable space group: P -1
;
_chemical_formula_sum "Si O2"
_cell_formula_units_Z 14
_cell_length_a 14.877210
_cell_length_b 9.329408
_cell_length_c 11.503063
_cell_angle_alpha 123.052101
_cell_angle_beta 128.428175
_cell_angle_gamma 31.863380
_cell_volume 659.665197
_symmetry_space_group_name_H-M "P -1"
_symmetry_group_IT_number 2
_symmetry_cell_setting 'triclinic'
loop_
_space_group_symop_operation_xyz
x,y,z
-x,-y,-z
loop_
_atom_site_type_symbol
_atom_site_label
_atom_site_fract_x
_atom_site_fract_y
_atom_site_fract_z
Si Si1 0.233011 0.735997 0.963804
Si Si2 0.487288 0.970945 0.342668
Si Si3 0.128200 0.010175 0.621006
Si Si4 0.957450 0.788683 0.811051
Si Si5 0.068057 0.485916 0.173430
Si Si6 0.411155 0.543986 0.793864
Si Si7 0.181708 0.178281 0.512423
O O1 0.427537 0.506845 0.081844
O O2 0.109322 0.017645 0.051755
O O3 0.255546 0.764347 0.861194
O O4 0.146892 0.646963 0.855368
O O5 0.520888 0.728951 0.254419
O O6 0.640802 0.905332 0.370212
O O7 0.500000 0.000000 0.500000
O O8 0.289410 0.245235 0.250095
O O9 0.162943 0.074837 0.560336
O O10 0.036111 0.220928 0.746270
O O11 0.323351 0.698003 0.669553
O O12 0.000000 0.000000 0.500000
O O13 0.000010 0.556950 0.796691
O O14 0.811274 0.941347 0.654973
O O15 0.000000 0.500000 0.000000
O O16 0.000000 0.500000 0.500000
#
# Coordination Sequence:
#
# PCOD8017911 Si02
#       7
#     2   2   2   2   2   2   2
#     4  10  22  39  68  93 134 175 220 283 351 412
#     4  12  23  46  74  98 139 188 235 282 352 428
#     4  12  26  44  68 102 145 178 234 295 349 412
#     4  11  21  42  65  96 133 179 229 277 346 417
#     4  12  26  44  69 105 143 185 233 292 351 416
#     4  11  23  42  67 101 132 176 230 284 351 411
#     4  12  23  43  71 101 130 187 236 282 345 422
#
# _framework density 21.222885000000002
#
# number of rings (size 3 to 8) (size 9 to 14) (size 15 to 20)
#    0.000    0.571    4.286    4.286    2.000    2.286 
#    0.000    6.429    0.000    0.000    0.000    0.000 
#    0.000    0.000    0.000    0.000    0.000    0.000 
#
# Total GULP energy -173513.162861 kJ/mol
# GULP energy per Si atom -12393.797347 kJ/mol
# Density = 2.117458 g / cm^3
# Si number density = 21.222885 Si / 1000 Ang^3
#
#
#
# Elastic Constant Matrix: (Units=GPa)
#
#
# Indices 1 2 3 4 5 6 
#
# 1 119.1155 35.9386 52.0043 -30.8032 33.5333 12.0621
# 2 35.9386 70.3524 26.2459 -7.3466 7.6112 4.3504
# 3 52.0043 26.2459 124.2941 -8.4179 6.8597 4.4581
# 4 -30.8032 -7.3466 -8.4179 40.3157 -2.9680 -0.3140
# 5 33.5333 7.6112 6.8597 -2.9680 42.3943 -6.0693
# 6 12.0621 4.3504 4.4581 -0.3140 -6.0693 25.4275
#
#
#
# Elastic Compliance Matrix: (Units=1/GPa)
#
#
# Indices 1 2 3 4 5 6 
#
# 1 0.021500 -0.005008 -0.005742 0.013045 -0.015981 -0.011989
# 2 -0.005008 0.017175 -0.001655 -0.000963 0.001074 -0.000028
# 3 -0.005742 -0.001655 0.010394 -0.002263 0.003277 0.001939
# 4 0.013045 -0.000963 -0.002263 0.033443 -0.008474 -0.007237
# 5 -0.015981 0.001074 0.003277 -0.008474 0.037143 0.015584
# 6 -0.011989 -0.000028 0.001939 -0.007237 0.015584 0.048310
#
#
# Mechanical properties :
#
#
# Convention : Reuss Voigt Hill
#
# Bulk Modulus (GPa) = 41.22393 60.23772 50.73083
# Shear Modulus (GPa) = 24.89285 34.93239 29.91262
#
# Velocity S-wave (km/s) = 3.42851 4.06147 3.75834
# Velocity P-wave (km/s) = 5.92785 7.10204 6.54135
#
# Compressibility (1/GPa) = 0.02425775
#
# Stress axis : x y z
#
# Youngs Moduli (GPa) = 46.51233 58.22515 96.21063
#
# Poissons Ratio (x) = 0.29159 0.55248
# Poissons Ratio (y) = 0.23293 0.15921
# Poissons Ratio (z) = 0.26709 0.09635
#
# Static dielectric constant tensor:
#      x y z
#    x 4.022720 -0.376000 0.182940 
#    y -0.376000 3.544590 0.131480 
#    z 0.182940 0.131480 4.304470 
# 
# 
# High freq. dielectric constant tensor:
#      x y z
#    x 1.840660 -0.008540 0.008150 
#    y -0.008540 1.824630 0.010530 
#    z 0.008150 0.010530 1.852580 
# 
# From -- ./inp_files/175478.got.cif
#   From: 2010.06.25/outbox.cif.g09.slc.cpg/sg2_88_cif.got.tgz:175478.got - 2010.06.27 13:26:56.
