data_PCOD8017402
_publ_section_title
;
Structure prediction by ZEFSAII (Michael W. Deem and Ramdas Pophale) SiO2 
 PCOD8017402
Probable space group: P -1
;
_chemical_formula_sum "Si O2"
_cell_formula_units_Z 16
_cell_length_a 9.402420
_cell_length_b 12.225319
_cell_length_c 18.777438
_cell_angle_alpha 28.439474
_cell_angle_beta 106.405845
_cell_angle_gamma 89.320416
_cell_volume 810.461038
_symmetry_space_group_name_H-M "P -1"
_symmetry_group_IT_number 2
_symmetry_cell_setting 'triclinic'
loop_
_space_group_symop_operation_xyz
x,y,z
-x,-y,-z
loop_
_atom_site_type_symbol
_atom_site_label
_atom_site_fract_x
_atom_site_fract_y
_atom_site_fract_z
Si Si1 0.427459 0.187229 0.706084
Si Si2 0.471206 0.645365 0.030916
Si Si3 0.358760 0.389272 0.068698
Si Si4 0.631348 0.764531 0.484112
Si Si5 0.218286 0.755767 0.600558
Si Si6 0.819704 0.830219 0.900976
Si Si7 0.312924 0.702834 0.486978
Si Si8 0.938649 0.659739 0.686216
O O1 0.320697 0.348812 0.525937
O O2 0.379190 0.400186 0.640333
O O3 0.640901 0.998724 0.828107
O O4 0.377301 0.972244 0.846044
O O5 0.317531 0.600566 0.007382
O O6 0.576327 0.467948 0.217167
O O7 0.614338 0.513203 0.060531
O O8 0.195037 0.356436 0.054796
O O9 0.543149 0.093520 0.282886
O O10 0.487902 0.705471 0.527178
O O11 0.810526 0.627614 0.634261
O O12 0.205556 0.754758 0.514418
O O13 0.094579 0.657451 0.667761
O O14 0.163704 0.059940 0.442172
O O15 0.826597 0.062284 0.724893
O O16 0.987410 0.615090 0.097097
#
# Coordination Sequence:
#
# PCOD8017402 Si02
#       8
#     2   2   2   2   2   2   2   2
#     4   9  18  36  60  80 105 156 195 219 265 340
#     4   9  15  29  53  84 106 138 184 233 262 321
#     4   8  14  29  54  82 103 140 190 220 267 327
#     4   9  18  35  61  81 106 149 190 231 269 338
#     4  11  22  34  57  88 119 141 179 242 282 331
#     4   9  18  36  59  81 111 150 184 227 283 341
#     4  10  22  39  57  81 114 152 192 224 271 329
#     4  11  21  36  58  86 114 145 185 227 298 329
#
# _framework density 19.741848999999998
#
# number of rings (size 3 to 8) (size 9 to 14) (size 15 to 20)
#    0.000    3.000    3.750    1.500    0.000    1.500 
#    0.000    3.125    5.500    0.000    0.000    0.000 
#    0.000    0.000    0.000    0.000    0.000    0.000 
#
# Total GULP energy -198225.843871 kJ/mol
# GULP energy per Si atom -12389.115242 kJ/mol
# Density = 1.969692 g / cm^3
# Si number density = 19.741849 Si / 1000 Ang^3
#
#
#
# Elastic Constant Matrix: (Units=GPa)
#
#
# Indices 1 2 3 4 5 6 
#
# 1 29.3916 33.8906 23.0697 1.1702 1.1876 6.0044
# 2 33.8906 108.3447 50.8211 -2.3119 -3.9721 3.9043
# 3 23.0697 50.8211 110.2269 14.6623 2.2378 6.7217
# 4 1.1702 -2.3119 14.6623 30.9180 14.0679 -1.4944
# 5 1.1876 -3.9721 2.2378 14.0679 21.2858 7.8562
# 6 6.0044 3.9043 6.7217 -1.4944 7.8562 22.5578
#
#
#
# Elastic Compliance Matrix: (Units=1/GPa)
#
#
# Indices 1 2 3 4 5 6 
#
# 1 0.057835 -0.015961 -0.003756 -0.002097 -0.000142 -0.011602
# 2 -0.015961 0.016596 -0.005034 0.003996 0.000822 0.002854
# 3 -0.003756 -0.005034 0.013651 -0.009718 0.006089 -0.004961
# 4 -0.002097 0.003996 -0.009718 0.059125 -0.045506 0.022528
# 5 -0.000142 0.000822 0.006089 -0.045506 0.089961 -0.036264
# 6 -0.011602 0.002854 -0.004961 0.022528 -0.036264 0.062525
#
#
# Mechanical properties :
#
#
# Convention : Reuss Voigt Hill
#
# Bulk Modulus (GPa) = 25.91978 51.50288 38.71133
# Shear Modulus (GPa) = 13.81005 24.29775 19.05390
#
# Velocity S-wave (km/s) = 2.64774 3.51204 3.11006
# Velocity P-wave (km/s) = 4.74396 6.52616 5.70508
#
# Compressibility (1/GPa) = 0.03858058
#
# Stress axis : x y z
#
# Youngs Moduli (GPa) = 17.29048 60.25511 73.25632
#
# Poissons Ratio (x) = 0.96174 0.27516
# Poissons Ratio (y) = 0.27597 0.36874
# Poissons Ratio (z) = 0.06495 0.30330
#
# Static dielectric constant tensor:
#      x y z
#    x 3.218540 0.294490 -0.193000 
#    y 0.294490 3.561670 0.032630 
#    z -0.193000 0.032630 3.657980 
# 
# 
# High freq. dielectric constant tensor:
#      x y z
#    x 1.724330 0.023150 -0.017450 
#    y 0.023150 1.759980 0.006680 
#    z -0.017450 0.006680 1.771050 
# 
# From -- ./inp_files/568483.got.cif
#   From: 2010.06.25/outbox.cif.g09.slc.cpg/sg2_285_cif.got.tgz:568483.got - 2010.06.27 13:26:56.
