data_PCOD8017461
_publ_section_title
;
Structure prediction by ZEFSAII (Michael W. Deem and Ramdas Pophale) SiO2 
 PCOD8017461
Probable space group: P -1
;
_chemical_formula_sum "Si O2"
_cell_formula_units_Z 16
_cell_length_a 9.378303
_cell_length_b 6.686084
_cell_length_c 20.594680
_cell_angle_alpha 87.460158
_cell_angle_beta 40.412180
_cell_angle_gamma 67.219393
_cell_volume 700.809061
_symmetry_space_group_name_H-M "P -1"
_symmetry_group_IT_number 2
_symmetry_cell_setting 'triclinic'
loop_
_space_group_symop_operation_xyz
x,y,z
-x,-y,-z
loop_
_atom_site_type_symbol
_atom_site_label
_atom_site_fract_x
_atom_site_fract_y
_atom_site_fract_z
Si Si1 0.785827 0.572845 0.236625
Si Si2 0.409957 0.041788 0.136146
Si Si3 0.832705 0.442998 0.362068
Si Si4 0.401129 0.332167 0.023901
Si Si5 0.328109 0.161199 0.499205
Si Si6 0.580825 0.956007 0.723163
Si Si7 0.840330 0.173803 0.474069
Si Si8 0.536807 0.615204 0.658092
O O1 0.675503 0.606476 0.350415
O O2 0.625166 0.828467 0.254339
O O3 0.726807 0.378905 0.230915
O O4 0.086737 0.479124 0.129069
O O5 0.524963 0.142568 0.042792
O O6 0.098718 0.225327 0.243206
O O7 0.539240 0.000539 0.163008
O O8 0.482724 0.789778 0.084496
O O9 0.891181 0.590142 0.392528
O O10 0.703017 0.325984 0.452020
O O11 0.500000 0.500000 0.000000
O O12 0.505512 0.211858 0.389994
O O13 0.500000 0.000000 0.500000
O O14 0.198001 0.047006 0.504297
O O15 0.849098 0.944675 0.636256
O O16 0.631276 0.703629 0.684230
O O17 0.744405 0.337077 0.569988
#
# Coordination Sequence:
#
# PCOD8017461 Si02
#       8
#     2   2   2   2   2   2   2   2
#     4  11  24  39  61  93 124 158 204 256 310 369
#     4   9  22  43  65  92 119 153 201 249 306 374
#     4   9  20  38  61  88 121 162 207 254 297 352
#     4  10  23  46  72  92 115 152 201 260 317 369
#     4  11  21  36  61  91 124 168 214 256 297 344
#     4  11  24  39  61  92 128 166 200 246 304 365
#     4  10  22  39  60  88 126 171 215 247 290 357
#     4  11  23  38  56  86 131 171 205 246 299 357
#
# _framework density 22.830753999999999
#
# number of rings (size 3 to 8) (size 9 to 14) (size 15 to 20)
#    0.000    1.750    0.000    3.375    0.000   15.500 
#    0.000    1.250    0.000    0.000    0.000    0.000 
#    0.000    0.000    0.000    0.000    0.000    0.000 
#
# Total GULP energy -198272.073657 kJ/mol
# GULP energy per Si atom -12392.004604 kJ/mol
# Density = 2.277879 g / cm^3
# Si number density = 22.830754 Si / 1000 Ang^3
#
#
#
# Elastic Constant Matrix: (Units=GPa)
#
#
# Indices 1 2 3 4 5 6 
#
# 1 80.8067 36.2696 27.2220 -3.9698 13.0401 9.8420
# 2 36.2696 103.3421 34.8891 4.8370 9.3501 35.7174
# 3 27.2220 34.8891 94.2111 7.2059 20.8205 16.1878
# 4 -3.9698 4.8370 7.2059 29.2172 9.2796 5.7398
# 5 13.0401 9.3501 20.8205 9.2796 44.2446 -6.2974
# 6 9.8420 35.7174 16.1878 5.7398 -6.2974 50.2807
#
#
#
# Elastic Compliance Matrix: (Units=1/GPa)
#
#
# Indices 1 2 3 4 5 6 
#
# 1 0.016143 -0.004728 -0.002486 0.004723 -0.003578 0.000012
# 2 -0.004728 0.015677 -0.002267 -0.000054 -0.002230 -0.009754
# 3 -0.002486 -0.002267 0.014000 -0.001056 -0.005580 -0.002989
# 4 0.004723 -0.000054 -0.001056 0.039584 -0.010087 -0.006328
# 5 -0.003578 -0.002230 -0.005580 -0.010087 0.030151 0.009009
# 6 0.000012 -0.009754 -0.002989 -0.006328 0.009009 0.029628
#
#
# Mechanical properties :
#
#
# Convention : Reuss Voigt Hill
#
# Bulk Modulus (GPa) = 37.23249 52.79126 45.01188
# Shear Modulus (GPa) = 28.88580 36.74712 32.81646
#
# Velocity S-wave (km/s) = 3.56084 4.01627 3.79539
# Velocity P-wave (km/s) = 5.76625 6.68433 6.24219
#
# Compressibility (1/GPa) = 0.02685826
#
# Stress axis : x y z
#
# Youngs Moduli (GPa) = 61.94766 63.78969 71.42990
#
# Poissons Ratio (x) = 0.30157 0.17759
# Poissons Ratio (y) = 0.29286 0.16190
# Poissons Ratio (z) = 0.15402 0.14458
#
# Static dielectric constant tensor:
#      x y z
#    x 4.206010 0.028580 0.295400 
#    y 0.028580 4.755320 0.064830 
#    z 0.295400 0.064830 4.762320 
# 
# 
# High freq. dielectric constant tensor:
#      x y z
#    x 1.895280 -0.000350 0.017360 
#    y -0.000350 1.914960 -0.003320 
#    z 0.017360 -0.003320 1.891140 
# 
# From -- ./inp_files/553511.got.cif
#   From: 2010.06.25/outbox.cif.g09.slc.cpg/sg2_277_cif.got.tgz:553511.got - 2010.06.27 13:26:56.
