data_PCOD8017340
_publ_section_title
;
Structure prediction by ZEFSAII (Michael W. Deem and Ramdas Pophale) SiO2 
 PCOD8017340
Probable space group: P -1
;
_chemical_formula_sum "Si O2"
_cell_formula_units_Z 16
_cell_length_a 24.596627
_cell_length_b 14.554983
_cell_length_c 6.622767
_cell_angle_alpha 99.749307
_cell_angle_beta 80.736887
_cell_angle_gamma 161.122929
_cell_volume 756.021505
_symmetry_space_group_name_H-M "P -1"
_symmetry_group_IT_number 2
_symmetry_cell_setting 'triclinic'
loop_
_space_group_symop_operation_xyz
x,y,z
-x,-y,-z
loop_
_atom_site_type_symbol
_atom_site_label
_atom_site_fract_x
_atom_site_fract_y
_atom_site_fract_z
Si Si1 0.453430 0.649228 0.951854
Si Si2 0.096102 0.359263 0.079586
Si Si3 0.611440 0.723071 0.687399
Si Si4 0.782874 0.833259 0.819237
Si Si5 0.799958 0.287490 0.033164
Si Si6 0.940179 0.355784 0.682781
Si Si7 0.197727 0.350942 0.761084
Si Si8 0.969959 0.831537 0.556467
O O1 0.317436 0.416247 0.124628
O O2 0.608146 0.952780 0.069196
O O3 0.508079 0.637271 0.829244
O O4 0.371887 0.576335 0.786222
O O5 0.089437 0.345729 0.323650
O O6 0.206370 0.622376 0.037200
O O7 0.175346 0.389863 0.965983
O O8 0.908528 0.072641 0.002534
O O9 0.500000 0.500000 0.500000
O O10 0.652018 0.706873 0.815478
O O11 0.785140 0.039950 0.608083
O O12 0.880379 0.961472 0.604636
O O13 0.908080 0.461863 0.240482
O O14 0.883498 0.346611 0.859893
O O15 0.000000 0.500000 0.500000
O O16 0.191809 0.394010 0.562594
O O17 0.040841 0.027984 0.729235
#
# Coordination Sequence:
#
# PCOD8017340 Si02
#       8
#     2   2   2   2   2   2   2   2
#     4  11  24  43  61  94 136 164 203 267 319 370
#     4  11  22  41  68  90 123 170 215 256 304 377
#     4  11  24  40  64 100 125 163 211 260 318 372
#     4  11  23  39  66  94 126 160 214 262 311 373
#     4  10  24  43  62  90 129 171 206 251 316 381
#     4  10  23  42  64  89 129 169 208 251 313 382
#     4  10  22  39  63  94 126 161 213 261 314 366
#     4  10  22  38  67  94 121 164 212 265 313 361
#
# _framework density 21.163421
#
# number of rings (size 3 to 8) (size 9 to 14) (size 15 to 20)
#    0.000    1.500    2.500    1.500    7.000    0.500 
#    0.000    0.625    0.000    0.000    0.000    0.000 
#    0.000    0.000    0.000    0.000    0.000    0.000 
#
# Total GULP energy -198402.112722 kJ/mol
# GULP energy per Si atom -12400.132045 kJ/mol
# Density = 2.111525 g / cm^3
# Si number density = 21.163421 Si / 1000 Ang^3
#
#
#
# Elastic Constant Matrix: (Units=GPa)
#
#
# Indices 1 2 3 4 5 6 
#
# 1 126.8889 50.4447 51.4534 5.8182 21.3577 10.6673
# 2 50.4447 114.1601 52.6274 11.7753 8.6650 -12.1889
# 3 51.4534 52.6274 97.4112 1.0593 24.9039 -8.4814
# 4 5.8182 11.7753 1.0593 27.2201 -1.5248 9.5097
# 5 21.3577 8.6650 24.9039 -1.5248 35.1193 2.0698
# 6 10.6673 -12.1889 -8.4814 9.5097 2.0698 39.2167
#
#
#
# Elastic Compliance Matrix: (Units=1/GPa)
#
#
# Indices 1 2 3 4 5 6 
#
# 1 0.011954 -0.003946 -0.003841 0.001002 -0.003212 -0.005382
# 2 -0.003946 0.014274 -0.005599 -0.007049 0.002195 0.005892
# 3 -0.003841 -0.005599 0.017963 0.000814 -0.009190 0.003477
# 4 0.001002 -0.007049 0.000814 0.044339 0.003256 -0.013211
# 5 -0.003212 0.002195 -0.009190 0.003256 0.036731 -0.003160
# 6 -0.005382 0.005892 0.003477 -0.013211 -0.003160 0.032917
#
#
# Mechanical properties :
#
#
# Convention : Reuss Voigt Hill
#
# Bulk Modulus (GPa) = 57.40563 71.94570 64.67567
# Shear Modulus (GPa) = 26.21159 32.57353 29.39256
#
# Velocity S-wave (km/s) = 3.52310 3.92745 3.73075
# Velocity P-wave (km/s) = 6.61313 7.39159 7.01317
#
# Compressibility (1/GPa) = 0.01741989
#
# Stress axis : x y z
#
# Youngs Moduli (GPa) = 83.65254 70.05815 55.67076
#
# Poissons Ratio (x) = 0.27644 0.21382
# Poissons Ratio (y) = 0.33008 0.31169
# Poissons Ratio (z) = 0.32130 0.39224
#
# Static dielectric constant tensor:
#      x y z
#    x 3.883610 -0.294210 0.470330 
#    y -0.294210 3.152280 0.658060 
#    z 0.470330 0.658060 3.391160 
# 
# 
# High freq. dielectric constant tensor:
#      x y z
#    x 1.846360 0.002270 0.013070 
#    y 0.002270 1.812310 0.008720 
#    z 0.013070 0.008720 1.822640 
# 
# From -- ./inp_files/124304.got.cif
#   From: 2010.06.25/outbox.cif.g09.slc.cpg/sg2_63_cif.got.tgz:124304.got - 2010.06.27 13:26:56.
