data_PCOD8017403
_publ_section_title
;
Structure prediction by ZEFSAII (Michael W. Deem and Ramdas Pophale) SiO2 
 PCOD8017403
Probable space group: P -1
;
_chemical_formula_sum "Si O2"
_cell_formula_units_Z 16
_cell_length_a 9.392114
_cell_length_b 21.075687
_cell_length_c 9.496282
_cell_angle_alpha 79.630057
_cell_angle_beta 95.872381
_cell_angle_gamma 152.471814
_cell_volume 847.781201
_symmetry_space_group_name_H-M "P -1"
_symmetry_group_IT_number 2
_symmetry_cell_setting 'triclinic'
loop_
_space_group_symop_operation_xyz
x,y,z
-x,-y,-z
loop_
_atom_site_type_symbol
_atom_site_label
_atom_site_fract_x
_atom_site_fract_y
_atom_site_fract_z
Si Si1 0.306469 0.619339 0.783561
Si Si2 0.371114 0.612427 0.112923
Si Si3 0.080911 0.081192 0.854761
Si Si4 0.736740 0.058451 0.698246
Si Si5 0.079365 0.069519 0.341185
Si Si6 0.328312 0.369978 0.691609
Si Si7 0.488220 0.577150 0.621136
Si Si8 0.133872 0.879415 0.634144
O O1 0.548174 0.774294 0.710971
O O2 0.313260 0.567319 0.681881
O O3 0.965908 0.513486 0.801576
O O4 0.382122 0.618575 0.942997
O O5 0.593802 0.755215 0.145902
O O6 0.499628 0.593777 0.174026
O O7 0.807488 0.023507 0.813580
O O8 0.119801 0.051349 0.738259
O O9 0.000000 0.000000 0.000000
O O10 0.760587 0.053988 0.535797
O O11 0.968133 0.207276 0.710307
O O12 0.386397 0.943238 0.729460
O O13 0.953419 0.091226 0.304271
O O14 0.000000 0.000000 0.500000
O O15 0.325241 0.444630 0.692085
O O16 0.506306 0.415273 0.551368
O O17 0.840516 0.714743 0.658153
#
# Coordination Sequence:
#
# PCOD8017403 Si02
#       8
#     2   2   2   2   2   2   2   2
#     4  10  22  39  57  82 116 151 194 234 278 344
#     4  10  22  39  57  82 115 155 191 232 283 338
#     4  11  21  38  59  83 118 153 186 235 289 339
#     4   9  18  34  56  80 111 145 183 232 280 333
#     4  11  21  38  60  88 114 148 192 238 288 340
#     4   9  19  36  56  81 113 146 184 235 288 332
#     4   9  19  36  56  81 111 146 187 235 283 333
#     4   9  18  34  55  83 110 141 188 233 276 334
#
# _framework density 18.872795
#
# number of rings (size 3 to 8) (size 9 to 14) (size 15 to 20)
#    0.000    2.250    2.500    0.000    1.750    3.000 
#    4.500    0.625    0.000    0.000    0.000    0.000 
#    0.000    0.000    0.000    0.000    0.000    0.000 
#
# Total GULP energy -198288.303387 kJ/mol
# GULP energy per Si atom -12393.018962 kJ/mol
# Density = 1.882984 g / cm^3
# Si number density = 18.872795 Si / 1000 Ang^3
#
#
#
# Elastic Constant Matrix: (Units=GPa)
#
#
# Indices 1 2 3 4 5 6 
#
# 1 53.9085 35.4251 14.2324 3.8038 8.2206 -2.2144
# 2 35.4251 82.1165 24.2655 -2.9379 11.9982 3.2117
# 3 14.2324 24.2655 70.3941 -0.2024 10.2918 0.6858
# 4 3.8038 -2.9379 -0.2024 29.1518 -1.7002 -1.9938
# 5 8.2206 11.9982 10.2918 -1.7002 36.3388 5.5797
# 6 -2.2144 3.2117 0.6858 -1.9938 5.5797 38.4226
#
#
#
# Elastic Compliance Matrix: (Units=1/GPa)
#
#
# Indices 1 2 3 4 5 6 
#
# 1 0.027084 -0.011186 -0.001264 -0.004645 -0.002703 0.002670
# 2 -0.011186 0.018619 -0.003819 0.003071 -0.002136 -0.001663
# 3 -0.001264 -0.003819 0.016230 -0.000262 -0.003123 0.000397
# 4 -0.004645 0.003071 -0.000262 0.035385 0.001600 0.001084
# 5 -0.002703 -0.002136 -0.003123 0.001600 0.030449 -0.004260
# 6 0.002670 -0.001663 0.000397 0.001084 -0.004260 0.026987
#
#
# Mechanical properties :
#
#
# Convention : Reuss Voigt Hill
#
# Bulk Modulus (GPa) = 34.02057 39.36278 36.69168
# Shear Modulus (GPa) = 25.36897 29.61569 27.49233
#
# Velocity S-wave (km/s) = 3.67032 3.96564 3.82084
# Velocity P-wave (km/s) = 6.00226 6.47075 6.24090
#
# Compressibility (1/GPa) = 0.02939398
#
# Stress axis : x y z
#
# Youngs Moduli (GPa) = 36.92188 53.70786 61.61521
#
# Poissons Ratio (x) = 0.60079 0.07789
# Poissons Ratio (y) = 0.41302 0.23532
# Poissons Ratio (z) = 0.04667 0.20512
#
# Static dielectric constant tensor:
#      x y z
#    x 3.397460 -0.112110 0.091070 
#    y -0.112110 3.761920 -0.093780 
#    z 0.091070 -0.093780 3.571860 
# 
# 
# High freq. dielectric constant tensor:
#      x y z
#    x 1.721770 -0.010190 0.004490 
#    y -0.010190 1.740190 0.006810 
#    z 0.004490 0.006810 1.730340 
# 
# From -- ./inp_files/177825.got.cif
#   From: 2010.06.25/outbox.cif.g09.slc.cpg/sg2_89_cif.got.tgz:177825.got - 2010.06.27 13:26:56.
