data_PCOD8017938
_publ_section_title
;
Structure prediction by ZEFSAII (Michael W. Deem and Ramdas Pophale) SiO2 
 PCOD8017938
Probable space group: P -1
;
_chemical_formula_sum "Si O2"
_cell_formula_units_Z 14
_cell_length_a 13.053041
_cell_length_b 8.421096
_cell_length_c 8.990824
_cell_angle_alpha 70.376414
_cell_angle_beta 128.210930
_cell_angle_gamma 125.278103
_cell_volume 633.573431
_symmetry_space_group_name_H-M "P -1"
_symmetry_group_IT_number 2
_symmetry_cell_setting 'triclinic'
loop_
_space_group_symop_operation_xyz
x,y,z
-x,-y,-z
loop_
_atom_site_type_symbol
_atom_site_label
_atom_site_fract_x
_atom_site_fract_y
_atom_site_fract_z
Si Si1 0.883131 0.584855 0.075392
Si Si2 0.225671 0.817632 0.362710
Si Si3 0.329024 0.610852 0.310490
Si Si4 0.559386 0.593273 0.330550
Si Si5 0.299118 0.768009 0.776298
Si Si6 0.723371 0.816991 0.865120
Si Si7 0.359084 0.107913 0.927394
O O1 0.800023 0.452424 0.186225
O O2 0.058301 0.657934 0.214381
O O3 0.816333 0.465032 0.900619
O O4 0.858588 0.770518 0.995339
O O5 0.339146 0.776056 0.378633
O O6 0.242145 0.790665 0.558743
O O7 0.259821 0.036092 0.297645
O O8 0.479229 0.697402 0.314247
O O9 0.321980 0.428967 0.451919
O O10 0.435066 0.380059 0.231299
O O11 0.647865 0.726424 0.229074
O O12 0.278146 0.904572 0.832554
O O13 0.470776 0.824381 0.898495
O O14 0.734389 0.922275 0.997810
#
# Coordination Sequence:
#
# PCOD8017938 Si02
#       7
#     2   2   2   2   2   2   2
#     4  11  24  47  62  90 132 172 211 254 306 380
#     4  12  26  41  65  95 129 169 216 252 303 384
#     4  10  22  39  69  91 124 166 211 254 323 357
#     4  10  22  40  67  98 130 154 210 269 317 376
#     4  11  25  41  67  93 128 166 210 261 318 371
#     4  11  24  40  68  94 126 168 209 260 321 361
#     4  11  23  42  67  94 131 157 208 270 324 368
#
# _framework density 22.096886999999999
#
# number of rings (size 3 to 8) (size 9 to 14) (size 15 to 20)
#    0.000    1.143    2.857    3.429   10.000    1.143 
#    0.000    0.714    0.000    0.000    0.000    0.000 
#    0.000    0.000    0.000    0.000    0.000    0.000 
#
# Total GULP energy -173665.362418 kJ/mol
# GULP energy per Si atom -12404.668744 kJ/mol
# Density = 2.204659 g / cm^3
# Si number density = 22.096887 Si / 1000 Ang^3
#
#
#
# Elastic Constant Matrix: (Units=GPa)
#
#
# Indices 1 2 3 4 5 6 
#
# 1 70.0741 21.0294 24.0283 1.0101 -13.9549 -22.6873
# 2 21.0294 87.3385 28.7016 -22.8522 -0.0750 -9.3590
# 3 24.0283 28.7016 105.1735 -31.8774 -12.9316 7.5020
# 4 1.0101 -22.8522 -31.8774 33.7578 -0.8656 -1.8401
# 5 -13.9549 -0.0750 -12.9316 -0.8656 25.0606 4.1620
# 6 -22.6873 -9.3590 7.5020 -1.8401 4.1620 24.8948
#
#
#
# Elastic Compliance Matrix: (Units=1/GPa)
#
#
# Indices 1 2 3 4 5 6 
#
# 1 0.028546 -0.003775 -0.010012 -0.011304 0.006048 0.025766
# 2 -0.003775 0.015728 -0.001083 0.009881 -0.002940 0.004021
# 3 -0.010012 -0.001083 0.019312 0.017159 0.007527 -0.015341
# 4 -0.011304 0.009881 0.017159 0.052521 0.005874 -0.008858
# 5 0.006048 -0.002940 0.007527 0.005874 0.048262 -0.005496
# 6 0.025766 0.004021 -0.015341 -0.008858 -0.005496 0.070050
#
#
# Mechanical properties :
#
#
# Convention : Reuss Voigt Hill
#
# Bulk Modulus (GPa) = 29.54570 45.56720 37.55645
# Shear Modulus (GPa) = 18.15270 29.33109 23.74190
#
# Velocity S-wave (km/s) = 2.86930 3.64728 3.28143
# Velocity P-wave (km/s) = 4.93733 6.19703 5.60270
#
# Compressibility (1/GPa) = 0.03384587
#
# Stress axis : x y z
#
# Youngs Moduli (GPa) = 35.03108 63.57938 51.78206
#
# Poissons Ratio (x) = 0.23999 0.51845
# Poissons Ratio (y) = 0.13223 0.05610
# Poissons Ratio (z) = 0.35073 0.06888
#
# Static dielectric constant tensor:
#      x y z
#    x 3.820680 -0.191180 -0.121360 
#    y -0.191180 3.899250 -0.231040 
#    z -0.121360 -0.231040 4.168860 
# 
# 
# High freq. dielectric constant tensor:
#      x y z
#    x 1.853230 -0.016900 -0.014180 
#    y -0.016900 1.864920 -0.017930 
#    z -0.014180 -0.017930 1.882920 
# 
# From -- ./inp_files/206855.got.cif
#   From: 2010.06.25/outbox.cif.g09.slc.cpg/sg2_104_cif.got.tgz:206855.got - 2010.06.27 13:26:56.
