data_PCOD8017779
_publ_section_title
;
Structure prediction by ZEFSAII (Michael W. Deem and Ramdas Pophale) SiO2 
 PCOD8017779
Probable space group: P -1
;
_chemical_formula_sum "Si O2"
_cell_formula_units_Z 16
_cell_length_a 10.920802
_cell_length_b 19.157649
_cell_length_c 8.998578
_cell_angle_alpha 148.235721
_cell_angle_beta 48.880459
_cell_angle_gamma 128.988150
_cell_volume 734.885933
_symmetry_space_group_name_H-M "P -1"
_symmetry_group_IT_number 2
_symmetry_cell_setting 'triclinic'
loop_
_space_group_symop_operation_xyz
x,y,z
-x,-y,-z
loop_
_atom_site_type_symbol
_atom_site_label
_atom_site_fract_x
_atom_site_fract_y
_atom_site_fract_z
Si Si1 0.504469 0.521835 0.861169
Si Si2 0.740207 0.887239 0.990247
Si Si3 0.434791 0.730097 0.811281
Si Si4 0.964766 0.682216 0.477699
Si Si5 0.751762 0.432907 0.090966
Si Si6 0.673344 0.040682 0.855086
Si Si7 0.774144 0.147400 0.263644
Si Si8 0.594385 0.818661 0.298805
O O1 0.581356 0.397280 0.514609
O O2 0.327805 0.522362 0.918389
O O3 0.500000 0.500000 0.000000
O O4 0.626630 0.665151 0.996143
O O5 0.618117 0.815891 0.830031
O O6 0.899434 0.817491 0.733828
O O7 0.643988 0.883259 0.216432
O O8 0.800922 0.041547 0.177695
O O9 0.387537 0.674889 0.914143
O O10 0.318385 0.830363 0.025837
O O11 0.806991 0.560623 0.389895
O O12 0.080023 0.720658 0.601347
O O13 0.089379 0.638676 0.178764
O O14 0.708177 0.912648 0.499636
O O15 0.800840 0.085432 0.968075
O O16 0.500000 0.000000 0.000000
O O17 0.596934 0.188307 0.513855
#
# Coordination Sequence:
#
# PCOD8017779 Si02
#       8
#     2   2   2   2   2   2   2   2
#     4  12  23  37  67  99 123 156 207 269 316 359
#     4  12  22  37  68  95 120 162 219 263 306 373
#     4  12  22  41  69  96 121 161 220 266 304 366
#     4  11  24  41  62  90 132 171 209 248 317 388
#     4  11  24  42  66  90 128 170 210 256 314 379
#     4  10  22  39  65  96 128 160 206 269 321 360
#     4  11  22  41  64  90 130 168 207 257 324 370
#     4  11  22  38  65  98 121 157 216 270 309 358
#
# _framework density 21.772086999999999
#
# number of rings (size 3 to 8) (size 9 to 14) (size 15 to 20)
#    0.000    0.750    6.250    3.375    1.750    0.000 
#    0.000    1.250    5.500    0.000    0.000    0.000 
#    0.000    0.000    0.000    0.000    0.000    0.000 
#
# Total GULP energy -198232.265900 kJ/mol
# GULP energy per Si atom -12389.516619 kJ/mol
# Density = 2.172253 g / cm^3
# Si number density = 21.772087 Si / 1000 Ang^3
#
#
#
# Elastic Constant Matrix: (Units=GPa)
#
#
# Indices 1 2 3 4 5 6 
#
# 1 98.7621 41.6075 32.2085 3.6891 33.6030 -0.7243
# 2 41.6075 63.9231 15.6724 12.8481 14.3876 -14.5243
# 3 32.2085 15.6724 116.2194 15.0691 33.6155 4.7288
# 4 3.6891 12.8481 15.0691 25.4268 6.1312 6.4077
# 5 33.6030 14.3876 33.6155 6.1312 42.8652 -0.5300
# 6 -0.7243 -14.5243 4.7288 6.4077 -0.5300 28.1711
#
#
#
# Elastic Compliance Matrix: (Units=1/GPa)
#
#
# Indices 1 2 3 4 5 6 
#
# 1 0.019979 -0.014216 -0.001237 0.010082 -0.011475 -0.009117
# 2 -0.014216 0.033292 0.000483 -0.021183 0.002888 0.021590
# 3 -0.001237 0.000483 0.011801 -0.004997 -0.007741 -0.000773
# 4 0.010082 -0.021183 -0.004997 0.058742 -0.005565 -0.023290
# 5 -0.011475 0.002888 -0.007741 -0.005565 0.038277 0.004479
# 6 -0.009117 0.021590 -0.000773 -0.023290 0.004479 0.051906
#
#
# Mechanical properties :
#
#
# Convention : Reuss Voigt Hill
#
# Bulk Modulus (GPa) = 28.46483 50.87571 39.67027
# Shear Modulus (GPa) = 19.55821 31.92035 25.73928
#
# Velocity S-wave (km/s) = 3.00044 3.83314 3.44207
# Velocity P-wave (km/s) = 5.01058 6.55811 5.83587
#
# Compressibility (1/GPa) = 0.03513107
#
# Stress axis : x y z
#
# Youngs Moduli (GPa) = 50.05336 30.03725 84.74168
#
# Poissons Ratio (x) = 0.42702 0.10483
# Poissons Ratio (y) = 0.71157 -0.04094
# Poissons Ratio (z) = 0.06192 -0.01451
#
# Static dielectric constant tensor:
#      x y z
#    x 4.127790 -0.028170 0.469190 
#    y -0.028170 3.774200 0.282090 
#    z 0.469190 0.282090 4.443860 
# 
# 
# High freq. dielectric constant tensor:
#      x y z
#    x 1.843210 -0.002120 0.024020 
#    y -0.002120 1.828030 0.022540 
#    z 0.024020 0.022540 1.878050 
# 
# From -- ./inp_files/208195.got.cif
#   From: 2010.06.25/outbox.cif.g09.slc.cpg/sg2_105_cif.got.tgz:208195.got - 2010.06.27 13:26:56.
