data_PCOD8017546
_publ_section_title
;
Structure prediction by ZEFSAII (Michael W. Deem and Ramdas Pophale) SiO2 
 PCOD8017546
Probable space group: P -1
;
_chemical_formula_sum "Si O2"
_cell_formula_units_Z 16
_cell_length_a 6.952225
_cell_length_b 23.817854
_cell_length_c 11.320487
_cell_angle_alpha 32.240030
_cell_angle_beta 57.276922
_cell_angle_gamma 68.551383
_cell_volume 823.596137
_symmetry_space_group_name_H-M "P -1"
_symmetry_group_IT_number 2
_symmetry_cell_setting 'triclinic'
loop_
_space_group_symop_operation_xyz
x,y,z
-x,-y,-z
loop_
_atom_site_type_symbol
_atom_site_label
_atom_site_fract_x
_atom_site_fract_y
_atom_site_fract_z
Si Si1 0.076059 0.221704 0.847915
Si Si2 0.485821 0.762618 0.702476
Si Si3 0.911963 0.404537 0.437552
Si Si4 0.403861 0.274649 0.862179
Si Si5 0.986202 0.649142 0.993674
Si Si6 0.871741 0.880764 0.226268
Si Si7 0.429589 0.873328 0.756914
Si Si8 0.086883 0.319890 0.306437
O O1 0.042409 0.334142 0.603706
O O2 0.288654 0.246349 0.824066
O O3 0.130420 0.140701 0.874218
O O4 0.848557 0.161609 0.099394
O O5 0.600227 0.855133 0.405093
O O6 0.540546 0.817128 0.714520
O O7 0.628421 0.664666 0.820892
O O8 0.213909 0.720915 0.848837
O O9 0.633206 0.366526 0.603139
O O10 0.004420 0.403833 0.273092
O O11 0.976589 0.525453 0.248379
O O12 0.237239 0.316332 0.937005
O O13 0.477363 0.167212 0.079255
O O14 0.010485 0.667710 0.812810
O O15 0.010462 0.800396 0.393669
O O16 0.000000 0.000000 0.000000
O O17 0.500000 0.000000 0.500000
#
# Coordination Sequence:
#
# PCOD8017546 Si02
#       8
#     2   2   2   2   2   2   2   2
#     4  10  22  40  59  92 122 157 208 241 297 373
#     4  10  22  39  62  88 123 156 202 253 295 359
#     4  10  24  39  63  87 123 168 196 254 304 348
#     4  11  23  41  62  91 124 157 207 249 297 373
#     4  12  22  40  62  91 122 160 207 248 305 357
#     4   9  19  41  62  83 122 159 192 255 301 343
#     4  11  22  42  64  86 124 162 197 256 306 349
#     4   9  22  40  60  88 121 157 208 250 292 364
#
# _framework density 19.426998000000001
#
# number of rings (size 3 to 8) (size 9 to 14) (size 15 to 20)
#    0.750    1.000    2.500    1.500    1.750    2.500 
#    2.250    0.625    0.000    0.000    0.000    0.000 
#    0.000    0.000    0.000    0.000    0.000    0.000 
#
# Total GULP energy -198346.130002 kJ/mol
# GULP energy per Si atom -12396.633125 kJ/mol
# Density = 1.938278 g / cm^3
# Si number density = 19.426998 Si / 1000 Ang^3
#
#
#
# Elastic Constant Matrix: (Units=GPa)
#
#
# Indices 1 2 3 4 5 6 
#
# 1 99.0505 34.9721 36.8858 -2.9470 -6.5400 5.4421
# 2 34.9721 100.7022 44.0869 11.8042 -10.8338 7.1056
# 3 36.8858 44.0869 91.3315 -4.4540 -7.4402 2.1488
# 4 -2.9470 11.8042 -4.4540 25.6302 -1.4627 -1.8683
# 5 -6.5400 -10.8338 -7.4402 -1.4627 24.6119 8.4242
# 6 5.4421 7.1056 2.1488 -1.8683 8.4242 26.6237
#
#
#
# Elastic Compliance Matrix: (Units=1/GPa)
#
#
# Indices 1 2 3 4 5 6 
#
# 1 0.012669 -0.002777 -0.003470 0.002094 0.001913 -0.002027
# 2 -0.002777 0.015651 -0.006271 -0.008697 0.005619 -0.005492
# 3 -0.003470 -0.006271 0.015690 0.005358 0.000974 0.001184
# 4 0.002094 -0.008697 0.005358 0.044506 -0.000646 0.004788
# 5 0.001913 0.005619 0.000974 -0.000646 0.049970 -0.017826
# 6 -0.002027 -0.005492 0.001184 0.004788 -0.017826 0.045321
#
#
# Mechanical properties :
#
#
# Convention : Reuss Voigt Hill
#
# Bulk Modulus (GPa) = 52.70293 58.10821 55.40557
# Shear Modulus (GPa) = 23.23756 27.04909 25.14332
#
# Velocity S-wave (km/s) = 3.46229 3.73546 3.60147
# Velocity P-wave (km/s) = 6.57045 6.97000 6.77317
#
# Compressibility (1/GPa) = 0.01897428
#
# Stress axis : x y z
#
# Youngs Moduli (GPa) = 78.93517 63.89188 63.73301
#
# Poissons Ratio (x) = 0.17742 0.22118
# Poissons Ratio (y) = 0.21920 0.39966
# Poissons Ratio (z) = 0.27393 0.40066
#
# Static dielectric constant tensor:
#      x y z
#    x 3.336690 -0.061480 0.048370 
#    y -0.061480 3.691240 0.215690 
#    z 0.048370 0.215690 3.458290 
# 
# 
# High freq. dielectric constant tensor:
#      x y z
#    x 1.741630 0.000110 0.001710 
#    y 0.000110 1.772070 0.015730 
#    z 0.001710 0.015730 1.751530 
# 
# From -- ./inp_files/370953.got.cif
#   From: 2010.06.25/outbox.cif.g09.slc.cpg/sg2_186_cif.got.tgz:370953.got - 2010.06.27 13:26:56.
