data_PCOD8017865
_publ_section_title
;
Structure prediction by ZEFSAII (Michael W. Deem and Ramdas Pophale) SiO2 
 PCOD8017865
Probable space group: P -1
;
_chemical_formula_sum "Si O2"
_cell_formula_units_Z 14
_cell_length_a 8.881921
_cell_length_b 18.584013
_cell_length_c 8.881916
_cell_angle_alpha 137.258471
_cell_angle_beta 49.956941
_cell_angle_gamma 113.174045
_cell_volume 752.887542
_symmetry_space_group_name_H-M "P -1"
_symmetry_group_IT_number 2
_symmetry_cell_setting 'triclinic'
loop_
_space_group_symop_operation_xyz
x,y,z
-x,-y,-z
loop_
_atom_site_type_symbol
_atom_site_label
_atom_site_fract_x
_atom_site_fract_y
_atom_site_fract_z
Si Si1 0.028584 0.291653 0.006546
Si Si2 0.145192 0.692417 0.530025
Si Si3 0.463588 0.099569 0.065185
Si Si4 0.133953 0.900431 0.337274
Si Si5 0.103127 0.476482 0.056091
Si Si6 0.423240 0.291653 0.611889
Si Si7 0.971744 0.897024 0.765792
O O1 0.266343 0.251317 0.768978
O O2 0.903967 0.208446 0.884107
O O3 0.971011 0.406712 0.136308
O O4 0.979073 0.304493 0.232495
O O5 0.122004 0.585828 0.293659
O O6 0.376491 0.695507 0.411942
O O7 0.056474 0.792202 0.640877
O O8 0.636133 0.087925 0.811984
O O9 0.467214 0.208446 0.320859
O O10 0.259541 0.102282 0.112992
O O11 0.500000 0.000000 0.000000
O O12 0.091572 0.897718 0.535895
O O13 0.000000 0.000000 0.500000
O O14 0.322885 0.406712 0.784435
O O15 0.000000 0.500000 0.000000
O O16 0.000000 0.000000 0.000000
#
# Coordination Sequence:
#
# PCOD8017865 Si02
#       7
#     2   2   2   2   2   2   2
#     4  10  22  39  67  92 125 166 213 255 321 365
#     4  12  22  42  65  94 131 167 213 264 313 375
#     4  12  22  41  67  91 126 168 212 260 319 376
#     4  12  22  41  67  91 126 168 212 260 319 376
#     4  10  22  42  64  92 132 167 211 264 313 373
#     4  10  22  39  67  92 125 166 213 255 321 365
#     4  12  26  40  64  98 130 166 208 266 314 380
#
# _framework density 18.595075000000001
#
# number of rings (size 3 to 8) (size 9 to 14) (size 15 to 20)
#    0.857    0.000    4.286    4.286    0.000    1.714 
#    0.000    0.714    0.000    0.000    0.000    0.000 
#    0.000    0.000    0.000    0.000    0.000    0.000 
#
# Total GULP energy -173595.578662 kJ/mol
# GULP energy per Si atom -12399.684190 kJ/mol
# Density = 1.855275 g / cm^3
# Si number density = 18.595075 Si / 1000 Ang^3
#
#
#
# Elastic Constant Matrix: (Units=GPa)
#
#
# Indices 1 2 3 4 5 6 
#
# 1 161.0008 83.2922 76.6049 -0.9938 -1.5393 -3.1527
# 2 83.2922 141.3048 74.8535 -0.7614 -2.4273 -9.2987
# 3 76.6049 74.8535 144.2348 4.7736 11.1374 -1.9401
# 4 -0.9938 -0.7614 4.7736 57.3437 8.6927 -4.2226
# 5 -1.5393 -2.4273 11.1374 8.6927 43.0058 2.5865
# 6 -3.1527 -9.2987 -1.9401 -4.2226 2.5865 43.6664
#
#
#
# Elastic Compliance Matrix: (Units=1/GPa)
#
#
# Indices 1 2 3 4 5 6 
#
# 1 0.009867 -0.004140 -0.003175 0.000216 0.000919 -0.000344
# 2 -0.004140 0.011801 -0.004016 0.000359 0.001366 0.001989
# 3 -0.003175 -0.004016 0.010950 -0.000596 -0.003027 -0.000476
# 4 0.000216 0.000359 -0.000596 0.018195 -0.003618 0.002039
# 5 0.000919 0.001366 -0.003027 -0.003618 0.024975 -0.001607
# 6 -0.000344 0.001989 -0.000476 0.002039 -0.001607 0.023571
#
#
# Mechanical properties :
#
#
# Convention : Reuss Voigt Hill
#
# Bulk Modulus (GPa) = 100.43258 101.78240 101.10749
# Shear Modulus (GPa) = 39.89164 42.92250 41.40707
#
# Velocity S-wave (km/s) = 4.63674 4.80966 4.72399
# Velocity P-wave (km/s) = 9.09909 9.25737 9.17857
#
# Compressibility (1/GPa) = 0.00995693
#
# Stress axis : x y z
#
# Youngs Moduli (GPa) = 101.35020 84.73851 91.32014
#
# Poissons Ratio (x) = 0.35082 0.28990
# Poissons Ratio (y) = 0.41959 0.36675
# Poissons Ratio (z) = 0.32174 0.34032
#
# Static dielectric constant tensor:
#      x y z
#    x 3.392830 0.019510 -0.002180 
#    y 0.019510 3.518510 0.111960 
#    z -0.002180 0.111960 3.546060 
# 
# 
# High freq. dielectric constant tensor:
#      x y z
#    x 1.722240 0.006350 0.002190 
#    y 0.006350 1.731810 0.007260 
#    z 0.002190 0.007260 1.738390 
# 
# From -- ./inp_files/216092.got.cif
#   From: 2010.06.25/outbox.cif.g09.slc.cpg/sg2_109_cif.got.tgz:216092.got - 2010.06.27 13:26:56.
