data_PCOD8017748
_publ_section_title
;
Structure prediction by ZEFSAII (Michael W. Deem and Ramdas Pophale) SiO2 
 PCOD8017748
Probable space group: P -1
;
_chemical_formula_sum "Si O2"
_cell_formula_units_Z 14
_cell_length_a 7.689871
_cell_length_b 9.549214
_cell_length_c 20.576211
_cell_angle_alpha 135.205466
_cell_angle_beta 127.492324
_cell_angle_gamma 86.827195
_cell_volume 624.267610
_symmetry_space_group_name_H-M "P -1"
_symmetry_group_IT_number 2
_symmetry_cell_setting 'triclinic'
loop_
_space_group_symop_operation_xyz
x,y,z
-x,-y,-z
loop_
_atom_site_type_symbol
_atom_site_label
_atom_site_fract_x
_atom_site_fract_y
_atom_site_fract_z
Si Si1 0.325640 0.177980 0.540522
Si Si2 0.805283 0.789165 0.093865
Si Si3 0.751730 0.761807 0.818815
Si Si4 0.834748 0.204413 0.167239
Si Si5 0.298886 0.207619 0.782897
Si Si6 0.324226 0.786193 0.488427
Si Si7 0.615129 0.996993 0.760326
O O1 0.486940 0.478687 0.701273
O O2 0.466513 0.204079 0.511581
O O3 0.355187 0.034631 0.557039
O O4 0.975413 0.004572 0.396274
O O5 0.825100 0.792150 0.176537
O O6 0.856920 0.051591 0.177162
O O7 0.494872 0.515042 0.904453
O O8 0.045413 0.790283 0.115873
O O9 0.591091 0.824352 0.756805
O O10 0.940643 0.711454 0.810063
O O11 0.000000 0.000000 0.000000
O O12 0.976727 0.502775 0.318996
O O13 0.500000 0.000000 0.000000
O O14 0.507872 0.141068 0.812615
O O15 0.428825 0.814552 0.595230
#
# Coordination Sequence:
#
# PCOD8017748 Si02
#       7
#     2   2   2   2   2   2   2
#     4  10  22  42  66  92 134 168 214 265 324 381
#     4  10  23  41  61  96 134 161 219 264 312 385
#     4  10  25  42  62  95 132 168 211 273 324 375
#     4  10  22  39  65  89 130 175 210 265 322 380
#     4  11  23  39  67  96 126 176 207 265 324 373
#     4  10  22  41  66  96 128 173 215 265 323 375
#     4  11  24  42  67  94 128 170 217 268 314 385
#
# _framework density 22.426282
#
# number of rings (size 3 to 8) (size 9 to 14) (size 15 to 20)
#    0.000    1.714    1.429    1.286    4.000    7.429 
#    0.000    0.000    0.000    0.000    0.000    0.000 
#    0.000    0.000    0.000    0.000    0.000    0.000 
#
# Total GULP energy -173455.917136 kJ/mol
# GULP energy per Si atom -12389.708367 kJ/mol
# Density = 2.237524 g / cm^3
# Si number density = 22.426282 Si / 1000 Ang^3
#
#
#
# Elastic Constant Matrix: (Units=GPa)
#
#
# Indices 1 2 3 4 5 6 
#
# 1 49.3891 35.1658 0.8426 12.4253 13.3689 -11.8100
# 2 35.1658 126.8812 92.7601 9.8746 1.9632 -6.4934
# 3 0.8426 92.7601 179.4279 21.7815 13.9560 6.7234
# 4 12.4253 9.8746 21.7815 43.3775 0.0232 3.1418
# 5 13.3689 1.9632 13.9560 0.0232 30.8044 -1.1590
# 6 -11.8100 -6.4934 6.7234 3.1418 -1.1590 19.7514
#
#
#
# Elastic Compliance Matrix: (Units=1/GPa)
#
#
# Indices 1 2 3 4 5 6 
#
# 1 0.054302 -0.023493 0.015693 -0.019582 -0.028380 0.020853
# 2 -0.023493 0.023945 -0.014430 0.008643 0.015135 -0.001750
# 3 0.015693 -0.014430 0.015000 -0.008749 -0.012674 0.000182
# 4 -0.019582 0.008643 -0.008749 0.031827 0.011501 -0.010277
# 5 -0.028380 0.015135 -0.012674 0.011501 0.049299 -0.006616
# 6 0.020853 -0.001750 0.000182 -0.010277 -0.006616 0.063707
#
#
# Mechanical properties :
#
#
# Convention : Reuss Voigt Hill
#
# Bulk Modulus (GPa) = 20.49632 68.13726 44.31679
# Shear Modulus (GPa) = 16.73349 33.91531 25.32440
#
# Velocity S-wave (km/s) = 2.73455 3.89305 3.36405
# Velocity P-wave (km/s) = 4.37374 7.11734 5.90704
#
# Compressibility (1/GPa) = 0.04878924
#
# Stress axis : x y z
#
# Youngs Moduli (GPa) = 18.41567 41.76156 66.66451
#
# Poissons Ratio (x) = 0.98110 -1.04619
# Poissons Ratio (y) = 0.43264 0.96195
# Poissons Ratio (z) = -0.28900 0.60261
#
# Static dielectric constant tensor:
#      x y z
#    x 3.991790 0.048210 0.187550 
#    y 0.048210 3.934010 0.122160 
#    z 0.187550 0.122160 4.336970 
# 
# 
# High freq. dielectric constant tensor:
#      x y z
#    x 1.878090 0.001270 0.010660 
#    y 0.001270 1.878660 0.013160 
#    z 0.010660 0.013160 1.896660 
# 
# From -- ./inp_files/465136.got.cif
#   From: 2010.06.25/outbox.cif.g09.slc.cpg/sg2_233_cif.got.tgz:465136.got - 2010.06.27 13:26:56.
