data_PCOD8017491
_publ_section_title
;
Structure prediction by ZEFSAII (Michael W. Deem and Ramdas Pophale) SiO2 
 PCOD8017491
Probable space group: P -1
;
_chemical_formula_sum "Si O2"
_cell_formula_units_Z 16
_cell_length_a 11.665893
_cell_length_b 8.559557
_cell_length_c 13.849530
_cell_angle_alpha 50.537757
_cell_angle_beta 57.968627
_cell_angle_gamma 42.498421
_cell_volume 716.222729
_symmetry_space_group_name_H-M "P -1"
_symmetry_group_IT_number 2
_symmetry_cell_setting 'triclinic'
loop_
_space_group_symop_operation_xyz
x,y,z
-x,-y,-z
loop_
_atom_site_type_symbol
_atom_site_label
_atom_site_fract_x
_atom_site_fract_y
_atom_site_fract_z
Si Si1 0.983992 0.525020 0.611662
Si Si2 0.305116 0.617681 0.801878
Si Si3 0.518655 0.209240 0.449551
Si Si4 0.686429 0.023754 0.639076
Si Si5 0.038494 0.900088 0.208694
Si Si6 0.179503 0.719577 0.422514
Si Si7 0.598187 0.295632 0.953455
Si Si8 0.554051 0.896750 0.123841
O O1 0.021229 0.267173 0.736503
O O2 0.000000 0.500000 0.500000
O O3 0.111729 0.585663 0.565693
O O4 0.795047 0.754507 0.641179
O O5 0.322037 0.816093 0.658970
O O6 0.468934 0.433687 0.868025
O O7 0.309182 0.413680 0.811432
O O8 0.118729 0.803294 0.863987
O O9 0.533684 0.206887 0.560095
O O10 0.355991 0.492389 0.382680
O O11 0.500000 0.000000 0.500000
O O12 0.799957 0.118209 0.573764
O O13 0.614219 0.008507 0.777903
O O14 0.058657 0.893355 0.318922
O O15 0.213677 0.792622 0.118533
O O16 0.500000 0.500000 0.000000
O O17 0.631381 0.034355 0.076865
O O18 0.500000 0.000000 0.000000
#
# Coordination Sequence:
#
# PCOD8017491 Si02
#       8
#     2   2   2   2   2   2   2   2
#     4  10  22  39  60  98 140 179 224 278 348 422
#     4  11  24  44  68  99 138 178 229 287 349 421
#     4  12  23  39  68 102 141 181 224 283 359 425
#     4  12  23  41  69  98 141 184 233 286 351 421
#     4  11  22  44  68  96 139 181 227 292 350 407
#     4  11  21  40  62  99 140 179 223 280 351 423
#     4  11  24  44  71  96 134 186 239 287 341 403
#     4  10  23  45  68  97 134 181 234 285 339 405
#
# _framework density 22.33942
#
# number of rings (size 3 to 8) (size 9 to 14) (size 15 to 20)
#    0.000    1.000    2.500    6.000    1.750    1.000 
#    0.000    0.000    0.000    0.000    0.000    0.000 
#    0.000    0.000    0.000    0.000    0.000    0.000 
#
# Total GULP energy -198292.449369 kJ/mol
# GULP energy per Si atom -12393.278086 kJ/mol
# Density = 2.228857 g / cm^3
# Si number density = 22.339420 Si / 1000 Ang^3
#
#
#
# Elastic Constant Matrix: (Units=GPa)
#
#
# Indices 1 2 3 4 5 6 
#
# 1 87.7381 38.1590 59.4274 -4.6634 -26.8618 16.9567
# 2 38.1590 176.4190 60.3854 8.7803 -25.1761 10.4769
# 3 59.4274 60.3854 104.1296 3.7834 -26.0165 11.5099
# 4 -4.6634 8.7803 3.7834 35.9311 5.9334 -11.7166
# 5 -26.8618 -25.1761 -26.0165 5.9334 37.6009 -4.7496
# 6 16.9567 10.4769 11.5099 -11.7166 -4.7496 46.8365
#
#
#
# Elastic Compliance Matrix: (Units=1/GPa)
#
#
# Indices 1 2 3 4 5 6 
#
# 1 0.021260 0.000057 -0.009808 0.001121 0.007728 -0.004235
# 2 0.000057 0.007411 -0.003408 -0.002284 0.002864 -0.001122
# 3 -0.009808 -0.003408 0.018311 -0.003193 0.003809 -0.000599
# 4 0.001121 -0.002284 -0.003193 0.032765 -0.007050 0.008371
# 5 0.007728 0.002864 0.003809 -0.007050 0.037486 -0.002337
# 6 -0.004235 -0.001122 -0.000599 0.008371 -0.002337 0.025140
#
#
# Mechanical properties :
#
#
# Convention : Reuss Voigt Hill
#
# Bulk Modulus (GPa) = 48.39147 76.02561 62.20854
# Shear Modulus (GPa) = 28.47704 38.09469 33.28587
#
# Velocity S-wave (km/s) = 3.57423 4.13397 3.86425
# Velocity P-wave (km/s) = 6.22434 7.54269 6.91501
#
# Compressibility (1/GPa) = 0.02066480
#
# Stress axis : x y z
#
# Youngs Moduli (GPa) = 47.03616 134.92636 54.61097
#
# Poissons Ratio (x) = -0.00773 0.53564
# Poissons Ratio (y) = -0.00269 0.18612
# Poissons Ratio (z) = 0.46134 0.45985
#
# Static dielectric constant tensor:
#      x y z
#    x 0.294740 -2.206310 0.807820 
#    y -2.206310 2.609520 0.641250 
#    z 0.807820 0.641250 3.664580 
# 
# 
# High freq. dielectric constant tensor:
#      x y z
#    x 1.869270 0.015410 -0.023320 
#    y 0.015410 1.895810 0.001610 
#    z -0.023320 0.001610 1.868640 
# 
# From -- ./inp_files/515027.got.cif
#   From: 2010.06.25/outbox.cif.g09.slc.cpg/sg2_258_cif.got.tgz:515027.got - 2010.06.27 13:26:56.
