data_PCOD8017862
_publ_section_title
;
Structure prediction by ZEFSAII (Michael W. Deem and Ramdas Pophale) SiO2 
 PCOD8017862
Probable space group: P -1
;
_chemical_formula_sum "Si O2"
_cell_formula_units_Z 14
_cell_length_a 8.339133
_cell_length_b 8.470009
_cell_length_c 12.522283
_cell_angle_alpha 111.422484
_cell_angle_beta 107.905039
_cell_angle_gamma 115.179267
_cell_volume 622.614801
_symmetry_space_group_name_H-M "P -1"
_symmetry_group_IT_number 2
_symmetry_cell_setting 'triclinic'
loop_
_space_group_symop_operation_xyz
x,y,z
-x,-y,-z
loop_
_atom_site_type_symbol
_atom_site_label
_atom_site_fract_x
_atom_site_fract_y
_atom_site_fract_z
Si Si1 0.469225 0.784693 0.767029
Si Si2 0.796667 0.531413 0.049866
Si Si3 0.249523 0.791453 0.188154
Si Si4 0.684732 0.626478 0.484499
Si Si5 0.834087 0.114946 0.306236
Si Si6 0.403943 0.087200 0.578082
Si Si7 0.627544 0.752741 0.999743
O O1 0.374059 0.543853 0.660570
O O2 0.264040 0.777659 0.742899
O O3 0.612828 0.955190 0.744664
O O4 0.628119 0.868370 0.922318
O O5 0.746490 0.646168 0.978935
O O6 0.034993 0.714210 0.187234
O O7 0.802143 0.340500 0.963483
O O8 0.622776 0.440225 0.083685
O O9 0.384799 0.736201 0.269005
O O10 0.500000 0.500000 0.500000
O O11 0.693105 0.819008 0.484978
O O12 0.911225 0.726127 0.610674
O O13 0.772876 0.074301 0.409812
O O14 0.733725 0.900449 0.163374
O O15 0.500000 0.000000 0.500000
#
# Coordination Sequence:
#
# PCOD8017862 Si02
#       7
#     2   2   2   2   2   2   2
#     4  11  24  43  68  97 137 173 218 273 338 393
#     4  10  22  39  67  91 134 167 220 266 331 391
#     4  10  22  43  63  98 131 169 221 274 325 392
#     4  12  27  45  67 101 134 178 225 275 334 396
#     4  11  25  46  67  98 138 175 222 277 332 397
#     4  11  24  45  71  92 131 179 226 269 329 400
#     4  11  23  41  68 100 130 171 220 276 334 389
#
# _framework density 22.485814000000001
#
# number of rings (size 3 to 8) (size 9 to 14) (size 15 to 20)
#    0.000    1.143    2.857    3.857    6.000    2.857 
#    2.571    0.000    0.000    0.000    0.000    0.000 
#    0.000    0.000    0.000    0.000    0.000    0.000 
#
# Total GULP energy -173453.883807 kJ/mol
# GULP energy per Si atom -12389.563129 kJ/mol
# Density = 2.243464 g / cm^3
# Si number density = 22.485814 Si / 1000 Ang^3
#
#
#
# Elastic Constant Matrix: (Units=GPa)
#
#
# Indices 1 2 3 4 5 6 
#
# 1 105.7902 31.7716 34.2291 18.2801 22.4413 10.3144
# 2 31.7716 72.4441 32.7939 2.7676 0.3134 -12.0944
# 3 34.2291 32.7939 83.3134 5.3074 9.4379 10.4848
# 4 18.2801 2.7676 5.3074 31.5066 1.9183 2.1640
# 5 22.4413 0.3134 9.4379 1.9183 45.6427 12.0675
# 6 10.3144 -12.0944 10.4848 2.1640 12.0675 40.5314
#
#
#
# Elastic Compliance Matrix: (Units=1/GPa)
#
#
# Indices 1 2 3 4 5 6 
#
# 1 0.014525 -0.005425 -0.002416 -0.007021 -0.005610 -0.002645
# 2 -0.005425 0.020986 -0.007464 0.001846 0.001611 0.008995
# 3 -0.002416 -0.007464 0.016753 -0.000329 -0.000699 -0.005720
# 4 -0.007021 0.001846 -0.000329 0.035588 0.002033 -0.000083
# 5 -0.005610 0.001611 -0.000699 0.002033 0.026259 -0.005838
# 6 -0.002645 0.008995 -0.005720 -0.000083 -0.005838 0.031252
#
#
# Mechanical properties :
#
#
# Convention : Reuss Voigt Hill
#
# Bulk Modulus (GPa) = 46.18150 51.01520 48.59835
# Shear Modulus (GPa) = 27.29376 34.38636 30.84006
#
# Velocity S-wave (km/s) = 3.48777 3.91480 3.70744
# Velocity P-wave (km/s) = 6.06647 6.57048 6.32350
#
# Compressibility (1/GPa) = 0.02165369
#
# Stress axis : x y z
#
# Youngs Moduli (GPa) = 68.84676 47.65064 59.68913
#
# Poissons Ratio (x) = 0.25853 0.14423
# Poissons Ratio (y) = 0.37353 0.44550
# Poissons Ratio (z) = 0.16636 0.35565
#
# Static dielectric constant tensor:
#      x y z
#    x 4.342690 -0.172250 0.284430 
#    y -0.172250 3.956400 0.055410 
#    z 0.284430 0.055410 4.355580 
# 
# 
# High freq. dielectric constant tensor:
#      x y z
#    x 1.900010 -0.013700 0.014060 
#    y -0.013700 1.873710 0.004320 
#    z 0.014060 0.004320 1.881400 
# 
# From -- ./inp_files/383032.got.cif
#   From: 2010.06.25/outbox.cif.g09.slc.cpg/sg2_192_cif.got.tgz:383032.got - 2010.06.27 13:26:56.
