data_PCOD8017774
_publ_section_title
;
Structure prediction by ZEFSAII (Michael W. Deem and Ramdas Pophale) SiO2 
 PCOD8017774
Probable space group: P -1
;
_chemical_formula_sum "Si O2"
_cell_formula_units_Z 14
_cell_length_a 23.837247
_cell_length_b 6.926845
_cell_length_c 14.966235
_cell_angle_alpha 55.377269
_cell_angle_beta 18.463954
_cell_angle_gamma 53.855352
_cell_volume 631.640912
_symmetry_space_group_name_H-M "P -1"
_symmetry_group_IT_number 2
_symmetry_cell_setting 'triclinic'
loop_
_space_group_symop_operation_xyz
x,y,z
-x,-y,-z
loop_
_atom_site_type_symbol
_atom_site_label
_atom_site_fract_x
_atom_site_fract_y
_atom_site_fract_z
Si Si1 0.043834 0.750339 0.953531
Si Si2 0.893876 0.379594 0.618727
Si Si3 0.529992 0.744620 0.070264
Si Si4 0.442297 0.688985 0.413567
Si Si5 0.542432 0.799286 0.414994
Si Si6 0.849762 0.341479 0.374948
Si Si7 0.086101 0.145384 0.220153
O O1 0.246398 0.635106 0.703846
O O2 0.034939 0.779525 0.852224
O O3 0.899123 0.600836 0.247655
O O4 0.000000 0.000000 0.000000
O O5 0.000000 0.500000 0.500000
O O6 0.028535 0.303559 0.353136
O O7 0.839255 0.135769 0.800764
O O8 0.715423 0.569316 0.807374
O O9 0.530920 0.780642 0.167168
O O10 0.364759 0.621182 0.323207
O O11 0.500000 0.000000 0.000000
O O12 0.452603 0.871038 0.433191
O O13 0.543208 0.423959 0.361719
O O14 0.500000 0.000000 0.500000
O O15 0.758195 0.741576 0.090629
O O16 0.913553 0.171899 0.407853
#
# Coordination Sequence:
#
# PCOD8017774 Si02
#       7
#     2   2   2   2   2   2   2
#     4  10  22  39  65  94 135 177 214 274 341 407
#     4  11  25  45  68  96 138 182 233 287 336 409
#     4  11  24  46  72 101 139 188 235 288 347 418
#     4  10  23  42  63 103 133 168 231 273 338 416
#     4  11  23  40  69 100 137 174 217 287 348 405
#     4  10  23  42  64  97 140 169 234 275 334 418
#     4  11  24  42  68 102 133 181 231 282 347 406
#
# _framework density 22.164490000000001
#
# number of rings (size 3 to 8) (size 9 to 14) (size 15 to 20)
#    0.000    1.429    1.429    2.571    2.000    7.429 
#    0.000    1.429    0.000    0.000    0.000    0.000 
#    0.000    0.000    0.000    0.000    0.000    0.000 
#
# Total GULP energy -173563.941191 kJ/mol
# GULP energy per Si atom -12397.424371 kJ/mol
# Density = 2.211404 g / cm^3
# Si number density = 22.164490 Si / 1000 Ang^3
#
#
#
# Elastic Constant Matrix: (Units=GPa)
#
#
# Indices 1 2 3 4 5 6 
#
# 1 148.3421 60.4170 34.2694 1.1903 9.5453 11.8912
# 2 60.4170 146.2759 49.7768 2.3643 13.4007 7.3817
# 3 34.2694 49.7768 102.5388 -0.4604 0.8326 2.1926
# 4 1.1903 2.3643 -0.4604 24.3083 -0.6623 -2.4297
# 5 9.5453 13.4007 0.8326 -0.6623 38.0261 -1.9990
# 6 11.8912 7.3817 2.1926 -2.4297 -1.9990 42.4043
#
#
#
# Elastic Compliance Matrix: (Units=1/GPa)
#
#
# Indices 1 2 3 4 5 6 
#
# 1 0.008437 -0.002790 -0.001417 -0.000390 -0.001209 -0.001886
# 2 -0.002790 0.009538 -0.003662 -0.001020 -0.002644 -0.000872
# 3 -0.001417 -0.003662 0.011984 0.000744 0.001424 0.000525
# 4 -0.000390 -0.001020 0.000744 0.041575 0.001307 0.002692
# 5 -0.001209 -0.002644 0.001424 0.001307 0.027635 0.002103
# 6 -0.001886 -0.000872 0.000525 0.002692 0.002103 0.024489
#
#
# Mechanical properties :
#
#
# Convention : Reuss Voigt Hill
#
# Bulk Modulus (GPa) = 70.31967 76.23146 73.27556
# Shear Modulus (GPa) = 34.68910 37.79398 36.24154
#
# Velocity S-wave (km/s) = 3.96040 4.13384 4.04805
# Velocity P-wave (km/s) = 7.26004 7.56657 7.41489
#
# Compressibility (1/GPa) = 0.01422077
#
# Stress axis : x y z
#
# Youngs Moduli (GPa) = 118.52396 104.84642 83.44371
#
# Poissons Ratio (x) = 0.29256 0.11822
# Poissons Ratio (y) = 0.33073 0.30557
# Poissons Ratio (z) = 0.16792 0.38394
#
# Static dielectric constant tensor:
#      x y z
#    x 4.281040 0.054240 0.058950 
#    y 0.054240 3.778680 -0.106960 
#    z 0.058950 -0.106960 3.853480 
# 
# 
# High freq. dielectric constant tensor:
#      x y z
#    x 1.892500 0.005250 -0.002370 
#    y 0.005250 1.860690 -0.009330 
#    z -0.002370 -0.009330 1.869790 
# 
# From -- ./inp_files/482515.got.cif
#   From: 2010.06.25/outbox.cif.g09.slc.cpg/sg2_242_cif.got.tgz:482515.got - 2010.06.27 13:26:56.
