data_PCOD8017996
_publ_section_title
;
Structure prediction by ZEFSAII (Michael W. Deem and Ramdas Pophale) SiO2 
 PCOD8017996
Probable space group: P -1
;
_chemical_formula_sum "Si O2"
_cell_formula_units_Z 16
_cell_length_a 8.586561
_cell_length_b 7.595553
_cell_length_c 19.844136
_cell_angle_alpha 45.019090
_cell_angle_beta 65.329865
_cell_angle_gamma 52.215917
_cell_volume 723.227742
_symmetry_space_group_name_H-M "P -1"
_symmetry_group_IT_number 2
_symmetry_cell_setting 'triclinic'
loop_
_space_group_symop_operation_xyz
x,y,z
-x,-y,-z
loop_
_atom_site_type_symbol
_atom_site_label
_atom_site_fract_x
_atom_site_fract_y
_atom_site_fract_z
Si Si1 0.670478 0.214538 0.245699
Si Si2 0.002626 0.682993 0.888311
Si Si3 0.509493 0.144793 0.664060
Si Si4 0.587928 0.227906 0.478206
Si Si5 0.225777 0.661380 0.230242
Si Si6 0.887156 0.623316 0.781202
Si Si7 0.076850 0.944649 0.626048
Si Si8 0.824012 0.494712 0.574194
O O1 0.460709 0.479004 0.232332
O O2 0.798425 0.077971 0.325051
O O3 0.786016 0.328323 0.146894
O O4 0.655276 0.954401 0.283588
O O5 0.965197 0.545169 0.864893
O O6 0.831754 0.011092 0.838895
O O7 0.000000 0.500000 0.000000
O O8 0.603412 0.127737 0.578187
O O9 0.417227 0.470821 0.617273
O O10 0.676290 0.912802 0.744967
O O11 0.802707 0.996618 0.471070
O O12 0.395240 0.244639 0.472884
O O13 0.130179 0.625364 0.187775
O O14 0.152032 0.548041 0.337926
O O15 0.047577 0.670884 0.696629
O O16 0.852195 0.204573 0.610614
O O17 0.000000 0.500000 0.500000
#
# Coordination Sequence:
#
# PCOD8017996 Si02
#       8
#     2   2   2   2   2   2   2   2
#     4  10  22  41  64  93 121 174 211 260 337 383
#     4  11  25  48  72  97 127 160 215 278 341 408
#     4  10  22  40  58  91 136 169 225 260 319 377
#     4  11  23  36  59  91 133 181 219 273 300 376
#     4  11  23  43  68  93 136 171 212 273 322 383
#     4  10  23  43  64  96 128 168 218 264 333 393
#     4  11  22  37  61  90 131 175 224 258 317 370
#     4  12  24  38  61  95 137 184 225 260 316 374
#
# _framework density 22.123044
#
# number of rings (size 3 to 8) (size 9 to 14) (size 15 to 20)
#    0.000    1.250    5.000    0.750    5.250    3.500 
#    0.000    2.500    0.000    0.000    0.000    0.000 
#    0.000    0.000    0.000    0.000    0.000    0.000 
#
# Total GULP energy -198242.351104 kJ/mol
# GULP energy per Si atom -12390.146944 kJ/mol
# Density = 2.207269 g / cm^3
# Si number density = 22.123044 Si / 1000 Ang^3
#
#
#
# Elastic Constant Matrix: (Units=GPa)
#
#
# Indices 1 2 3 4 5 6 
#
# 1 70.3719 13.9136 26.3836 7.9921 -2.1560 1.4964
# 2 13.9136 97.7372 15.9649 4.7442 -3.2074 -16.6525
# 3 26.3836 15.9649 112.5799 15.1667 -5.4144 -0.5602
# 4 7.9921 4.7442 15.1667 24.4163 -1.3096 -0.1125
# 5 -2.1560 -3.2074 -5.4144 -1.3096 27.8269 3.1971
# 6 1.4964 -16.6525 -0.5602 -0.1125 3.1971 33.8172
#
#
#
# Elastic Compliance Matrix: (Units=1/GPa)
#
#
# Indices 1 2 3 4 5 6 
#
# 1 0.016143 -0.001935 -0.003094 -0.002968 0.000490 -0.001774
# 2 -0.001935 0.011722 -0.001037 -0.000958 0.000287 0.005811
# 3 -0.003094 -0.001037 0.010532 -0.005250 0.001484 -0.000357
# 4 -0.002968 -0.000958 -0.005250 0.045417 0.000816 -0.000353
# 5 0.000490 0.000287 0.001484 0.000816 0.036717 -0.003324
# 6 -0.001774 0.005811 -0.000357 -0.000353 -0.003324 0.032818
#
#
# Mechanical properties :
#
#
# Convention : Reuss Voigt Hill
#
# Bulk Modulus (GPa) = 38.07451 43.69036 40.88244
# Shear Modulus (GPa) = 28.69691 32.17385 30.43538
#
# Velocity S-wave (km/s) = 3.60550 3.81768 3.71311
# Velocity P-wave (km/s) = 5.88053 6.26296 6.07475
#
# Compressibility (1/GPa) = 0.02626429
#
# Stress axis : x y z
#
# Youngs Moduli (GPa) = 61.94787 85.30766 94.95221
#
# Poissons Ratio (x) = 0.16505 0.29380
# Poissons Ratio (y) = 0.11986 0.09848
# Poissons Ratio (z) = 0.19168 0.08848
#
# Static dielectric constant tensor:
#      x y z
#    x 4.287300 0.040930 -0.231090 
#    y 0.040930 4.812560 -0.148700 
#    z -0.231090 -0.148700 3.711440 
# 
# 
# High freq. dielectric constant tensor:
#      x y z
#    x 1.887560 0.000330 -0.011530 
#    y 0.000330 1.881400 -0.002950 
#    z -0.011530 -0.002950 1.829650 
# 
# From -- ./inp_files/493405.got.cif
#   From: 2010.06.25/outbox.cif.g09.slc.cpg/sg2_247_cif.got.tgz:493405.got - 2010.06.27 13:26:56.
