data_PCOD8017515
_publ_section_title
;
Structure prediction by ZEFSAII (Michael W. Deem and Ramdas Pophale) SiO2 
 PCOD8017515
Probable space group: P -1
;
_chemical_formula_sum "Si O2"
_cell_formula_units_Z 14
_cell_length_a 14.064489
_cell_length_b 14.335875
_cell_length_c 14.233324
_cell_angle_alpha 30.261826
_cell_angle_beta 152.833708
_cell_angle_gamma 139.908585
_cell_volume 660.248380
_symmetry_space_group_name_H-M "P -1"
_symmetry_group_IT_number 2
_symmetry_cell_setting 'triclinic'
loop_
_space_group_symop_operation_xyz
x,y,z
-x,-y,-z
loop_
_atom_site_type_symbol
_atom_site_label
_atom_site_fract_x
_atom_site_fract_y
_atom_site_fract_z
Si Si1 0.279917 0.495236 0.859613
Si Si2 0.850304 0.543789 0.743804
Si Si3 0.388288 0.955172 0.676830
Si Si4 0.265050 0.110303 0.105901
Si Si5 0.135964 0.894090 0.345740
Si Si6 0.482938 0.325858 0.537635
Si Si7 0.738281 0.402751 0.036557
O O1 0.140744 0.671451 0.553364
O O2 0.303327 0.488214 0.998791
O O3 0.500000 0.500000 0.000000
O O4 0.177794 0.303405 0.904754
O O5 0.718149 0.368940 0.740570
O O6 0.674098 0.693425 0.493895
O O7 0.010112 0.613879 0.744012
O O8 0.000000 0.500000 0.000000
O O9 0.488176 0.136639 0.649192
O O10 0.527333 0.863353 0.795365
O O11 0.177074 0.991513 0.399137
O O12 0.350714 0.805547 0.855485
O O13 0.297521 0.961333 0.348236
O O14 0.092343 0.036793 0.945582
O O15 0.390771 0.494124 0.247952
#
# Coordination Sequence:
#
# PCOD8017515 Si02
#       7
#     2   2   2   2   2   2   2
#     4  11  21  38  59  85 124 165 202 245 290 349
#     4   9  21  44  65  89 118 151 199 247 308 368
#     4  11  23  37  60  91 121 156 202 250 297 358
#     4  11  22  37  56  85 122 164 208 244 296 348
#     4  10  23  37  56  84 122 163 206 250 291 348
#     4  10  22  41  67  87 118 158 193 252 307 358
#     4  10  22  39  61  91 121 158 202 247 299 354
#
# _framework density 21.204142000000001
#
# number of rings (size 3 to 8) (size 9 to 14) (size 15 to 20)
#    0.000    1.714    2.857    1.714    2.000    7.429 
#    0.000    6.429    0.000    0.000    0.000    0.000 
#    0.000    0.000    0.000    0.000    0.000    0.000 
#
# Total GULP energy -173498.897793 kJ/mol
# GULP energy per Si atom -12392.778414 kJ/mol
# Density = 2.115588 g / cm^3
# Si number density = 21.204142 Si / 1000 Ang^3
#
#
#
# Elastic Constant Matrix: (Units=GPa)
#
#
# Indices 1 2 3 4 5 6 
#
# 1 107.2104 36.0776 26.4495 0.3533 -4.4410 6.0128
# 2 36.0776 139.7365 51.2363 -2.1868 -14.2579 -13.6051
# 3 26.4495 51.2363 59.9289 -0.7154 -10.8124 -2.3304
# 4 0.3533 -2.1868 -0.7154 32.4402 0.8899 0.8728
# 5 -4.4410 -14.2579 -10.8124 0.8899 17.5036 1.0964
# 6 6.0128 -13.6051 -2.3304 0.8728 1.0964 39.6683
#
#
#
# Elastic Compliance Matrix: (Units=1/GPa)
#
#
# Indices 1 2 3 4 5 6 
#
# 1 0.010918 -0.001873 -0.003445 -0.000235 -0.000717 -0.002475
# 2 -0.001873 0.011311 -0.008066 0.000412 0.003510 0.003583
# 3 -0.003445 -0.008066 0.026711 -0.000142 0.009121 -0.000924
# 4 -0.000235 0.000412 -0.000142 0.030903 -0.001353 -0.000474
# 5 -0.000717 0.003510 0.009121 -0.001353 0.065507 0.000068
# 6 -0.002475 0.003583 -0.000924 -0.000474 0.000068 0.026767
#
#
# Mechanical properties :
#
#
# Convention : Reuss Voigt Hill
#
# Bulk Modulus (GPa) = 45.10517 59.37806 52.24161
# Shear Modulus (GPa) = 24.23930 30.79658 27.51794
#
# Velocity S-wave (km/s) = 3.38470 3.81515 3.60636
# Velocity P-wave (km/s) = 6.04922 6.88992 6.48321
#
# Compressibility (1/GPa) = 0.02217041
#
# Stress axis : x y z
#
# Youngs Moduli (GPa) = 91.59443 88.40957 37.43779
#
# Poissons Ratio (x) = 0.16562 0.12899
# Poissons Ratio (y) = 0.17158 0.30197
# Poissons Ratio (z) = 0.31558 0.71311
#
# Static dielectric constant tensor:
#      x y z
#    x 4.187340 0.083940 -0.053780 
#    y 0.083940 4.036280 0.030210 
#    z -0.053780 0.030210 3.653070 
# 
# 
# High freq. dielectric constant tensor:
#      x y z
#    x 1.833800 0.002650 -0.009230 
#    y 0.002650 1.840520 0.015320 
#    z -0.009230 0.015320 1.810860 
# 
# From -- ./inp_files/533196.got.cif
#   From: 2010.06.25/outbox.cif.g09.slc.cpg/sg2_267_cif.got.tgz:533196.got - 2010.06.27 13:26:56.
