data_PCOD8017931
_publ_section_title
;
Structure prediction by ZEFSAII (Michael W. Deem and Ramdas Pophale) SiO2 
 PCOD8017931
Probable space group: P -1
;
_chemical_formula_sum "Si O2"
_cell_formula_units_Z 14
_cell_length_a 12.930118
_cell_length_b 11.468210
_cell_length_c 9.540493
_cell_angle_alpha 123.554254
_cell_angle_beta 137.142907
_cell_angle_gamma 36.118209
_cell_volume 564.450643
_symmetry_space_group_name_H-M "P -1"
_symmetry_group_IT_number 2
_symmetry_cell_setting 'triclinic'
loop_
_space_group_symop_operation_xyz
x,y,z
-x,-y,-z
loop_
_atom_site_type_symbol
_atom_site_label
_atom_site_fract_x
_atom_site_fract_y
_atom_site_fract_z
Si Si1 0.083748 0.612577 0.132004
Si Si2 0.617788 0.010479 0.931268
Si Si3 0.774983 0.502308 0.363431
Si Si4 0.177634 0.381359 0.802799
Si Si5 0.250055 0.800568 0.469680
Si Si6 0.230039 0.801980 0.768021
Si Si7 0.592915 0.748283 0.602026
O O1 0.235339 0.649725 0.304547
O O2 0.176975 0.437104 0.215998
O O3 0.079826 0.551786 0.931891
O O4 0.845243 0.806697 0.088781
O O5 0.550354 0.942845 0.699561
O O6 0.410151 0.158641 0.929714
O O7 0.673713 0.128910 0.002712
O O8 0.763709 0.561021 0.233935
O O9 0.707326 0.383857 0.220200
O O10 0.602852 0.702026 0.418229
O O11 0.010366 0.371604 0.581306
O O12 0.330088 0.749658 0.676248
O O13 0.413402 0.775587 0.518050
O O14 0.026518 0.026958 0.382278
#
# Coordination Sequence:
#
# PCOD8017931 Si02
#       7
#     2   2   2   2   2   2   2
#     4  11  23  44  67 103 131 170 224 281 319 401
#     4  11  25  42  67 102 133 171 222 275 329 389
#     4  11  25  46  68  95 135 178 221 273 328 399
#     4  11  26  46  68  94 138 177 222 270 333 392
#     4  10  22  39  69 101 136 170 218 274 336 388
#     4  10  22  43  65 102 136 169 222 274 329 395
#     4  12  23  42  71 100 134 173 221 277 330 387
#
# _framework density 24.802876999999999
#
# number of rings (size 3 to 8) (size 9 to 14) (size 15 to 20)
#    0.000    1.143    2.857    2.571    2.000    3.429 
#    2.571    1.429    0.000    0.000    0.000    0.000 
#    0.000    0.000    0.000    0.000    0.000    0.000 
#
# Total GULP energy -173540.164622 kJ/mol
# GULP energy per Si atom -12395.726044 kJ/mol
# Density = 2.474642 g / cm^3
# Si number density = 24.802877 Si / 1000 Ang^3
#
#
#
# Elastic Constant Matrix: (Units=GPa)
#
#
# Indices 1 2 3 4 5 6 
#
# 1 133.3444 37.7304 54.1502 25.2843 21.6559 -15.4347
# 2 37.7304 100.7830 47.4556 28.8668 23.5442 -14.3835
# 3 54.1502 47.4556 95.9877 24.5362 11.2783 5.4413
# 4 25.2843 28.8668 24.5362 44.9813 6.4082 20.5857
# 5 21.6559 23.5442 11.2783 6.4082 45.0690 12.2896
# 6 -15.4347 -14.3835 5.4413 20.5857 12.2896 42.0404
#
#
#
# Elastic Compliance Matrix: (Units=1/GPa)
#
#
# Indices 1 2 3 4 5 6 
#
# 1 0.019790 0.014504 -0.011157 -0.026337 -0.019335 0.032221
# 2 0.014504 0.038763 -0.015469 -0.043490 -0.031062 0.050965
# 3 -0.011157 -0.015469 0.020770 0.013260 0.012412 -0.022198
# 4 -0.026337 -0.043490 0.013260 0.089405 0.041774 -0.082255
# 5 -0.019335 -0.031062 0.012412 0.041774 0.053798 -0.055514
# 6 0.032221 0.050965 -0.022198 -0.082255 -0.055514 0.112432
#
#
# Mechanical properties :
#
#
# Convention : Reuss Voigt Hill
#
# Bulk Modulus (GPa) = 18.15580 67.64304 42.89942
# Shear Modulus (GPa) = 13.24285 39.13673 26.18979
#
# Velocity S-wave (km/s) = 2.31319 3.97660 3.25301
# Velocity P-wave (km/s) = 3.80399 6.95816 5.60742
#
# Compressibility (1/GPa) = 0.05507880
#
# Stress axis : x y z
#
# Youngs Moduli (GPa) = 50.53057 25.79798 48.14545
#
# Poissons Ratio (x) = -0.37417 0.53717
# Poissons Ratio (y) = -0.73289 0.74475
# Poissons Ratio (z) = 0.56378 0.39906
#
# Static dielectric constant tensor:
#      x y z
#    x 4.425700 -0.234620 0.370910 
#    y -0.234620 4.883790 0.162430 
#    z 0.370910 0.162430 4.425090 
# 
# 
# High freq. dielectric constant tensor:
#      x y z
#    x 1.991520 -0.012630 0.036640 
#    y -0.012630 1.996490 0.015100 
#    z 0.036640 0.015100 1.980530 
# 
# From -- ./inp_files/263120.got.cif
#   From: 2010.06.25/outbox.cif.g09.slc.cpg/sg2_132_cif.got.tgz:263120.got - 2010.06.27 13:26:56.
