data_PCOD8017578
_publ_section_title
;
Structure prediction by ZEFSAII (Michael W. Deem and Ramdas Pophale) SiO2 
 PCOD8017578
Probable space group: P -1
;
_chemical_formula_sum "Si O2"
_cell_formula_units_Z 16
_cell_length_a 13.810381
_cell_length_b 6.763527
_cell_length_c 10.737937
_cell_angle_alpha 60.902815
_cell_angle_beta 63.762649
_cell_angle_gamma 54.650438
_cell_volume 696.419065
_symmetry_space_group_name_H-M "P -1"
_symmetry_group_IT_number 2
_symmetry_cell_setting 'triclinic'
loop_
_space_group_symop_operation_xyz
x,y,z
-x,-y,-z
loop_
_atom_site_type_symbol
_atom_site_label
_atom_site_fract_x
_atom_site_fract_y
_atom_site_fract_z
Si Si1 0.974040 0.661252 0.088782
Si Si2 0.545792 0.573491 0.109229
Si Si3 0.811061 0.720801 0.590985
Si Si4 0.947596 0.361414 0.404070
Si Si5 0.558024 0.786006 0.787946
Si Si6 0.186442 0.804891 0.643075
Si Si7 0.826331 0.213740 0.058661
Si Si8 0.437336 0.347812 0.646661
O O1 0.906550 0.575215 0.255227
O O2 0.103710 0.630033 0.076910
O O3 0.879124 0.955979 0.026596
O O4 0.000000 0.500000 0.000000
O O5 0.459927 0.435834 0.202369
O O6 0.683717 0.359803 0.073210
O O7 0.527135 0.702105 0.213372
O O8 0.511579 0.788818 0.955750
O O9 0.869673 0.479759 0.537214
O O10 0.701234 0.707928 0.730021
O O11 0.910454 0.727291 0.626805
O O12 0.761069 0.992143 0.464713
O O13 0.917079 0.147656 0.419697
O O14 0.483387 0.052504 0.671114
O O15 0.133964 0.845178 0.799947
O O16 0.293748 0.515059 0.654868
O O17 0.500000 0.500000 0.500000
#
# Coordination Sequence:
#
# PCOD8017578 Si02
#       8
#     2   2   2   2   2   2   2   2
#     4  11  21  38  64  93 126 172 213 267 327 387
#     4  10  25  44  66  98 131 175 220 271 330 392
#     4  11  24  42  63  91 134 171 219 276 324 400
#     4  11  24  40  64  92 128 174 217 270 335 387
#     4  11  24  45  68  95 133 177 220 272 331 392
#     4  11  22  41  62  96 132 168 220 271 327 392
#     4  10  22  39  62  93 134 164 220 272 319 393
#     4  11  24  41  69  99 131 171 219 275 329 388
#
# _framework density 22.974672000000002
#
# number of rings (size 3 to 8) (size 9 to 14) (size 15 to 20)
#    0.000    1.250    3.750    1.500    3.500    0.500 
#    0.000    2.500    0.000    0.000    0.000    0.000 
#    0.000    0.000    0.000    0.000    0.000    0.000 
#
# Total GULP energy -198313.429129 kJ/mol
# GULP energy per Si atom -12394.589321 kJ/mol
# Density = 2.292238 g / cm^3
# Si number density = 22.974672 Si / 1000 Ang^3
#
#
#
# Elastic Constant Matrix: (Units=GPa)
#
#
# Indices 1 2 3 4 5 6 
#
# 1 84.0133 16.7776 6.4116 2.2671 -12.7485 2.4688
# 2 16.7776 77.0031 11.8832 0.5305 -11.7689 0.3790
# 3 6.4116 11.8832 75.5196 -7.4382 -21.0897 3.6160
# 4 2.2671 0.5305 -7.4382 28.5632 7.5983 -0.3640
# 5 -12.7485 -11.7689 -21.0897 7.5983 40.2812 0.1793
# 6 2.4688 0.3790 3.6160 -0.3640 0.1793 31.6993
#
#
#
# Elastic Compliance Matrix: (Units=1/GPa)
#
#
# Indices 1 2 3 4 5 6 
#
# 1 0.013021 -0.002245 0.000206 -0.002004 0.003955 -0.001056
# 2 -0.002245 0.014141 -0.001337 -0.001216 0.002950 0.000128
# 3 0.000206 -0.001337 0.015846 0.002094 0.007584 -0.001826
# 4 -0.002004 -0.001216 0.002094 0.037601 -0.006987 0.000403
# 5 0.003955 0.002950 0.007584 -0.006987 0.032234 -0.001471
# 6 -0.001056 0.000128 -0.001826 0.000403 -0.001471 0.031848
#
#
# Mechanical properties :
#
#
# Convention : Reuss Voigt Hill
#
# Bulk Modulus (GPa) = 27.58223 34.07566 30.82895
# Shear Modulus (GPa) = 30.57566 33.53965 32.05766
#
# Velocity S-wave (km/s) = 3.65203 3.82495 3.73949
# Velocity P-wave (km/s) = 5.46028 5.86268 5.66505
#
# Compressibility (1/GPa) = 0.03625522
#
# Stress axis : x y z
#
# Youngs Moduli (GPa) = 76.79981 70.71874 63.10690
#
# Poissons Ratio (x) = 0.15878 -0.01297
# Poissons Ratio (y) = 0.17243 0.08434
# Poissons Ratio (z) = -0.01579 0.09452
#
# Static dielectric constant tensor:
#      x y z
#    x 4.099110 0.120300 -0.060390 
#    y 0.120300 3.959050 -0.135190 
#    z -0.060390 -0.135190 4.298880 
# 
# 
# High freq. dielectric constant tensor:
#      x y z
#    x 1.901680 0.006530 -0.010940 
#    y 0.006530 1.901700 -0.011250 
#    z -0.010940 -0.011250 1.916810 
# 
# From -- ./inp_files/441614.got.cif
#   From: 2010.06.25/outbox.cif.g09.slc.cpg/sg2_221_cif.got.tgz:441614.got - 2010.06.27 13:26:56.
