data_PCOD8017652
_publ_section_title
;
Structure prediction by ZEFSAII (Michael W. Deem and Ramdas Pophale) SiO2 
 PCOD8017652
Probable space group: P -1
;
_chemical_formula_sum "Si O2"
_cell_formula_units_Z 14
_cell_length_a 11.584146
_cell_length_b 11.480984
_cell_length_c 10.880420
_cell_angle_alpha 66.359319
_cell_angle_beta 98.052559
_cell_angle_gamma 42.434753
_cell_volume 633.987998
_symmetry_space_group_name_H-M "P -1"
_symmetry_group_IT_number 2
_symmetry_cell_setting 'triclinic'
loop_
_space_group_symop_operation_xyz
x,y,z
-x,-y,-z
loop_
_atom_site_type_symbol
_atom_site_label
_atom_site_fract_x
_atom_site_fract_y
_atom_site_fract_z
Si Si1 0.836185 0.949644 0.813018
Si Si2 0.792545 0.110949 0.470037
Si Si3 0.871023 0.606114 0.207720
Si Si4 0.512174 0.939854 0.223650
Si Si5 0.643849 0.374667 0.699377
Si Si6 0.335599 0.024146 0.553722
Si Si7 0.822507 0.464815 0.769175
O O1 0.606486 0.073588 0.730734
O O2 0.861234 0.980498 0.666667
O O3 0.805900 0.093525 0.848430
O O4 0.080249 0.650248 0.027141
O O5 0.556260 0.426244 0.307390
O O6 0.731533 0.057518 0.386028
O O7 0.000000 0.000000 0.500000
O O8 0.096150 0.302639 0.328291
O O9 0.978018 0.645802 0.229591
O O10 0.732268 0.688801 0.273035
O O11 0.684321 0.787159 0.991116
O O12 0.627026 0.921324 0.349170
O O13 0.500000 0.500000 0.500000
O O14 0.792862 0.363794 0.730588
O O15 0.575864 0.785504 0.604981
#
# Coordination Sequence:
#
# PCOD8017652 Si02
#       7
#     2   2   2   2   2   2   2
#     4  10  22  40  64  88 128 162 207 259 297 376
#     4  10  24  41  61  93 120 163 208 257 314 360
#     4  10  23  41  62  93 131 160 204 253 300 381
#     4  10  24  40  62  98 121 166 207 244 316 364
#     4   9  20  38  60  86 124 162 206 252 300 368
#     4  11  24  39  65  91 130 160 202 261 308 366
#     4  10  22  39  63  95 120 167 208 246 317 356
#
# _framework density 22.082435
#
# number of rings (size 3 to 8) (size 9 to 14) (size 15 to 20)
#    0.000    2.000    0.000    1.286   12.000    3.429 
#    0.000    4.286    0.000    0.000    0.000    0.000 
#    0.000    0.000    0.000    0.000    0.000    0.000 
#
# Total GULP energy -173472.685150 kJ/mol
# GULP energy per Si atom -12390.906082 kJ/mol
# Density = 2.203217 g / cm^3
# Si number density = 22.082435 Si / 1000 Ang^3
#
#
#
# Elastic Constant Matrix: (Units=GPa)
#
#
# Indices 1 2 3 4 5 6 
#
# 1 109.6722 44.7509 22.4300 3.1503 7.4748 -22.9965
# 2 44.7509 62.8552 35.0961 -10.6392 -11.4188 1.7252
# 3 22.4300 35.0961 91.6360 -17.3326 -0.4456 -7.4023
# 4 3.1503 -10.6392 -17.3326 34.6923 0.4718 -0.2674
# 5 7.4748 -11.4188 -0.4456 0.4718 25.9858 -1.4519
# 6 -22.9965 1.7252 -7.4023 -0.2674 -1.4519 41.3056
#
#
#
# Elastic Compliance Matrix: (Units=1/GPa)
#
#
# Indices 1 2 3 4 5 6 
#
# 1 0.020271 -0.019559 0.002209 -0.006458 -0.013601 0.011979
# 2 -0.019559 0.041736 -0.010503 0.008912 0.022861 -0.013653
# 3 0.002209 -0.010503 0.015562 0.004452 -0.004824 0.004317
# 4 -0.006458 0.008912 0.004452 0.034278 0.005073 -0.002770
# 5 -0.013601 0.022861 -0.004824 0.005073 0.051845 -0.007536
# 6 0.011979 -0.013653 0.004317 -0.002770 -0.007536 0.031940
#
#
# Mechanical properties :
#
#
# Convention : Reuss Voigt Hill
#
# Bulk Modulus (GPa) = 45.73906 52.07971 48.90939
# Shear Modulus (GPa) = 19.33293 31.18916 25.26104
#
# Velocity S-wave (km/s) = 2.96208 3.76226 3.38589
# Velocity P-wave (km/s) = 5.69705 6.51984 6.12228
#
# Compressibility (1/GPa) = 0.02186315
#
# Stress axis : x y z
#
# Youngs Moduli (GPa) = 49.33055 23.96023 64.25879
#
# Poissons Ratio (x) = 0.46864 -0.14195
# Poissons Ratio (y) = 0.96485 0.67493
# Poissons Ratio (z) = -0.10897 0.25166
#
# Static dielectric constant tensor:
#      x y z
#    x 4.320840 0.467970 -0.023640 
#    y 0.467970 4.140630 -0.458320 
#    z -0.023640 -0.458320 4.300950 
# 
# 
# High freq. dielectric constant tensor:
#      x y z
#    x 1.876420 0.018540 0.015980 
#    y 0.018540 1.849660 -0.015300 
#    z 0.015980 -0.015300 1.876870 
# 
# From -- ./inp_files/277380.got.cif
#   From: 2010.06.25/outbox.cif.g09.slc.cpg/sg2_139_cif.got.tgz:277380.got - 2010.06.27 13:26:56.
