data_PCOD8017168
_publ_section_title
;
Structure prediction by ZEFSAII (Michael W. Deem and Ramdas Pophale) SiO2 
 PCOD8017168
Probable space group: P -1
;
_chemical_formula_sum "Si O2"
_cell_formula_units_Z 12
_cell_length_a 17.139340
_cell_length_b 9.193658
_cell_length_c 5.428559
_cell_angle_alpha 84.710477
_cell_angle_beta 56.647955
_cell_angle_gamma 120.099301
_cell_volume 532.069238
_symmetry_space_group_name_H-M "P -1"
_symmetry_group_IT_number 2
_symmetry_cell_setting 'triclinic'
loop_
_space_group_symop_operation_xyz
x,y,z
-x,-y,-z
loop_
_atom_site_type_symbol
_atom_site_label
_atom_site_fract_x
_atom_site_fract_y
_atom_site_fract_z
Si Si1 0.126476 0.453324 0.163635
Si Si2 0.870912 0.212676 0.943754
Si Si3 0.507838 0.677138 0.006055
Si Si4 0.374049 0.549707 0.767281
Si Si5 0.963439 0.103558 0.189671
Si Si6 0.728473 0.869577 0.898858
O O1 0.157768 0.647566 0.981956
O O2 0.007835 0.333424 0.567758
O O3 0.090677 0.311337 0.021252
O O4 0.248403 0.507262 0.061048
O O5 0.753786 0.024207 0.027122
O O6 0.878793 0.136206 0.196959
O O7 0.424889 0.644529 0.392245
O O8 0.500000 0.500000 0.000000
O O9 0.465158 0.698537 0.811061
O O10 0.651759 0.861519 0.803049
O O11 0.352921 0.351414 0.824804
O O12 0.866709 0.949104 0.589947
O O13 0.000000 0.000000 0.000000
#
# Coordination Sequence:
#
# PCOD8017168 Si02
#       6
#     2   2   2   2   2   2
#     4  10  23  40  58  91 123 167 206 253 318 375
#     4  10  22  40  61  85 129 164 204 255 318 375
#     4  10  23  39  64  94 125 165 206 265 315 359
#     4  11  23  40  66  94 124 164 213 262 307 371
#     4  11  22  35  65  93 121 156 205 265 308 375
#     4  10  22  38  61  92 118 160 208 259 312 366
#
# _framework density 22.553453999999999
#
# number of rings (size 3 to 8) (size 9 to 14) (size 15 to 20)
#    0.000    1.667    0.000    4.500   14.000    2.667 
#    0.000    1.667    0.000    0.000    0.000    0.000 
#    0.000    0.000    0.000    0.000    0.000    0.000 
#
# Total GULP energy -148660.070540 kJ/mol
# GULP energy per Si atom -12388.339212 kJ/mol
# Density = 2.250212 g / cm^3
# Si number density = 22.553454 Si / 1000 Ang^3
#
#
#
# Elastic Constant Matrix: (Units=GPa)
#
#
# Indices 1 2 3 4 5 6 
#
# 1 94.5133 20.1621 7.5324 5.0347 -16.3972 17.5919
# 2 20.1621 55.6620 11.3310 6.9966 -11.4998 -8.3481
# 3 7.5324 11.3310 52.7426 5.5552 -3.0351 3.3147
# 4 5.0347 6.9966 5.5552 26.7994 7.4585 1.4574
# 5 -16.3972 -11.4998 -3.0351 7.4585 34.4518 -2.1632
# 6 17.5919 -8.3481 3.3147 1.4574 -2.1632 34.9463
#
#
#
# Elastic Compliance Matrix: (Units=1/GPa)
#
#
# Indices 1 2 3 4 5 6 
#
# 1 0.014107 -0.004964 0.000088 -0.002358 0.005080 -0.007883
# 2 -0.004964 0.024484 -0.003941 -0.007284 0.007636 0.009498
# 3 0.000088 -0.003941 0.020381 -0.003365 0.001080 -0.002712
# 4 -0.002358 -0.007284 -0.003365 0.044308 -0.013626 -0.002925
# 5 0.005080 0.007636 0.001080 -0.013626 0.037166 0.002033
# 6 -0.007883 0.009498 -0.002712 -0.002925 0.002033 0.035357
#
#
# Mechanical properties :
#
#
# Convention : Reuss Voigt Hill
#
# Bulk Modulus (GPa) = 24.19153 31.21875 27.70514
# Shear Modulus (GPa) = 24.12944 30.16565 27.14755
#
# Velocity S-wave (km/s) = 3.27445 3.66118 3.47320
# Velocity P-wave (km/s) = 5.00456 5.63422 5.32870
#
# Compressibility (1/GPa) = 0.04133679
#
# Stress axis : x y z
#
# Youngs Moduli (GPa) = 70.88880 40.84365 49.06468
#
# Poissons Ratio (x) = 0.20274 -0.00431
# Poissons Ratio (y) = 0.35189 0.19338
# Poissons Ratio (z) = -0.00623 0.16098
#
# Static dielectric constant tensor:
#      x y z
#    x 4.631060 0.395070 0.084780 
#    y 0.395070 4.349170 -0.155590 
#    z 0.084780 -0.155590 4.000860 
# 
# 
# High freq. dielectric constant tensor:
#      x y z
#    x 1.886100 0.024950 -0.012160 
#    y 0.024950 1.880560 0.000700 
#    z -0.012160 0.000700 1.882880 
# 
# From -- ./inp_files/18487.got.cif
#   From: 2010.06.25/outbox.cif.g09.slc.cpg/sg2_10_cif.got.tgz:18487.got - 2010.06.27 13:26:56.
