data_PCOD8017889
_publ_section_title
;
Structure prediction by ZEFSAII (Michael W. Deem and Ramdas Pophale) SiO2 
 PCOD8017889
Probable space group: P -1
;
_chemical_formula_sum "Si O2"
_cell_formula_units_Z 14
_cell_length_a 13.327705
_cell_length_b 5.349175
_cell_length_c 9.233883
_cell_angle_alpha 74.193165
_cell_angle_beta 106.825962
_cell_angle_gamma 94.835065
_cell_volume 606.282768
_symmetry_space_group_name_H-M "P -1"
_symmetry_group_IT_number 2
_symmetry_cell_setting 'triclinic'
loop_
_space_group_symop_operation_xyz
x,y,z
-x,-y,-z
loop_
_atom_site_type_symbol
_atom_site_label
_atom_site_fract_x
_atom_site_fract_y
_atom_site_fract_z
Si Si1 0.438304 0.227019 0.513276
Si Si2 0.674045 0.490901 0.799173
Si Si3 0.829367 0.085256 0.924069
Si Si4 0.538418 0.773831 0.158535
Si Si5 0.257562 0.353709 0.888498
Si Si6 0.962726 0.558277 0.316475
Si Si7 0.981714 0.849094 0.828609
O O1 0.500000 0.500000 0.500000
O O2 0.336188 0.279256 0.361042
O O3 0.413817 0.127623 0.682490
O O4 0.500000 0.000000 0.500000
O O5 0.558346 0.411140 0.816759
O O6 0.741568 0.265742 0.784571
O O7 0.738379 0.557399 0.958118
O O8 0.772312 0.951313 0.060604
O O9 0.931160 0.243966 0.002295
O O10 0.868630 0.869966 0.857235
O O11 0.631214 0.607850 0.150012
O O12 0.500000 0.000000 0.000000
O O13 0.162625 0.498349 0.743174
O O14 0.989013 0.857204 0.251518
O O15 0.000000 0.500000 0.500000
O O16 0.025473 0.358657 0.270462
#
# Coordination Sequence:
#
# PCOD8017889 Si02
#       7
#     2   2   2   2   2   2   2
#     4  10  24  43  63  93 133 175 223 278 329 392
#     4  11  22  41  69  96 138 180 229 281 335 412
#     4  10  22  39  67  98 127 177 226 285 333 405
#     4  11  22  42  66  99 135 182 221 278 341 407
#     4  11  23  40  67  97 134 178 232 273 341 408
#     4  11  24  44  67  98 138 177 223 287 344 407
#     4  10  23  42  66  96 134 171 228 281 341 400
#
# _framework density 23.091535
#
# number of rings (size 3 to 8) (size 9 to 14) (size 15 to 20)
#    0.000    1.429    2.857    1.714    4.000    4.000 
#    0.000    0.000    0.000    0.000    0.000    0.000 
#    0.000    0.000    0.000    0.000    0.000    0.000 
#
# Total GULP energy -173458.845578 kJ/mol
# GULP energy per Si atom -12389.917541 kJ/mol
# Density = 2.303898 g / cm^3
# Si number density = 23.091535 Si / 1000 Ang^3
#
#
#
# Elastic Constant Matrix: (Units=GPa)
#
#
# Indices 1 2 3 4 5 6 
#
# 1 124.3846 32.0502 48.3092 -6.9100 8.3446 -33.9214
# 2 32.0502 110.1347 51.4711 2.0906 4.5108 -31.4942
# 3 48.3092 51.4711 197.4213 -3.6742 18.1839 -28.1876
# 4 -6.9100 2.0906 -3.6742 33.8721 -4.9398 0.2803
# 5 8.3446 4.5108 18.1839 -4.9398 33.7809 -2.1056
# 6 -33.9214 -31.4942 -28.1876 0.2803 -2.1056 41.5765
#
#
#
# Elastic Compliance Matrix: (Units=1/GPa)
#
#
# Indices 1 2 3 4 5 6 
#
# 1 0.010925 -0.000345 -0.001345 0.001869 -0.001177 0.007668
# 2 -0.000345 0.012366 -0.002048 -0.001142 -0.000151 0.007698
# 3 -0.001345 -0.002048 0.006404 0.000136 -0.002724 0.001554
# 4 0.001869 -0.001142 0.000136 0.030586 0.004137 0.000756
# 5 -0.001177 -0.000151 -0.002724 0.004137 0.031902 -0.001334
# 6 0.007668 0.007698 0.001554 0.000756 -0.001334 0.037119
#
#
# Mechanical properties :
#
#
# Convention : Reuss Voigt Hill
#
# Bulk Modulus (GPa) = 45.00837 77.28905 61.14871
# Shear Modulus (GPa) = 34.67751 41.85326 38.26539
#
# Velocity S-wave (km/s) = 3.87943 4.26196 4.07519
# Velocity P-wave (km/s) = 6.29288 7.60016 6.97720
#
# Compressibility (1/GPa) = 0.02221809
#
# Stress axis : x y z
#
# Youngs Moduli (GPa) = 91.53413 80.86448 156.15767
#
# Poissons Ratio (x) = 0.02791 0.21009
# Poissons Ratio (y) = 0.03159 0.31981
# Poissons Ratio (z) = 0.12315 0.16561
#
# Static dielectric constant tensor:
#      x y z
#    x 4.226270 -0.117470 0.171920 
#    y -0.117470 4.048810 -0.019380 
#    z 0.171920 -0.019380 4.868930 
# 
# 
# High freq. dielectric constant tensor:
#      x y z
#    x 1.911480 -0.013570 0.009780 
#    y -0.013570 1.908940 -0.002760 
#    z 0.009780 -0.002760 1.914250 
# 
# From -- ./inp_files/36171.got.cif
#   From: 2010.06.25/outbox.cif.g09.slc.cpg/sg2_19_cif.got.tgz:36171.got - 2010.06.27 13:26:56.
