data_PCOD8018671
_publ_section_title
;
Structure prediction by ZEFSAII (Michael W. Deem and Ramdas Pophale) SiO2 
 PCOD8018671
Probable space group: P -1
;
_chemical_formula_sum "Si O2"
_cell_formula_units_Z 14
_cell_length_a 5.284026
_cell_length_b 9.229708
_cell_length_c 23.875610
_cell_angle_alpha 36.885711
_cell_angle_beta 115.778514
_cell_angle_gamma 98.542510
_cell_volume 585.002881
_symmetry_space_group_name_H-M "P -1"
_symmetry_group_IT_number 2
_symmetry_cell_setting 'triclinic'
loop_
_space_group_symop_operation_xyz
x,y,z
-x,-y,-z
loop_
_atom_site_type_symbol
_atom_site_label
_atom_site_fract_x
_atom_site_fract_y
_atom_site_fract_z
Si Si1 0.097530 0.974846 0.953731
Si Si2 0.894845 0.162615 0.204206
Si Si3 0.856439 0.295552 0.370367
Si Si4 0.202753 0.658469 0.455549
Si Si5 0.461661 0.286365 0.424461
Si Si6 0.279880 0.448863 0.836797
Si Si7 0.778526 0.790659 0.887233
O O1 0.841627 0.958155 0.892029
O O2 0.160234 0.235480 0.865279
O O3 0.384061 0.705079 0.059966
O O4 0.000000 0.000000 0.000000
O O5 0.900641 0.393701 0.174853
O O6 0.557406 0.207657 0.136476
O O7 0.147060 0.110313 0.196081
O O8 0.984732 0.899316 0.327114
O O9 0.556505 0.434932 0.336214
O O10 0.746558 0.340967 0.280639
O O11 0.107036 0.429678 0.362023
O O12 0.000000 0.000000 0.500000
O O13 0.500000 0.500000 0.500000
O O14 0.303161 0.754986 0.491388
O O15 0.000000 0.500000 0.500000
O O16 0.500000 0.000000 0.500000
O O17 0.000000 0.500000 0.000000
#
# Coordination Sequence:
#
# PCOD8018671 Si02
#       7
#     2   2   2   2   2   2   2
#     4  11  27  48  71 110 149 188 245 313 364 433
#     4  12  27  48  78 107 142 205 241 296 378 438
#     4  10  22  40  69 105 136 182 237 294 349 422
#     4  12  27  49  70 107 153 189 244 304 362 439
#     4  10  22  43  69  98 140 182 237 289 348 422
#     4  11  26  45  75 107 147 194 246 304 367 436
#     4  12  26  48  76 107 148 188 249 302 366 443
#
# _framework density 23.931508000000001
#
# number of rings (size 3 to 8) (size 9 to 14) (size 15 to 20)
#    0.000    0.857    1.429    4.714    6.000    6.857 
#    0.000    0.000    0.000    0.000    0.000    0.000 
#    0.000    0.000    0.000    0.000    0.000    0.000 
#
# Total GULP energy -173481.212672 kJ/mol
# GULP energy per Si atom -12391.515191 kJ/mol
# Density = 2.387704 g / cm^3
# Si number density = 23.931508 Si / 1000 Ang^3
#
#
#
# Elastic Constant Matrix: (Units=GPa)
#
#
# Indices 1 2 3 4 5 6 
#
# 1 144.2767 15.8202 15.2465 6.6037 -12.2254 1.6060
# 2 15.8202 114.2668 41.1553 13.4868 -6.9391 7.2079
# 3 15.2465 41.1553 92.1956 7.3777 -11.9342 5.0325
# 4 6.6037 13.4868 7.3777 36.5493 -8.2131 -0.1195
# 5 -12.2254 -6.9391 -11.9342 -8.2131 38.0418 11.2042
# 6 1.6060 7.2079 5.0325 -0.1195 11.2042 42.8295
#
#
#
# Elastic Compliance Matrix: (Units=1/GPa)
#
#
# Indices 1 2 3 4 5 6 
#
# 1 0.007267 -0.000559 -0.000599 -0.000509 0.002132 -0.000667
# 2 -0.000559 0.010870 -0.004427 -0.002984 0.000165 -0.001340
# 3 -0.000599 -0.004427 0.013516 -0.000153 0.003737 -0.001799
# 4 -0.000509 -0.002984 -0.000153 0.029925 0.005983 -0.000942
# 5 0.002132 0.000165 0.003737 0.005983 0.032095 -0.008926
# 6 -0.000667 -0.001340 -0.001799 -0.000942 -0.008926 0.026143
#
#
# Mechanical properties :
#
#
# Convention : Reuss Voigt Hill
#
# Bulk Modulus (GPa) = 48.81936 55.02037 51.91987
# Shear Modulus (GPa) = 36.28116 42.05193 39.16655
#
# Velocity S-wave (km/s) = 3.89786 4.19642 4.04989
# Velocity P-wave (km/s) = 6.37979 6.82060 6.60387
#
# Compressibility (1/GPa) = 0.02048368
#
# Stress axis : x y z
#
# Youngs Moduli (GPa) = 137.60645 91.99795 73.98808
#
# Poissons Ratio (x) = 0.05140 0.04434
# Poissons Ratio (y) = 0.07687 0.32751
# Poissons Ratio (z) = 0.08246 0.40723
#
# Static dielectric constant tensor:
#      x y z
#    x 6.661170 0.789380 1.168380 
#    y 0.789380 4.942330 0.720400 
#    z 1.168380 0.720400 5.641710 
# 
# 
# High freq. dielectric constant tensor:
#      x y z
#    x 1.966810 -0.000400 -0.003200 
#    y -0.000400 1.944910 0.009650 
#    z -0.003200 0.009650 1.957610 
# 
# From -- ./inp_files/582202.got.cif
#   From: 2010.06.25/outbox.cif.g09.slc.cpg/sg2_292_cif.got.tgz:582202.got - 2010.06.27 13:26:56.
