data_PCOD8018047
_publ_section_title
;
Structure prediction by ZEFSAII (Michael W. Deem and Ramdas Pophale) SiO2 
 PCOD8018047
Probable space group: P -1
;
_chemical_formula_sum "Si O2"
_cell_formula_units_Z 16
_cell_length_a 12.715543
_cell_length_b 9.357082
_cell_length_c 17.620303
_cell_angle_alpha 102.541017
_cell_angle_beta 127.296174
_cell_angle_gamma 35.461486
_cell_volume 774.860286
_symmetry_space_group_name_H-M "P -1"
_symmetry_group_IT_number 2
_symmetry_cell_setting 'triclinic'
loop_
_space_group_symop_operation_xyz
x,y,z
-x,-y,-z
loop_
_atom_site_type_symbol
_atom_site_label
_atom_site_fract_x
_atom_site_fract_y
_atom_site_fract_z
Si Si1 0.175408 0.665145 0.867721
Si Si2 0.129056 0.665881 0.543759
Si Si3 0.858900 0.709715 0.667662
Si Si4 0.424288 0.653338 0.867600
Si Si5 0.465739 0.734689 0.620999
Si Si6 0.915709 0.316065 0.650423
Si Si7 0.303729 0.186917 0.552062
Si Si8 0.350275 0.656963 0.219988
O O1 0.281371 0.648519 0.838741
O O2 0.082817 0.596671 0.791238
O O3 0.424747 0.401950 0.006445
O O4 0.932427 0.990261 0.840461
O O5 0.112892 0.504982 0.541126
O O6 0.394404 0.481287 0.674256
O O7 0.131687 0.680761 0.456400
O O8 0.852289 0.015783 0.495735
O O9 0.841689 0.757644 0.575365
O O10 0.950555 0.454692 0.693782
O O11 0.557074 0.035750 0.609568
O O12 0.654523 0.383137 0.874814
O O13 0.195092 0.975311 0.764794
O O14 0.614748 0.523726 0.735377
O O15 0.644645 0.520861 0.600447
O O16 0.429285 0.947323 0.639398
#
# Coordination Sequence:
#
# PCOD8018047 Si02
#       8
#     2   2   2   2   2   2   2   2
#     4  11  24  44  65  82 118 164 201 256 289 344
#     4  11  22  37  59  93 125 157 195 240 304 359
#     4   9  19  38  63  90 116 158 199 240 302 349
#     4  11  25  43  62  87 116 162 212 239 298 348
#     4  11  22  35  60  89 125 159 190 241 303 355
#     4  10  22  40  61  89 125 154 195 248 295 361
#     4   9  19  36  59  91 125 155 191 238 301 367
#     4  12  24  39  61  91 122 155 202 247 298 355
#
# _framework density 20.648883000000001
#
# number of rings (size 3 to 8) (size 9 to 14) (size 15 to 20)
#    0.000    1.500    3.750    1.875    1.750    1.000 
#    0.000    0.000    0.000    3.000    0.000    0.000 
#    0.000    0.000    0.000    0.000    0.000    0.000 
#
# Total GULP energy -198410.530185 kJ/mol
# GULP energy per Si atom -12400.658137 kJ/mol
# Density = 2.060189 g / cm^3
# Si number density = 20.648883 Si / 1000 Ang^3
#
#
#
# Elastic Constant Matrix: (Units=GPa)
#
#
# Indices 1 2 3 4 5 6 
#
# 1 82.3802 29.8897 19.3177 11.2447 -5.2600 -13.9468
# 2 29.8897 63.0127 9.2993 0.1959 -2.1346 -8.0878
# 3 19.3177 9.2993 71.6202 13.4497 2.3182 3.3841
# 4 11.2447 0.1959 13.4497 30.0488 3.0163 6.1722
# 5 -5.2600 -2.1346 2.3182 3.0163 24.2410 -6.1650
# 6 -13.9468 -8.0878 3.3841 6.1722 -6.1650 32.9707
#
#
#
# Elastic Compliance Matrix: (Units=1/GPa)
#
#
# Indices 1 2 3 4 5 6 
#
# 1 0.018517 -0.006839 -0.003265 -0.008052 0.007102 0.009326
# 2 -0.006839 0.019516 -0.001273 0.002626 0.000441 0.001616
# 3 -0.003265 -0.001273 0.016197 -0.005190 -0.002446 -0.002842
# 4 -0.008052 0.002626 -0.005190 0.041952 -0.009243 -0.011811
# 5 0.007102 0.000441 -0.002446 -0.009243 0.047784 0.014028
# 6 0.009326 0.001616 -0.002842 -0.011811 0.014028 0.039797
#
#
# Mechanical properties :
#
#
# Convention : Reuss Voigt Hill
#
# Bulk Modulus (GPa) = 31.77073 37.11405 34.44239
# Shear Modulus (GPa) = 23.04054 28.01919 25.52986
#
# Velocity S-wave (km/s) = 3.34402 3.68766 3.52003
# Velocity P-wave (km/s) = 5.50723 6.01204 5.76516
#
# Compressibility (1/GPa) = 0.03147551
#
# Stress axis : x y z
#
# Youngs Moduli (GPa) = 54.00404 51.24015 61.74140
#
# Poissons Ratio (x) = 0.35044 0.20158
# Poissons Ratio (y) = 0.36934 0.07860
# Poissons Ratio (z) = 0.17632 0.06523
#
# Static dielectric constant tensor:
#      x y z
#    x 4.056540 -0.190370 -0.015150 
#    y -0.190370 3.914580 -0.182540 
#    z -0.015150 -0.182540 3.476130 
# 
# 
# High freq. dielectric constant tensor:
#      x y z
#    x 1.831680 -0.011310 -0.000490 
#    y -0.011310 1.818440 -0.017580 
#    z -0.000490 -0.017580 1.779060 
# 
# From -- ./inp_files/268774.got.cif
#   From: 2010.06.25/outbox.cif.g09.slc.cpg/sg2_135_cif.got.tgz:268774.got - 2010.06.27 13:26:56.
