data_PCOD8018056
_publ_section_title
;
Structure prediction by ZEFSAII (Michael W. Deem and Ramdas Pophale) SiO2 
 PCOD8018056
Probable space group: P -1
;
_chemical_formula_sum "Si O2"
_cell_formula_units_Z 10
_cell_length_a 6.546149
_cell_length_b 11.430290
_cell_length_c 13.820039
_cell_angle_alpha 32.709363
_cell_angle_beta 84.890171
_cell_angle_gamma 100.152689
_cell_volume 492.228397
_symmetry_space_group_name_H-M "P -1"
_symmetry_group_IT_number 2
_symmetry_cell_setting 'triclinic'
loop_
_space_group_symop_operation_xyz
x,y,z
-x,-y,-z
loop_
_atom_site_type_symbol
_atom_site_label
_atom_site_fract_x
_atom_site_fract_y
_atom_site_fract_z
Si Si1 0.413649 0.948411 0.835645
Si Si2 0.224444 0.209605 0.797263
Si Si3 0.858561 0.352995 0.484658
Si Si4 0.345584 0.521830 0.268969
Si Si5 0.491471 0.131380 0.505681
O O1 0.293913 0.104339 0.774665
O O2 0.696548 0.107910 0.724652
O O3 0.355659 0.928002 0.736969
O O4 0.316973 0.684383 0.071916
O O5 0.163262 0.423416 0.618233
O O6 0.434321 0.306407 0.796673
O O7 0.000000 0.000000 0.000000
O O8 0.750555 0.312814 0.407980
O O9 0.122829 0.410542 0.426009
O O10 0.364420 0.296572 0.375133
O O11 0.500000 0.000000 0.500000
#
# Coordination Sequence:
#
# PCOD8018056 Si02
#       5
#     2   2   2   2   2
#     4  10  22  40  61  92 121 163 196 239 313 348
#     4  11  21  38  62  92 131 152 194 248 297 370
#     4   9  22  39  60  91 123 154 205 237 301 364
#     4  11  22  40  63  89 124 159 197 248 300 360
#     4   9  23  44  60  87 123 154 210 256 283 353
#
# _framework density 20.315771999999999
#
# number of rings (size 3 to 8) (size 9 to 14) (size 15 to 20)
#    1.200    0.800    2.000    1.200    0.000    4.000 
#    0.000    1.000    0.000    0.000    0.000    0.000 
#    0.000    0.000    0.000    0.000    0.000    0.000 
#
# Total GULP energy -123915.354676 kJ/mol
# GULP energy per Si atom -12391.535468 kJ/mol
# Density = 2.026953 g / cm^3
# Si number density = 20.315772 Si / 1000 Ang^3
#
#
#
# Elastic Constant Matrix: (Units=GPa)
#
#
# Indices 1 2 3 4 5 6 
#
# 1 109.2067 33.1554 25.8200 -8.2918 -16.6487 -26.4918
# 2 33.1554 114.8091 7.8261 6.3789 4.0861 -35.0030
# 3 25.8200 7.8261 67.7082 0.5068 -8.2099 -21.1843
# 4 -8.2918 6.3789 0.5068 20.7851 -8.3003 -2.1278
# 5 -16.6487 4.0861 -8.2099 -8.3003 44.1514 -5.6929
# 6 -26.4918 -35.0030 -21.1843 -2.1278 -5.6929 24.5705
#
#
#
# Elastic Compliance Matrix: (Units=1/GPa)
#
#
# Indices 1 2 3 4 5 6 
#
# 1 0.018664 0.003009 0.004599 0.015737 0.014851 0.033179
# 2 0.003009 0.019602 0.010627 0.002088 0.007126 0.042164
# 3 0.004599 0.010627 0.028684 0.008445 0.013964 0.048796
# 4 0.015737 0.002088 0.008445 0.067510 0.025014 0.038865
# 5 0.014851 0.007126 0.013964 0.025014 0.041329 0.049945
# 6 0.033179 0.042164 0.048796 0.038865 0.049945 0.193548
#
#
# Mechanical properties :
#
#
# Convention : Reuss Voigt Hill
#
# Bulk Modulus (GPa) = 9.66926 47.25855 28.46391
# Shear Modulus (GPa) = 13.61138 32.89624 23.25381
#
# Velocity S-wave (km/s) = 2.59123 4.02835 3.38689
# Velocity P-wave (km/s) = 3.70438 6.70443 5.41626
#
# Compressibility (1/GPa) = 0.10342054
#
# Stress axis : x y z
#
# Youngs Moduli (GPa) = 53.58039 51.01519 34.86239
#
# Poissons Ratio (x) = -0.15352 -0.16032
# Poissons Ratio (y) = -0.16124 -0.37049
# Poissons Ratio (z) = -0.24640 -0.54215
#
# Static dielectric constant tensor:
#      x y z
#    x 3.722410 -0.145670 -0.045130 
#    y -0.145670 3.329260 0.009630 
#    z -0.045130 0.009630 3.670730 
# 
# 
# High freq. dielectric constant tensor:
#      x y z
#    x 1.796790 -0.014560 -0.002100 
#    y -0.014560 1.767710 0.006640 
#    z -0.002100 0.006640 1.793430 
# 
# From -- ./inp_files/19416.got.cif
#   From: 2010.06.25/outbox.cif.g09.slc.cpg/sg2_10_cif.got.tgz:19416.got - 2010.06.27 13:26:56.
