data_PCOD8018700
_publ_section_title
;
Structure prediction by ZEFSAII (Michael W. Deem and Ramdas Pophale) SiO2 
 PCOD8018700
Probable space group: P -1
;
_chemical_formula_sum "Si O2"
_cell_formula_units_Z 12
_cell_length_a 23.064203
_cell_length_b 13.687041
_cell_length_c 16.160501
_cell_angle_alpha 152.551951
_cell_angle_beta 16.408546
_cell_angle_gamma 156.242630
_cell_volume 578.568958
_symmetry_space_group_name_H-M "P -1"
_symmetry_group_IT_number 2
_symmetry_cell_setting 'triclinic'
loop_
_space_group_symop_operation_xyz
x,y,z
-x,-y,-z
loop_
_atom_site_type_symbol
_atom_site_label
_atom_site_fract_x
_atom_site_fract_y
_atom_site_fract_z
Si Si1 0.827461 0.075418 0.747591
Si Si2 0.995220 0.451382 0.658144
Si Si3 0.731997 0.312128 0.205771
Si Si4 0.678934 0.583866 0.931966
Si Si5 0.555984 0.432775 0.169955
Si Si6 0.492276 0.829809 0.263718
O O1 0.976989 0.280217 0.630174
O O2 0.617621 0.850217 0.819379
O O3 0.710648 0.180607 0.049826
O O4 0.000000 0.000000 0.500000
O O5 0.061376 0.349864 0.408142
O O6 0.212623 0.722628 0.584125
O O7 0.758582 0.463559 0.978588
O O8 0.584246 0.451691 0.506190
O O9 0.622747 0.114613 0.280124
O O10 0.000000 0.500000 0.000000
O O11 0.485030 0.324149 0.961134
O O12 0.674427 0.571398 0.027170
O O13 0.616741 0.791266 0.144832
#
# Coordination Sequence:
#
# PCOD8018700 Si02
#       6
#     2   2   2   2   2   2
#     4  12  22  45  67  89 133 167 211 267 303 386
#     4  10  22  40  69  96 125 171 209 260 328 369
#     4  12  26  39  66  97 125 170 218 255 320 379
#     4   9  19  40  69  89 124 168 212 258 313 370
#     4  12  24  40  67  97 130 168 207 264 326 371
#     4   9  20  41  64  94 121 166 221 254 307 378
#
# _framework density 20.740828
#
# number of rings (size 3 to 8) (size 9 to 14) (size 15 to 20)
#    1.000    0.333    3.333    3.000    0.000    2.000 
#    0.000    0.000    0.000    0.000    0.000    0.000 
#    0.000    0.000    0.000    0.000    0.000    0.000 
#
# Total GULP energy -148788.443951 kJ/mol
# GULP energy per Si atom -12399.036996 kJ/mol
# Density = 2.069362 g / cm^3
# Si number density = 20.740828 Si / 1000 Ang^3
#
#
#
# Elastic Constant Matrix: (Units=GPa)
#
#
# Indices 1 2 3 4 5 6 
#
# 1 70.8830 38.5854 47.1335 2.4634 -8.5433 -19.6455
# 2 38.5854 153.3696 56.5877 -10.2158 -12.2654 -10.4709
# 3 47.1335 56.5877 150.6457 -4.7502 -17.0106 -0.0065
# 4 2.4634 -10.2158 -4.7502 26.9909 4.4443 6.3656
# 5 -8.5433 -12.2654 -17.0106 4.4443 42.8413 -3.0282
# 6 -19.6455 -10.4709 -0.0065 6.3656 -3.0282 25.1399
#
#
#
# Elastic Compliance Matrix: (Units=1/GPa)
#
#
# Indices 1 2 3 4 5 6 
#
# 1 0.028713 -0.003120 -0.007643 -0.011753 0.004762 0.024685
# 2 -0.003120 0.008307 -0.001974 0.002877 0.000700 0.000377
# 3 -0.007643 -0.001974 0.009988 0.003315 0.001002 -0.007511
# 4 -0.011753 0.002877 0.003315 0.045633 -0.006373 -0.020307
# 5 0.004762 0.000700 0.001002 -0.006373 0.026171 0.008779
# 6 0.024685 0.000377 -0.007511 -0.020307 0.008779 0.065422
#
#
# Mechanical properties :
#
#
# Convention : Reuss Voigt Hill
#
# Bulk Modulus (GPa) = 46.44171 73.27907 59.86039
# Shear Modulus (GPa) = 23.05337 34.50052 28.77694
#
# Velocity S-wave (km/s) = 3.33753 4.08292 3.72890
# Velocity P-wave (km/s) = 6.10673 7.59174 6.88936
#
# Compressibility (1/GPa) = 0.02153237
#
# Stress axis : x y z
#
# Youngs Moduli (GPa) = 34.82791 120.37965 100.11575
#
# Poissons Ratio (x) = 0.37561 0.76521
# Poissons Ratio (y) = 0.10867 0.19766
# Poissons Ratio (z) = 0.26620 0.23767
#
# Static dielectric constant tensor:
#      x y z
#    x 3.468640 -0.148530 0.067450 
#    y -0.148530 3.773730 -0.043230 
#    z 0.067450 -0.043230 3.740470 
# 
# 
# High freq. dielectric constant tensor:
#      x y z
#    x 1.793720 -0.017820 -0.000770 
#    y -0.017820 1.811810 -0.007420 
#    z -0.000770 -0.007420 1.812500 
# 
# From -- ./inp_files/165716.got.cif
#   From: 2010.06.25/outbox.cif.g09.slc.cpg/sg2_83_cif.got.tgz:165716.got - 2010.06.27 13:26:56.
