data_PCOD8018745
_publ_section_title
;
Structure prediction by ZEFSAII (Michael W. Deem and Ramdas Pophale) SiO2 
 PCOD8018745
Probable space group: P -1
;
_chemical_formula_sum "Si O2"
_cell_formula_units_Z 14
_cell_length_a 10.915351
_cell_length_b 13.128921
_cell_length_c 10.122423
_cell_angle_alpha 96.703949
_cell_angle_beta 56.836511
_cell_angle_gamma 50.334730
_cell_volume 645.771681
_symmetry_space_group_name_H-M "P -1"
_symmetry_group_IT_number 2
_symmetry_cell_setting 'triclinic'
loop_
_space_group_symop_operation_xyz
x,y,z
-x,-y,-z
loop_
_atom_site_type_symbol
_atom_site_label
_atom_site_fract_x
_atom_site_fract_y
_atom_site_fract_z
Si Si1 0.234521 0.592209 0.211585
Si Si2 0.469019 0.839813 0.773331
Si Si3 0.901024 0.266943 0.139335
Si Si4 0.135360 0.337668 0.990350
Si Si5 0.371804 0.483694 0.404765
Si Si6 0.806445 0.610550 0.761969
Si Si7 0.641769 0.938244 0.545326
O O1 0.205222 0.609291 0.390175
O O2 0.256578 0.459901 0.139092
O O3 0.952645 0.798888 0.340205
O O4 0.500000 0.500000 0.000000
O O5 0.585530 0.663505 0.619363
O O6 0.517768 0.817694 0.900282
O O7 0.645550 0.826995 0.601863
O O8 0.147271 0.039979 0.969658
O O9 0.674204 0.352336 0.192408
O O10 0.785967 0.364760 0.364438
O O11 0.007933 0.306111 0.011871
O O12 0.462700 0.134073 0.749449
O O13 0.079309 0.385124 0.187638
O O14 0.000000 0.500000 0.000000
O O15 0.000000 0.500000 0.500000
O O16 0.500000 0.000000 0.500000
#
# Coordination Sequence:
#
# PCOD8018745 Si02
#       7
#     2   2   2   2   2   2   2
#     4  11  25  42  67  95 138 173 223 281 347 402
#     4  10  22  40  70  93 127 174 238 272 334 407
#     4  10  23  40  66  96 131 174 223 280 336 407
#     4  11  25  40  69  99 134 174 232 287 337 406
#     4  10  23  42  65  95 135 177 217 285 338 400
#     4  11  22  43  70  97 130 181 225 282 337 405
#     4  11  25  42  68 100 133 181 227 279 346 409
#
# _framework density 21.679490999999999
#
# number of rings (size 3 to 8) (size 9 to 14) (size 15 to 20)
#    0.000    1.429    1.429    3.000   10.000    1.143 
#    0.000    0.714    0.000    0.000    0.000    0.000 
#    0.000    0.000    0.000    0.000    0.000    0.000 
#
# Total GULP energy -173468.872396 kJ/mol
# GULP energy per Si atom -12390.633743 kJ/mol
# Density = 2.163015 g / cm^3
# Si number density = 21.679491 Si / 1000 Ang^3
#
#
#
# Elastic Constant Matrix: (Units=GPa)
#
#
# Indices 1 2 3 4 5 6 
#
# 1 102.0840 31.4472 37.1344 11.9909 -13.6430 -11.9072
# 2 31.4472 104.5187 36.6309 10.1763 -7.4271 -4.6988
# 3 37.1344 36.6309 112.8026 14.3609 -20.4561 -2.8717
# 4 11.9909 10.1763 14.3609 19.7108 -6.0338 -5.6131
# 5 -13.6430 -7.4271 -20.4561 -6.0338 46.8492 -1.4363
# 6 -11.9072 -4.6988 -2.8717 -5.6131 -1.4363 40.4545
#
#
#
# Elastic Compliance Matrix: (Units=1/GPa)
#
#
# Indices 1 2 3 4 5 6 
#
# 1 0.012356 -0.002269 -0.002529 -0.003143 0.001816 0.002822
# 2 -0.002269 0.011429 -0.002691 -0.002645 -0.000362 0.000089
# 3 -0.002529 -0.002691 0.011773 -0.004852 0.003329 -0.000776
# 4 -0.003143 -0.002645 -0.004852 0.060965 0.004615 0.007046
# 5 0.001816 -0.000362 0.003329 0.004615 0.023932 0.002219
# 6 0.002822 0.000089 -0.000776 0.007046 0.002219 0.026561
#
#
# Mechanical properties :
#
#
# Convention : Reuss Voigt Hill
#
# Bulk Modulus (GPa) = 48.59329 58.87003 53.73166
# Shear Modulus (GPa) = 29.61088 35.68242 32.64665
#
# Velocity S-wave (km/s) = 3.69975 4.06138 3.88477
# Velocity P-wave (km/s) = 6.38074 7.01475 6.70525
#
# Compressibility (1/GPa) = 0.02057897
#
# Stress axis : x y z
#
# Youngs Moduli (GPa) = 80.93237 87.49367 84.93890
#
# Poissons Ratio (x) = 0.19854 0.21485
# Poissons Ratio (y) = 0.18366 0.22858
# Poissons Ratio (z) = 0.20471 0.23545
#
# Static dielectric constant tensor:
#      x y z
#    x 4.289970 -0.090650 -0.197860 
#    y -0.090650 4.061120 0.308040 
#    z -0.197860 0.308040 4.158570 
# 
# 
# High freq. dielectric constant tensor:
#      x y z
#    x 1.859950 -0.012520 -0.013930 
#    y -0.012520 1.851890 0.009140 
#    z -0.013930 0.009140 1.848080 
# 
# From -- ./inp_files/425903.got.cif
#   From: 2010.06.25/outbox.cif.g09.slc.cpg/sg2_213_cif.got.tgz:425903.got - 2010.06.27 13:26:56.
