data_PCOD8018989
_publ_section_title
;
Structure prediction by ZEFSAII (Michael W. Deem and Ramdas Pophale) SiO2 
 PCOD8018989
Probable space group: P -1
;
_chemical_formula_sum "Si O2"
_cell_formula_units_Z 16
_cell_length_a 10.859463
_cell_length_b 14.287128
_cell_length_c 9.789775
_cell_angle_alpha 133.526787
_cell_angle_beta 119.395491
_cell_angle_gamma 96.412951
_cell_volume 673.801031
_symmetry_space_group_name_H-M "P -1"
_symmetry_group_IT_number 2
_symmetry_cell_setting 'triclinic'
loop_
_space_group_symop_operation_xyz
x,y,z
-x,-y,-z
loop_
_atom_site_type_symbol
_atom_site_label
_atom_site_fract_x
_atom_site_fract_y
_atom_site_fract_z
Si Si1 0.938574 0.683116 0.396691
Si Si2 0.011438 0.275721 0.953937
Si Si3 0.286035 0.845584 0.556837
Si Si4 0.494013 0.633891 0.204350
Si Si5 0.098574 0.429292 0.448891
Si Si6 0.454034 0.229663 0.050081
Si Si7 0.571199 0.342671 0.520566
Si Si8 0.168047 0.104072 0.536792
O O1 0.957826 0.704534 0.592662
O O2 0.932778 0.823645 0.473568
O O3 0.125005 0.730834 0.477811
O O4 0.736991 0.467977 0.036838
O O5 0.999771 0.313099 0.140644
O O6 0.209867 0.451752 0.162329
O O7 0.821454 0.210664 0.704476
O O8 0.004535 0.115711 0.783277
O O9 0.416598 0.801368 0.584950
O O10 0.436252 0.063010 0.880708
O O11 0.547299 0.665045 0.426659
O O12 0.659981 0.826644 0.409990
O O13 0.500000 0.500000 0.000000
O O14 0.338730 0.598242 0.737837
O O15 0.000000 0.500000 0.500000
O O16 0.449157 0.285517 0.256696
O O17 0.268408 0.172383 0.810363
#
# Coordination Sequence:
#
# PCOD8018989 Si02
#       8
#     2   2   2   2   2   2   2   2
#     4  11  22  42  66  92 133 176 207 269 330 382
#     4  10  23  39  62 101 123 169 220 263 320 388
#     4  11  23  41  69  98 130 171 219 264 332 384
#     4  10  22  41  63  94 125 176 213 260 326 382
#     4  11  24  41  66  95 137 169 215 273 327 383
#     4  10  23  41  63 103 128 169 220 272 316 387
#     4  11  22  42  69  95 133 169 217 269 327 387
#     4  10  23  44  66  92 133 171 220 262 323 390
#
# _framework density 23.745882000000002
#
# number of rings (size 3 to 8) (size 9 to 14) (size 15 to 20)
#    0.000    1.500    2.500    2.250    1.750    4.500 
#    0.000    8.750    0.000    0.000    0.000    0.000 
#    0.000    0.000    0.000    0.000    0.000    0.000 
#
# Total GULP energy -198433.516960 kJ/mol
# GULP energy per Si atom -12402.094810 kJ/mol
# Density = 2.369183 g / cm^3
# Si number density = 23.745882 Si / 1000 Ang^3
#
#
#
# Elastic Constant Matrix: (Units=GPa)
#
#
# Indices 1 2 3 4 5 6 
#
# 1 80.9471 38.3709 22.7295 -12.9166 -24.1151 12.4945
# 2 38.3709 130.5656 33.8185 -12.5142 -21.8472 16.0383
# 3 22.7295 33.8185 97.4787 -14.4096 -22.5961 7.7563
# 4 -12.9166 -12.5142 -14.4096 34.7974 7.0488 -14.9260
# 5 -24.1151 -21.8472 -22.5961 7.0488 17.9212 -7.1037
# 6 12.4945 16.0383 7.7563 -14.9260 -7.1037 36.3544
#
#
#
# Elastic Compliance Matrix: (Units=1/GPa)
#
#
# Indices 1 2 3 4 5 6 
#
# 1 0.021607 -0.001906 0.002757 0.002361 0.029094 -0.000519
# 2 -0.001906 0.010004 -0.001154 0.000041 0.007342 -0.002060
# 3 0.002757 -0.001154 0.015216 0.003463 0.020843 0.001810
# 4 0.002361 0.000041 0.003463 0.037135 -0.001724 0.013341
# 5 0.029094 0.007342 0.020843 -0.001724 0.133942 0.007779
# 6 -0.000519 -0.002060 0.001810 0.013341 0.007779 0.035206
#
#
# Mechanical properties :
#
#
# Convention : Reuss Voigt Hill
#
# Bulk Modulus (GPa) = 21.63512 55.42549 38.53031
# Shear Modulus (GPa) = 18.57896 32.08609 25.33252
#
# Velocity S-wave (km/s) = 2.80019 3.67989 3.26976
# Velocity P-wave (km/s) = 4.42557 6.43795 5.52417
#
# Compressibility (1/GPa) = 0.04622114
#
# Stress axis : x y z
#
# Youngs Moduli (GPa) = 46.28090 99.96329 65.72159
#
# Poissons Ratio (x) = 0.19052 -0.18122
# Poissons Ratio (y) = 0.08821 0.07585
# Poissons Ratio (z) = -0.12761 0.11537
#
# Static dielectric constant tensor:
#      x y z
#    x 4.099850 0.419970 0.005690 
#    y 0.419970 4.799160 -0.041680 
#    z 0.005690 -0.041680 4.614360 
# 
# 
# High freq. dielectric constant tensor:
#      x y z
#    x 1.923710 0.015260 -0.004940 
#    y 0.015260 1.959110 -0.004790 
#    z -0.004940 -0.004790 1.941590 
# 
# From -- ./inp_files/274445.got.cif
#   From: 2010.06.25/outbox.cif.g09.slc.cpg/sg2_138_cif.got.tgz:274445.got - 2010.06.27 13:26:56.
