data_PCOD8018674
_publ_section_title
;
Structure prediction by ZEFSAII (Michael W. Deem and Ramdas Pophale) SiO2 
 PCOD8018674
Probable space group: P -1
;
_chemical_formula_sum "Si O2"
_cell_formula_units_Z 16
_cell_length_a 15.694808
_cell_length_b 8.790728
_cell_length_c 11.265088
_cell_angle_alpha 137.359213
_cell_angle_beta 141.416296
_cell_angle_gamma 44.022292
_cell_volume 617.264798
_symmetry_space_group_name_H-M "P -1"
_symmetry_group_IT_number 2
_symmetry_cell_setting 'triclinic'
loop_
_space_group_symop_operation_xyz
x,y,z
-x,-y,-z
loop_
_atom_site_type_symbol
_atom_site_label
_atom_site_fract_x
_atom_site_fract_y
_atom_site_fract_z
Si Si1 0.016676 0.389913 0.824688
Si Si2 0.326118 0.299143 0.643518
Si Si3 0.877838 0.896396 0.575614
Si Si4 0.217437 0.784298 0.910946
Si Si5 0.736762 0.993081 0.226086
Si Si6 0.605281 0.910883 0.817414
Si Si7 0.871654 0.232174 0.947846
Si Si8 0.309479 0.488477 0.492753
O O1 0.862902 0.389922 0.616034
O O2 0.121888 0.112048 0.768944
O O3 0.078154 0.542228 0.888379
O O4 0.000000 0.500000 0.000000
O O5 0.166386 0.284419 0.489379
O O6 0.326740 0.557351 0.832418
O O7 0.443974 0.082590 0.713933
O O8 0.362238 0.285153 0.534905
O O9 0.051183 0.828268 0.713864
O O10 0.793083 0.892227 0.358954
O O11 0.814034 0.160639 0.719238
O O12 0.271723 0.003385 0.063950
O O13 0.243744 0.717543 0.041601
O O14 0.648932 0.277042 0.301188
O O15 0.624073 0.894495 0.972935
O O16 0.630555 0.643756 0.642020
O O17 0.000000 0.000000 0.000000
#
# Coordination Sequence:
#
# PCOD8018674 Si02
#       8
#     2   2   2   2   2   2   2   2
#     4  12  23  41  70 107 149 180 226 294 358 410
#     4  12  25  46  71 101 141 188 241 291 346 420
#     4  11  24  43  69 107 141 180 232 294 354 418
#     4  11  22  44  74 103 141 179 238 300 351 403
#     4  12  27  43  70 106 144 186 234 284 358 426
#     4  12  27  46  70 105 142 188 237 289 350 418
#     4  10  22  40  69 105 141 179 227 290 353 405
#     4  12  24  43  72 101 139 186 240 288 344 421
#
# _framework density 25.920805000000001
#
# number of rings (size 3 to 8) (size 9 to 14) (size 15 to 20)
#    0.000    0.500    2.500    7.500    1.750    0.500 
#    0.000    0.625    0.000    0.000    0.000    0.000 
#    0.000    0.000    0.000    0.000    0.000    0.000 
#
# Total GULP energy -198224.493278 kJ/mol
# GULP energy per Si atom -12389.030830 kJ/mol
# Density = 2.586181 g / cm^3
# Si number density = 25.920805 Si / 1000 Ang^3
#
#
#
# Elastic Constant Matrix: (Units=GPa)
#
#
# Indices 1 2 3 4 5 6 
#
# 1 73.5202 4.4983 27.7354 9.7733 -15.5922 9.6875
# 2 4.4983 85.3526 32.7899 4.2578 -14.1558 -17.2691
# 3 27.7354 32.7899 113.0074 10.6730 -44.9005 -14.4824
# 4 9.7733 4.2578 10.6730 41.5785 -4.5392 -1.2004
# 5 -15.5922 -14.1558 -44.9005 -4.5392 41.8135 0.5629
# 6 9.6875 -17.2691 -14.4824 -1.2004 0.5629 24.8804
#
#
#
# Elastic Compliance Matrix: (Units=1/GPa)
#
#
# Indices 1 2 3 4 5 6 
#
# 1 0.017365 -0.000891 -0.004631 -0.002987 0.001015 -0.010242
# 2 -0.000891 0.014826 -0.001811 -0.000287 0.002583 0.009511
# 3 -0.004631 -0.001811 0.019249 -0.001373 0.018030 0.011277
# 4 -0.002987 -0.000287 -0.001373 0.025178 0.000029 0.001378
# 5 0.001015 0.002583 0.018030 0.000029 0.044386 0.010890
# 6 -0.010242 0.009511 0.011277 0.001378 0.010890 0.057166
#
#
# Mechanical properties :
#
#
# Convention : Reuss Voigt Hill
#
# Bulk Modulus (GPa) = 27.19213 44.65860 35.92537
# Shear Modulus (GPa) = 24.37914 35.44493 29.91203
#
# Velocity S-wave (km/s) = 3.07012 3.70189 3.40071
# Velocity P-wave (km/s) = 4.80425 5.96140 5.41383
#
# Compressibility (1/GPa) = 0.03677534
#
# Stress axis : x y z
#
# Youngs Moduli (GPa) = 57.58720 67.45005 51.94965
#
# Poissons Ratio (x) = 0.06011 0.24056
# Poissons Ratio (y) = 0.05132 0.09406
# Poissons Ratio (z) = 0.26666 0.12213
#
# Static dielectric constant tensor:
#      x y z
#    x 4.822800 0.089820 -0.712140 
#    y 0.089820 4.558040 -0.056580 
#    z -0.712140 -0.056580 5.279330 
# 
# 
# High freq. dielectric constant tensor:
#      x y z
#    x 2.022230 0.000950 -0.030420 
#    y 0.000950 2.028460 0.005770 
#    z -0.030420 0.005770 2.047140 
# 
# From -- ./inp_files/462598.got.cif
#   From: 2010.06.25/outbox.cif.g09.slc.cpg/sg2_232_cif.got.tgz:462598.got - 2010.06.27 13:26:56.
