data_PCOD8018402
_publ_section_title
;
Structure prediction by ZEFSAII (Michael W. Deem and Ramdas Pophale) SiO2 
 PCOD8018402
Probable space group: P -1
;
_chemical_formula_sum "Si O2"
_cell_formula_units_Z 16
_cell_length_a 13.744682
_cell_length_b 11.223212
_cell_length_c 6.267453
_cell_angle_alpha 68.737841
_cell_angle_beta 88.497994
_cell_angle_gamma 129.157869
_cell_volume 653.628374
_symmetry_space_group_name_H-M "P -1"
_symmetry_group_IT_number 2
_symmetry_cell_setting 'triclinic'
loop_
_space_group_symop_operation_xyz
x,y,z
-x,-y,-z
loop_
_atom_site_type_symbol
_atom_site_label
_atom_site_fract_x
_atom_site_fract_y
_atom_site_fract_z
Si Si1 0.082783 0.399973 0.016267
Si Si2 0.856150 0.262898 0.833271
Si Si3 0.053371 0.817748 0.486462
Si Si4 0.283205 0.708775 0.516563
Si Si5 0.082179 0.101916 0.139323
Si Si6 0.484115 0.686854 0.416230
Si Si7 0.399246 0.378378 0.889690
Si Si8 0.696750 0.041805 0.364777
O O1 0.225775 0.570340 0.805534
O O2 0.974885 0.397312 0.909262
O O3 0.052302 0.221794 0.107488
O O4 0.068735 0.387306 0.286203
O O5 0.902023 0.177775 0.757577
O O6 0.832793 0.352621 0.601421
O O7 0.720980 0.119277 0.073025
O O8 0.020036 0.939295 0.412366
O O9 0.167661 0.898173 0.602292
O O10 0.386264 0.719294 0.365104
O O11 0.352471 0.893710 0.506506
O O12 0.243355 0.220439 0.058837
O O13 0.000000 0.000000 0.000000
O O14 0.402672 0.495299 0.641720
O O15 0.550076 0.706061 0.174636
O O16 0.590823 0.831411 0.492507
O O17 0.500000 0.500000 0.000000
#
# Coordination Sequence:
#
# PCOD8018402 Si02
#       8
#     2   2   2   2   2   2   2   2
#     4  11  23  42  64 102 143 183 234 293 358 427
#     4  10  22  41  66  96 136 185 228 298 349 415
#     4  10  22  40  66 100 137 184 225 295 360 416
#     4  11  24  43  66 104 138 190 239 287 350 424
#     4  12  23  45  75 106 142 181 239 298 361 423
#     4  11  24  46  70 101 140 187 240 293 348 424
#     4  11  26  48  74 103 145 188 232 294 360 427
#     4  10  23  42  71  98 142 184 242 287 348 423
#
# _framework density 24.478743000000001
#
# number of rings (size 3 to 8) (size 9 to 14) (size 15 to 20)
#    0.000    1.250    2.500    2.625    1.750    8.000 
#    6.750    0.000    0.000    0.000    0.000    0.000 
#    0.000    0.000    0.000    0.000    0.000    0.000 
#
# Total GULP energy -198209.159685 kJ/mol
# GULP energy per Si atom -12388.072480 kJ/mol
# Density = 2.442303 g / cm^3
# Si number density = 24.478743 Si / 1000 Ang^3
#
#
#
# Elastic Constant Matrix: (Units=GPa)
#
#
# Indices 1 2 3 4 5 6 
#
# 1 100.1534 20.1130 20.8882 15.9737 -6.4081 -12.6040
# 2 20.1130 98.5051 20.0932 19.8103 0.4840 -4.3086
# 3 20.8882 20.0932 90.6719 0.5594 11.9122 -3.9132
# 4 15.9737 19.8103 0.5594 35.8212 -4.0959 -4.7665
# 5 -6.4081 0.4840 11.9122 -4.0959 32.7330 -0.2884
# 6 -12.6040 -4.3086 -3.9132 -4.7665 -0.2884 42.4929
#
#
#
# Elastic Compliance Matrix: (Units=1/GPa)
#
#
# Indices 1 2 3 4 5 6 
#
# 1 0.011931 -0.000948 -0.002772 -0.004058 0.002875 0.002752
# 2 -0.000948 0.012092 -0.002385 -0.006256 -0.000279 0.000022
# 3 -0.002772 -0.002385 0.012848 0.001827 -0.004952 0.000290
# 4 -0.004058 -0.006256 0.001827 0.033771 0.002878 0.002138
# 5 0.002875 -0.000279 -0.004952 0.002878 0.033288 0.000917
# 6 0.002752 0.000022 0.000290 0.002138 0.000917 0.024625
#
#
# Mechanical properties :
#
#
# Convention : Reuss Voigt Hill
#
# Bulk Modulus (GPa) = 40.55201 45.72436 43.13819
# Shear Modulus (GPa) = 33.56042 37.42514 35.49278
#
# Velocity S-wave (km/s) = 3.70672 3.91434 3.81194
# Velocity P-wave (km/s) = 5.90948 6.25693 6.08568
#
# Compressibility (1/GPa) = 0.02465969
#
# Stress axis : x y z
#
# Youngs Moduli (GPa) = 83.81716 82.69633 77.83441
#
# Poissons Ratio (x) = 0.07842 0.21578
# Poissons Ratio (y) = 0.07948 0.18564
# Poissons Ratio (z) = 0.23236 0.19724
#
# Static dielectric constant tensor:
#      x y z
#    x 4.465240 -0.271200 -0.117920 
#    y -0.271200 4.279850 -0.051310 
#    z -0.117920 -0.051310 4.947370 
# 
# 
# High freq. dielectric constant tensor:
#      x y z
#    x 1.972280 -0.025000 -0.000150 
#    y -0.025000 1.968870 0.000780 
#    z -0.000150 0.000780 1.984360 
# 
# From -- ./inp_files/94641.got.cif
#   From: 2010.06.25/outbox.cif.g09.slc.cpg/sg2_48_cif.got.tgz:94641.got - 2010.06.27 13:26:56.
