data_PCOD8018470
_publ_section_title
;
Structure prediction by ZEFSAII (Michael W. Deem and Ramdas Pophale) SiO2 
 PCOD8018470
Probable space group: P -1
;
_chemical_formula_sum "Si O2"
_cell_formula_units_Z 14
_cell_length_a 11.396248
_cell_length_b 6.286689
_cell_length_c 8.049931
_cell_angle_alpha 98.688037
_cell_angle_beta 87.349565
_cell_angle_gamma 98.537032
_cell_volume 563.632654
_symmetry_space_group_name_H-M "P -1"
_symmetry_group_IT_number 2
_symmetry_cell_setting 'triclinic'
loop_
_space_group_symop_operation_xyz
x,y,z
-x,-y,-z
loop_
_atom_site_type_symbol
_atom_site_label
_atom_site_fract_x
_atom_site_fract_y
_atom_site_fract_z
Si Si1 0.440210 0.737097 0.851017
Si Si2 0.379063 0.903593 0.211418
Si Si3 0.264198 0.976378 0.682634
Si Si4 0.872476 0.663254 0.188373
Si Si5 0.853054 0.364782 0.843891
Si Si6 0.464018 0.330652 0.626908
Si Si7 0.138695 0.554163 0.500156
O O1 0.422566 0.477352 0.797006
O O2 0.564833 0.842063 0.764435
O O3 0.333059 0.847757 0.793580
O O4 0.448427 0.786727 0.050403
O O5 0.238179 0.861007 0.183121
O O6 0.418338 0.781576 0.359397
O O7 0.176049 0.109301 0.809426
O O8 0.354463 0.137974 0.579072
O O9 0.181815 0.811739 0.549316
O O10 0.817521 0.576097 0.361454
O O11 0.015319 0.699089 0.177475
O O12 0.825712 0.494492 0.025939
O O13 0.824509 0.504591 0.697792
O O14 0.500000 0.500000 0.500000
O O15 0.000000 0.500000 0.500000
#
# Coordination Sequence:
#
# PCOD8018470 Si02
#       7
#     2   2   2   2   2   2   2
#     4  10  23  43  64  95 133 173 218 279 337 395
#     4  10  22  40  66  96 128 175 222 276 328 407
#     4  11  23  41  72  92 139 179 216 279 345 391
#     4  10  23  46  65  98 138 179 222 280 334 395
#     4  10  22  41  70  96 134 177 228 273 329 404
#     4  11  25  39  66  98 130 174 219 271 339 400
#     4  10  23  42  66  96 133 178 224 278 328 396
#
# _framework density 24.838874000000001
#
# number of rings (size 3 to 8) (size 9 to 14) (size 15 to 20)
#    0.000    1.714    0.000    3.000    6.000    5.714 
#    0.000   17.143    0.000    0.000    0.000    0.000 
#    0.000    0.000    0.000    0.000    0.000    0.000 
#
# Total GULP energy -173486.899231 kJ/mol
# GULP energy per Si atom -12391.921374 kJ/mol
# Density = 2.478234 g / cm^3
# Si number density = 24.838874 Si / 1000 Ang^3
#
#
#
# Elastic Constant Matrix: (Units=GPa)
#
#
# Indices 1 2 3 4 5 6 
#
# 1 111.0058 53.2143 19.1929 14.5828 17.6840 19.8572
# 2 53.2143 105.2499 16.2169 10.9743 18.4635 22.4035
# 3 19.1929 16.2169 89.6116 -13.0570 13.0548 3.4285
# 4 14.5828 10.9743 -13.0570 33.9029 7.8282 -1.3241
# 5 17.6840 18.4635 13.0548 7.8282 29.5794 11.4348
# 6 19.8572 22.4035 3.4285 -1.3241 11.4348 40.9784
#
#
#
# Elastic Compliance Matrix: (Units=1/GPa)
#
#
# Indices 1 2 3 4 5 6 
#
# 1 0.013177 -0.004870 -0.002338 -0.004837 -0.001235 -0.003339
# 2 -0.004870 0.013832 -0.001219 -0.002361 -0.002868 -0.004376
# 3 -0.002338 -0.001219 0.014132 0.008702 -0.007542 0.003003
# 4 -0.004837 -0.002361 0.008702 0.038942 -0.012769 0.007728
# 5 -0.001235 -0.002868 -0.007542 -0.012769 0.047215 -0.010790
# 6 -0.003339 -0.004376 0.003003 0.007728 -0.010790 0.031423
#
#
# Mechanical properties :
#
#
# Convention : Reuss Voigt Hill
#
# Bulk Modulus (GPa) = 41.17367 53.67951 47.42659
# Shear Modulus (GPa) = 27.22251 35.37503 31.29877
#
# Velocity S-wave (km/s) = 3.31413 3.77793 3.55360
# Velocity P-wave (km/s) = 5.59078 6.37874 5.99771
#
# Compressibility (1/GPa) = 0.02428737
#
# Stress axis : x y z
#
# Youngs Moduli (GPa) = 75.89014 72.29502 70.75948
#
# Poissons Ratio (x) = 0.35210 0.16543
# Poissons Ratio (y) = 0.36961 0.08624
# Poissons Ratio (z) = 0.17743 0.08811
#
# Static dielectric constant tensor:
#      x y z
#    x 4.438430 0.279900 0.033870 
#    y 0.279900 4.755520 0.001930 
#    z 0.033870 0.001930 5.094340 
# 
# 
# High freq. dielectric constant tensor:
#      x y z
#    x 1.990840 0.028270 0.006360 
#    y 0.028270 1.974080 0.000710 
#    z 0.006360 0.000710 2.004070 
# 
# From -- ./inp_files/46709.got.cif
#   From: 2010.06.25/outbox.cif.g09.slc.cpg/sg2_24_cif.got.tgz:46709.got - 2010.06.27 13:26:56.
