data_PCOD8018880
_publ_section_title
;
Structure prediction by ZEFSAII (Michael W. Deem and Ramdas Pophale) SiO2 
 PCOD8018880
Probable space group: P -1
;
_chemical_formula_sum "Si O2"
_cell_formula_units_Z 14
_cell_length_a 7.567317
_cell_length_b 14.480376
_cell_length_c 17.891732
_cell_angle_alpha 157.551850
_cell_angle_beta 90.608266
_cell_angle_gamma 77.305109
_cell_volume 625.262082
_symmetry_space_group_name_H-M "P -1"
_symmetry_group_IT_number 2
_symmetry_cell_setting 'triclinic'
loop_
_space_group_symop_operation_xyz
x,y,z
-x,-y,-z
loop_
_atom_site_type_symbol
_atom_site_label
_atom_site_fract_x
_atom_site_fract_y
_atom_site_fract_z
Si Si1 0.996721 0.157108 0.042888
Si Si2 0.462862 0.743099 0.293239
Si Si3 0.287732 0.798732 0.494404
Si Si4 0.206287 0.845518 0.220097
Si Si5 0.301073 0.308596 0.213311
Si Si6 0.729617 0.444370 0.453361
Si Si7 0.333652 0.267939 0.489242
O O1 0.139416 0.287938 0.146327
O O2 0.768552 0.450030 0.243489
O O3 0.095127 0.900341 0.791535
O O4 0.000000 0.000000 0.000000
O O5 0.351888 0.719960 0.349297
O O6 0.301481 0.806710 0.273650
O O7 0.500000 0.000000 0.500000
O O8 0.682783 0.445655 0.047997
O O9 0.366060 0.501098 0.314637
O O10 0.418794 0.919312 0.626108
O O11 0.040020 0.038192 0.684304
O O12 0.232451 0.080731 0.354505
O O13 0.205579 0.430447 0.385621
O O14 0.500000 0.000000 0.000000
O O15 0.500000 0.500000 0.500000
O O16 0.731042 0.596738 0.491940
#
# Coordination Sequence:
#
# PCOD8018880 Si02
#       7
#     2   2   2   2   2   2   2
#     4  10  22  41  61  93 142 181 233 289 330 409
#     4  11  26  51  77 105 141 179 237 302 365 424
#     4  12  25  47  75 106 141 189 236 289 357 422
#     4  11  26  50  74 106 139 181 236 300 361 422
#     4  12  23  40  66 102 144 188 235 277 345 416
#     4  11  22  39  64  97 140 191 232 284 342 406
#     4  11  23  45  67 102 141 183 240 284 350 427
#
# _framework density 22.390611
#
# number of rings (size 3 to 8) (size 9 to 14) (size 15 to 20)
#    0.000    0.857    5.714    1.286    2.000    4.000 
#    2.571    0.000    0.000    0.000    0.000    0.000 
#    0.000    0.000    0.000    0.000    0.000    0.000 
#
# Total GULP energy -173483.421561 kJ/mol
# GULP energy per Si atom -12391.672969 kJ/mol
# Density = 2.233965 g / cm^3
# Si number density = 22.390611 Si / 1000 Ang^3
#
#
#
# Elastic Constant Matrix: (Units=GPa)
#
#
# Indices 1 2 3 4 5 6 
#
# 1 114.4860 28.2807 51.6479 -3.0020 -22.0698 -2.0832
# 2 28.2807 108.4678 56.7921 -8.2047 -9.4013 10.6578
# 3 51.6479 56.7921 184.3759 -6.9693 -21.8979 1.4745
# 4 -3.0020 -8.2047 -6.9693 32.8653 -6.5391 -1.7981
# 5 -22.0698 -9.4013 -21.8979 -6.5391 35.1635 -0.5426
# 6 -2.0832 10.6578 1.4745 -1.7981 -0.5426 25.3981
#
#
#
# Elastic Compliance Matrix: (Units=1/GPa)
#
#
# Indices 1 2 3 4 5 6 
#
# 1 0.011148 -0.001461 -0.001956 0.001473 0.005691 0.001867
# 2 -0.001461 0.011882 -0.003056 0.002056 0.000666 -0.004769
# 3 -0.001956 -0.003056 0.007274 0.001188 0.002719 0.000842
# 4 0.001473 0.002056 0.001188 0.033091 0.008394 0.001711
# 5 0.005691 0.000666 0.002719 0.008394 0.035464 0.001381
# 6 0.001867 -0.004769 0.000842 0.001711 0.001381 0.041629
#
#
# Mechanical properties :
#
#
# Convention : Reuss Voigt Hill
#
# Bulk Modulus (GPa) = 57.61083 75.64122 66.62603
# Shear Modulus (GPa) = 31.40327 36.72598 34.06463
#
# Velocity S-wave (km/s) = 3.74909 4.05438 3.90472
# Velocity P-wave (km/s) = 6.67283 7.46815 7.08166
#
# Compressibility (1/GPa) = 0.01735785
#
# Stress axis : x y z
#
# Youngs Moduli (GPa) = 89.70509 84.16070 137.47626
#
# Poissons Ratio (x) = 0.12297 0.26891
# Poissons Ratio (y) = 0.13107 0.42009
# Poissons Ratio (z) = 0.17547 0.25717
#
# Static dielectric constant tensor:
#      x y z
#    x 4.436830 -0.069290 -0.319210 
#    y -0.069290 4.274580 -0.095180 
#    z -0.319210 -0.095180 4.670160 
# 
# 
# High freq. dielectric constant tensor:
#      x y z
#    x 1.892670 0.003320 -0.006560 
#    y 0.003320 1.879380 0.004010 
#    z -0.006560 0.004010 1.890710 
# 
# From -- ./inp_files/561247.got.cif
#   From: 2010.06.25/outbox.cif.g09.slc.cpg/sg2_281_cif.got.tgz:561247.got - 2010.06.27 13:26:56.
