data_PCOD8018179
_publ_section_title
;
Structure prediction by ZEFSAII (Michael W. Deem and Ramdas Pophale) SiO2 
 PCOD8018179
Probable space group: P -1
;
_chemical_formula_sum "Si O2"
_cell_formula_units_Z 16
_cell_length_a 8.966649
_cell_length_b 9.918070
_cell_length_c 23.732092
_cell_angle_alpha 152.919208
_cell_angle_beta 123.043160
_cell_angle_gamma 58.124066
_cell_volume 800.381085
_symmetry_space_group_name_H-M "P -1"
_symmetry_group_IT_number 2
_symmetry_cell_setting 'triclinic'
loop_
_space_group_symop_operation_xyz
x,y,z
-x,-y,-z
loop_
_atom_site_type_symbol
_atom_site_label
_atom_site_fract_x
_atom_site_fract_y
_atom_site_fract_z
Si Si1 0.571601 0.274334 0.032501
Si Si2 0.901668 0.447783 0.658811
Si Si3 0.251616 0.708513 0.810039
Si Si4 0.555243 0.804073 0.760253
Si Si5 0.743668 0.782093 0.197326
Si Si6 0.367591 0.298376 0.584016
Si Si7 0.009048 0.087562 0.442669
Si Si8 0.178158 0.300119 0.943942
O O1 0.623123 0.194586 0.077942
O O2 0.709679 0.482102 0.111274
O O3 0.365382 0.431370 0.046643
O O4 0.584834 0.961731 0.885050
O O5 0.740274 0.701934 0.730007
O O6 0.080926 0.596154 0.762941
O O7 0.896140 0.325908 0.548608
O O8 0.887820 0.180611 0.599972
O O9 0.357174 0.434702 0.695693
O O10 0.187775 0.975909 0.853833
O O11 0.439551 0.529355 0.641738
O O12 0.450311 0.036392 0.782652
O O13 0.838483 0.715772 0.132521
O O14 0.873593 0.973969 0.328792
O O15 0.168111 0.238577 0.500572
O O16 0.500000 0.000000 0.500000
O O17 0.000000 0.500000 0.000000
#
# Coordination Sequence:
#
# PCOD8018179 Si02
#       8
#     2   2   2   2   2   2   2   2
#     4  11  24  43  68  91 129 167 212 260 314 382
#     4  10  22  40  63  92 122 165 214 256 305 374
#     4  11  23  43  65  94 128 168 212 262 311 379
#     4  11  23  40  64  94 128 165 209 261 319 377
#     4  11  24  44  64  93 128 167 207 263 320 372
#     4  11  22  40  66  90 127 168 213 260 309 370
#     4  10  22  42  63  89 126 164 212 258 308 371
#     4  11  25  41  62  97 134 164 205 262 325 374
#
# _framework density 19.990476000000001
#
# number of rings (size 3 to 8) (size 9 to 14) (size 15 to 20)
#    0.000    1.250    5.000    1.875    3.500    3.500 
#    0.000    0.000    0.000    0.000    0.000    0.000 
#    0.000    0.000    0.000    0.000    0.000    0.000 
#
# Total GULP energy -198404.872874 kJ/mol
# GULP energy per Si atom -12400.304555 kJ/mol
# Density = 1.994498 g / cm^3
# Si number density = 19.990476 Si / 1000 Ang^3
#
#
#
# Elastic Constant Matrix: (Units=GPa)
#
#
# Indices 1 2 3 4 5 6 
#
# 1 119.5168 42.7378 58.8559 -1.7989 -16.6189 -13.3347
# 2 42.7378 55.0779 40.5433 -0.8918 -11.9435 -4.6460
# 3 58.8559 40.5433 112.6285 -7.5169 2.5416 -14.3846
# 4 -1.7989 -0.8918 -7.5169 38.0854 -7.0177 4.8774
# 5 -16.6189 -11.9435 2.5416 -7.0177 40.4198 17.3502
# 6 -13.3347 -4.6460 -14.3846 4.8774 17.3502 31.6948
#
#
#
# Elastic Compliance Matrix: (Units=1/GPa)
#
#
# Indices 1 2 3 4 5 6 
#
# 1 0.013539 -0.005947 -0.004967 0.000216 0.004013 0.000340
# 2 -0.005947 0.031584 -0.009528 0.001846 0.011597 -0.008829
# 3 -0.004967 -0.009528 0.016314 -0.000283 -0.009977 0.009423
# 4 0.000216 0.001846 -0.000283 0.029323 0.009908 -0.009703
# 5 0.004013 0.011597 -0.009977 0.009908 0.043539 -0.026498
# 6 0.000340 -0.008829 0.009423 -0.009703 -0.026498 0.050675
#
#
# Mechanical properties :
#
#
# Convention : Reuss Voigt Hill
#
# Bulk Modulus (GPa) = 48.65404 63.49970 56.07687
# Shear Modulus (GPa) = 21.48619 31.71242 26.59931
#
# Velocity S-wave (km/s) = 3.28200 3.98725 3.65169
# Velocity P-wave (km/s) = 6.22523 7.28228 6.77440
#
# Compressibility (1/GPa) = 0.02055328
#
# Stress axis : x y z
#
# Youngs Moduli (GPa) = 73.86232 31.66168 61.29769
#
# Poissons Ratio (x) = 0.18828 0.30446
# Poissons Ratio (y) = 0.43924 0.58404
# Poissons Ratio (z) = 0.36687 0.30167
#
# Static dielectric constant tensor:
#      x y z
#    x 3.831220 0.085420 0.123920 
#    y 0.085420 3.451290 0.081120 
#    z 0.123920 0.081120 3.759690 
# 
# 
# High freq. dielectric constant tensor:
#      x y z
#    x 1.795960 0.005830 0.011230 
#    y 0.005830 1.764670 0.005230 
#    z 0.011230 0.005230 1.785130 
# 
# From -- ./inp_files/242548.got.cif
#   From: 2010.06.25/outbox.cif.g09.slc.cpg/sg2_122_cif.got.tgz:242548.got - 2010.06.27 13:26:56.
