data_PCOD8018228
_publ_section_title
;
Structure prediction by ZEFSAII (Michael W. Deem and Ramdas Pophale) SiO2 
 PCOD8018228
Probable space group: P -1
;
_chemical_formula_sum "Si O2"
_cell_formula_units_Z 16
_cell_length_a 11.258714
_cell_length_b 17.448931
_cell_length_c 24.028026
_cell_angle_alpha 160.682382
_cell_angle_beta 38.563453
_cell_angle_gamma 149.812345
_cell_volume 768.803936
_symmetry_space_group_name_H-M "P -1"
_symmetry_group_IT_number 2
_symmetry_cell_setting 'triclinic'
loop_
_space_group_symop_operation_xyz
x,y,z
-x,-y,-z
loop_
_atom_site_type_symbol
_atom_site_label
_atom_site_fract_x
_atom_site_fract_y
_atom_site_fract_z
Si Si1 0.954618 0.299584 0.659187
Si Si2 0.962384 0.816799 0.970663
Si Si3 0.656649 0.848327 0.180566
Si Si4 0.544491 0.086486 0.478982
Si Si5 0.117075 0.362502 0.889692
Si Si6 0.724835 0.790926 0.587804
Si Si7 0.279134 0.808953 0.221473
Si Si8 0.648575 0.624854 0.849393
O O1 0.007094 0.607289 0.839834
O O2 0.924024 0.237876 0.694688
O O3 0.174163 0.313720 0.565901
O O4 0.709750 0.042737 0.543498
O O5 0.730154 0.634476 0.889694
O O6 0.911419 0.972051 0.143654
O O7 0.200030 0.050591 0.008662
O O8 0.524243 0.944810 0.258311
O O9 0.685663 0.984044 0.324638
O O10 0.500000 0.500000 0.000000
O O11 0.700946 0.439435 0.664350
O O12 0.500000 0.000000 0.500000
O O13 0.367685 0.479388 0.848915
O O14 0.175837 0.483311 0.014141
O O15 0.925699 0.008464 0.710141
O O16 0.000000 0.500000 0.000000
O O17 0.500000 0.500000 0.500000
O O18 0.653142 0.967544 0.700588
#
# Coordination Sequence:
#
# PCOD8018228 Si02
#       8
#     2   2   2   2   2   2   2   2
#     4  11  22  40  65  89 127 170 206 262 323 379
#     4  11  23  37  64  96 128 168 209 264 323 379
#     4  11  20  38  64  91 126 166 209 260 325 377
#     4  11  21  37  61  89 123 169 210 253 322 391
#     4  10  22  40  64  86 122 170 212 256 317 377
#     4  11  25  42  66  93 122 165 220 267 309 377
#     4  10  22  41  65  89 126 172 208 255 324 381
#     4  11  22  39  61  95 131 164 214 268 312 387
#
# _framework density 20.811547000000001
#
# number of rings (size 3 to 8) (size 9 to 14) (size 15 to 20)
#    0.000    1.250    6.250    0.375    3.500    0.500 
#    0.000    3.125    0.000    0.000    0.000    0.000 
#    0.000    0.000    0.000    0.000    0.000    0.000 
#
# Total GULP energy -198314.384690 kJ/mol
# GULP energy per Si atom -12394.649043 kJ/mol
# Density = 2.076418 g / cm^3
# Si number density = 20.811547 Si / 1000 Ang^3
#
#
#
# Elastic Constant Matrix: (Units=GPa)
#
#
# Indices 1 2 3 4 5 6 
#
# 1 53.7588 21.3858 27.0197 5.2677 1.1214 -12.6277
# 2 21.3858 107.2995 62.4412 -0.6920 7.1201 -5.5969
# 3 27.0197 62.4412 134.2588 -15.7681 9.9255 -7.8239
# 4 5.2677 -0.6920 -15.7681 43.5286 -4.3129 1.0165
# 5 1.1214 7.1201 9.9255 -4.3129 29.9805 -4.8259
# 6 -12.6277 -5.5969 -7.8239 1.0165 -4.8259 31.9773
#
#
#
# Elastic Compliance Matrix: (Units=1/GPa)
#
#
# Indices 1 2 3 4 5 6 
#
# 1 0.023816 -0.002154 -0.003935 -0.004375 0.001655 0.008454
# 2 -0.002154 0.013213 -0.005823 -0.001775 -0.001404 -0.000118
# 3 -0.003935 -0.005823 0.011584 0.004416 -0.001691 -0.000134
# 4 -0.004375 -0.001775 0.004416 0.025359 0.002549 -0.001379
# 5 0.001655 -0.001404 -0.001691 0.002549 0.035399 0.005255
# 6 0.008454 -0.000118 -0.000134 -0.001379 0.005255 0.035394
#
#
# Mechanical properties :
#
#
# Convention : Reuss Voigt Hill
#
# Bulk Modulus (GPa) = 40.33968 57.44561 48.89265
# Shear Modulus (GPa) = 28.27200 33.39532 30.83366
#
# Velocity S-wave (km/s) = 3.68975 4.01016 3.85329
# Velocity P-wave (km/s) = 6.13007 7.00746 6.58340
#
# Compressibility (1/GPa) = 0.02478949
#
# Stress axis : x y z
#
# Youngs Moduli (GPa) = 41.98835 75.68079 86.32375
#
# Poissons Ratio (x) = 0.16302 0.33966
# Poissons Ratio (y) = 0.09045 0.50269
# Poissons Ratio (z) = 0.16521 0.44072
#
# Static dielectric constant tensor:
#      x y z
#    x 3.499980 0.243020 -0.747330 
#    y 0.243020 3.237180 1.042540 
#    z -0.747330 1.042540 0.595650 
# 
# 
# High freq. dielectric constant tensor:
#      x y z
#    x 1.802640 -0.008660 -0.003000 
#    y -0.008660 1.799100 -0.021200 
#    z -0.003000 -0.021200 1.829280 
# 
# From -- ./inp_files/610792.got.cif
#   From: 2010.06.25/outbox.cif.g09.slc.cpg/sg2_306_cif.got.tgz:610792.got - 2010.06.27 13:26:56.
