data_PCOD8018987
_publ_section_title
;
Structure prediction by ZEFSAII (Michael W. Deem and Ramdas Pophale) SiO2 
 PCOD8018987
Probable space group: P -1
;
_chemical_formula_sum "Si O2"
_cell_formula_units_Z 14
_cell_length_a 10.760783
_cell_length_b 13.935789
_cell_length_c 8.523798
_cell_angle_alpha 149.601778
_cell_angle_beta 80.351015
_cell_angle_gamma 97.786311
_cell_volume 637.536689
_symmetry_space_group_name_H-M "P -1"
_symmetry_group_IT_number 2
_symmetry_cell_setting 'triclinic'
loop_
_space_group_symop_operation_xyz
x,y,z
-x,-y,-z
loop_
_atom_site_type_symbol
_atom_site_label
_atom_site_fract_x
_atom_site_fract_y
_atom_site_fract_z
Si Si1 0.277165 0.991832 0.832837
Si Si2 0.185729 0.296042 0.860118
Si Si3 0.045288 0.042748 0.769847
Si Si4 0.760523 0.024632 0.829283
Si Si5 0.378369 0.335369 0.146483
Si Si6 0.662450 0.379372 0.176778
Si Si7 0.175197 0.666432 0.216891
O O1 0.139085 0.090661 0.962302
O O2 0.279628 0.781897 0.459262
O O3 0.381937 0.119669 0.907582
O O4 0.304786 0.984305 0.000379
O O5 0.083161 0.164629 0.781065
O O6 0.244785 0.180124 0.538571
O O7 0.299742 0.351988 0.027680
O O8 0.122549 0.491777 0.084363
O O9 0.061226 0.815242 0.406525
O O10 0.903689 0.095334 0.921740
O O11 0.683035 0.168302 0.939794
O O12 0.519665 0.400797 0.174564
O O13 0.311237 0.469375 0.479547
O O14 0.758520 0.418407 0.070937
#
# Coordination Sequence:
#
# PCOD8018987 Si02
#       7
#     2   2   2   2   2   2   2
#     4   9  21  41  61  91 127 161 201 257 296 373
#     4  11  22  40  65  92 125 167 199 257 304 370
#     4   9  22  42  60  95 131 156 206 257 293 379
#     4  12  21  39  66  91 130 163 205 246 321 354
#     4  10  23  44  60  91 127 154 221 252 311 357
#     4  11  23  40  66  89 122 169 200 269 298 373
#     4  10  22  41  63  94 124 163 205 247 316 353
#
# _framework density 21.959520999999999
#
# number of rings (size 3 to 8) (size 9 to 14) (size 15 to 20)
#    0.857    0.857    1.429    2.571    0.000    4.000 
#    2.571    2.143    0.000    0.000    0.000    0.000 
#    0.000    0.000    0.000    0.000    0.000    0.000 
#
# Total GULP energy -173585.722388 kJ/mol
# GULP energy per Si atom -12398.980171 kJ/mol
# Density = 2.190954 g / cm^3
# Si number density = 21.959521 Si / 1000 Ang^3
#
#
#
# Elastic Constant Matrix: (Units=GPa)
#
#
# Indices 1 2 3 4 5 6 
#
# 1 49.8295 7.1818 -3.4616 -0.3296 -3.4429 -9.9931
# 2 7.1818 123.6485 20.7115 16.8397 -5.8508 -12.8364
# 3 -3.4616 20.7115 86.6827 8.1702 5.0539 -6.5479
# 4 -0.3296 16.8397 8.1702 50.5531 -3.2577 2.0452
# 5 -3.4429 -5.8508 5.0539 -3.2577 25.4066 -4.0762
# 6 -9.9931 -12.8364 -6.5479 2.0452 -4.0762 20.3338
#
#
#
# Elastic Compliance Matrix: (Units=1/GPa)
#
#
# Indices 1 2 3 4 5 6 
#
# 1 0.023097 -0.000008 0.001646 -0.000323 0.004825 0.012876
# 2 -0.000008 0.009601 -0.001714 -0.002976 0.003203 0.006446
# 3 0.001646 -0.001714 0.012575 -0.001742 -0.002338 0.003483
# 4 -0.000323 -0.002976 -0.001742 0.021337 0.001645 -0.004414
# 5 0.004825 0.003203 -0.002338 0.001645 0.043380 0.012171
# 6 0.012876 0.006446 0.003483 -0.004414 0.012171 0.063582
#
#
# Mechanical properties :
#
#
# Convention : Reuss Voigt Hill
#
# Bulk Modulus (GPa) = 22.16231 34.33602 28.24916
# Shear Modulus (GPa) = 26.48799 34.97397 30.73098
#
# Velocity S-wave (km/s) = 3.47683 3.99514 3.74496
# Velocity P-wave (km/s) = 5.12173 6.07878 5.62066
#
# Compressibility (1/GPa) = 0.04512165
#
# Stress axis : x y z
#
# Youngs Moduli (GPa) = 43.29496 104.15526 79.52181
#
# Poissons Ratio (x) = 0.00087 -0.13090
# Poissons Ratio (y) = 0.00036 0.13628
# Poissons Ratio (z) = -0.07127 0.17849
#
# Static dielectric constant tensor:
#      x y z
#    x 3.569860 -0.141080 0.122490 
#    y -0.141080 3.876040 0.025700 
#    z 0.122490 0.025700 3.892640 
# 
# 
# High freq. dielectric constant tensor:
#      x y z
#    x 1.842500 -0.011490 0.016170 
#    y -0.011490 1.867860 0.001260 
#    z 0.016170 0.001260 1.861170 
# 
# From -- ./inp_files/177206.got.cif
#   From: 2010.06.25/outbox.cif.g09.slc.cpg/sg2_89_cif.got.tgz:177206.got - 2010.06.27 13:26:56.
