data_PCOD8018784
_publ_section_title
;
Structure prediction by ZEFSAII (Michael W. Deem and Ramdas Pophale) SiO2 
 PCOD8018784
Probable space group: P -1
;
_chemical_formula_sum "Si O2"
_cell_formula_units_Z 16
_cell_length_a 16.164033
_cell_length_b 5.350426
_cell_length_c 9.368538
_cell_angle_alpha 90.258169
_cell_angle_beta 112.469854
_cell_angle_gamma 72.994705
_cell_volume 710.689952
_symmetry_space_group_name_H-M "P -1"
_symmetry_group_IT_number 2
_symmetry_cell_setting 'triclinic'
loop_
_space_group_symop_operation_xyz
x,y,z
-x,-y,-z
loop_
_atom_site_type_symbol
_atom_site_label
_atom_site_fract_x
_atom_site_fract_y
_atom_site_fract_z
Si Si1 0.260481 0.969853 0.731116
Si Si2 0.360933 0.405578 0.747292
Si Si3 0.045561 0.711181 0.182814
Si Si4 0.885406 0.849028 0.854606
Si Si5 0.954151 0.790303 0.412173
Si Si6 0.699250 0.041500 0.919680
Si Si7 0.558134 0.776734 0.928358
Si Si8 0.480639 0.557877 0.320741
O O1 0.314820 0.173555 0.723876
O O2 0.154275 0.116355 0.617821
O O3 0.292742 0.696608 0.660171
O O4 0.269999 0.890743 0.904112
O O5 0.446695 0.295623 0.688784
O O6 0.397704 0.458596 0.929972
O O7 0.112964 0.406166 0.239523
O O8 0.966503 0.780854 0.251393
O O9 0.113893 0.895997 0.237266
O O10 0.986449 0.761298 0.998951
O O11 0.793276 0.918454 0.891346
O O12 0.000000 0.500000 0.500000
O O13 0.000000 0.000000 0.500000
O O14 0.628813 0.287843 0.786261
O O15 0.643040 0.833592 0.899965
O O16 0.493552 0.704438 0.763797
O O17 0.500000 0.000000 0.000000
O O18 0.500000 0.500000 0.500000
#
# Coordination Sequence:
#
# PCOD8018784 Si02
#       8
#     2   2   2   2   2   2   2   2
#     4  11  24  44  74 102 130 183 248 284 333 426
#     4  11  23  44  72 101 139 185 244 287 339 425
#     4  10  22  43  65  97 133 175 215 280 353 403
#     4  10  22  40  71  96 130 170 228 283 331 409
#     4  12  25  46  70 102 143 178 226 292 357 411
#     4  11  23  42  70 101 132 183 240 289 332 427
#     4  11  22  43  73  98 134 189 246 289 347 420
#     4  12  26  45  66 104 148 186 228 303 364 408
#
# _framework density 22.513335000000001
#
# number of rings (size 3 to 8) (size 9 to 14) (size 15 to 20)
#    0.000    1.000    3.750    3.375    1.750    0.500 
#    6.750    0.000    0.000    0.000    0.000    0.000 
#    0.000    0.000    0.000    0.000    0.000    0.000 
#
# Total GULP energy -198257.929464 kJ/mol
# GULP energy per Si atom -12391.120592 kJ/mol
# Density = 2.246209 g / cm^3
# Si number density = 22.513335 Si / 1000 Ang^3
#
#
#
# Elastic Constant Matrix: (Units=GPa)
#
#
# Indices 1 2 3 4 5 6 
#
# 1 142.8679 55.6362 26.7930 -5.9880 -9.3354 -4.2313
# 2 55.6362 165.0318 31.0799 -6.6452 0.3291 3.8187
# 3 26.7930 31.0799 89.7736 -2.4363 1.1295 14.3335
# 4 -5.9880 -6.6452 -2.4363 26.8702 -6.2963 -0.7424
# 5 -9.3354 0.3291 1.1295 -6.2963 31.0198 -9.0781
# 6 -4.2313 3.8187 14.3335 -0.7424 -9.0781 33.3123
#
#
#
# Elastic Compliance Matrix: (Units=1/GPa)
#
#
# Indices 1 2 3 4 5 6 
#
# 1 0.008928 -0.002569 -0.002355 0.002258 0.004333 0.003673
# 2 -0.002569 0.007282 -0.001614 0.000874 -0.000810 -0.000668
# 3 -0.002355 -0.001614 0.013518 -0.000666 -0.003324 -0.006851
# 4 0.002258 0.000874 -0.000666 0.040353 0.010092 0.004123
# 5 0.004333 -0.000810 -0.003324 0.010092 0.039546 0.013075
# 6 0.003673 -0.000668 -0.006851 0.004123 0.013075 0.037165
#
#
# Mechanical properties :
#
#
# Convention : Reuss Voigt Hill
#
# Bulk Modulus (GPa) = 60.04984 69.41018 64.73001
# Shear Modulus (GPa) = 30.22634 37.18475 33.70554
#
# Velocity S-wave (km/s) = 3.66812 4.06849 3.87348
# Velocity P-wave (km/s) = 6.68364 7.27790 6.98709
#
# Compressibility (1/GPa) = 0.01665283
#
# Stress axis : x y z
#
# Youngs Moduli (GPa) = 112.00578 137.33064 73.97410
#
# Poissons Ratio (x) = 0.35282 0.17420
# Poissons Ratio (y) = 0.28776 0.11937
# Poissons Ratio (z) = 0.26376 0.22160
#
# Static dielectric constant tensor:
#      x y z
#    x 4.417580 -0.095650 0.227410 
#    y -0.095650 4.573520 -0.356180 
#    z 0.227410 -0.356180 4.126140 
# 
# 
# High freq. dielectric constant tensor:
#      x y z
#    x 1.896790 0.000850 -0.006910 
#    y 0.000850 1.902080 -0.009590 
#    z -0.006910 -0.009590 1.859190 
# 
# From -- ./inp_files/288664.got.cif
#   From: 2010.06.25/outbox.cif.g09.slc.cpg/sg2_145_cif.got.tgz:288664.got - 2010.06.27 13:26:56.
