data_PCOD8018821
_publ_section_title
;
Structure prediction by ZEFSAII (Michael W. Deem and Ramdas Pophale) SiO2 
 PCOD8018821
Probable space group: P -1
;
_chemical_formula_sum "Si O2"
_cell_formula_units_Z 16
_cell_length_a 5.394152
_cell_length_b 10.037345
_cell_length_c 14.940029
_cell_angle_alpha 90.999957
_cell_angle_beta 63.633696
_cell_angle_gamma 92.791697
_cell_volume 723.882343
_symmetry_space_group_name_H-M "P -1"
_symmetry_group_IT_number 2
_symmetry_cell_setting 'triclinic'
loop_
_space_group_symop_operation_xyz
x,y,z
-x,-y,-z
loop_
_atom_site_type_symbol
_atom_site_label
_atom_site_fract_x
_atom_site_fract_y
_atom_site_fract_z
Si Si1 0.377130 0.723901 0.789388
Si Si2 0.534910 0.832828 0.396871
Si Si3 0.215142 0.069480 0.034439
Si Si4 0.565339 0.484920 0.841709
Si Si5 0.777471 0.952804 0.773560
Si Si6 0.175458 0.359863 0.032134
Si Si7 0.692405 0.131368 0.376645
Si Si8 0.174736 0.763783 0.289997
O O1 0.560551 0.592526 0.762902
O O2 0.507582 0.856638 0.814954
O O3 0.316154 0.753519 0.696024
O O4 0.140197 0.683624 0.898327
O O5 0.422242 0.806516 0.514330
O O6 0.319008 0.755269 0.364383
O O7 0.841185 0.774545 0.344061
O O8 0.528722 0.991195 0.375915
O O9 0.065464 0.065465 0.156399
O O10 0.317685 0.219269 0.994596
O O11 0.500000 0.000000 0.000000
O O12 0.000000 0.000000 0.000000
O O13 0.718830 0.552703 0.901185
O O14 0.748977 0.364849 0.779430
O O15 0.253281 0.436579 0.926730
O O16 0.987824 0.906889 0.661749
O O17 0.691056 0.104338 0.777661
#
# Coordination Sequence:
#
# PCOD8018821 Si02
#       8
#     2   2   2   2   2   2   2   2
#     4  12  21  44  71  97 135 184 237 283 332 421
#     4  10  24  43  72 109 140 175 231 292 359 408
#     4  12  25  41  66 102 139 172 228 291 336 394
#     4  11  26  44  67  93 143 190 230 281 342 423
#     4  11  23  42  70 101 138 178 238 284 349 403
#     4  11  25  44  64  99 133 191 236 271 347 414
#     4  10  22  40  74 102 137 178 230 291 350 415
#     4  11  25  46  70 106 143 180 228 294 352 406
#
# _framework density 22.103041999999999
#
# number of rings (size 3 to 8) (size 9 to 14) (size 15 to 20)
#    0.000    1.000    3.750    1.875    3.500    3.500 
#    0.000    1.250    0.000    0.000    0.000    0.000 
#    0.000    0.000    0.000    0.000    0.000    0.000 
#
# Total GULP energy -198279.694922 kJ/mol
# GULP energy per Si atom -12392.480933 kJ/mol
# Density = 2.205273 g / cm^3
# Si number density = 22.103042 Si / 1000 Ang^3
#
#
#
# Elastic Constant Matrix: (Units=GPa)
#
#
# Indices 1 2 3 4 5 6 
#
# 1 106.1669 46.6565 42.2520 6.8348 4.6637 6.2368
# 2 46.6565 149.2175 61.8631 8.4748 3.1651 -15.9094
# 3 42.2520 61.8631 106.3447 -0.6394 -1.4962 -1.6592
# 4 6.8348 8.4748 -0.6394 30.8446 1.3186 12.3529
# 5 4.6637 3.1651 -1.4962 1.3186 32.4717 -1.7726
# 6 6.2368 -15.9094 -1.6592 12.3529 -1.7726 31.5150
#
#
#
# Elastic Compliance Matrix: (Units=1/GPa)
#
#
# Indices 1 2 3 4 5 6 
#
# 1 0.012337 -0.002846 -0.003337 -0.000328 -0.001855 -0.004029
# 2 -0.002846 0.010892 -0.005118 -0.005663 -0.000222 0.007999
# 3 -0.003337 -0.005118 0.013708 0.003349 0.001341 -0.002439
# 4 -0.000328 -0.005663 0.003349 0.041869 -0.001992 -0.019141
# 5 -0.001855 -0.000222 0.001341 -0.001992 0.031383 0.002871
# 6 -0.004029 0.007999 -0.002439 -0.019141 0.002871 0.044102
#
#
# Mechanical properties :
#
#
# Convention : Reuss Voigt Hill
#
# Bulk Modulus (GPa) = 69.75855 73.69692 71.72774
# Shear Modulus (GPa) = 27.52198 33.03009 30.27603
#
# Velocity S-wave (km/s) = 3.53252 3.86990 3.70505
# Velocity P-wave (km/s) = 6.94747 7.30637 7.12918
#
# Compressibility (1/GPa) = 0.01433516
#
# Stress axis : x y z
#
# Youngs Moduli (GPa) = 81.05613 91.80640 72.95199
#
# Poissons Ratio (x) = 0.26124 0.24346
# Poissons Ratio (y) = 0.23065 0.37338
# Poissons Ratio (z) = 0.27051 0.46988
#
# Static dielectric constant tensor:
#      x y z
#    x 3.960860 -0.076730 0.016680 
#    y -0.076730 4.565430 -0.149110 
#    z 0.016680 -0.149110 4.373530 
# 
# 
# High freq. dielectric constant tensor:
#      x y z
#    x 1.870180 -0.008700 -0.005580 
#    y -0.008700 1.875260 -0.005150 
#    z -0.005580 -0.005150 1.865090 
# 
# From -- ./inp_files/369539.got.cif
#   From: 2010.06.25/outbox.cif.g09.slc.cpg/sg2_185_cif.got.tgz:369539.got - 2010.06.27 13:26:56.
