data_PCOD8018168
_publ_section_title
;
Structure prediction by ZEFSAII (Michael W. Deem and Ramdas Pophale) SiO2 
 PCOD8018168
Probable space group: P -1
;
_chemical_formula_sum "Si O2"
_cell_formula_units_Z 14
_cell_length_a 18.346089
_cell_length_b 9.956803
_cell_length_c 5.108735
_cell_angle_alpha 69.246354
_cell_angle_beta 118.701633
_cell_angle_gamma 133.088990
_cell_volume 597.274177
_symmetry_space_group_name_H-M "P -1"
_symmetry_group_IT_number 2
_symmetry_cell_setting 'triclinic'
loop_
_space_group_symop_operation_xyz
x,y,z
-x,-y,-z
loop_
_atom_site_type_symbol
_atom_site_label
_atom_site_fract_x
_atom_site_fract_y
_atom_site_fract_z
Si Si1 0.263819 0.315700 0.007362
Si Si2 0.028352 0.693902 0.941985
Si Si3 0.453166 0.025117 0.651388
Si Si4 0.905708 0.616667 0.292691
Si Si5 0.283874 0.148213 0.676308
Si Si6 0.786051 0.192089 0.503254
Si Si7 0.491421 0.635692 0.242966
O O1 0.176722 0.345045 0.836938
O O2 0.235406 0.168848 0.836287
O O3 0.268506 0.240366 0.343901
O O4 0.375554 0.516889 0.988655
O O5 0.000132 0.739179 0.586235
O O6 0.152141 0.830100 0.146986
O O7 0.000000 0.500000 0.000000
O O8 0.956808 0.690225 0.045961
O O9 0.325595 0.878120 0.520919
O O10 0.500000 0.000000 0.500000
O O11 0.494367 0.231728 0.595162
O O12 0.500000 0.000000 0.000000
O O13 0.851074 0.400707 0.370585
O O14 0.410061 0.248734 0.871951
O O15 0.227858 0.934014 0.675191
O O16 0.500000 0.500000 0.500000
#
# Coordination Sequence:
#
# PCOD8018168 Si02
#       7
#     2   2   2   2   2   2   2
#     4  11  22  40  60  88 123 157 197 251 298 350
#     4  10  22  40  63  91 118 158 206 248 300 362
#     4  11  25  40  61  96 126 155 199 251 303 351
#     4  11  23  40  65  92 117 157 209 253 298 353
#     4  10  23  39  60  88 120 160 199 239 303 365
#     4  10  23  42  65  88 123 161 200 251 299 358
#     4   9  21  39  61  85 121 164 200 235 295 373
#
# _framework density 23.439821999999999
#
# number of rings (size 3 to 8) (size 9 to 14) (size 15 to 20)
#    0.000    1.714    0.000    3.857    0.000   20.571 
#    0.000    4.286    0.000    0.000    0.000    0.000 
#    0.000    0.000    0.000    0.000    0.000    0.000 
#
# Total GULP energy -173549.891580 kJ/mol
# GULP energy per Si atom -12396.420827 kJ/mol
# Density = 2.338647 g / cm^3
# Si number density = 23.439822 Si / 1000 Ang^3
#
#
#
# Elastic Constant Matrix: (Units=GPa)
#
#
# Indices 1 2 3 4 5 6 
#
# 1 143.5451 35.4166 63.3433 15.4827 14.2523 -25.1331
# 2 35.4166 79.2968 20.2031 7.8718 4.2542 -13.3834
# 3 63.3433 20.2031 104.9804 14.8431 3.7133 -5.6410
# 4 15.4827 7.8718 14.8431 28.4420 0.7594 5.6241
# 5 14.2523 4.2542 3.7133 0.7594 49.8167 8.2067
# 6 -25.1331 -13.3834 -5.6410 5.6241 8.2067 33.9912
#
#
#
# Elastic Compliance Matrix: (Units=1/GPa)
#
#
# Indices 1 2 3 4 5 6 
#
# 1 0.012721 -0.001786 -0.005926 -0.005128 -0.004560 0.009668
# 2 -0.001786 0.015016 -0.000939 -0.003724 -0.001538 0.005423
# 3 -0.005926 -0.000939 0.013568 -0.003180 0.001185 -0.002260
# 4 -0.005128 -0.003724 -0.003180 0.043277 0.003640 -0.013825
# 5 -0.004560 -0.001538 0.001185 0.003640 0.023002 -0.009936
# 6 0.009668 0.005423 -0.002260 -0.013825 -0.009936 0.043015
#
#
# Mechanical properties :
#
#
# Convention : Reuss Voigt Hill
#
# Bulk Modulus (GPa) = 41.66478 62.86091 52.26284
# Shear Modulus (GPa) = 28.42482 36.37394 32.39938
#
# Velocity S-wave (km/s) = 3.48612 3.94356 3.72188
# Velocity P-wave (km/s) = 5.83248 6.90013 6.38865
#
# Compressibility (1/GPa) = 0.02400109
#
# Stress axis : x y z
#
# Youngs Moduli (GPa) = 78.61174 66.59784 73.70160
#
# Poissons Ratio (x) = 0.11896 0.43675
# Poissons Ratio (y) = 0.14042 0.06924
# Poissons Ratio (z) = 0.46585 0.06257
#
# Static dielectric constant tensor:
#      x y z
#    x 5.576310 1.357440 0.995120 
#    y 1.357440 5.892590 0.949000 
#    z 0.995120 0.949000 5.191810 
# 
# 
# High freq. dielectric constant tensor:
#      x y z
#    x 1.937760 -0.008380 0.011020 
#    y -0.008380 1.929670 0.013860 
#    z 0.011020 0.013860 1.927610 
# 
# From -- ./inp_files/105067.got.cif
#   From: 2010.06.25/outbox.cif.g09.slc.cpg/sg2_53_cif.got.tgz:105067.got - 2010.06.27 13:26:56.
