data_PCOD8018341
_publ_section_title
;
Structure prediction by ZEFSAII (Michael W. Deem and Ramdas Pophale) SiO2 
 PCOD8018341
Probable space group: P -1
;
_chemical_formula_sum "Si O2"
_cell_formula_units_Z 16
_cell_length_a 12.153180
_cell_length_b 18.214455
_cell_length_c 20.949154
_cell_angle_alpha 19.568249
_cell_angle_beta 140.899876
_cell_angle_gamma 149.843464
_cell_volume 759.381273
_symmetry_space_group_name_H-M "P -1"
_symmetry_group_IT_number 2
_symmetry_cell_setting 'triclinic'
loop_
_space_group_symop_operation_xyz
x,y,z
-x,-y,-z
loop_
_atom_site_type_symbol
_atom_site_label
_atom_site_fract_x
_atom_site_fract_y
_atom_site_fract_z
Si Si1 0.060421 0.861962 0.190707
Si Si2 0.738848 0.125996 0.328341
Si Si3 0.292624 0.613655 0.486957
Si Si4 0.484338 0.365236 0.036316
Si Si5 0.233604 0.037308 0.745185
Si Si6 0.759751 0.766098 0.725680
Si Si7 0.492476 0.426139 0.653973
Si Si8 0.213792 0.529211 0.141060
O O1 0.178967 0.749686 0.300633
O O2 0.832934 0.591558 0.340938
O O3 0.228987 0.081130 0.142440
O O4 0.000000 0.000000 0.000000
O O5 0.662475 0.308279 0.163386
O O6 0.968657 0.303950 0.246113
O O7 0.552150 0.856181 0.423286
O O8 0.768471 0.018535 0.495805
O O9 0.294533 0.439730 0.573196
O O10 0.500000 0.500000 0.000000
O O11 0.544926 0.571241 0.835119
O O12 0.380653 0.158978 0.776066
O O13 0.310222 0.283216 0.529052
O O14 0.975766 0.889212 0.766163
O O15 0.253076 0.812404 0.906899
O O16 0.756234 0.588212 0.812483
O O17 0.590767 0.378916 0.797301
#
# Coordination Sequence:
#
# PCOD8018341 Si02
#       8
#     2   2   2   2   2   2   2   2
#     4  10  23  43  65  92 120 165 224 262 315 380
#     4  11  22  42  70  97 131 168 215 271 325 385
#     4  10  22  40  65  91 126 167 208 268 314 372
#     4  11  27  45  65  96 131 170 224 276 320 381
#     4  11  25  39  61  99 134 171 206 257 331 388
#     4  12  23  40  69  95 130 173 218 264 324 385
#     4  11  24  42  62  96 141 166 206 263 328 396
#     4  12  23  40  71 100 130 172 217 261 324 403
#
# _framework density 21.069785
#
# number of rings (size 3 to 8) (size 9 to 14) (size 15 to 20)
#    0.000    1.000    3.750    2.625    5.250    0.500 
#    2.250    0.000    0.000    0.000    0.000    0.000 
#    0.000    0.000    0.000    0.000    0.000    0.000 
#
# Total GULP energy -198435.283674 kJ/mol
# GULP energy per Si atom -12402.205230 kJ/mol
# Density = 2.102183 g / cm^3
# Si number density = 21.069785 Si / 1000 Ang^3
#
#
#
# Elastic Constant Matrix: (Units=GPa)
#
#
# Indices 1 2 3 4 5 6 
#
# 1 89.6904 20.4708 14.3198 0.8912 -3.4231 -5.9423
# 2 20.4708 80.4239 27.9713 7.3801 -6.7033 1.3462
# 3 14.3198 27.9713 88.8252 8.7000 -3.0726 -8.4869
# 4 0.8912 7.3801 8.7000 31.1487 4.5020 -1.0655
# 5 -3.4231 -6.7033 -3.0726 4.5020 19.0904 4.9964
# 6 -5.9423 1.3462 -8.4869 -1.0655 4.9964 21.4237
#
#
#
# Elastic Compliance Matrix: (Units=1/GPa)
#
#
# Indices 1 2 3 4 5 6 
#
# 1 0.012156 -0.002937 -0.000788 0.000680 0.000004 0.003277
# 2 -0.002937 0.015656 -0.004388 -0.003512 0.006458 -0.005217
# 3 -0.000788 -0.004388 0.013511 -0.002481 -0.000326 0.005362
# 4 0.000680 -0.003512 -0.002481 0.035298 -0.010803 0.003701
# 5 0.000004 0.006458 -0.000326 -0.010803 0.061159 -0.015335
# 6 0.003277 -0.005217 0.005362 0.003701 -0.015335 0.053799
#
#
# Mechanical properties :
#
#
# Convention : Reuss Voigt Hill
#
# Bulk Modulus (GPa) = 39.84564 42.71817 41.28190
# Shear Modulus (GPa) = 23.13003 27.41106 25.27055
#
# Velocity S-wave (km/s) = 3.31687 3.61080 3.46695
# Velocity P-wave (km/s) = 5.79838 6.14024 5.97175
#
# Compressibility (1/GPa) = 0.02509685
#
# Stress axis : x y z
#
# Youngs Moduli (GPa) = 82.26298 63.87516 74.01443
#
# Poissons Ratio (x) = 0.18760 0.05834
# Poissons Ratio (y) = 0.24160 0.32475
# Poissons Ratio (z) = 0.06484 0.28026
#
# Static dielectric constant tensor:
#      x y z
#    x 3.728970 0.182240 0.065520 
#    y 0.182240 3.855830 -0.023490 
#    z 0.065520 -0.023490 4.050540 
# 
# 
# High freq. dielectric constant tensor:
#      x y z
#    x 1.813400 0.011990 -0.000130 
#    y 0.011990 1.828270 -0.001600 
#    z -0.000130 -0.001600 1.841410 
# 
# From -- ./inp_files/398248.got.cif
#   From: 2010.06.25/outbox.cif.g09.slc.cpg/sg2_200_cif.got.tgz:398248.got - 2010.06.27 13:26:56.
