data_PCOD8018672
_publ_section_title
;
Structure prediction by ZEFSAII (Michael W. Deem and Ramdas Pophale) SiO2 
 PCOD8018672
Probable space group: P -1
;
_chemical_formula_sum "Si O2"
_cell_formula_units_Z 16
_cell_length_a 14.029129
_cell_length_b 7.412781
_cell_length_c 13.148682
_cell_angle_alpha 57.524611
_cell_angle_beta 135.545613
_cell_angle_gamma 139.153942
_cell_volume 626.312666
_symmetry_space_group_name_H-M "P -1"
_symmetry_group_IT_number 2
_symmetry_cell_setting 'triclinic'
loop_
_space_group_symop_operation_xyz
x,y,z
-x,-y,-z
loop_
_atom_site_type_symbol
_atom_site_label
_atom_site_fract_x
_atom_site_fract_y
_atom_site_fract_z
Si Si1 0.012097 0.966397 0.240795
Si Si2 0.149573 0.235777 0.619732
Si Si3 0.573290 0.782786 0.053236
Si Si4 0.641551 0.325795 0.509902
Si Si5 0.728777 0.389908 0.998131
Si Si6 0.337515 0.292236 0.272956
Si Si7 0.062404 0.497708 0.166948
Si Si8 0.241844 0.064054 0.053187
O O1 0.206035 0.081279 0.325809
O O2 0.972140 0.179644 0.170940
O O3 0.944641 0.769393 0.347337
O O4 0.887862 0.851043 0.079764
O O5 0.295371 0.203394 0.771371
O O6 0.248071 0.534636 0.552632
O O7 0.000000 0.000000 0.500000
O O8 0.609057 0.067951 0.990187
O O9 0.369671 0.560144 0.004628
O O10 0.598471 0.738963 0.966508
O O11 0.535769 0.444172 0.414980
O O12 0.769717 0.414211 0.671663
O O13 0.500000 0.000000 0.500000
O O14 0.930792 0.514308 0.131362
O O15 0.711265 0.509362 0.843726
O O16 0.311791 0.121787 0.203621
O O17 0.136834 0.724862 0.062178
#
# Coordination Sequence:
#
# PCOD8018672 Si02
#       8
#     2   2   2   2   2   2   2   2
#     4  11  23  41  71 108 129 180 244 293 342 415
#     4  11  21  45  72 101 140 188 230 293 350 417
#     4  10  22  40  69 105 137 172 238 295 352 404
#     4  12  26  47  68  98 148 191 227 289 364 417
#     4  11  21  40  68 105 131 176 233 297 339 416
#     4  12  25  41  68 101 144 185 233 283 352 429
#     4  12  22  43  72  96 144 184 228 291 354 414
#     4  11  22  40  65 102 139 183 227 293 349 411
#
# _framework density 25.546344999999999
#
# number of rings (size 3 to 8) (size 9 to 14) (size 15 to 20)
#    0.000    0.750    7.500    1.500    0.000    1.000 
#    0.000    1.875    0.000    0.000    0.000    0.000 
#    0.000    0.000    0.000    0.000    0.000    0.000 
#
# Total GULP energy -198223.130243 kJ/mol
# GULP energy per Si atom -12388.945640 kJ/mol
# Density = 2.548820 g / cm^3
# Si number density = 25.546345 Si / 1000 Ang^3
#
#
#
# Elastic Constant Matrix: (Units=GPa)
#
#
# Indices 1 2 3 4 5 6 
#
# 1 121.5692 23.0830 24.9586 5.3809 7.4300 47.3117
# 2 23.0830 93.9543 24.8342 -14.3523 -4.8719 40.6931
# 3 24.9586 24.8342 100.8744 9.9218 12.6250 23.4752
# 4 5.3809 -14.3523 9.9218 34.0772 18.2860 0.0512
# 5 7.4300 -4.8719 12.6250 18.2860 36.6131 -8.1991
# 6 47.3117 40.6931 23.4752 0.0512 -8.1991 53.9137
#
#
#
# Elastic Compliance Matrix: (Units=1/GPa)
#
#
# Indices 1 2 3 4 5 6 
#
# 1 0.014309 0.003850 0.000034 0.003651 -0.007965 -0.016692
# 2 0.003850 0.019799 -0.001671 0.012575 -0.008069 -0.018834
# 3 0.000034 -0.001671 0.012178 -0.001773 -0.004611 -0.004771
# 4 0.003651 0.012575 -0.001773 0.048767 -0.026392 -0.015984
# 5 -0.007965 -0.008069 -0.004611 -0.026392 0.047633 0.022357
# 6 -0.016692 -0.018834 -0.004771 -0.015984 0.022357 0.052905
#
#
# Mechanical properties :
#
#
# Convention : Reuss Voigt Hill
#
# Bulk Modulus (GPa) = 19.71894 51.34995 35.53445
# Shear Modulus (GPa) = 24.03047 41.15562 32.59305
#
# Velocity S-wave (km/s) = 3.07035 4.01810 3.57577
# Velocity P-wave (km/s) = 4.50611 6.45532 5.56670
#
# Compressibility (1/GPa) = 0.05071266
#
# Stress axis : x y z
#
# Youngs Moduli (GPa) = 69.88500 50.50712 82.11488
#
# Poissons Ratio (x) = -0.19445 -0.00280
# Poissons Ratio (y) = -0.26905 0.13721
# Poissons Ratio (z) = -0.00238 0.08439
#
# Static dielectric constant tensor:
#      x y z
#    x 5.228130 -0.519940 -0.243770 
#    y -0.519940 7.837100 0.878710 
#    z -0.243770 0.878710 5.171550 
# 
# 
# High freq. dielectric constant tensor:
#      x y z
#    x 2.014770 0.024410 0.005710 
#    y 0.024410 2.049030 -0.005720 
#    z 0.005710 -0.005720 2.024950 
# 
# From -- ./inp_files/528194.got.cif
#   From: 2010.06.25/outbox.cif.g09.slc.cpg/sg2_265_cif.got.tgz:528194.got - 2010.06.27 13:26:56.
