data_PCOD8018149
_publ_section_title
;
Structure prediction by ZEFSAII (Michael W. Deem and Ramdas Pophale) SiO2 
 PCOD8018149
Probable space group: P -1
;
_chemical_formula_sum "Si O2"
_cell_formula_units_Z 14
_cell_length_a 25.649313
_cell_length_b 9.251461
_cell_length_c 7.041296
_cell_angle_alpha 57.091956
_cell_angle_beta 145.177228
_cell_angle_gamma 135.377547
_cell_volume 666.697423
_symmetry_space_group_name_H-M "P -1"
_symmetry_group_IT_number 2
_symmetry_cell_setting 'triclinic'
loop_
_space_group_symop_operation_xyz
x,y,z
-x,-y,-z
loop_
_atom_site_type_symbol
_atom_site_label
_atom_site_fract_x
_atom_site_fract_y
_atom_site_fract_z
Si Si1 0.175992 0.646363 0.824862
Si Si2 0.414324 0.313824 0.504661
Si Si3 0.023363 0.027391 0.772023
Si Si4 0.257795 0.380809 0.190928
Si Si5 0.467010 0.720293 0.763263
Si Si6 0.604088 0.977656 0.644632
Si Si7 0.010276 0.298635 0.824413
O O1 0.123083 0.515780 0.955625
O O2 0.084493 0.664037 0.432571
O O3 0.213446 0.524131 0.891261
O O4 0.279410 0.873797 0.013539
O O5 0.500000 0.500000 0.500000
O O6 0.310756 0.332543 0.208548
O O7 0.376232 0.101544 0.436162
O O8 0.463391 0.317822 0.853784
O O9 0.972808 0.143803 0.639961
O O10 0.154274 0.162348 0.111893
O O11 0.000000 0.000000 0.500000
O O12 0.969375 0.800472 0.862169
O O13 0.348154 0.505953 0.537088
O O14 0.527471 0.785213 0.693369
O O15 0.453544 0.901841 0.665516
#
# Coordination Sequence:
#
# PCOD8018149 Si02
#       7
#     2   2   2   2   2   2   2
#     4   9  20  41  65  86 122 165 199 246 304 359
#     4  12  24  38  61  94 124 159 205 249 297 359
#     4  10  22  40  63  94 121 151 203 256 298 358
#     4  10  22  41  60  90 124 161 199 247 304 352
#     4  10  22  43  60  86 125 163 202 248 299 360
#     4  10  22  40  63  87 122 162 204 247 299 361
#     4   9  20  42  64  86 121 161 200 247 306 356
#
# _framework density 20.999029
#
# number of rings (size 3 to 8) (size 9 to 14) (size 15 to 20)
#    0.000    2.000    1.429    0.857    4.000    0.000 
#    7.714    7.857    0.000    0.000    0.000    0.000 
#    0.000    0.000    0.000    0.000    0.000    0.000 
#
# Total GULP energy -173567.753867 kJ/mol
# GULP energy per Si atom -12397.696705 kJ/mol
# Density = 2.095123 g / cm^3
# Si number density = 20.999029 Si / 1000 Ang^3
#
#
#
# Elastic Constant Matrix: (Units=GPa)
#
#
# Indices 1 2 3 4 5 6 
#
# 1 119.0587 27.4491 47.0049 -9.4540 17.3447 -25.4515
# 2 27.4491 73.8564 29.2610 -2.4797 2.9104 4.9430
# 3 47.0049 29.2610 74.8746 -10.3219 3.1276 -2.4261
# 4 -9.4540 -2.4797 -10.3219 30.5626 0.1781 4.7087
# 5 17.3447 2.9104 3.1276 0.1781 40.8040 -1.6065
# 6 -25.4515 4.9430 -2.4261 4.7087 -1.6065 41.1612
#
#
#
# Elastic Compliance Matrix: (Units=1/GPa)
#
#
# Indices 1 2 3 4 5 6 
#
# 1 0.014678 -0.002831 -0.007550 0.000447 -0.005117 0.008720
# 2 -0.002831 0.016817 -0.005016 -0.000592 0.000234 -0.003989
# 3 -0.007550 -0.005016 0.020517 0.004688 0.001843 -0.003321
# 4 0.000447 -0.000592 0.004688 0.034922 -0.000793 -0.003402
# 5 -0.005117 0.000234 0.001843 -0.000793 0.026451 -0.001960
# 6 0.008720 -0.003989 -0.003321 -0.003402 -0.001960 0.030282
#
#
# Mechanical properties :
#
#
# Convention : Reuss Voigt Hill
#
# Bulk Modulus (GPa) = 47.12800 52.80219 49.96510
# Shear Modulus (GPa) = 27.54317 33.44386 30.49352
#
# Velocity S-wave (km/s) = 3.62559 3.99512 3.81483
# Velocity P-wave (km/s) = 6.32599 6.81769 6.57644
#
# Compressibility (1/GPa) = 0.02121881
#
# Stress axis : x y z
#
# Youngs Moduli (GPa) = 68.13025 59.46432 48.73932
#
# Poissons Ratio (x) = 0.16832 0.36800
# Poissons Ratio (y) = 0.19285 0.24446
# Poissons Ratio (z) = 0.51440 0.29825
#
# Static dielectric constant tensor:
#      x y z
#    x 4.437290 -0.339030 0.614340 
#    y -0.339030 4.113090 -0.188690 
#    z 0.614340 -0.188690 3.679840 
# 
# 
# High freq. dielectric constant tensor:
#      x y z
#    x 1.826240 -0.005970 0.027510 
#    y -0.005970 1.838530 -0.006480 
#    z 0.027510 -0.006480 1.788710 
# 
# From -- ./inp_files/99326.got.cif
#   From: 2010.06.25/outbox.cif.g09.slc.cpg/sg2_50_cif.got.tgz:99326.got - 2010.06.27 13:26:56.
