data_PCOD8018425
_publ_section_title
;
Structure prediction by ZEFSAII (Michael W. Deem and Ramdas Pophale) SiO2 
 PCOD8018425
Probable space group: P -1
;
_chemical_formula_sum "Si O2"
_cell_formula_units_Z 10
_cell_length_a 8.600887
_cell_length_b 9.315519
_cell_length_c 12.024579
_cell_angle_alpha 68.209811
_cell_angle_beta 65.526641
_cell_angle_gamma 123.038551
_cell_volume 457.658947
_symmetry_space_group_name_H-M "P -1"
_symmetry_group_IT_number 2
_symmetry_cell_setting 'triclinic'
loop_
_space_group_symop_operation_xyz
x,y,z
-x,-y,-z
loop_
_atom_site_type_symbol
_atom_site_label
_atom_site_fract_x
_atom_site_fract_y
_atom_site_fract_z
Si Si1 0.833774 0.536697 0.542579
Si Si2 0.503574 0.231861 0.509236
Si Si3 0.609782 0.444539 0.863869
Si Si4 0.900508 0.360454 0.187514
Si Si5 0.910175 0.957752 0.706035
O O1 0.645084 0.421259 0.519936
O O2 0.613633 0.372011 0.762102
O O3 0.000000 0.500000 0.500000
O O4 0.084605 0.860922 0.389191
O O5 0.763899 0.396659 0.292539
O O6 0.358589 0.960318 0.666200
O O7 0.257140 0.164118 0.553323
O O8 0.731786 0.713420 0.742494
O O9 0.814794 0.502554 0.873426
O O10 0.262691 0.183087 0.083598
O O11 0.000000 0.500000 0.000000
#
# Coordination Sequence:
#
# PCOD8018425 Si02
#       5
#     2   2   2   2   2
#     4  12  24  40  67  96 132 162 207 267 316 369
#     4  10  23  42  61  97 124 167 210 255 317 373
#     4  10  23  43  65  97 122 171 214 253 315 376
#     4  10  22  40  66  89 129 167 210 256 313 377
#     4  10  24  42  66  91 132 166 211 256 311 379
#
# _framework density 21.850335000000001
#
# number of rings (size 3 to 8) (size 9 to 14) (size 15 to 20)
#    0.000    1.600    2.000    1.200    2.800    8.000 
#    0.000    0.000    0.000    0.000    0.000    0.000 
#    0.000    0.000    0.000    0.000    0.000    0.000 
#
# Total GULP energy -124032.225290 kJ/mol
# GULP energy per Si atom -12403.222529 kJ/mol
# Density = 2.180060 g / cm^3
# Si number density = 21.850335 Si / 1000 Ang^3
#
#
#
# Elastic Constant Matrix: (Units=GPa)
#
#
# Indices 1 2 3 4 5 6 
#
# 1 80.3866 32.9510 34.3860 2.0083 1.1403 -21.4698
# 2 32.9510 97.7860 52.7124 34.8684 5.8336 -11.3225
# 3 34.3860 52.7124 96.3232 28.0980 -0.6731 -5.0060
# 4 2.0083 34.8684 28.0980 42.2983 -3.0409 3.2674
# 5 1.1403 5.8336 -0.6731 -3.0409 35.2860 3.8188
# 6 -21.4698 -11.3225 -5.0060 3.2674 3.8188 36.3819
#
#
#
# Elastic Compliance Matrix: (Units=1/GPa)
#
#
# Indices 1 2 3 4 5 6 
#
# 1 0.018707 -0.004350 -0.005517 0.005680 -0.000417 0.008460
# 2 -0.004350 0.020324 -0.005353 -0.013722 -0.005021 0.004781
# 3 -0.005517 -0.005353 0.017048 -0.006410 0.001065 -0.002112
# 4 0.005680 -0.013722 -0.006410 0.039841 0.006047 -0.006014
# 5 -0.000417 -0.005021 0.001065 0.006047 0.030308 -0.005386
# 6 0.008460 0.004781 -0.002112 -0.006014 -0.005386 0.034781
#
#
# Mechanical properties :
#
#
# Convention : Reuss Voigt Hill
#
# Bulk Modulus (GPa) = 39.00516 57.17717 48.09116
# Shear Modulus (GPa) = 25.00042 33.08967 29.04505
#
# Velocity S-wave (km/s) = 3.38622 3.89572 3.64987
# Velocity P-wave (km/s) = 5.76008 6.81616 6.31025
#
# Compressibility (1/GPa) = 0.02563763
#
# Stress axis : x y z
#
# Youngs Moduli (GPa) = 53.45680 49.20299 58.65621
#
# Poissons Ratio (x) = 0.21404 0.32363
# Poissons Ratio (y) = 0.23255 0.31400
# Poissons Ratio (z) = 0.29494 0.26339
#
# Static dielectric constant tensor:
#      x y z
#    x 3.830030 -0.096490 -0.119730 
#    y -0.096490 4.362530 0.125360 
#    z -0.119730 0.125360 3.984510 
# 
# 
# High freq. dielectric constant tensor:
#      x y z
#    x 1.853070 -0.017160 -0.005550 
#    y -0.017160 1.859960 0.015140 
#    z -0.005550 0.015140 1.864060 
# 
# From -- ./inp_files/15889.got.cif
#   From: 2010.06.25/outbox.cif.g09.slc.cpg/sg2_8_cif.got.tgz:15889.got - 2010.06.27 13:26:56.
