data_PCOD8018658
_publ_section_title
;
Structure prediction by ZEFSAII (Michael W. Deem and Ramdas Pophale) SiO2 
 PCOD8018658
Probable space group: P -1
;
_chemical_formula_sum "Si O2"
_cell_formula_units_Z 14
_cell_length_a 8.299709
_cell_length_b 12.204538
_cell_length_c 8.911442
_cell_angle_alpha 124.746311
_cell_angle_beta 69.338425
_cell_angle_gamma 123.341983
_cell_volume 618.600757
_symmetry_space_group_name_H-M "P -1"
_symmetry_group_IT_number 2
_symmetry_cell_setting 'triclinic'
loop_
_space_group_symop_operation_xyz
x,y,z
-x,-y,-z
loop_
_atom_site_type_symbol
_atom_site_label
_atom_site_fract_x
_atom_site_fract_y
_atom_site_fract_z
Si Si1 0.724471 0.938497 0.394357
Si Si2 0.076170 0.984068 0.120265
Si Si3 0.331716 0.802607 0.262541
Si Si4 0.296387 0.531108 0.687737
Si Si5 0.095061 0.708256 0.974576
Si Si6 0.678290 0.485488 0.999136
Si Si7 0.662079 0.747798 0.567778
O O1 0.919018 0.943444 0.271950
O O2 0.563441 0.888240 0.277302
O O3 0.660803 0.828318 0.473901
O O4 0.769135 0.108684 0.552326
O O5 0.125502 0.846691 0.967768
O O6 0.260718 0.133014 0.229661
O O7 0.000000 0.000000 0.000000
O O8 0.264221 0.787131 0.101615
O O9 0.274971 0.633330 0.203649
O O10 0.444241 0.627183 0.584318
O O11 0.219393 0.351445 0.552262
O O12 0.122161 0.577940 0.775651
O O13 0.391252 0.571469 0.853792
O O14 0.877873 0.638206 0.058732
O O15 0.500000 0.500000 0.000000
#
# Coordination Sequence:
#
# PCOD8018658 Si02
#       7
#     2   2   2   2   2   2   2
#     4  11  24  44  70  98 136 180 231 275 345 400
#     4  12  28  43  68 100 138 181 223 282 341 407
#     4  10  22  40  69 102 128 178 230 277 329 404
#     4  10  24  42  70  98 136 179 228 282 335 396
#     4  11  24  43  71 101 136 181 223 282 342 396
#     4  11  23  41  71 100 141 178 228 272 346 402
#     4  11  24  45  71  97 140 182 225 282 339 398
#
# _framework density 22.631723000000001
#
# number of rings (size 3 to 8) (size 9 to 14) (size 15 to 20)
#    0.000    1.143    1.429    4.714   10.000    2.857 
#    0.000    0.714    0.000    0.000    0.000    0.000 
#    0.000    0.000    0.000    0.000    0.000    0.000 
#
# Total GULP energy -173439.095885 kJ/mol
# GULP energy per Si atom -12388.506849 kJ/mol
# Density = 2.258021 g / cm^3
# Si number density = 22.631723 Si / 1000 Ang^3
#
#
#
# Elastic Constant Matrix: (Units=GPa)
#
#
# Indices 1 2 3 4 5 6 
#
# 1 109.7665 52.0223 30.6034 11.3070 -4.9120 -32.8224
# 2 52.0223 113.7389 48.4358 13.9848 -4.4191 -25.7862
# 3 30.6034 48.4358 74.1775 17.1011 -10.2732 -20.9332
# 4 11.3070 13.9848 17.1011 41.4861 -11.9474 -9.2662
# 5 -4.9120 -4.4191 -10.2732 -11.9474 37.6373 9.7816
# 6 -32.8224 -25.7862 -20.9332 -9.2662 9.7816 42.7304
#
#
#
# Elastic Compliance Matrix: (Units=1/GPa)
#
#
# Indices 1 2 3 4 5 6 
#
# 1 0.013588 -0.004113 -0.000761 -0.000602 -0.001111 0.007707
# 2 -0.004113 0.014173 -0.006993 -0.000745 -0.001581 0.002168
# 3 -0.000761 -0.006993 0.020813 -0.004475 0.002329 0.003888
# 4 -0.000602 -0.000745 -0.004475 0.028815 0.007381 0.001454
# 5 -0.001111 -0.001581 0.002329 0.007381 0.030808 -0.006118
# 6 0.007707 0.002168 0.003888 0.001454 -0.006118 0.034251
#
#
# Mechanical properties :
#
#
# Convention : Reuss Voigt Hill
#
# Bulk Modulus (GPa) = 40.25647 62.20064 51.22855
# Shear Modulus (GPa) = 28.65952 35.47887 32.06919
#
# Velocity S-wave (km/s) = 3.56243 3.96367 3.76839
# Velocity P-wave (km/s) = 5.89470 6.96355 6.45130
#
# Compressibility (1/GPa) = 0.02484073
#
# Stress axis : x y z
#
# Youngs Moduli (GPa) = 73.59205 70.55641 48.04734
#
# Poissons Ratio (x) = 0.29021 0.03655
# Poissons Ratio (y) = 0.30269 0.33600
# Poissons Ratio (z) = 0.05598 0.49340
#
# Static dielectric constant tensor:
#      x y z
#    x 4.254420 -0.286410 -0.375560 
#    y -0.286410 4.098730 0.495990 
#    z -0.375560 0.495990 4.343530 
# 
# 
# High freq. dielectric constant tensor:
#      x y z
#    x 1.898190 -0.018100 -0.012770 
#    y -0.018100 1.889890 0.030340 
#    z -0.012770 0.030340 1.887620 
# 
# From -- ./inp_files/189954.got.cif
#   From: 2010.06.25/outbox.cif.g09.slc.cpg/sg2_95_cif.got.tgz:189954.got - 2010.06.27 13:26:56.
