data_PCOD8018873
_publ_section_title
;
Structure prediction by ZEFSAII (Michael W. Deem and Ramdas Pophale) SiO2 
 PCOD8018873
Probable space group: P -1
;
_chemical_formula_sum "Si O2"
_cell_formula_units_Z 16
_cell_length_a 20.229374
_cell_length_b 9.425736
_cell_length_c 8.928094
_cell_angle_alpha 64.228084
_cell_angle_beta 129.727627
_cell_angle_gamma 77.046503
_cell_volume 812.211145
_symmetry_space_group_name_H-M "P -1"
_symmetry_group_IT_number 2
_symmetry_cell_setting 'triclinic'
loop_
_space_group_symop_operation_xyz
x,y,z
-x,-y,-z
loop_
_atom_site_type_symbol
_atom_site_label
_atom_site_fract_x
_atom_site_fract_y
_atom_site_fract_z
Si Si1 0.269110 0.457914 0.675664
Si Si2 0.596902 0.267958 0.657328
Si Si3 0.514564 0.137087 0.363879
Si Si4 0.740488 0.924201 0.595517
Si Si5 0.985620 0.458645 0.266189
Si Si6 0.252533 0.127949 0.701821
Si Si7 0.783001 0.164785 0.748170
Si Si8 0.037684 0.700814 0.416540
O O1 0.263500 0.300867 0.652580
O O2 0.244845 0.622857 0.442067
O O3 0.166932 0.604090 0.592699
O O4 0.403060 0.310523 0.008021
O O5 0.500000 0.500000 0.500000
O O6 0.516973 0.279822 0.414566
O O7 0.697871 0.242532 0.732945
O O8 0.668355 0.052780 0.967566
O O9 0.500000 0.000000 0.500000
O O10 0.642281 0.958150 0.537279
O O11 0.693258 0.999764 0.321252
O O12 0.758185 0.074986 0.618867
O O13 0.868160 0.653485 0.901543
O O14 0.108988 0.260245 0.439201
O O15 0.011928 0.571817 0.356802
O O16 0.953932 0.347452 0.372170
O O17 0.926515 0.969661 0.097828
#
# Coordination Sequence:
#
# PCOD8018873 Si02
#       8
#     2   2   2   2   2   2   2   2
#     4  11  23  36  64  88 125 154 197 245 297 348
#     4  11  25  41  64  85 121 158 200 244 297 350
#     4  11  23  42  60  89 120 159 202 237 296 361
#     4  10  23  36  64  89 121 154 202 243 293 350
#     4   9  17  35  63  88 117 152 199 246 291 347
#     4  11  22  40  62  92 116 157 201 246 293 350
#     4  10  22  41  61  91 118 157 198 246 295 353
#     4   9  17  35  62  89 116 156 197 241 295 351
#
# _framework density 19.699310000000001
#
# number of rings (size 3 to 8) (size 9 to 14) (size 15 to 20)
#    0.000    1.750    2.500    1.500    7.000    2.500 
#    0.000    0.000    0.000    2.250    0.000    0.000 
#    0.000    0.000    0.000    0.000    0.000    0.000 
#
# Total GULP energy -198449.690851 kJ/mol
# GULP energy per Si atom -12403.105678 kJ/mol
# Density = 1.965447 g / cm^3
# Si number density = 19.699310 Si / 1000 Ang^3
#
#
#
# Elastic Constant Matrix: (Units=GPa)
#
#
# Indices 1 2 3 4 5 6 
#
# 1 101.6221 46.2989 31.0596 -7.0787 -11.4712 0.2347
# 2 46.2989 68.4691 29.1239 -7.3748 -0.9711 -14.9034
# 3 31.0596 29.1239 88.0851 -10.0452 -3.3147 5.1832
# 4 -7.0787 -7.3748 -10.0452 30.5572 2.2700 -4.4223
# 5 -11.4712 -0.9711 -3.3147 2.2700 44.4807 -4.1825
# 6 0.2347 -14.9034 5.1832 -4.4223 -4.1825 29.6419
#
#
#
# Elastic Compliance Matrix: (Units=1/GPa)
#
#
# Indices 1 2 3 4 5 6 
#
# 1 0.015690 -0.011074 -0.001510 -0.000505 0.003243 -0.005046
# 2 -0.011074 0.028645 -0.006017 0.004799 -0.001414 0.016058
# 3 -0.001510 -0.006017 0.014429 0.002190 -0.000048 -0.005216
# 4 -0.000505 0.004799 0.002190 0.035604 -0.001002 0.007204
# 5 0.003243 -0.001414 -0.000048 -0.001002 0.023565 0.002447
# 6 -0.005046 0.016058 -0.005216 0.007204 0.002447 0.044182
#
#
# Mechanical properties :
#
#
# Convention : Reuss Voigt Hill
#
# Bulk Modulus (GPa) = 46.37641 52.34903 49.36272
# Shear Modulus (GPa) = 24.21268 31.04890 27.63079
#
# Velocity S-wave (km/s) = 3.50967 3.97437 3.74923
# Velocity P-wave (km/s) = 6.32590 6.90598 6.62230
#
# Compressibility (1/GPa) = 0.02156269
#
# Stress axis : x y z
#
# Youngs Moduli (GPa) = 63.73658 34.91013 69.30340
#
# Poissons Ratio (x) = 0.38659 0.10462
# Poissons Ratio (y) = 0.70582 0.41700
# Poissons Ratio (z) = 0.09621 0.21006
#
# Static dielectric constant tensor:
#      x y z
#    x 3.798800 -0.048520 0.152580 
#    y -0.048520 3.265170 0.017010 
#    z 0.152580 0.017010 3.898290 
# 
# 
# High freq. dielectric constant tensor:
#      x y z
#    x 1.782910 -0.006830 -0.000530 
#    y -0.006830 1.738410 -0.003300 
#    z -0.000530 -0.003300 1.779400 
# 
# From -- ./inp_files/180741.got.cif
#   From: 2010.06.25/outbox.cif.g09.slc.cpg/sg2_91_cif.got.tgz:180741.got - 2010.06.27 13:26:56.
