data_PCOD8018901
_publ_section_title
;
Structure prediction by ZEFSAII (Michael W. Deem and Ramdas Pophale) SiO2 
 PCOD8018901
Probable space group: P -1
;
_chemical_formula_sum "Si O2"
_cell_formula_units_Z 16
_cell_length_a 6.298227
_cell_length_b 16.026011
_cell_length_c 13.629681
_cell_angle_alpha 31.153224
_cell_angle_beta 121.455479
_cell_angle_gamma 112.026489
_cell_volume 599.079619
_symmetry_space_group_name_H-M "P -1"
_symmetry_group_IT_number 2
_symmetry_cell_setting 'triclinic'
loop_
_space_group_symop_operation_xyz
x,y,z
-x,-y,-z
loop_
_atom_site_type_symbol
_atom_site_label
_atom_site_fract_x
_atom_site_fract_y
_atom_site_fract_z
Si Si1 0.560616 0.812363 0.823102
Si Si2 0.812744 0.756829 0.577800
Si Si3 0.867675 0.327427 0.796705
Si Si4 0.733570 0.097565 0.156217
Si Si5 0.610348 0.156852 0.466594
Si Si6 0.808460 0.871965 0.080782
Si Si7 0.331191 0.316221 0.585205
Si Si8 0.755716 0.470752 0.152724
O O1 0.354142 0.799852 0.869581
O O2 0.406563 0.840012 0.658010
O O3 0.703170 0.971449 0.715534
O O4 0.765017 0.640785 0.044266
O O5 0.672048 0.786394 0.616866
O O6 0.623363 0.742023 0.456760
O O7 0.012450 0.588471 0.805590
O O8 0.919813 0.927231 0.402160
O O9 0.603609 0.331916 0.674185
O O10 0.869498 0.514243 0.640981
O O11 0.100491 0.265492 0.841917
O O12 0.881783 0.207400 0.014388
O O13 0.480093 0.050658 0.091221
O O14 0.764985 0.302699 0.390534
O O15 0.806530 0.799652 0.262336
O O16 0.000000 0.000000 0.000000
O O17 0.500000 0.500000 0.000000
#
# Coordination Sequence:
#
# PCOD8018901 Si02
#       8
#     2   2   2   2   2   2   2   2
#     4   9  20  41  64  92 126 165 215 269 317 395
#     4  11  23  40  63  97 124 169 219 268 317 401
#     4  10  22  41  62  90 133 172 210 271 325 382
#     4  10  23  40  63  97 130 167 228 261 325 395
#     4   9  21  43  64  90 131 166 210 276 332 378
#     4  11  22  39  64  92 132 175 210 268 329 385
#     4  10  23  39  60  96 129 168 220 265 320 391
#     4  10  23  42  63  92 127 168 218 269 331 385
#
# _framework density 26.707636000000001
#
# number of rings (size 3 to 8) (size 9 to 14) (size 15 to 20)
#    0.000    2.000    0.000    1.875    3.500    9.000 
#    0.000   18.125    0.000    0.000    0.000    0.000 
#    0.000    0.000    0.000    0.000    0.000    0.000 
#
# Total GULP energy -198261.562215 kJ/mol
# GULP energy per Si atom -12391.347638 kJ/mol
# Density = 2.664685 g / cm^3
# Si number density = 26.707636 Si / 1000 Ang^3
#
#
#
# Elastic Constant Matrix: (Units=GPa)
#
#
# Indices 1 2 3 4 5 6 
#
# 1 49.2423 21.2404 35.4932 0.9784 -1.7417 -0.5638
# 2 21.2404 78.2627 34.4112 -22.2687 -1.3077 -15.5714
# 3 35.4932 34.4112 140.8978 -31.0998 28.8010 -4.0023
# 4 0.9784 -22.2687 -31.0998 55.8990 -8.8848 -16.2834
# 5 -1.7417 -1.3077 28.8010 -8.8848 44.3935 -13.3975
# 6 -0.5638 -15.5714 -4.0023 -16.2834 -13.3975 34.8694
#
#
#
# Elastic Compliance Matrix: (Units=1/GPa)
#
#
# Indices 1 2 3 4 5 6 
#
# 1 0.030979 -0.010237 -0.008468 -0.012250 0.000801 -0.010455
# 2 -0.010237 0.027516 -0.001732 0.020044 0.013537 0.026485
# 3 -0.008468 -0.001732 0.012287 0.005170 -0.007285 0.000115
# 4 -0.012250 0.020044 0.005170 0.041553 0.015552 0.034726
# 5 0.000801 0.013537 -0.007285 0.015552 0.039096 0.027506
# 6 -0.010455 0.026485 0.000115 0.034726 0.027506 0.067134
#
#
# Mechanical properties :
#
#
# Convention : Reuss Voigt Hill
#
# Bulk Modulus (GPa) = 33.43563 50.07693 41.75628
# Shear Modulus (GPa) = 18.55911 38.84957 28.70434
#
# Velocity S-wave (km/s) = 2.63895 3.81809 3.28191
# Velocity P-wave (km/s) = 4.67244 6.18287 5.47994
#
# Compressibility (1/GPa) = 0.02990821
#
# Stress axis : x y z
#
# Youngs Moduli (GPa) = 32.27968 36.34217 81.38544
#
# Poissons Ratio (x) = 0.37202 0.68921
# Poissons Ratio (y) = 0.33044 0.14097
# Poissons Ratio (z) = 0.27336 0.06295
#
# Static dielectric constant tensor:
#      x y z
#    x 4.772180 -0.137560 0.017270 
#    y -0.137560 5.169170 -0.731540 
#    z 0.017270 -0.731540 5.626330 
# 
# 
# High freq. dielectric constant tensor:
#      x y z
#    x 2.073080 -0.003200 0.017370 
#    y -0.003200 2.075470 -0.011480 
#    z 0.017370 -0.011480 2.096170 
# 
# From -- ./inp_files/485174.got.cif
#   From: 2010.06.25/outbox.cif.g09.slc.cpg/sg2_243_cif.got.tgz:485174.got - 2010.06.27 13:26:56.
