data_PCOD8018458
_publ_section_title
;
Structure prediction by ZEFSAII (Michael W. Deem and Ramdas Pophale) SiO2 
 PCOD8018458
Probable space group: P -1
;
_chemical_formula_sum "Si O2"
_cell_formula_units_Z 16
_cell_length_a 23.507618
_cell_length_b 6.459526
_cell_length_c 12.640930
_cell_angle_alpha 123.534711
_cell_angle_beta 30.148711
_cell_angle_gamma 109.404595
_cell_volume 753.519562
_symmetry_space_group_name_H-M "P -1"
_symmetry_group_IT_number 2
_symmetry_cell_setting 'triclinic'
loop_
_space_group_symop_operation_xyz
x,y,z
-x,-y,-z
loop_
_atom_site_type_symbol
_atom_site_label
_atom_site_fract_x
_atom_site_fract_y
_atom_site_fract_z
Si Si1 0.717784 0.734962 0.321143
Si Si2 0.902233 0.298763 0.587942
Si Si3 0.686390 0.785824 0.988712
Si Si4 0.371756 0.235194 0.287702
Si Si5 0.815482 0.825980 0.595797
Si Si6 0.959387 0.540966 0.759827
Si Si7 0.402800 0.661525 0.620451
Si Si8 0.548863 0.297119 0.678293
O O1 0.687350 0.774575 0.505577
O O2 0.704689 0.457202 0.228658
O O3 0.630390 0.992042 0.474296
O O4 0.851865 0.704604 0.057679
O O5 0.936262 0.307436 0.660511
O O6 0.014497 0.275072 0.322354
O O7 0.867701 0.049093 0.541460
O O8 0.789535 0.561761 0.820369
O O9 0.588330 0.671801 0.062942
O O10 0.632402 0.024224 0.224526
O O11 0.733531 0.923010 0.857742
O O12 0.266060 0.225246 0.378824
O O13 0.397580 0.504219 0.290571
O O14 0.500000 0.000000 0.000000
O O15 0.927121 0.563603 0.373091
O O16 0.500000 0.500000 0.500000
O O17 0.461982 0.595428 0.392616
#
# Coordination Sequence:
#
# PCOD8018458 Si02
#       8
#     2   2   2   2   2   2   2   2
#     4  11  24  42  64  92 131 170 208 263 312 375
#     4  10  22  40  66  95 128 163 208 264 316 381
#     4  11  22  36  65  97 127 166 204 256 325 382
#     4  11  26  44  64  91 127 168 218 263 312 371
#     4  11  24  42  65  90 126 172 214 262 310 368
#     4  10  23  41  64  96 124 163 213 260 322 374
#     4  11  23  36  61  99 132 162 200 257 324 384
#     4  11  24  40  63  94 128 165 208 258 320 379
#
# _framework density 21.233688000000001
#
# number of rings (size 3 to 8) (size 9 to 14) (size 15 to 20)
#    0.000    1.250    1.250    3.750    5.250    8.500 
#    0.000    1.250    0.000    0.000    0.000    0.000 
#    0.000    0.000    0.000    0.000    0.000    0.000 
#
# Total GULP energy -198289.201525 kJ/mol
# GULP energy per Si atom -12393.075095 kJ/mol
# Density = 2.118536 g / cm^3
# Si number density = 21.233688 Si / 1000 Ang^3
#
#
#
# Elastic Constant Matrix: (Units=GPa)
#
#
# Indices 1 2 3 4 5 6 
#
# 1 129.1918 23.3433 36.3479 -5.6773 -12.6747 7.3920
# 2 23.3433 86.2465 19.6273 -10.9172 -0.0789 12.3870
# 3 36.3479 19.6273 119.5968 -22.4479 -6.7697 1.1274
# 4 -5.6773 -10.9172 -22.4479 22.3773 4.7858 -4.1722
# 5 -12.6747 -0.0789 -6.7697 4.7858 26.4248 -1.1670
# 6 7.3920 12.3870 1.1274 -4.1722 -1.1670 36.9353
#
#
#
# Elastic Compliance Matrix: (Units=1/GPa)
#
#
# Indices 1 2 3 4 5 6 
#
# 1 0.009228 -0.002015 -0.002689 -0.002451 0.004121 -0.001236
# 2 -0.002015 0.013467 -0.000725 0.005135 -0.002200 -0.003581
# 3 -0.002689 -0.000725 0.011261 0.010620 -0.000258 0.001629
# 4 -0.002451 0.005135 0.010620 0.060094 -0.009105 0.004945
# 5 0.004121 -0.002200 -0.000258 -0.009105 0.041405 0.000201
# 6 -0.001236 -0.003581 0.001629 0.004945 0.000201 0.029038
#
#
# Mechanical properties :
#
#
# Convention : Reuss Voigt Hill
#
# Bulk Modulus (GPa) = 43.29184 54.85246 49.07215
# Shear Modulus (GPa) = 27.31497 34.19524 30.75510
#
# Velocity S-wave (km/s) = 3.59053 4.01736 3.80993
# Velocity P-wave (km/s) = 6.13366 6.88533 6.52033
#
# Compressibility (1/GPa) = 0.02309904
#
# Stress axis : x y z
#
# Youngs Moduli (GPa) = 108.36183 74.25478 88.80252
#
# Poissons Ratio (x) = 0.14960 0.23881
# Poissons Ratio (y) = 0.21832 0.06436
# Poissons Ratio (z) = 0.29140 0.05382
#
# Static dielectric constant tensor:
#      x y z
#    x 3.041660 -5.928570 -4.417170 
#    y -5.928570 -37.286580 -30.258400 
#    z -4.417170 -30.258400 -17.871860 
# 
# 
# High freq. dielectric constant tensor:
#      x y z
#    x 1.834080 -0.003950 -0.007720 
#    y -0.003950 1.842120 -0.018750 
#    z -0.007720 -0.018750 1.828610 
# 
# From -- ./inp_files/67255.got.cif
#   From: 2010.06.25/outbox.cif.g09.slc.cpg/sg2_34_cif.got.tgz:67255.got - 2010.06.27 13:26:56.
