data_PCOD8018815
_publ_section_title
;
Structure prediction by ZEFSAII (Michael W. Deem and Ramdas Pophale) SiO2 
 PCOD8018815
Probable space group: P -1
;
_chemical_formula_sum "Si O2"
_cell_formula_units_Z 16
_cell_length_a 14.243033
_cell_length_b 14.251269
_cell_length_c 8.767916
_cell_angle_alpha 140.193801
_cell_angle_beta 39.665475
_cell_angle_gamma 140.296143
_cell_volume 654.642330
_symmetry_space_group_name_H-M "P -1"
_symmetry_group_IT_number 2
_symmetry_cell_setting 'triclinic'
loop_
_space_group_symop_operation_xyz
x,y,z
-x,-y,-z
loop_
_atom_site_type_symbol
_atom_site_label
_atom_site_fract_x
_atom_site_fract_y
_atom_site_fract_z
Si Si1 0.197191 0.444470 0.910600
Si Si2 0.690639 0.233771 0.987618
Si Si3 0.170518 0.086887 0.087561
Si Si4 0.822984 0.191598 0.089476
Si Si5 0.814050 0.439866 0.616294
Si Si6 0.635182 0.552978 0.767931
Si Si7 0.411143 0.280374 0.496689
Si Si8 0.814930 0.015259 0.394391
O O1 0.312065 0.355461 0.612370
O O2 0.205311 0.573569 0.934090
O O3 0.273330 0.543353 0.098000
O O4 0.014095 0.310404 0.988562
O O5 0.727495 0.131703 0.682738
O O6 0.737025 0.183473 0.027571
O O7 0.495555 0.188942 0.174631
O O8 0.315856 0.267566 0.134164
O O9 0.995694 0.089861 0.335131
O O10 0.201743 0.989357 0.065941
O O11 0.170721 0.994166 0.816049
O O12 0.743132 0.257485 0.406217
O O13 0.796423 0.553547 0.646729
O O14 0.000000 0.500000 0.500000
O O15 0.570377 0.423745 0.552364
O O16 0.500000 0.500000 0.000000
O O17 0.289695 0.164132 0.630872
#
# Coordination Sequence:
#
# PCOD8018815 Si02
#       8
#     2   2   2   2   2   2   2   2
#     4  11  23  44  72 102 143 194 239 286 358 424
#     4  12  27  44  70 106 147 190 236 294 351 426
#     4  11  25  45  77 105 139 187 241 295 356 415
#     4  11  24  45  68 108 145 184 244 294 350 422
#     4  10  22  40  73 105 140 182 237 295 346 416
#     4  12  23  45  75 110 137 181 238 301 348 418
#     4  12  24  50  70 106 148 185 237 291 364 425
#     4  11  25  47  74 105 142 189 237 291 359 427
#
# _framework density 24.440828
#
# number of rings (size 3 to 8) (size 9 to 14) (size 15 to 20)
#    0.000    0.750    5.000    1.875    8.750    1.500 
#    6.750    1.250    0.000    0.000    0.000    0.000 
#    0.000    0.000    0.000    0.000    0.000    0.000 
#
# Total GULP energy -198421.316984 kJ/mol
# GULP energy per Si atom -12401.332312 kJ/mol
# Density = 2.438520 g / cm^3
# Si number density = 24.440828 Si / 1000 Ang^3
#
#
#
# Elastic Constant Matrix: (Units=GPa)
#
#
# Indices 1 2 3 4 5 6 
#
# 1 81.1942 46.1778 25.7029 8.7954 -28.7058 -20.9147
# 2 46.1778 154.9486 22.8814 4.3631 -15.9712 -24.4983
# 3 25.7029 22.8814 126.2760 -4.1499 -27.5777 -0.6681
# 4 8.7954 4.3631 -4.1499 27.3481 -6.1990 -5.2132
# 5 -28.7058 -15.9712 -27.5777 -6.1990 30.3597 7.9282
# 6 -20.9147 -24.4983 -0.6681 -5.2132 7.9282 39.7746
#
#
#
# Elastic Compliance Matrix: (Units=1/GPa)
#
#
# Indices 1 2 3 4 5 6 
#
# 1 0.022244 -0.003911 -0.000115 -0.001598 0.017062 0.005675
# 2 -0.003911 0.008141 -0.000872 0.000205 -0.000993 0.003168
# 3 -0.000115 -0.000872 0.010434 0.003692 0.010178 -0.001968
# 4 -0.001598 0.000205 0.003692 0.040273 0.009457 0.002742
# 5 0.017062 -0.000993 0.010178 0.009457 0.060312 -0.002252
# 6 0.005675 0.003168 -0.001968 0.002742 -0.002252 0.030852
#
#
# Mechanical properties :
#
#
# Convention : Reuss Voigt Hill
#
# Bulk Modulus (GPa) = 32.23581 61.32701 46.78141
# Shear Modulus (GPa) = 25.98809 37.34026 31.66418
#
# Velocity S-wave (km/s) = 3.26438 3.91293 3.60327
# Velocity P-wave (km/s) = 5.23700 6.74990 6.04100
#
# Compressibility (1/GPa) = 0.03102140
#
# Stress axis : x y z
#
# Youngs Moduli (GPa) = 44.95543 122.83651 95.83706
#
# Poissons Ratio (x) = 0.48045 0.01105
# Poissons Ratio (y) = 0.17583 0.08361
# Poissons Ratio (z) = 0.00519 0.10717
#
# Static dielectric constant tensor:
#      x y z
#    x 4.464690 -0.170910 -0.083790 
#    y -0.170910 4.283380 0.042270 
#    z -0.083790 0.042270 4.944310 
# 
# 
# High freq. dielectric constant tensor:
#      x y z
#    x 1.967630 -0.011130 -0.012250 
#    y -0.011130 1.962360 0.001790 
#    z -0.012250 0.001790 1.985790 
# 
# From -- ./inp_files/316026.got.cif
#   From: 2010.06.25/outbox.cif.g09.slc.cpg/sg2_159_cif.got.tgz:316026.got - 2010.06.27 13:26:56.
