data_PCOD8018194
_publ_section_title
;
Structure prediction by ZEFSAII (Michael W. Deem and Ramdas Pophale) SiO2 
 PCOD8018194
Probable space group: P -1
;
_chemical_formula_sum "Si O2"
_cell_formula_units_Z 16
_cell_length_a 6.227330
_cell_length_b 8.468428
_cell_length_c 19.724801
_cell_angle_alpha 66.162390
_cell_angle_beta 115.099941
_cell_angle_gamma 127.468764
_cell_volume 732.023191
_symmetry_space_group_name_H-M "P -1"
_symmetry_group_IT_number 2
_symmetry_cell_setting 'triclinic'
loop_
_space_group_symop_operation_xyz
x,y,z
-x,-y,-z
loop_
_atom_site_type_symbol
_atom_site_label
_atom_site_fract_x
_atom_site_fract_y
_atom_site_fract_z
Si Si1 0.242010 0.108070 0.716027
Si Si2 0.832661 0.610317 0.530539
Si Si3 0.284662 0.939727 0.619418
Si Si4 0.076342 0.227259 0.963782
Si Si5 0.254922 0.615666 0.172505
Si Si6 0.729258 0.262657 0.221309
Si Si7 0.394495 0.437625 0.097823
Si Si8 0.856596 0.232212 0.595396
O O1 0.298229 0.111973 0.641341
O O2 0.203420 0.898880 0.776540
O O3 0.482474 0.287557 0.760263
O O4 0.982873 0.141097 0.681468
O O5 0.500000 0.500000 0.500000
O O6 0.898708 0.441574 0.593279
O O7 0.975258 0.799404 0.569636
O O8 0.987099 0.714735 0.463763
O O9 0.342861 0.792419 0.699295
O O10 0.526693 0.057765 0.575084
O O11 0.343543 0.348595 0.929604
O O12 0.805768 0.223606 0.899178
O O13 0.149151 0.340768 0.026345
O O14 0.000000 0.000000 0.000000
O O15 0.002535 0.482202 0.212583
O O16 0.280332 0.476999 0.144066
O O17 0.476846 0.268339 0.150849
#
# Coordination Sequence:
#
# PCOD8018194 Si02
#       8
#     2   2   2   2   2   2   2   2
#     4  10  25  38  64  95 127 165 214 258 317 381
#     4  11  26  45  68  93 129 165 213 271 320 380
#     4  10  25  43  66  91 132 165 210 263 322 382
#     4  10  22  41  64  90 130 168 211 261 315 365
#     4  11  23  40  64  96 127 168 214 259 317 376
#     4   9  24  39  62  92 128 166 207 264 319 369
#     4  10  22  40  63  94 126 166 213 262 312 375
#     4  11  25  42  67  96 122 171 215 260 323 384
#
# _framework density 21.857232
#
# number of rings (size 3 to 8) (size 9 to 14) (size 15 to 20)
#    0.750    1.000    0.000    2.250    7.000    6.500 
#    0.000    0.000    0.000    0.000    0.000    0.000 
#    0.000    0.000    0.000    0.000    0.000    0.000 
#
# Total GULP energy -198236.210052 kJ/mol
# GULP energy per Si atom -12389.763128 kJ/mol
# Density = 2.180748 g / cm^3
# Si number density = 21.857232 Si / 1000 Ang^3
#
#
#
# Elastic Constant Matrix: (Units=GPa)
#
#
# Indices 1 2 3 4 5 6 
#
# 1 81.1685 47.8507 50.3383 -0.2904 6.8613 1.0425
# 2 47.8507 100.0475 57.2523 3.4592 0.6015 5.7814
# 3 50.3383 57.2523 76.8591 -2.4161 12.5619 1.6381
# 4 -0.2904 3.4592 -2.4161 51.2546 -8.4570 8.7696
# 5 6.8613 0.6015 12.5619 -8.4570 42.2657 -5.9416
# 6 1.0425 5.7814 1.6381 8.7696 -5.9416 36.7836
#
#
#
# Elastic Compliance Matrix: (Units=1/GPa)
#
#
# Indices 1 2 3 4 5 6 
#
# 1 0.021596 -0.003930 -0.011222 -0.000250 -0.000087 0.000551
# 2 -0.003930 0.018884 -0.012072 -0.001024 0.003541 -0.001503
# 3 -0.011222 -0.012072 0.030533 0.001139 -0.006928 -0.000535
# 4 -0.000250 -0.001024 0.001139 0.020917 0.003292 -0.004338
# 5 -0.000087 0.003541 -0.006928 0.003292 0.026805 0.003299
# 6 0.000551 -0.001503 -0.000535 -0.004338 0.003299 0.028998
#
#
# Mechanical properties :
#
#
# Convention : Reuss Voigt Hill
#
# Bulk Modulus (GPa) = 60.36823 63.21751 61.79287
# Shear Modulus (GPa) = 24.07309 32.90302 28.48805
#
# Velocity S-wave (km/s) = 3.32230 3.88411 3.61414
# Velocity P-wave (km/s) = 6.51124 7.00719 6.76376
#
# Compressibility (1/GPa) = 0.01656501
#
# Stress axis : x y z
#
# Youngs Moduli (GPa) = 46.30556 52.95572 32.75192
#
# Poissons Ratio (x) = 0.20809 0.36755
# Poissons Ratio (y) = 0.18196 0.39537
# Poissons Ratio (z) = 0.51965 0.63927
#
# Static dielectric constant tensor:
#      x y z
#    x 3.813650 -0.000260 0.189210 
#    y -0.000260 3.851000 -0.162400 
#    z 0.189210 -0.162400 4.074810 
# 
# 
# High freq. dielectric constant tensor:
#      x y z
#    x 1.844890 -0.000200 0.013730 
#    y -0.000200 1.856380 -0.011150 
#    z 0.013730 -0.011150 1.868080 
# 
# From -- ./inp_files/582365.got.cif
#   From: 2010.06.25/outbox.cif.g09.slc.cpg/sg2_292_cif.got.tgz:582365.got - 2010.06.27 13:26:56.
