data_PCOD8018363
_publ_section_title
;
Structure prediction by ZEFSAII (Michael W. Deem and Ramdas Pophale) SiO2 
 PCOD8018363
Probable space group: P -1
;
_chemical_formula_sum "Si O2"
_cell_formula_units_Z 16
_cell_length_a 10.897834
_cell_length_b 8.679807
_cell_length_c 17.459825
_cell_angle_alpha 114.000167
_cell_angle_beta 149.479111
_cell_angle_gamma 67.322181
_cell_volume 764.022513
_symmetry_space_group_name_H-M "P -1"
_symmetry_group_IT_number 2
_symmetry_cell_setting 'triclinic'
loop_
_space_group_symop_operation_xyz
x,y,z
-x,-y,-z
loop_
_atom_site_type_symbol
_atom_site_label
_atom_site_fract_x
_atom_site_fract_y
_atom_site_fract_z
Si Si1 0.934815 0.457935 0.044491
Si Si2 0.424915 0.357464 0.373988
Si Si3 0.691003 0.955641 0.657480
Si Si4 0.392728 0.240697 0.043879
Si Si5 0.941477 0.880576 0.515203
Si Si6 0.544526 0.255639 0.736904
Si Si7 0.143529 0.915843 0.795025
Si Si8 0.651166 0.380401 0.347173
O O1 0.170117 0.402140 0.206200
O O2 0.809661 0.613214 0.058112
O O3 0.738229 0.317027 0.913993
O O4 0.000000 0.500000 0.000000
O O5 0.500000 0.500000 0.500000
O O6 0.419399 0.178348 0.374403
O O7 0.629983 0.336741 0.415886
O O8 0.500000 0.000000 0.500000
O O9 0.715190 0.135238 0.748427
O O10 0.939365 0.871856 0.736980
O O11 0.458558 0.277026 0.175319
O O12 0.646700 0.238579 0.132052
O O13 0.274208 0.067195 0.933872
O O14 0.655159 0.855356 0.354529
O O15 0.077813 0.692333 0.543731
O O16 0.000000 0.000000 0.500000
O O17 0.022949 0.961968 0.656316
O O18 0.401819 0.417388 0.651459
#
# Coordination Sequence:
#
# PCOD8018363 Si02
#       8
#     2   2   2   2   2   2   2   2
#     4  11  22  43  70  99 132 178 223 281 342 400
#     4  12  27  44  68 104 135 175 231 277 344 415
#     4  12  25  41  66  98 138 178 225 281 337 399
#     4   9  20  41  69  91 130 176 223 271 337 401
#     4  11  23  41  66  98 135 177 231 280 338 404
#     4  11  22  42  68  95 135 177 225 277 341 400
#     4  10  22  40  65  94 133 179 220 274 336 395
#     4  10  22  42  68  97 130 181 227 273 341 405
#
# _framework density 20.941792
#
# number of rings (size 3 to 8) (size 9 to 14) (size 15 to 20)
#    0.000    1.250    3.750    2.625    1.750    0.500 
#    6.750    0.625    0.000    0.000    0.000    0.000 
#    0.000    0.000    0.000    0.000    0.000    0.000 
#
# Total GULP energy -198279.092861 kJ/mol
# GULP energy per Si atom -12392.443304 kJ/mol
# Density = 2.089413 g / cm^3
# Si number density = 20.941792 Si / 1000 Ang^3
#
#
#
# Elastic Constant Matrix: (Units=GPa)
#
#
# Indices 1 2 3 4 5 6 
#
# 1 114.1971 41.7856 29.4253 5.0980 5.5529 -5.6145
# 2 41.7856 105.7121 26.5605 2.2572 -7.6622 -12.2305
# 3 29.4253 26.5605 86.6565 1.4830 6.3634 2.1931
# 4 5.0980 2.2572 1.4830 33.0360 -4.2384 1.2901
# 5 5.5529 -7.6622 6.3634 -4.2384 34.2408 -3.0702
# 6 -5.6145 -12.2305 2.1931 1.2901 -3.0702 39.9915
#
#
#
# Elastic Compliance Matrix: (Units=1/GPa)
#
#
# Indices 1 2 3 4 5 6 
#
# 1 0.010976 -0.003841 -0.002357 -0.001644 -0.002372 0.000366
# 2 -0.003841 0.012456 -0.002931 0.000282 0.004326 0.003754
# 3 -0.002357 -0.002931 0.013522 -0.000346 -0.003026 -0.002190
# 4 -0.001644 0.000282 -0.000346 0.031087 0.004169 -0.000808
# 5 -0.002372 0.004326 -0.003026 0.004169 0.031948 0.003474
# 6 0.000366 0.003754 -0.002190 -0.000808 0.003474 0.026618
#
#
# Mechanical properties :
#
#
# Convention : Reuss Voigt Hill
#
# Bulk Modulus (GPa) = 53.48530 55.78982 54.63756
# Shear Modulus (GPa) = 33.09141 35.37329 34.23235
#
# Velocity S-wave (km/s) = 3.97944 4.11435 4.04746
# Velocity P-wave (km/s) = 6.83447 7.01917 6.92744
#
# Compressibility (1/GPa) = 0.01869673
#
# Stress axis : x y z
#
# Youngs Moduli (GPa) = 91.10563 80.28097 73.95332
#
# Poissons Ratio (x) = 0.30835 0.17429
# Poissons Ratio (y) = 0.34993 0.21677
# Poissons Ratio (z) = 0.21472 0.23532
#
# Static dielectric constant tensor:
#      x y z
#    x 3.628990 -0.407360 0.131510 
#    y -0.407360 3.906810 -0.034540 
#    z 0.131510 -0.034540 4.053360 
# 
# 
# High freq. dielectric constant tensor:
#      x y z
#    x 1.819320 -0.033520 0.013340 
#    y -0.033520 1.817670 0.006110 
#    z 0.013340 0.006110 1.826810 
# 
# From -- ./inp_files/495533.got.cif
#   From: 2010.06.25/outbox.cif.g09.slc.cpg/sg2_248_cif.got.tgz:495533.got - 2010.06.27 13:26:56.
