data_PCOD8018125
_publ_section_title
;
Structure prediction by ZEFSAII (Michael W. Deem and Ramdas Pophale) SiO2 
 PCOD8018125
Probable space group: P -1
;
_chemical_formula_sum "Si O2"
_cell_formula_units_Z 16
_cell_length_a 16.696323
_cell_length_b 6.483960
_cell_length_c 11.030798
_cell_angle_alpha 131.735586
_cell_angle_beta 52.828547
_cell_angle_gamma 108.535512
_cell_volume 702.898826
_symmetry_space_group_name_H-M "P -1"
_symmetry_group_IT_number 2
_symmetry_cell_setting 'triclinic'
loop_
_space_group_symop_operation_xyz
x,y,z
-x,-y,-z
loop_
_atom_site_type_symbol
_atom_site_label
_atom_site_fract_x
_atom_site_fract_y
_atom_site_fract_z
Si Si1 0.263433 0.450312 0.781172
Si Si2 0.188773 0.448013 0.589846
Si Si3 0.645338 0.002317 0.080218
Si Si4 0.456953 0.000145 0.406140
Si Si5 0.019023 0.712994 0.672419
Si Si6 0.829912 0.157710 0.589543
Si Si7 0.821307 0.681678 0.948237
Si Si8 0.657345 0.478652 0.713711
O O1 0.192987 0.530852 0.759664
O O2 0.352582 0.206732 0.566625
O O3 0.308765 0.721556 0.896572
O O4 0.193685 0.326810 0.897000
O O5 0.085677 0.581829 0.672861
O O6 0.287289 0.545652 0.476260
O O7 0.195573 0.118672 0.432912
O O8 0.536524 0.099204 0.278244
O O9 0.716785 0.827798 0.045075
O O10 0.629215 0.804773 0.903262
O O11 0.500000 0.000000 0.500000
O O12 0.440906 0.680097 0.266742
O O13 0.081424 0.925848 0.626165
O O14 0.000000 0.500000 0.500000
O O15 0.912564 0.851036 0.885590
O O16 0.859998 0.363210 0.746949
O O17 0.730861 0.325616 0.686621
#
# Coordination Sequence:
#
# PCOD8018125 Si02
#       8
#     2   2   2   2   2   2   2   2
#     4  12  25  41  64  96 134 167 212 263 329 382
#     4  11  22  39  67  95 130 169 211 265 321 379
#     4  11  24  43  66  93 130 170 219 267 312 379
#     4  12  23  44  67  92 132 173 208 266 331 379
#     4   9  21  39  65  96 129 172 214 261 317 381
#     4   9  19  40  65  93 127 168 215 262 313 378
#     4  10  22  40  62  93 132 170 212 262 318 381
#     4  10  22  42  66  95 127 170 217 264 313 379
#
# _framework density 22.762878000000001
#
# number of rings (size 3 to 8) (size 9 to 14) (size 15 to 20)
#    0.000    1.500    2.500    3.000    0.000    3.500 
#    0.000    2.500    0.000    0.000    0.000    0.000 
#    0.000    0.000    0.000    0.000    0.000    0.000 
#
# Total GULP energy -198348.321830 kJ/mol
# GULP energy per Si atom -12396.770114 kJ/mol
# Density = 2.271107 g / cm^3
# Si number density = 22.762878 Si / 1000 Ang^3
#
#
#
# Elastic Constant Matrix: (Units=GPa)
#
#
# Indices 1 2 3 4 5 6 
#
# 1 90.1314 10.2099 33.1714 -12.6513 8.9305 -1.4462
# 2 10.2099 53.4438 22.0459 -1.4520 -6.9204 0.7489
# 3 33.1714 22.0459 93.9850 -17.4251 -3.5595 4.4014
# 4 -12.6513 -1.4520 -17.4251 46.4022 13.3298 10.6164
# 5 8.9305 -6.9204 -3.5595 13.3298 29.0161 -5.4749
# 6 -1.4462 0.7489 4.4014 10.6164 -5.4749 30.3421
#
#
#
# Elastic Compliance Matrix: (Units=1/GPa)
#
#
# Indices 1 2 3 4 5 6 
#
# 1 0.014213 -0.002025 -0.003798 0.005156 -0.008066 -0.001981
# 2 -0.002025 0.022133 -0.005236 -0.004923 0.008145 0.003309
# 3 -0.003798 -0.005236 0.014418 0.005758 -0.001802 -0.004483
# 4 0.005156 -0.004923 0.005758 0.034807 -0.021151 -0.016463
# 5 -0.008066 0.008145 -0.001802 -0.021151 0.051472 0.016364
# 6 -0.001981 0.003309 -0.004483 -0.016463 0.016364 0.042145
#
#
# Mechanical properties :
#
#
# Convention : Reuss Voigt Hill
#
# Bulk Modulus (GPa) = 34.90983 40.93494 37.92239
# Shear Modulus (GPa) = 23.71293 32.62761 28.17027
#
# Velocity S-wave (km/s) = 3.23110 3.79009 3.52170
# Velocity P-wave (km/s) = 5.41198 6.09716 5.76476
#
# Compressibility (1/GPa) = 0.02864522
#
# Stress axis : x y z
#
# Youngs Moduli (GPa) = 70.35677 45.18213 69.35722
#
# Poissons Ratio (x) = 0.09150 0.26344
# Poissons Ratio (y) = 0.14248 0.36316
# Poissons Ratio (z) = 0.26724 0.23658
#
# Static dielectric constant tensor:
#      x y z
#    x 4.075690 0.260290 0.030650 
#    y 0.260290 4.230960 -0.081860 
#    z 0.030650 -0.081860 4.199450 
# 
# 
# High freq. dielectric constant tensor:
#      x y z
#    x 1.894280 0.010320 0.006540 
#    y 0.010320 1.900990 -0.012160 
#    z 0.006540 -0.012160 1.889560 
# 
# From -- ./inp_files/90546.got.cif
#   From: 2010.06.25/outbox.cif.g09.slc.cpg/sg2_46_cif.got.tgz:90546.got - 2010.06.27 13:26:56.
