data_PCOD8018899
_publ_section_title
;
Structure prediction by ZEFSAII (Michael W. Deem and Ramdas Pophale) SiO2 
 PCOD8018899
Probable space group: P -1
;
_chemical_formula_sum "Si O2"
_cell_formula_units_Z 14
_cell_length_a 8.739984
_cell_length_b 22.811520
_cell_length_c 11.649408
_cell_angle_alpha 147.300160
_cell_angle_beta 63.496165
_cell_angle_gamma 138.516050
_cell_volume 712.656192
_symmetry_space_group_name_H-M "P -1"
_symmetry_group_IT_number 2
_symmetry_cell_setting 'triclinic'
loop_
_space_group_symop_operation_xyz
x,y,z
-x,-y,-z
loop_
_atom_site_type_symbol
_atom_site_label
_atom_site_fract_x
_atom_site_fract_y
_atom_site_fract_z
Si Si1 0.970916 0.060018 0.496845
Si Si2 0.040581 0.688429 0.065476
Si Si3 0.316842 0.807719 0.736648
Si Si4 0.302961 0.499837 0.595190
Si Si5 0.444698 0.688007 0.324978
Si Si6 0.594364 0.296749 0.908558
Si Si7 0.741865 0.325190 0.241092
O O1 0.937214 0.171822 0.710068
O O2 0.242341 0.178710 0.527161
O O3 0.697716 0.882050 0.237129
O O4 0.000000 0.000000 0.500000
O O5 0.203673 0.704577 0.137172
O O6 0.165657 0.721739 0.955510
O O7 0.731004 0.496394 0.866280
O O8 0.360576 0.759662 0.528582
O O9 0.426839 0.802496 0.806301
O O10 0.999877 0.682639 0.639719
O O11 0.500000 0.000000 0.000000
O O12 0.500000 0.500000 0.500000
O O13 0.414143 0.656152 0.741936
O O14 0.314413 0.546818 0.801041
O O15 0.404444 0.678081 0.185506
O O16 0.000000 0.500000 0.500000
#
# Coordination Sequence:
#
# PCOD8018899 Si02
#       7
#     2   2   2   2   2   2   2
#     4  10  24  37  59  91 122 158 199 255 297 356
#     4  11  20  40  64  85 122 162 201 251 300 360
#     4  11  24  40  64  90 121 163 202 251 297 364
#     4  10  22  42  66  88 120 162 199 250 306 358
#     4  11  22  40  61  94 123 156 208 247 302 357
#     4  10  22  41  62  90 126 157 202 247 309 361
#     4   9  19  39  61  85 117 161 204 234 305 364
#
# _framework density 19.644817
#
# number of rings (size 3 to 8) (size 9 to 14) (size 15 to 20)
#    0.000    1.714    4.286    1.286    6.000    3.429 
#    2.571    0.714    0.000    0.000    0.000    0.000 
#    0.000    0.000    0.000    0.000    0.000    0.000 
#
# Total GULP energy -173440.825857 kJ/mol
# GULP energy per Si atom -12388.630418 kJ/mol
# Density = 1.960010 g / cm^3
# Si number density = 19.644817 Si / 1000 Ang^3
#
#
#
# Elastic Constant Matrix: (Units=GPa)
#
#
# Indices 1 2 3 4 5 6 
#
# 1 83.1227 51.7749 39.1367 -5.2078 -17.5052 14.7820
# 2 51.7749 95.5817 48.1849 -3.5592 -1.7514 0.4314
# 3 39.1367 48.1849 109.7216 8.7111 -11.3597 -3.9405
# 4 -5.2078 -3.5592 8.7111 40.8499 3.0864 7.0418
# 5 -17.5052 -1.7514 -11.3597 3.0864 32.4911 0.0743
# 6 14.7820 0.4314 -3.9405 7.0418 0.0743 39.2053
#
#
#
# Elastic Compliance Matrix: (Units=1/GPa)
#
#
# Indices 1 2 3 4 5 6 
#
# 1 0.025462 -0.011640 -0.003466 0.003918 0.011531 -0.010546
# 2 -0.011640 0.019172 -0.004971 0.001183 -0.007096 0.003479
# 3 -0.003466 -0.004971 0.013326 -0.004545 0.002947 0.003512
# 4 0.003918 0.001183 -0.004545 0.027386 -0.002000 -0.006862
# 5 0.011531 -0.007096 0.002947 -0.002000 0.037836 -0.003686
# 6 -0.010546 0.003479 0.003512 -0.006862 -0.003686 0.031037
#
#
# Mechanical properties :
#
#
# Convention : Reuss Voigt Hill
#
# Bulk Modulus (GPa) = 56.16610 62.95769 59.56189
# Shear Modulus (GPa) = 24.96154 32.46456 28.71305
#
# Velocity S-wave (km/s) = 3.56847 4.06960 3.82725
# Velocity P-wave (km/s) = 6.75511 7.36205 7.06510
#
# Compressibility (1/GPa) = 0.01780434
#
# Stress axis : x y z
#
# Youngs Moduli (GPa) = 39.27436 52.15965 75.04398
#
# Poissons Ratio (x) = 0.60714 0.26012
# Poissons Ratio (y) = 0.45716 0.37306
# Poissons Ratio (z) = 0.13613 0.25930
#
# Static dielectric constant tensor:
#      x y z
#    x 3.963930 -0.279170 -0.109150 
#    y -0.279170 4.148190 0.487390 
#    z -0.109150 0.487390 3.743980 
# 
# 
# High freq. dielectric constant tensor:
#      x y z
#    x 1.762590 -0.000510 0.001580 
#    y -0.000510 1.763870 0.005180 
#    z 0.001580 0.005180 1.770320 
# 
# From -- ./inp_files/175926.got.cif
#   From: 2010.06.25/outbox.cif.g09.slc.cpg/sg2_88_cif.got.tgz:175926.got - 2010.06.27 13:26:56.
