data_PCOD8018578
_publ_section_title
;
Structure prediction by ZEFSAII (Michael W. Deem and Ramdas Pophale) SiO2 
 PCOD8018578
Probable space group: P -1
;
_chemical_formula_sum "Si O2"
_cell_formula_units_Z 16
_cell_length_a 18.698826
_cell_length_b 12.366173
_cell_length_c 8.649633
_cell_angle_alpha 143.086417
_cell_angle_beta 69.743747
_cell_angle_gamma 135.534203
_cell_volume 711.793994
_symmetry_space_group_name_H-M "P -1"
_symmetry_group_IT_number 2
_symmetry_cell_setting 'triclinic'
loop_
_space_group_symop_operation_xyz
x,y,z
-x,-y,-z
loop_
_atom_site_type_symbol
_atom_site_label
_atom_site_fract_x
_atom_site_fract_y
_atom_site_fract_z
Si Si1 0.297100 0.596859 0.376054
Si Si2 0.588238 0.503974 0.639366
Si Si3 0.801879 0.884058 0.690190
Si Si4 0.299364 0.480112 0.924464
Si Si5 0.100352 0.599887 0.928311
Si Si6 0.553381 0.808791 0.171917
Si Si7 0.911167 0.771283 0.672722
Si Si8 0.349596 0.946120 0.288111
O O1 0.352682 0.512846 0.295336
O O2 0.208513 0.516011 0.477774
O O3 0.402943 0.929919 0.644495
O O4 0.230775 0.435076 0.075579
O O5 0.664929 0.635358 0.574186
O O6 0.448928 0.183513 0.353916
O O7 0.597274 0.723499 0.940866
O O8 0.793224 0.812616 0.434966
O O9 0.886914 0.900524 0.733798
O O10 0.865744 0.195967 0.999538
O O11 0.409135 0.559727 0.996982
O O12 0.344339 0.721343 0.052436
O O13 0.047010 0.321701 0.568550
O O14 0.218413 0.774590 0.141508
O O15 0.000000 0.500000 0.000000
O O16 0.606203 0.881099 0.387516
O O17 0.000000 0.000000 0.000000
#
# Coordination Sequence:
#
# PCOD8018578 Si02
#       8
#     2   2   2   2   2   2   2   2
#     4  10  22  40  67  97 139 177 228 278 338 419
#     4  11  22  39  67 103 144 180 219 282 348 421
#     4  11  27  44  71 106 138 181 232 287 356 410
#     4  11  21  41  68 105 140 183 223 273 347 423
#     4  12  29  48  72 103 139 182 242 297 339 407
#     4  11  21  37  66 104 142 184 221 269 347 422
#     4  11  27  50  72  99 133 187 236 293 353 404
#     4  11  22  42  67 104 141 181 228 278 349 409
#
# _framework density 22.478414000000001
#
# number of rings (size 3 to 8) (size 9 to 14) (size 15 to 20)
#    0.000    1.000    3.750    2.625    3.500    7.500 
#    0.000    0.000    0.000    0.000    0.000    0.000 
#    0.000    0.000    0.000    0.000    0.000    0.000 
#
# Total GULP energy -198388.693627 kJ/mol
# GULP energy per Si atom -12399.293352 kJ/mol
# Density = 2.242725 g / cm^3
# Si number density = 22.478414 Si / 1000 Ang^3
#
#
#
# Elastic Constant Matrix: (Units=GPa)
#
#
# Indices 1 2 3 4 5 6 
#
# 1 121.4062 52.9787 57.9986 -7.6479 -5.6489 3.4296
# 2 52.9787 92.2881 18.9149 1.5492 -3.7916 0.1179
# 3 57.9986 18.9149 100.2084 -16.7084 5.2541 -0.7974
# 4 -7.6479 1.5492 -16.7084 30.7507 1.6816 -5.3607
# 5 -5.6489 -3.7916 5.2541 1.6816 41.1004 0.6120
# 6 3.4296 0.1179 -0.7974 -5.3607 0.6120 35.3217
#
#
#
# Elastic Compliance Matrix: (Units=1/GPa)
#
#
# Indices 1 2 3 4 5 6 
#
# 1 0.015047 -0.006966 -0.007616 -0.000479 0.002444 -0.001725
# 2 -0.006966 0.014693 0.000921 -0.001931 0.000354 0.000349
# 3 -0.007616 0.000921 0.015586 0.007095 -0.003278 0.002222
# 4 -0.000479 -0.001931 0.007095 0.037543 -0.002776 0.005959
# 5 0.002444 0.000354 -0.003278 -0.002776 0.025249 -0.001171
# 6 -0.001725 0.000349 0.002222 0.005959 -0.001171 0.029452
#
#
# Mechanical properties :
#
#
# Convention : Reuss Voigt Hill
#
# Bulk Modulus (GPa) = 55.54661 63.74301 59.64481
# Shear Modulus (GPa) = 29.25786 33.70191 31.47989
#
# Velocity S-wave (km/s) = 3.61168 3.87628 3.74632
# Velocity P-wave (km/s) = 6.49285 6.96082 6.73090
#
# Compressibility (1/GPa) = 0.01800290
#
# Stress axis : x y z
#
# Youngs Moduli (GPa) = 66.45666 68.06181 64.16110
#
# Poissons Ratio (x) = 0.47415 0.48865
# Poissons Ratio (y) = 0.46297 -0.05909
# Poissons Ratio (z) = 0.50613 -0.06269
#
# Static dielectric constant tensor:
#      x y z
#    x 4.098620 0.014980 -0.150910 
#    y 0.014980 4.303120 0.005900 
#    z -0.150910 0.005900 3.978510 
# 
# 
# High freq. dielectric constant tensor:
#      x y z
#    x 1.891460 -0.009240 -0.014090 
#    y -0.009240 1.888000 -0.003110 
#    z -0.014090 -0.003110 1.879250 
# 
# From -- ./inp_files/333331.got.cif
#   From: 2010.06.25/outbox.cif.g09.slc.cpg/sg2_167_cif.got.tgz:333331.got - 2010.06.27 13:26:56.
