data_PCOD8018854
_publ_section_title
;
Structure prediction by ZEFSAII (Michael W. Deem and Ramdas Pophale) SiO2 
 PCOD8018854
Probable space group: P -1
;
_chemical_formula_sum "Si O2"
_cell_formula_units_Z 14
_cell_length_a 8.658133
_cell_length_b 13.124885
_cell_length_c 12.204396
_cell_angle_alpha 37.184745
_cell_angle_beta 92.951953
_cell_angle_gamma 72.953518
_cell_volume 697.089162
_symmetry_space_group_name_H-M "P -1"
_symmetry_group_IT_number 2
_symmetry_cell_setting 'triclinic'
loop_
_space_group_symop_operation_xyz
x,y,z
-x,-y,-z
loop_
_atom_site_type_symbol
_atom_site_label
_atom_site_fract_x
_atom_site_fract_y
_atom_site_fract_z
Si Si1 0.007814 0.972375 0.395643
Si Si2 0.137509 0.180852 0.069268
Si Si3 0.861774 0.211220 0.867257
Si Si4 0.233846 0.490004 0.784811
Si Si5 0.489754 0.062104 0.822274
Si Si6 0.364364 0.805977 0.942441
Si Si7 0.199423 0.462316 0.556526
O O1 0.120072 0.063321 0.272252
O O2 0.798685 0.110492 0.223812
O O3 0.102223 0.732994 0.579244
O O4 0.000000 0.000000 0.500000
O O5 0.310172 0.003534 0.158294
O O6 0.155708 0.367546 0.948384
O O7 0.958943 0.276924 0.902049
O O8 0.794994 0.346909 0.640316
O O9 0.693897 0.222618 0.914431
O O10 0.000000 0.000000 0.000000
O O11 0.259158 0.409010 0.730405
O O12 0.444160 0.404918 0.907842
O O13 0.343234 0.300763 0.612262
O O14 0.411027 0.973185 0.811227
O O15 0.500000 0.000000 0.000000
O O16 0.000000 0.500000 0.500000
#
# Coordination Sequence:
#
# PCOD8018854 Si02
#       7
#     2   2   2   2   2   2   2
#     4  11  26  47  67  86 121 166 220 283 322 353
#     4  10  22  41  60  92 125 164 210 258 308 379
#     4  11  21  33  55  87 131 168 204 241 299 376
#     4  11  23  41  64  92 128 162 214 256 312 382
#     4  11  19  36  60  91 132 161 193 243 303 383
#     4  10  23  40  59  94 124 162 211 263 304 378
#     4  12  20  32  59  90 126 172 194 229 311 383
#
# _framework density 20.083514999999998
#
# number of rings (size 3 to 8) (size 9 to 14) (size 15 to 20)
#    0.000    1.143    4.286    4.286    2.000    1.714 
#    0.000    2.857    0.000    0.000    0.000    0.000 
#    0.000    0.000    0.000    0.000    0.000    0.000 
#
# Total GULP energy -173497.718823 kJ/mol
# GULP energy per Si atom -12392.694202 kJ/mol
# Density = 2.003780 g / cm^3
# Si number density = 20.083515 Si / 1000 Ang^3
#
#
#
# Elastic Constant Matrix: (Units=GPa)
#
#
# Indices 1 2 3 4 5 6 
#
# 1 95.5362 23.6571 44.5923 1.8696 2.5402 -8.9784
# 2 23.6571 61.6157 29.8541 10.7669 -3.8728 -4.6336
# 3 44.5923 29.8541 117.8061 -7.0706 -9.0594 -5.0093
# 4 1.8696 10.7669 -7.0706 34.6076 -2.8436 -1.2096
# 5 2.5402 -3.8728 -9.0594 -2.8436 39.4390 0.6857
# 6 -8.9784 -4.6336 -5.0093 -1.2096 0.6857 18.8426
#
#
#
# Elastic Compliance Matrix: (Units=1/GPa)
#
#
# Indices 1 2 3 4 5 6 
#
# 1 0.013795 -0.002730 -0.004561 -0.000856 -0.002348 0.004720
# 2 -0.002730 0.020945 -0.004565 -0.007174 0.000629 0.002153
# 3 -0.004561 -0.004565 0.011854 0.004326 0.002880 0.000028
# 4 -0.000856 -0.007174 0.004326 0.032309 0.002657 0.000955
# 5 -0.002348 0.000629 0.002880 0.002657 0.026439 -0.000990
# 6 0.004720 0.002153 0.000028 0.000955 -0.000990 0.055955
#
#
# Mechanical properties :
#
#
# Convention : Reuss Voigt Hill
#
# Bulk Modulus (GPa) = 43.70272 52.35167 48.02720
# Shear Modulus (GPa) = 25.95570 30.36815 28.16193
#
# Velocity S-wave (km/s) = 3.59888 3.89278 3.74871
# Velocity P-wave (km/s) = 6.25116 6.80651 6.53474
#
# Compressibility (1/GPa) = 0.02288187
#
# Stress axis : x y z
#
# Youngs Moduli (GPa) = 72.49079 47.74480 84.35775
#
# Poissons Ratio (x) = 0.13032 0.38477
# Poissons Ratio (y) = 0.19787 0.38511
# Poissons Ratio (z) = 0.33064 0.21797
#
# Static dielectric constant tensor:
#      x y z
#    x 1.635890 1.073070 -1.676320 
#    y 1.073070 2.858270 0.670320 
#    z -1.676320 0.670320 2.695280 
# 
# 
# High freq. dielectric constant tensor:
#      x y z
#    x 1.798130 -0.005190 0.000910 
#    y -0.005190 1.746950 -0.013480 
#    z 0.000910 -0.013480 1.794980 
# 
# From -- ./inp_files/169166.got.cif
#   From: 2010.06.25/outbox.cif.g09.slc.cpg/sg2_85_cif.got.tgz:169166.got - 2010.06.27 13:26:56.
