data_PCOD8018543
_publ_section_title
;
Structure prediction by ZEFSAII (Michael W. Deem and Ramdas Pophale) SiO2 
 PCOD8018543
Probable space group: P -1
;
_chemical_formula_sum "Si O2"
_cell_formula_units_Z 16
_cell_length_a 19.514136
_cell_length_b 11.538584
_cell_length_c 6.183150
_cell_angle_alpha 124.239358
_cell_angle_beta 45.832881
_cell_angle_gamma 132.017314
_cell_volume 729.741204
_symmetry_space_group_name_H-M "P -1"
_symmetry_group_IT_number 2
_symmetry_cell_setting 'triclinic'
loop_
_space_group_symop_operation_xyz
x,y,z
-x,-y,-z
loop_
_atom_site_type_symbol
_atom_site_label
_atom_site_fract_x
_atom_site_fract_y
_atom_site_fract_z
Si Si1 0.388853 0.378416 0.722358
Si Si2 0.788146 0.625365 0.195404
Si Si3 0.484050 0.169575 0.432334
Si Si4 0.026020 0.169552 0.706627
Si Si5 0.949901 0.603841 0.496848
Si Si6 0.884158 0.265244 0.373197
Si Si7 0.649922 0.183400 0.730035
Si Si8 0.642405 0.406848 0.645913
O O1 0.500000 0.500000 0.500000
O O2 0.291108 0.329616 0.718682
O O3 0.395632 0.218131 0.588009
O O4 0.374384 0.455764 0.056300
O O5 0.873268 0.779960 0.299270
O O6 0.723626 0.480949 0.347649
O O7 0.851567 0.564848 0.836078
O O8 0.529864 0.265305 0.655279
O O9 0.423818 0.981237 0.405171
O O10 0.582403 0.215955 0.097134
O O11 0.061277 0.301580 0.581431
O O12 0.000000 0.000000 0.500000
O O13 0.919559 0.150929 0.044814
O O14 0.934425 0.428814 0.292714
O O15 0.065404 0.704899 0.465669
O O16 0.755136 0.180192 0.593763
O O17 0.691442 0.328708 0.623447
#
# Coordination Sequence:
#
# PCOD8018543 Si02
#       8
#     2   2   2   2   2   2   2   2
#     4  12  23  41  64  95 127 170 221 267 310 380
#     4  11  24  40  70  95 126 171 212 271 322 372
#     4  11  25  41  62  94 134 174 213 268 326 375
#     4  11  25  43  65  99 131 165 209 264 327 393
#     4  10  22  44  67  95 126 164 218 266 312 387
#     4  10  22  40  67  93 124 170 214 262 318 378
#     4  11  24  42  62  95 135 169 214 268 324 386
#     4  12  22  42  67  93 130 169 222 264 318 384
#
# _framework density 21.925581000000001
#
# number of rings (size 3 to 8) (size 9 to 14) (size 15 to 20)
#    0.000    1.000    2.500    4.125    0.000    8.000 
#    0.000    0.000    0.000    1.500    0.000    0.000 
#    0.000    0.000    0.000    0.000    0.000    0.000 
#
# Total GULP energy -198455.040480 kJ/mol
# GULP energy per Si atom -12403.440030 kJ/mol
# Density = 2.187568 g / cm^3
# Si number density = 21.925581 Si / 1000 Ang^3
#
#
#
# Elastic Constant Matrix: (Units=GPa)
#
#
# Indices 1 2 3 4 5 6 
#
# 1 135.9053 29.0498 53.6158 8.8426 -18.9376 21.0275
# 2 29.0498 69.2745 43.8376 23.9142 -5.7535 5.8197
# 3 53.6158 43.8376 95.8699 15.3490 -12.6353 13.3693
# 4 8.8426 23.9142 15.3490 38.6477 0.8966 -1.4377
# 5 -18.9376 -5.7535 -12.6353 0.8966 32.6447 -1.2827
# 6 21.0275 5.8197 13.3693 -1.4377 -1.2827 32.6983
#
#
#
# Elastic Compliance Matrix: (Units=1/GPa)
#
#
# Indices 1 2 3 4 5 6 
#
# 1 0.010555 -0.000833 -0.004229 -0.000494 0.004166 -0.004769
# 2 -0.000833 0.024327 -0.008615 -0.011486 0.000756 -0.000747
# 3 -0.004229 -0.008615 0.017644 -0.000881 0.002768 -0.002891
# 4 -0.000494 -0.011486 -0.000881 0.033676 -0.003417 0.004069
# 5 0.004166 0.000756 0.002768 -0.003417 0.034240 -0.002752
# 6 -0.004769 -0.000747 -0.002891 0.004069 -0.002752 0.035035
#
#
# Mechanical properties :
#
#
# Convention : Reuss Voigt Hill
#
# Bulk Modulus (GPa) = 39.72644 61.56179 50.64411
# Shear Modulus (GPa) = 26.14766 32.43458 29.29112
#
# Velocity S-wave (km/s) = 3.45710 3.85034 3.65901
# Velocity P-wave (km/s) = 5.83896 6.92137 6.40308
#
# Compressibility (1/GPa) = 0.02517215
#
# Stress axis : x y z
#
# Youngs Moduli (GPa) = 94.74339 41.10647 56.67527
#
# Poissons Ratio (x) = 0.03424 0.23967
# Poissons Ratio (y) = 0.07891 0.48827
# Poissons Ratio (z) = 0.40066 0.35414
#
# Static dielectric constant tensor:
#      x y z
#    x 4.376240 0.078350 -0.129650 
#    y 0.078350 3.772050 0.165570 
#    z -0.129650 0.165570 4.037180 
# 
# 
# High freq. dielectric constant tensor:
#      x y z
#    x 1.874980 0.009880 -0.005520 
#    y 0.009880 1.851930 0.010200 
#    z -0.005520 0.010200 1.864600 
# 
# From -- ./inp_files/70905.got.cif
#   From: 2010.06.25/outbox.cif.g09.slc.cpg/sg2_36_cif.got.tgz:70905.got - 2010.06.27 13:26:56.
