data_PCOD8018991
_publ_section_title
;
Structure prediction by ZEFSAII (Michael W. Deem and Ramdas Pophale) SiO2 
 PCOD8018991
Probable space group: P -1
;
_chemical_formula_sum "Si O2"
_cell_formula_units_Z 16
_cell_length_a 27.185123
_cell_length_b 15.093399
_cell_length_c 18.761274
_cell_angle_alpha 19.911644
_cell_angle_beta 18.747853
_cell_angle_gamma 20.966338
_cell_volume 773.379015
_symmetry_space_group_name_H-M "P -1"
_symmetry_group_IT_number 2
_symmetry_cell_setting 'triclinic'
loop_
_space_group_symop_operation_xyz
x,y,z
-x,-y,-z
loop_
_atom_site_type_symbol
_atom_site_label
_atom_site_fract_x
_atom_site_fract_y
_atom_site_fract_z
Si Si1 0.036454 0.844554 0.899406
Si Si2 0.464793 0.447831 0.391058
Si Si3 0.623946 0.858469 0.874149
Si Si4 0.853212 0.087709 0.449738
Si Si5 0.325268 0.966138 0.471670
Si Si6 0.130279 0.568973 0.508157
Si Si7 0.450303 0.322827 0.345026
Si Si8 0.237257 0.552442 0.213538
O O1 0.092464 0.756264 0.806969
O O2 0.897289 0.162192 0.851011
O O3 0.965535 0.630686 0.191284
O O4 0.192127 0.824155 0.750837
O O5 0.292749 0.686064 0.475197
O O6 0.432476 0.337845 0.443278
O O7 0.533892 0.186768 0.547672
O O8 0.612737 0.561847 0.094916
O O9 0.573657 0.057603 0.722625
O O10 0.803563 0.843481 0.664809
O O11 0.500000 0.000000 0.000000
O O12 0.006891 0.903139 0.429357
O O13 0.227046 0.294810 0.377419
O O14 0.273280 0.521961 0.404955
O O15 0.207421 0.499478 0.376404
O O16 0.500000 0.000000 0.500000
O O17 0.581663 0.440686 0.046444
#
# Coordination Sequence:
#
# PCOD8018991 Si02
#       8
#     2   2   2   2   2   2   2   2
#     4  10  22  41  63  94 131 161 205 259 315 380
#     4  11  23  40  63  96 128 165 213 257 307 376
#     4   9  19  38  62  92 128 163 204 256 307 372
#     4   9  22  40  63  94 126 163 210 256 314 375
#     4  11  22  37  65  98 128 165 202 259 322 372
#     4  11  23  41  66  87 125 176 204 261 315 358
#     4  12  24  44  67  88 126 167 217 263 307 370
#     4  11  23  42  64  95 123 163 218 259 316 371
#
# _framework density 20.688433
#
# number of rings (size 3 to 8) (size 9 to 14) (size 15 to 20)
#    0.000    1.500    2.500    2.250    0.000    7.500 
#    0.000    0.625    0.000    0.000    0.000    0.000 
#    0.000    0.000    0.000    0.000    0.000    0.000 
#
# Total GULP energy -198382.275139 kJ/mol
# GULP energy per Si atom -12398.892196 kJ/mol
# Density = 2.064135 g / cm^3
# Si number density = 20.688433 Si / 1000 Ang^3
#
#
#
# Elastic Constant Matrix: (Units=GPa)
#
#
# Indices 1 2 3 4 5 6 
#
# 1 141.5536 61.5279 48.3917 5.0021 20.0052 -6.0824
# 2 61.5279 105.6255 31.7392 5.4908 10.6329 -4.7370
# 3 48.3917 31.7392 110.6450 9.9269 20.0422 6.2541
# 4 5.0021 5.4908 9.9269 24.3723 1.7597 0.4098
# 5 20.0052 10.6329 20.0422 1.7597 31.3200 -3.5709
# 6 -6.0824 -4.7370 6.2541 0.4098 -3.5709 34.0296
#
#
#
# Elastic Compliance Matrix: (Units=1/GPa)
#
#
# Indices 1 2 3 4 5 6 
#
# 1 0.010698 -0.005032 -0.002754 0.000269 -0.003221 0.001377
# 2 -0.005032 0.012963 -0.001459 -0.001310 -0.000044 0.001184
# 3 -0.002754 -0.001459 0.012228 -0.003611 -0.005767 -0.003504
# 4 0.000269 -0.001310 -0.003611 0.042727 0.000187 0.000035
# 5 -0.003221 -0.000044 -0.005767 0.000187 0.038192 0.004483
# 6 0.001377 0.001184 -0.003504 0.000035 0.004483 0.030911
#
#
# Mechanical properties :
#
#
# Convention : Reuss Voigt Hill
#
# Bulk Modulus (GPa) = 57.47726 71.23796 64.35761
# Shear Modulus (GPa) = 29.06847 32.35541 30.71194
#
# Velocity S-wave (km/s) = 3.75248 3.95895 3.85710
# Velocity P-wave (km/s) = 6.82769 7.44354 7.14226
#
# Compressibility (1/GPa) = 0.01739819
#
# Stress axis : x y z
#
# Youngs Moduli (GPa) = 93.47493 77.14378 81.78246
#
# Poissons Ratio (x) = 0.38821 0.22522
# Poissons Ratio (y) = 0.47039 0.11932
# Poissons Ratio (z) = 0.25742 0.11255
#
# Static dielectric constant tensor:
#      x y z
#    x 3.908320 -0.035050 -0.015180 
#    y -0.035050 3.636080 0.152440 
#    z -0.015180 0.152440 4.130120 
# 
# 
# High freq. dielectric constant tensor:
#      x y z
#    x 1.812880 -0.005970 0.013240 
#    y -0.005970 1.800710 0.007510 
#    z 0.013240 0.007510 1.820420 
# 
# From -- ./inp_files/77611.got.cif
#   From: 2010.06.25/outbox.cif.g09.slc.cpg/sg2_39_cif.got.tgz:77611.got - 2010.06.27 13:26:56.
