data_PCOD8018433
_publ_section_title
;
Structure prediction by ZEFSAII (Michael W. Deem and Ramdas Pophale) SiO2 
 PCOD8018433
Probable space group: P -1
;
_chemical_formula_sum "Si O2"
_cell_formula_units_Z 14
_cell_length_a 19.653441
_cell_length_b 22.234332
_cell_length_c 11.373906
_cell_angle_alpha 45.102074
_cell_angle_beta 43.695022
_cell_angle_gamma 12.038932
_cell_volume 716.118323
_symmetry_space_group_name_H-M "P -1"
_symmetry_group_IT_number 2
_symmetry_cell_setting 'triclinic'
loop_
_space_group_symop_operation_xyz
x,y,z
-x,-y,-z
loop_
_atom_site_type_symbol
_atom_site_label
_atom_site_fract_x
_atom_site_fract_y
_atom_site_fract_z
Si Si1 0.893689 0.825795 0.874822
Si Si2 0.765442 0.851646 0.337718
Si Si3 0.949204 0.361237 0.476298
Si Si4 0.892144 0.176692 0.445082
Si Si5 0.194930 0.032746 0.449438
Si Si6 0.808860 0.674362 0.877657
Si Si7 0.207527 0.427741 0.158254
O O1 0.855167 0.851131 0.746311
O O2 0.966087 0.865369 0.760046
O O3 0.212711 0.510244 0.960605
O O4 0.562601 0.059266 0.024778
O O5 0.978979 0.705838 0.383351
O O6 0.010316 0.605096 0.280070
O O7 0.500000 0.000000 0.500000
O O8 0.580949 0.086977 0.191643
O O9 0.000914 0.225454 0.541610
O O10 0.201411 0.217889 0.291267
O O11 0.579621 0.700895 0.453222
O O12 0.500000 0.500000 0.500000
O O13 0.039013 0.073389 0.536009
O O14 0.000000 0.000000 0.500000
O O15 0.982569 0.484225 0.810825
O O16 0.000000 0.500000 0.000000
#
# Coordination Sequence:
#
# PCOD8018433 Si02
#       7
#     2   2   2   2   2   2   2
#     4  10  24  37  62  92 128 149 208 245 309 377
#     4  12  25  38  59  80 124 178 227 236 281 341
#     4  12  23  39  58  89 128 175 200 251 283 357
#     4  10  22  40  66  92 123 152 190 257 330 379
#     4  10  24  38  62  92 127 147 213 241 315 369
#     4  12  23  36  60  87 132 167 194 244 312 352
#     4  12  24  40  55  86 123 165 213 252 277 357
#
# _framework density 19.549842999999999
#
# number of rings (size 3 to 8) (size 9 to 14) (size 15 to 20)
#    0.857    0.000    4.286    3.000    6.000    1.143 
#    0.000    0.000    0.000    0.000    0.000   20.000 
#    0.000    0.000    0.000    0.000    0.000    0.000 
#
# Total GULP energy -173465.707618 kJ/mol
# GULP energy per Si atom -12390.407687 kJ/mol
# Density = 1.950535 g / cm^3
# Si number density = 19.549843 Si / 1000 Ang^3
#
#
#
# Elastic Constant Matrix: (Units=GPa)
#
#
# Indices 1 2 3 4 5 6 
#
# 1 165.8574 49.0467 51.6966 -11.9016 20.3506 11.8097
# 2 49.0467 99.8490 45.3400 -13.0798 4.9031 0.8210
# 3 51.6966 45.3400 54.7332 -23.7812 9.8878 -10.4990
# 4 -11.9016 -13.0798 -23.7812 30.6747 0.3353 2.4905
# 5 20.3506 4.9031 9.8878 0.3353 43.7627 -0.1215
# 6 11.8097 0.8210 -10.4990 2.4905 -0.1215 37.4725
#
#
#
# Elastic Compliance Matrix: (Units=1/GPa)
#
#
# Indices 1 2 3 4 5 6 
#
# 1 0.010482 0.000530 -0.013895 -0.005906 -0.001768 -0.006822
# 2 0.000530 0.017738 -0.019784 -0.007138 0.002275 -0.005617
# 3 -0.013895 -0.019784 0.070238 0.038931 -0.007429 0.021880
# 4 -0.005906 -0.007138 0.038931 0.056767 -0.005659 0.009134
# 5 -0.001768 0.002275 -0.007429 -0.005659 0.025137 -0.001116
# 6 -0.006822 -0.005617 0.021880 0.009134 -0.001116 0.034479
#
#
# Mechanical properties :
#
#
# Convention : Reuss Voigt Hill
#
# Bulk Modulus (GPa) = 31.09488 68.06737 49.58112
# Shear Modulus (GPa) = 17.13156 34.00572 25.56864
#
# Velocity S-wave (km/s) = 2.96345 4.17518 3.62037
# Velocity P-wave (km/s) = 5.25827 7.62468 6.54924
#
# Compressibility (1/GPa) = 0.03215964
#
# Stress axis : x y z
#
# Youngs Moduli (GPa) = 95.39732 56.37633 14.23741
#
# Poissons Ratio (x) = -0.02986 0.19783
# Poissons Ratio (y) = -0.05053 0.28167
# Poissons Ratio (z) = 1.32554 1.11534
#
# Static dielectric constant tensor:
#      x y z
#    x 3.809460 0.071200 0.218950 
#    y 0.071200 3.581170 -0.176990 
#    z 0.218950 -0.176990 3.579660 
# 
# 
# High freq. dielectric constant tensor:
#      x y z
#    x 1.768440 0.011570 0.020410 
#    y 0.011570 1.763520 -0.019930 
#    z 0.020410 -0.019930 1.731730 
# 
# From -- ./inp_files/472878.got.cif
#   From: 2010.06.25/outbox.cif.g09.slc.cpg/sg2_237_cif.got.tgz:472878.got - 2010.06.27 13:26:56.
