data_PCOD8018362
_publ_section_title
;
Structure prediction by ZEFSAII (Michael W. Deem and Ramdas Pophale) SiO2 
 PCOD8018362
Probable space group: P -1
;
_chemical_formula_sum "Si O2"
_cell_formula_units_Z 16
_cell_length_a 18.983204
_cell_length_b 25.741140
_cell_length_c 4.817446
_cell_angle_alpha 64.698130
_cell_angle_beta 114.764016
_cell_angle_gamma 162.025865
_cell_volume 656.096781
_symmetry_space_group_name_H-M "P -1"
_symmetry_group_IT_number 2
_symmetry_cell_setting 'triclinic'
loop_
_space_group_symop_operation_xyz
x,y,z
-x,-y,-z
loop_
_atom_site_type_symbol
_atom_site_label
_atom_site_fract_x
_atom_site_fract_y
_atom_site_fract_z
Si Si1 0.742437 0.117171 0.570359
Si Si2 0.292509 0.750569 0.880825
Si Si3 0.754084 0.682226 0.609421
Si Si4 0.485046 0.652897 0.579406
Si Si5 0.139285 0.725176 0.093371
Si Si6 0.228323 0.177368 0.821259
Si Si7 0.801254 0.441402 0.805687
Si Si8 0.866640 0.690654 0.290586
O O1 0.770068 0.158176 0.209185
O O2 0.897258 0.169313 0.760417
O O3 0.834903 0.234839 0.642254
O O4 0.480191 0.918242 0.642551
O O5 0.342872 0.717690 0.021035
O O6 0.289415 0.772700 0.145296
O O7 0.037849 0.587213 0.699644
O O8 0.500000 0.500000 0.500000
O O9 0.826954 0.798531 0.442942
O O10 0.914976 0.753953 0.521784
O O11 0.771374 0.674076 0.972666
O O12 0.696149 0.807762 0.356790
O O13 0.356943 0.624720 0.475505
O O14 0.313332 0.485842 0.554930
O O15 0.566113 0.684960 0.934665
O O16 0.876157 0.525471 0.027317
O O17 0.000000 0.000000 0.000000
#
# Coordination Sequence:
#
# PCOD8018362 Si02
#       8
#     2   2   2   2   2   2   2   2
#     4  12  23  40  68 100 138 173 226 279 326 383
#     4   9  21  44  64 100 139 179 220 277 330 394
#     4  12  23  43  69  95 129 169 218 275 327 392
#     4  12  23  44  71  95 133 173 223 274 325 406
#     4  10  22  40  65  94 131 182 225 267 325 392
#     4  12  28  45  68  98 133 173 215 273 345 400
#     4   9  22  42  70  97 135 181 225 264 339 396
#     4  12  23  39  71 104 126 172 227 271 322 395
#
# _framework density 24.386645000000001
#
# number of rings (size 3 to 8) (size 9 to 14) (size 15 to 20)
#    0.750    0.250    3.750    3.000    1.750    2.000 
#    0.000    6.250    0.000    0.000    0.000    0.000 
#    0.000    0.000    0.000    0.000    0.000    0.000 
#
# Total GULP energy -198311.008206 kJ/mol
# GULP energy per Si atom -12394.438013 kJ/mol
# Density = 2.433114 g / cm^3
# Si number density = 24.386645 Si / 1000 Ang^3
#
#
#
# Elastic Constant Matrix: (Units=GPa)
#
#
# Indices 1 2 3 4 5 6 
#
# 1 116.4774 28.0546 38.4418 -5.2005 21.9371 7.7453
# 2 28.0546 56.2246 6.9266 -11.4542 10.6415 0.4125
# 3 38.4418 6.9266 89.1743 -5.6008 20.1904 -0.6676
# 4 -5.2005 -11.4542 -5.6008 32.1459 -3.3348 5.9666
# 5 21.9371 10.6415 20.1904 -3.3348 47.7073 -6.3553
# 6 7.7453 0.4125 -0.6676 5.9666 -6.3553 33.7768
#
#
#
# Elastic Compliance Matrix: (Units=1/GPa)
#
#
# Indices 1 2 3 4 5 6 
#
# 1 0.011902 -0.004870 -0.004087 -0.000233 -0.003112 -0.003295
# 2 -0.004870 0.022062 0.001496 0.007205 -0.002938 -0.000949
# 3 -0.004087 0.001496 0.013930 0.001848 -0.004210 0.000076
# 4 -0.000233 0.007205 0.001848 0.035063 -0.000673 -0.006318
# 5 -0.003112 -0.002938 -0.004210 -0.000673 0.025527 0.005588
# 6 -0.003295 -0.000949 0.000076 -0.006318 0.005588 0.032542
#
#
# Mechanical properties :
#
#
# Convention : Reuss Voigt Hill
#
# Bulk Modulus (GPa) = 30.32815 45.41358 37.87087
# Shear Modulus (GPa) = 29.95128 35.28956 32.62042
#
# Velocity S-wave (km/s) = 3.50835 3.80818 3.66134
# Velocity P-wave (km/s) = 5.37352 6.16434 5.78247
#
# Compressibility (1/GPa) = 0.03297267
#
# Stress axis : x y z
#
# Youngs Moduli (GPa) = 84.01964 45.32639 71.78940
#
# Poissons Ratio (x) = 0.22072 0.29342
# Poissons Ratio (y) = 0.40914 -0.10741
# Poissons Ratio (z) = 0.34341 -0.06782
#
# Static dielectric constant tensor:
#      x y z
#    x 0.533640 1.964260 -2.481560 
#    y 1.964260 3.360170 1.152540 
#    z -2.481560 1.152540 2.779880 
# 
# 
# High freq. dielectric constant tensor:
#      x y z
#    x 1.971480 0.004710 0.008590 
#    y 0.004710 1.947990 -0.007070 
#    z 0.008590 -0.007070 1.973620 
# 
# From -- ./inp_files/112773.got.cif
#   From: 2010.06.25/outbox.cif.g09.slc.cpg/sg2_57_cif.got.tgz:112773.got - 2010.06.27 13:26:56.
