data_PCOD8018163
_publ_section_title
;
Structure prediction by ZEFSAII (Michael W. Deem and Ramdas Pophale) SiO2 
 PCOD8018163
Probable space group: P -1
;
_chemical_formula_sum "Si O2"
_cell_formula_units_Z 14
_cell_length_a 12.059010
_cell_length_b 10.075988
_cell_length_c 10.275489
_cell_angle_alpha 59.090666
_cell_angle_beta 115.059055
_cell_angle_gamma 74.499214
_cell_volume 758.449326
_symmetry_space_group_name_H-M "P -1"
_symmetry_group_IT_number 2
_symmetry_cell_setting 'triclinic'
loop_
_space_group_symop_operation_xyz
x,y,z
-x,-y,-z
loop_
_atom_site_type_symbol
_atom_site_label
_atom_site_fract_x
_atom_site_fract_y
_atom_site_fract_z
Si Si1 0.360217 0.711599 0.677287
Si Si2 0.361271 0.712990 0.967649
Si Si3 0.673214 0.927031 0.138258
Si Si4 0.149196 0.677418 0.735869
Si Si5 0.864006 0.709248 0.590320
Si Si6 0.175739 0.314170 0.920692
Si Si7 0.671611 0.934373 0.626386
O O1 0.498104 0.497386 0.792707
O O2 0.201851 0.732287 0.605481
O O3 0.330055 0.879981 0.485205
O O4 0.413784 0.727785 0.840524
O O5 0.326548 0.887198 0.952026
O O6 0.206701 0.725109 0.869567
O O7 0.500000 0.000000 0.000000
O O8 0.740644 0.799310 0.367545
O O9 0.783882 0.791738 0.143629
O O10 0.238978 0.440730 0.896457
O O11 0.961298 0.796934 0.585184
O O12 0.776320 0.767520 0.654077
O O13 0.985635 0.469757 0.762260
O O14 0.253098 0.151726 0.152897
O O15 0.500000 0.000000 0.500000
#
# Coordination Sequence:
#
# PCOD8018163 Si02
#       7
#     2   2   2   2   2   2   2
#     4   9  18  35  61  91 113 154 209 249 284 348
#     4   9  18  35  61  91 113 154 209 249 284 348
#     4  12  22  36  61  93 123 162 201 249 305 366
#     4   8  18  36  64  82 118 150 209 246 286 345
#     4  10  22  40  63  90 121 162 206 250 302 359
#     4  10  23  38  58  97 125 151 196 259 313 352
#     4  12  22  36  61  93 123 162 201 249 305 366
#
# _framework density 18.458715000000002
#
# number of rings (size 3 to 8) (size 9 to 14) (size 15 to 20)
#    1.714    0.286    1.429    3.429    0.000    2.286 
#    0.000    0.714    0.000    5.143    0.000    0.000 
#    0.000    0.000    0.000    0.000    0.000    0.000 
#
# Total GULP energy -173486.478611 kJ/mol
# GULP energy per Si atom -12391.891329 kJ/mol
# Density = 1.841670 g / cm^3
# Si number density = 18.458715 Si / 1000 Ang^3
#
#
#
# Elastic Constant Matrix: (Units=GPa)
#
#
# Indices 1 2 3 4 5 6 
#
# 1 86.4677 17.7015 16.3439 -4.5764 8.5056 5.9759
# 2 17.7015 111.5147 8.8772 -4.9132 1.4762 8.2561
# 3 16.3439 8.8772 67.4187 -9.2536 1.6705 11.0068
# 4 -4.5764 -4.9132 -9.2536 28.7879 4.0626 -1.3324
# 5 8.5056 1.4762 1.6705 4.0626 37.6219 -6.7436
# 6 5.9759 8.2561 11.0068 -1.3324 -6.7436 30.8684
#
#
#
# Elastic Compliance Matrix: (Units=1/GPa)
#
#
# Indices 1 2 3 4 5 6 
#
# 1 0.012855 -0.001613 -0.002328 0.001389 -0.003225 -0.001872
# 2 -0.001613 0.009470 -0.000321 0.001229 -0.000514 -0.002165
# 3 -0.002328 -0.000321 0.017116 0.005065 -0.001797 -0.005741
# 4 0.001389 0.001229 0.005065 0.037409 -0.004962 -0.001873
# 5 -0.003225 -0.000514 -0.001797 -0.004962 0.029306 0.007590
# 6 -0.001872 -0.002165 -0.005741 -0.001873 0.007590 0.036961
#
#
# Mechanical properties :
#
#
# Convention : Reuss Voigt Hill
#
# Bulk Modulus (GPa) = 32.34357 39.02738 35.68548
# Shear Modulus (GPa) = 30.87416 34.28754 32.58085
#
# Velocity S-wave (km/s) = 4.09419 4.31458 4.20583
# Velocity P-wave (km/s) = 6.31743 6.78305 6.55438
#
# Compressibility (1/GPa) = 0.03091805
#
# Stress axis : x y z
#
# Youngs Moduli (GPa) = 77.78880 105.59373 58.42416
#
# Poissons Ratio (x) = 0.17031 0.13601
# Poissons Ratio (y) = 0.12546 0.01876
# Poissons Ratio (z) = 0.18109 0.03390
#
# Static dielectric constant tensor:
#      x y z
#    x 3.245920 -0.015670 0.088370 
#    y -0.015670 3.309700 -0.165650 
#    z 0.088370 -0.165650 3.219780 
# 
# 
# High freq. dielectric constant tensor:
#      x y z
#    x 1.703320 -0.001010 0.013380 
#    y -0.001010 1.708390 -0.023510 
#    z 0.013380 -0.023510 1.702520 
# 
# From -- ./inp_files/252180.got.cif
#   From: 2010.06.25/outbox.cif.g09.slc.cpg/sg2_127_cif.got.tgz:252180.got - 2010.06.27 13:26:56.
