data_PCOD8018455
_publ_section_title
;
Structure prediction by ZEFSAII (Michael W. Deem and Ramdas Pophale) SiO2 
 PCOD8018455
Probable space group: P -1
;
_chemical_formula_sum "Si O2"
_cell_formula_units_Z 16
_cell_length_a 19.603442
_cell_length_b 24.436223
_cell_length_c 8.870154
_cell_angle_alpha 148.130676
_cell_angle_beta 43.104400
_cell_angle_gamma 160.108333
_cell_volume 705.690705
_symmetry_space_group_name_H-M "P -1"
_symmetry_group_IT_number 2
_symmetry_cell_setting 'triclinic'
loop_
_space_group_symop_operation_xyz
x,y,z
-x,-y,-z
loop_
_atom_site_type_symbol
_atom_site_label
_atom_site_fract_x
_atom_site_fract_y
_atom_site_fract_z
Si Si1 0.953082 0.718117 0.389700
Si Si2 0.657889 0.563423 0.320323
Si Si3 0.741979 0.516085 0.568239
Si Si4 0.277875 0.307221 0.816632
Si Si5 0.618938 0.881052 0.180082
Si Si6 0.979567 0.612465 0.642607
Si Si7 0.744403 0.942546 0.781151
Si Si8 0.227531 0.637741 0.310386
O O1 0.894194 0.766069 0.493962
O O2 0.776728 0.552649 0.420669
O O3 0.940913 0.596514 0.043082
O O4 0.192215 0.949777 0.607921
O O5 0.500000 0.500000 0.500000
O O6 0.674137 0.602032 0.210933
O O7 0.560506 0.361601 0.035307
O O8 0.484895 0.269479 0.431656
O O9 0.857661 0.523810 0.474607
O O10 0.849283 0.719490 0.948666
O O11 0.156599 0.083393 0.466938
O O12 0.500000 0.500000 0.000000
O O13 0.478121 0.857679 0.362918
O O14 0.714665 0.943575 0.008202
O O15 0.159750 0.691833 0.504305
O O16 0.800838 0.408095 0.571642
O O17 0.101226 0.829714 0.012467
#
# Coordination Sequence:
#
# PCOD8018455 Si02
#       8
#     2   2   2   2   2   2   2   2
#     4  11  23  41  67  98 133 173 225 265 327 396
#     4  11  20  40  65  95 138 175 216 274 314 385
#     4  11  21  41  65  99 134 170 216 275 325 387
#     4  10  22  40  66  94 136 177 207 267 328 378
#     4  11  22  43  66  96 134 175 220 266 328 396
#     4  11  25  44  70  97 127 171 223 277 338 391
#     4  11  22  43  66  98 132 171 224 265 325 401
#     4  10  25  47  66  95 133 169 218 284 334 386
#
# _framework density 22.672822
#
# number of rings (size 3 to 8) (size 9 to 14) (size 15 to 20)
#    0.000    1.250    5.000    2.250    0.000    6.000 
#    0.000    2.500    0.000    0.000    0.000    0.000 
#    0.000    0.000    0.000    0.000    0.000    0.000 
#
# Total GULP energy -198339.892998 kJ/mol
# GULP energy per Si atom -12396.243312 kJ/mol
# Density = 2.262122 g / cm^3
# Si number density = 22.672822 Si / 1000 Ang^3
#
#
#
# Elastic Constant Matrix: (Units=GPa)
#
#
# Indices 1 2 3 4 5 6 
#
# 1 157.8759 32.6978 50.3991 -14.7208 -0.0967 18.6951
# 2 32.6978 65.1586 11.5493 -16.7106 -5.8363 19.5510
# 3 50.3991 11.5493 79.7666 -15.3765 -2.7360 15.8995
# 4 -14.7208 -16.7106 -15.3765 38.2607 6.1878 -2.4189
# 5 -0.0967 -5.8363 -2.7360 6.1878 39.7196 -3.1017
# 6 18.6951 19.5510 15.8995 -2.4189 -3.1017 42.9768
#
#
#
# Elastic Compliance Matrix: (Units=1/GPa)
#
#
# Indices 1 2 3 4 5 6 
#
# 1 0.008665 -0.003424 -0.004924 -0.000031 -0.000852 -0.000453
# 2 -0.003424 0.021459 0.002410 0.008261 0.001352 -0.008602
# 3 -0.004924 0.002410 0.017435 0.005805 0.000243 -0.005060
# 4 -0.000031 0.008261 0.005805 0.032401 -0.003773 -0.004341
# 5 -0.000852 0.001352 0.000243 -0.003773 0.026082 0.001335
# 6 -0.000453 -0.008602 -0.005060 -0.004341 0.001335 0.029103
#
#
# Mechanical properties :
#
#
# Convention : Reuss Voigt Hill
#
# Bulk Modulus (GPa) = 28.02507 54.67706 41.35107
# Shear Modulus (GPa) = 31.46309 38.06841 34.76575
#
# Velocity S-wave (km/s) = 3.72923 4.10205 3.92007
# Velocity P-wave (km/s) = 5.56150 6.82669 6.22632
#
# Compressibility (1/GPa) = 0.03568233
#
# Stress axis : x y z
#
# Youngs Moduli (GPa) = 115.40088 46.60078 57.35585
#
# Poissons Ratio (x) = 0.15956 0.28243
# Poissons Ratio (y) = 0.39513 -0.13821
# Poissons Ratio (z) = 0.56826 -0.11229
#
# Static dielectric constant tensor:
#      x y z
#    x 4.190930 0.322640 -0.091280 
#    y 0.322640 4.115950 -0.193130 
#    z -0.091280 -0.193130 4.248400 
# 
# 
# High freq. dielectric constant tensor:
#      x y z
#    x 1.907380 0.022390 0.008390 
#    y 0.022390 1.897960 -0.009610 
#    z 0.008390 -0.009610 1.889590 
# 
# From -- ./inp_files/215609.got.cif
#   From: 2010.06.25/outbox.cif.g09.slc.cpg/sg2_108_cif.got.tgz:215609.got - 2010.06.27 13:26:56.
