data_PCOD8018581
_publ_section_title
;
Structure prediction by ZEFSAII (Michael W. Deem and Ramdas Pophale) SiO2 
 PCOD8018581
Probable space group: P -1
;
_chemical_formula_sum "Si O2"
_cell_formula_units_Z 16
_cell_length_a 8.686529
_cell_length_b 12.678976
_cell_length_c 14.399437
_cell_angle_alpha 71.461016
_cell_angle_beta 130.464663
_cell_angle_gamma 68.368486
_cell_volume 690.752355
_symmetry_space_group_name_H-M "P -1"
_symmetry_group_IT_number 2
_symmetry_cell_setting 'triclinic'
loop_
_space_group_symop_operation_xyz
x,y,z
-x,-y,-z
loop_
_atom_site_type_symbol
_atom_site_label
_atom_site_fract_x
_atom_site_fract_y
_atom_site_fract_z
Si Si1 0.491708 0.690289 0.617517
Si Si2 0.612654 0.960061 0.949496
Si Si3 0.652688 0.314921 0.634137
Si Si4 0.614678 0.188132 0.816745
Si Si5 0.329688 0.669099 0.743269
Si Si6 0.406770 0.686161 0.032692
Si Si7 0.271218 0.326963 0.991952
Si Si8 0.778421 0.959483 0.583336
O O1 0.307846 0.764390 0.425781
O O2 0.311734 0.683797 0.620237
O O3 0.882599 0.488917 0.820778
O O4 0.424234 0.843642 0.584312
O O5 0.440332 0.143113 0.780046
O O6 0.558082 0.870403 0.895171
O O7 0.003234 0.814029 0.143998
O O8 0.500000 0.000000 0.000000
O O9 0.500000 0.500000 0.500000
O O10 0.446549 0.326247 0.623567
O O11 0.578571 0.282759 0.864839
O O12 0.000000 0.000000 0.000000
O O13 0.530855 0.472258 0.908026
O O14 0.963031 0.827876 0.601868
O O15 0.532459 0.690041 0.848675
O O16 0.696031 0.625538 0.107479
O O17 0.047382 0.868965 0.794490
O O18 0.500000 0.000000 0.500000
#
# Coordination Sequence:
#
# PCOD8018581 Si02
#       8
#     2   2   2   2   2   2   2   2
#     4  12  24  44  64  96 136 170 222 277 332 385
#     4  11  22  43  67  98 131 173 227 271 334 402
#     4  11  23  43  64  95 134 174 221 280 332 381
#     4  10  22  40  67  98 127 178 226 266 331 400
#     4  11  25  43  68 100 129 179 224 266 336 403
#     4  11  22  44  70  94 133 174 226 273 327 410
#     4  11  23  42  70  95 136 175 220 273 332 407
#     4  11  23  43  66  97 133 167 215 277 339 392
#
# _framework density 23.163149000000001
#
# number of rings (size 3 to 8) (size 9 to 14) (size 15 to 20)
#    0.000    1.000    2.500    6.000    3.500    0.000 
#    2.250    3.750    0.000    0.000    0.000    0.000 
#    0.000    0.000    0.000    0.000    0.000    0.000 
#
# Total GULP energy -198353.310650 kJ/mol
# GULP energy per Si atom -12397.081916 kJ/mol
# Density = 2.311043 g / cm^3
# Si number density = 23.163149 Si / 1000 Ang^3
#
#
#
# Elastic Constant Matrix: (Units=GPa)
#
#
# Indices 1 2 3 4 5 6 
#
# 1 180.2018 66.2529 48.1577 -11.1095 -32.4954 -5.5432
# 2 66.2529 137.7230 29.6517 -17.8956 -14.4412 2.6602
# 3 48.1577 29.6517 49.2817 -15.0644 -16.3682 -2.3517
# 4 -11.1095 -17.8956 -15.0644 38.0174 0.7233 -10.2950
# 5 -32.4954 -14.4412 -16.3682 0.7233 47.1185 -3.9789
# 6 -5.5432 2.6602 -2.3517 -10.2950 -3.9789 50.0562
#
#
#
# Elastic Compliance Matrix: (Units=1/GPa)
#
#
# Indices 1 2 3 4 5 6 
#
# 1 0.008700 -0.002685 -0.006092 -0.000959 0.003149 0.000873
# 2 -0.002685 0.009394 -0.002151 0.002693 0.000211 -0.000327
# 3 -0.006092 -0.002151 0.033520 0.011418 0.006939 0.003914
# 4 -0.000959 0.002693 0.011418 0.033785 0.004251 0.007574
# 5 0.003149 0.000211 0.006939 0.004251 0.026110 0.003613
# 6 0.000873 -0.000327 0.003914 0.007574 0.003613 0.022120
#
#
# Mechanical properties :
#
#
# Convention : Reuss Voigt Hill
#
# Bulk Modulus (GPa) = 33.60270 72.81455 53.20862
# Shear Modulus (GPa) = 30.22889 41.91472 36.07181
#
# Velocity S-wave (km/s) = 3.61646 4.25849 3.95054
# Velocity P-wave (km/s) = 5.65480 7.46213 6.62043
#
# Compressibility (1/GPa) = 0.02975951
#
# Stress axis : x y z
#
# Youngs Moduli (GPa) = 114.94126 106.45120 29.83290
#
# Poissons Ratio (x) = 0.28582 0.18173
# Poissons Ratio (y) = 0.30861 0.06416
# Poissons Ratio (z) = 0.70017 0.22895
#
# Static dielectric constant tensor:
#      x y z
#    x 4.833740 0.184460 -0.451700 
#    y 0.184460 4.569370 -0.457390 
#    z -0.451700 -0.457390 4.552050 
# 
# 
# High freq. dielectric constant tensor:
#      x y z
#    x 1.936640 -0.001940 -0.017020 
#    y -0.001940 1.927920 -0.016510 
#    z -0.017020 -0.016510 1.888290 
# 
# From -- ./inp_files/217522.got.cif
#   From: 2010.06.25/outbox.cif.g09.slc.cpg/sg2_109_cif.got.tgz:217522.got - 2010.06.27 13:26:56.
