data_PCOD8018070
_publ_section_title
;
Structure prediction by ZEFSAII (Michael W. Deem and Ramdas Pophale) SiO2 
 PCOD8018070
Probable space group: P -1
;
_chemical_formula_sum "Si O2"
_cell_formula_units_Z 14
_cell_length_a 8.643902
_cell_length_b 7.394860
_cell_length_c 14.890250
_cell_angle_alpha 81.593272
_cell_angle_beta 55.012383
_cell_angle_gamma 107.322068
_cell_volume 680.559781
_symmetry_space_group_name_H-M "P -1"
_symmetry_group_IT_number 2
_symmetry_cell_setting 'triclinic'
loop_
_space_group_symop_operation_xyz
x,y,z
-x,-y,-z
loop_
_atom_site_type_symbol
_atom_site_label
_atom_site_fract_x
_atom_site_fract_y
_atom_site_fract_z
Si Si1 0.098615 0.195417 0.889094
Si Si2 0.232075 0.786745 0.556560
Si Si3 0.745629 0.505457 0.750775
Si Si4 0.504466 0.233463 0.377679
Si Si5 0.469011 0.643795 0.346798
Si Si6 0.611719 0.375765 0.143452
Si Si7 0.706898 0.208178 0.944194
O O1 0.281330 0.193629 0.763805
O O2 0.199758 0.402791 0.901740
O O3 0.914529 0.175807 0.883676
O O4 0.000000 0.000000 0.000000
O O5 0.282534 0.735996 0.643237
O O6 0.366670 0.716372 0.452461
O O7 0.981350 0.675232 0.631885
O O8 0.305551 0.027777 0.497264
O O9 0.650535 0.362460 0.705723
O O10 0.598836 0.610301 0.818738
O O11 0.753517 0.378193 0.841831
O O12 0.448457 0.420947 0.396323
O O13 0.547740 0.214270 0.259368
O O14 0.685597 0.288073 0.043038
O O15 0.500000 0.000000 0.000000
#
# Coordination Sequence:
#
# PCOD8018070 Si02
#       7
#     2   2   2   2   2   2   2
#     4  10  22  41  64  93 122 169 214 252 322 377
#     4  11  21  40  65  91 126 165 209 261 310 380
#     4  10  22  40  61  95 124 161 210 252 321 374
#     4   9  22  39  61  91 121 166 216 246 321 372
#     4  10  22  41  62  91 131 162 206 265 307 383
#     4  10  23  43  64  89 131 166 205 272 307 382
#     4  12  24  41  64  96 126 166 211 264 317 378
#
# _framework density 20.571301999999999
#
# number of rings (size 3 to 8) (size 9 to 14) (size 15 to 20)
#    0.000    2.000    0.000    5.143    4.000    2.286 
#   10.286    0.000    0.000    0.000    0.000    0.000 
#    0.000    0.000    0.000    0.000    0.000    0.000 
#
# Total GULP energy -173586.560687 kJ/mol
# GULP energy per Si atom -12399.040049 kJ/mol
# Density = 2.052448 g / cm^3
# Si number density = 20.571302 Si / 1000 Ang^3
#
#
#
# Elastic Constant Matrix: (Units=GPa)
#
#
# Indices 1 2 3 4 5 6 
#
# 1 136.2635 -1.3248 48.4027 2.9353 -4.7981 8.5955
# 2 -1.3248 23.0833 9.9362 13.5801 -9.2652 8.9849
# 3 48.4027 9.9362 86.1794 -4.6016 -8.3289 2.5896
# 4 2.9353 13.5801 -4.6016 1.7994 6.6091 -3.0204
# 5 -4.7981 -9.2652 -8.3289 6.6091 50.9957 -11.9705
# 6 8.5955 8.9849 2.5896 -3.0204 -11.9705 27.6854
#
#
#
# Elastic Compliance Matrix: (Units=1/GPa)
#
#
# Indices 1 2 3 4 5 6 
#
# 1 0.008519 -0.003692 -0.004023 0.009315 -0.001943 -0.000895
# 2 -0.003692 -0.001533 0.004851 0.064168 -0.006931 0.005194
# 3 -0.004023 0.004851 0.012978 -0.014416 0.004185 -0.001302
# 4 0.009315 0.064168 -0.014416 -0.072128 0.013835 -0.024256
# 5 -0.001943 -0.006931 0.004185 0.013835 0.020022 0.012628
# 6 -0.000895 0.005194 -0.001302 -0.024256 0.012628 0.037648
#
#
# Mechanical properties :
#
#
# Convention : Reuss Voigt Hill
#
# Bulk Modulus (GPa) = 70.24284 39.95049 55.09666
# Shear Modulus (GPa) = 312.91662 28.66358 170.79010
#
# Velocity S-wave (km/s) = 12.34680 3.73685 9.12161
# Velocity P-wave (km/s) = 15.41032 6.17101 11.73796
#
# Compressibility (1/GPa) = 0.01423633
#
# Stress axis : x y z
#
# Youngs Moduli (GPa) = 117.38418 -652.47154 77.05589
#
# Poissons Ratio (x) = -2.40882 0.30997
# Poissons Ratio (y) = 0.43336 -0.37377
# Poissons Ratio (z) = 0.47219 3.16489
#
# Static dielectric constant tensor:
#      x y z
#    x 4.429520 -0.149160 -0.338260 
#    y -0.149160 3.681910 0.048190 
#    z -0.338260 0.048190 4.122410 
# 
# 
# High freq. dielectric constant tensor:
#      x y z
#    x 1.824490 0.000120 0.005690 
#    y 0.000120 1.790190 -0.010060 
#    z 0.005690 -0.010060 1.814160 
# 
# From -- ./inp_files/233284.got.cif
#   From: 2010.06.25/outbox.cif.g09.slc.cpg/sg2_117_cif.got.tgz:233284.got - 2010.06.27 13:26:56.
