data_PCOD8018725
_publ_section_title
;
Structure prediction by ZEFSAII (Michael W. Deem and Ramdas Pophale) SiO2 
 PCOD8018725
Probable space group: P -1
;
_chemical_formula_sum "Si O2"
_cell_formula_units_Z 12
_cell_length_a 11.541598
_cell_length_b 8.121132
_cell_length_c 19.765458
_cell_angle_alpha 149.621349
_cell_angle_beta 35.857835
_cell_angle_gamma 141.143650
_cell_volume 528.668037
_symmetry_space_group_name_H-M "P -1"
_symmetry_group_IT_number 2
_symmetry_cell_setting 'triclinic'
loop_
_space_group_symop_operation_xyz
x,y,z
-x,-y,-z
loop_
_atom_site_type_symbol
_atom_site_label
_atom_site_fract_x
_atom_site_fract_y
_atom_site_fract_z
Si Si1 0.886602 0.742860 0.248781
Si Si2 0.509121 0.759257 0.728229
Si Si3 0.891771 0.268380 0.531658
Si Si4 0.344480 0.795229 0.055757
Si Si5 0.236637 0.724135 0.598439
Si Si6 0.529019 0.865067 0.252375
O O1 0.735954 0.362676 0.184151
O O2 0.113441 0.736161 0.116452
O O3 0.888355 0.888139 0.376472
O O4 0.795369 0.963762 0.318316
O O5 0.582179 0.416577 0.568597
O O6 0.629915 0.001497 0.814769
O O7 0.555346 0.959399 0.707086
O O8 0.660656 0.290946 0.662187
O O9 0.000000 0.500000 0.500000
O O10 0.030004 0.407694 0.582034
O O11 0.381765 0.432064 0.922978
O O12 0.500000 0.000000 0.000000
O O13 0.292728 0.855097 0.694369
#
# Coordination Sequence:
#
# PCOD8018725 Si02
#       6
#     2   2   2   2   2   2
#     4  11  24  42  73 101 131 180 234 278 336 400
#     4  12  26  44  70 101 142 179 222 286 344 401
#     4  10  22  40  70 101 129 178 227 275 331 397
#     4  12  27  47  70  99 138 181 230 284 337 406
#     4  11  23  42  73  99 134 176 230 280 328 405
#     4  12  27  44  68 105 140 177 225 282 346 402
#
# _framework density 22.698554000000001
#
# number of rings (size 3 to 8) (size 9 to 14) (size 15 to 20)
#    0.000    0.667    3.333    4.500    4.667    6.667 
#    0.000    0.000    0.000    0.000    0.000    0.000 
#    0.000    0.000    0.000    0.000    0.000    0.000 
#
# Total GULP energy -148808.739082 kJ/mol
# GULP energy per Si atom -12400.728257 kJ/mol
# Density = 2.264689 g / cm^3
# Si number density = 22.698554 Si / 1000 Ang^3
#
#
#
# Elastic Constant Matrix: (Units=GPa)
#
#
# Indices 1 2 3 4 5 6 
#
# 1 117.2373 38.4354 30.4415 -2.0003 -2.6445 4.4221
# 2 38.4354 72.8241 34.7503 -8.9722 -17.9761 7.9646
# 3 30.4415 34.7503 109.1514 -4.0569 -21.0559 -5.1287
# 4 -2.0003 -8.9722 -4.0569 21.7801 11.1792 1.6828
# 5 -2.6445 -17.9761 -21.0559 11.1792 36.7323 -0.1102
# 6 4.4221 7.9646 -5.1287 1.6828 -0.1102 35.2421
#
#
#
# Elastic Compliance Matrix: (Units=1/GPa)
#
#
# Indices 1 2 3 4 5 6 
#
# 1 0.010755 -0.005493 -0.001840 -0.000076 -0.002947 -0.000381
# 2 -0.005493 0.021225 -0.004083 0.004667 0.006216 -0.004905
# 3 -0.001840 -0.004083 0.012107 -0.002733 0.005650 0.003064
# 4 -0.000076 0.004667 -0.002733 0.056037 -0.016355 -0.004170
# 5 -0.002947 0.006216 0.005650 -0.016355 0.038272 0.000688
# 6 -0.000381 -0.004905 0.003064 -0.004170 0.000688 0.030179
#
#
# Mechanical properties :
#
#
# Convention : Reuss Voigt Hill
#
# Bulk Modulus (GPa) = 47.04897 56.27412 51.66155
# Shear Modulus (GPa) = 25.18979 31.78992 28.48986
#
# Velocity S-wave (km/s) = 3.33491 3.74642 3.54664
# Velocity P-wave (km/s) = 5.96671 6.60000 6.29133
#
# Compressibility (1/GPa) = 0.02125445
#
# Stress axis : x y z
#
# Youngs Moduli (GPa) = 92.97986 47.11333 82.59686
#
# Poissons Ratio (x) = 0.25882 0.15196
# Poissons Ratio (y) = 0.51078 0.33727
# Poissons Ratio (z) = 0.17106 0.19238
#
# Static dielectric constant tensor:
#      x y z
#    x 4.377070 0.539460 0.150760 
#    y 0.539460 4.116830 0.149180 
#    z 0.150760 0.149180 4.143820 
# 
# 
# High freq. dielectric constant tensor:
#      x y z
#    x 1.899610 0.028710 -0.001120 
#    y 0.028710 1.892820 0.005090 
#    z -0.001120 0.005090 1.890400 
# 
# From -- ./inp_files/162811.got.cif
#   From: 2010.06.25/outbox.cif.g09.slc.cpg/sg2_82_cif.got.tgz:162811.got - 2010.06.27 13:26:56.
