data_PCOD8018423
_publ_section_title
;
Structure prediction by ZEFSAII (Michael W. Deem and Ramdas Pophale) SiO2 
 PCOD8018423
Probable space group: P -1
;
_chemical_formula_sum "Si O2"
_cell_formula_units_Z 16
_cell_length_a 9.232962
_cell_length_b 9.634265
_cell_length_c 11.452451
_cell_angle_alpha 100.239628
_cell_angle_beta 97.224968
_cell_angle_gamma 45.577138
_cell_volume 715.979223
_symmetry_space_group_name_H-M "P -1"
_symmetry_group_IT_number 2
_symmetry_cell_setting 'triclinic'
loop_
_space_group_symop_operation_xyz
x,y,z
-x,-y,-z
loop_
_atom_site_type_symbol
_atom_site_label
_atom_site_fract_x
_atom_site_fract_y
_atom_site_fract_z
Si Si1 0.702485 0.142251 0.176172
Si Si2 0.955823 0.716515 0.089870
Si Si3 0.306141 0.290598 0.086633
Si Si4 0.513169 0.687427 0.290904
Si Si5 0.424579 0.478279 0.373782
Si Si6 0.228557 0.381070 0.473880
Si Si7 0.131405 0.684378 0.854847
Si Si8 0.732832 0.880184 0.732073
O O1 0.522714 0.219893 0.078732
O O2 0.605229 0.260854 0.305400
O O3 0.832576 0.173581 0.130357
O O4 0.853641 0.909716 0.183133
O O5 0.138409 0.518243 0.150192
O O6 0.780323 0.718807 0.043050
O O7 0.047750 0.712304 0.978352
O O8 0.349415 0.142294 0.164718
O O9 0.377055 0.640443 0.305291
O O10 0.637408 0.667831 0.409023
O O11 0.663969 0.539736 0.180993
O O12 0.366604 0.900771 0.254618
O O13 0.500000 0.500000 0.500000
O O14 0.238452 0.500340 0.394587
O O15 0.318978 0.178104 0.395456
O O16 0.000000 0.500000 0.500000
O O17 0.973687 0.741439 0.747892
#
# Coordination Sequence:
#
# PCOD8018423 Si02
#       8
#     2   2   2   2   2   2   2   2
#     4  11  21  40  67  91 127 174 211 263 322 379
#     4  10  23  41  63  94 129 169 219 264 318 371
#     4  10  23  41  62  93 131 165 220 265 314 374
#     4  10  22  40  66  88 132 172 207 260 327 372
#     4   9  21  41  64  93 130 164 209 261 314 385
#     4  11  20  41  67  94 127 163 214 270 314 379
#     4  10  23  40  60  94 130 166 213 268 309 382
#     4  11  22  41  62  93 128 168 216 260 319 383
#
# _framework density 22.347016
#
# number of rings (size 3 to 8) (size 9 to 14) (size 15 to 20)
#    0.000    1.750    2.500    1.125    0.000    7.500 
#    0.000    0.625    0.000    0.000    0.000    0.000 
#    0.000    0.000    0.000    0.000    0.000    0.000 
#
# Total GULP energy -198323.292826 kJ/mol
# GULP energy per Si atom -12395.205802 kJ/mol
# Density = 2.229615 g / cm^3
# Si number density = 22.347016 Si / 1000 Ang^3
#
#
#
# Elastic Constant Matrix: (Units=GPa)
#
#
# Indices 1 2 3 4 5 6 
#
# 1 130.9319 22.9451 18.3037 1.4648 -12.4128 18.2240
# 2 22.9451 142.3181 26.9280 14.7532 -5.4583 24.9270
# 3 18.3037 26.9280 52.1641 8.3530 -9.4735 8.0351
# 4 1.4648 14.7532 8.3530 30.6631 3.8591 5.8748
# 5 -12.4128 -5.4583 -9.4735 3.8591 14.8967 5.0544
# 6 18.2240 24.9270 8.0351 5.8748 5.0544 27.3111
#
#
#
# Elastic Compliance Matrix: (Units=1/GPa)
#
#
# Indices 1 2 3 4 5 6 
#
# 1 0.009938 0.000508 -0.000197 -0.000374 0.011522 -0.009088
# 2 0.000508 0.009455 -0.002021 -0.003129 0.006429 -0.008891
# 3 -0.000197 -0.002021 0.026400 -0.007251 0.020485 -0.008023
# 4 -0.000374 -0.003129 -0.007251 0.038119 -0.015941 -0.000011
# 5 0.011522 0.006429 0.020485 -0.015941 0.108539 -0.036241
# 6 -0.009088 -0.008891 -0.008023 -0.000011 -0.036241 0.059864
#
#
# Mechanical properties :
#
#
# Convention : Reuss Voigt Hill
#
# Bulk Modulus (GPa) = 23.60017 51.30750 37.45384
# Shear Modulus (GPa) = 18.52820 31.72333 25.12577
#
# Velocity S-wave (km/s) = 2.88256 3.77182 3.35676
# Velocity P-wave (km/s) = 4.65430 6.47905 5.64095
#
# Compressibility (1/GPa) = 0.04237257
#
# Stress axis : x y z
#
# Youngs Moduli (GPa) = 100.62779 105.76199 37.87934
#
# Poissons Ratio (x) = -0.05368 0.00745
# Poissons Ratio (y) = -0.05107 0.07655
# Poissons Ratio (z) = 0.01978 0.21373
#
# Static dielectric constant tensor:
#      x y z
#    x 4.545600 0.296400 0.074140 
#    y 0.296400 4.053530 0.115680 
#    z 0.074140 0.115680 3.881370 
# 
# 
# High freq. dielectric constant tensor:
#      x y z
#    x 1.898000 0.018930 0.003790 
#    y 0.018930 1.870210 0.016830 
#    z 0.003790 0.016830 1.867280 
# 
# From -- ./inp_files/226594.got.cif
#   From: 2010.06.25/outbox.cif.g09.slc.cpg/sg2_114_cif.got.tgz:226594.got - 2010.06.27 13:26:56.
