data_PCOD8018735
_publ_section_title
;
Structure prediction by ZEFSAII (Michael W. Deem and Ramdas Pophale) SiO2 
 PCOD8018735
Probable space group: P -1
;
_chemical_formula_sum "Si O2"
_cell_formula_units_Z 14
_cell_length_a 10.400180
_cell_length_b 8.337986
_cell_length_c 8.719330
_cell_angle_alpha 66.076555
_cell_angle_beta 126.764262
_cell_angle_gamma 120.011406
_cell_volume 518.334494
_symmetry_space_group_name_H-M "P -1"
_symmetry_group_IT_number 2
_symmetry_cell_setting 'triclinic'
loop_
_space_group_symop_operation_xyz
x,y,z
-x,-y,-z
loop_
_atom_site_type_symbol
_atom_site_label
_atom_site_fract_x
_atom_site_fract_y
_atom_site_fract_z
Si Si1 0.655109 0.374503 0.811778
Si Si2 0.687871 0.107130 0.532594
Si Si3 0.921037 0.779519 0.499248
Si Si4 0.047919 0.572400 0.204598
Si Si5 0.772689 0.677284 0.116296
Si Si6 0.651529 0.739466 0.558791
Si Si7 0.557175 0.272394 0.116180
O O1 0.857067 0.405531 0.904525
O O2 0.633663 0.577873 0.733776
O O3 0.538069 0.266953 0.626107
O O4 0.589312 0.255465 0.964371
O O5 0.808739 0.284254 0.640860
O O6 0.659013 0.158251 0.317413
O O7 0.500000 0.000000 0.500000
O O8 0.765999 0.939819 0.636790
O O9 0.014981 0.640728 0.689040
O O10 0.911555 0.761669 0.315850
O O11 0.736045 0.697596 0.479766
O O12 0.000000 0.000000 0.500000
O O13 0.878960 0.636471 0.060405
O O14 0.639298 0.482495 0.157413
O O15 0.649260 0.801846 0.956622
#
# Coordination Sequence:
#
# PCOD8018735 Si02
#       7
#     2   2   2   2   2   2   2
#     4  10  22  45  71 100 144 193 231 297 354 428
#     4  12  25  44  76 109 140 194 243 299 352 437
#     4  11  22  41  72 107 139 192 243 293 349 439
#     4  11  24  46  72 104 144 190 247 289 359 426
#     4  11  24  43  74 104 142 188 236 297 358 419
#     4  10  22  40  70 102 145 188 241 282 365 426
#     4  11  26  44  76 107 149 184 241 297 369 419
#
# _framework density 27.009587
#
# number of rings (size 3 to 8) (size 9 to 14) (size 15 to 20)
#    0.000    1.143    4.286    1.286    6.000    1.143 
#    0.000    0.714    6.286    0.000    0.000    0.000 
#    0.000    0.000    0.000    0.000    0.000    0.000 
#
# Total GULP energy -173435.828745 kJ/mol
# GULP energy per Si atom -12388.273482 kJ/mol
# Density = 2.694811 g / cm^3
# Si number density = 27.009587 Si / 1000 Ang^3
#
#
#
# Elastic Constant Matrix: (Units=GPa)
#
#
# Indices 1 2 3 4 5 6 
#
# 1 154.9932 6.0757 2.1049 -2.2911 8.1609 0.3229
# 2 6.0757 122.5422 14.6752 -13.5117 -3.2158 -2.7231
# 3 2.1049 14.6752 41.4051 -2.5609 -0.1978 10.0783
# 4 -2.2911 -13.5117 -2.5609 19.5095 8.4013 0.9807
# 5 8.1609 -3.2158 -0.1978 8.4013 33.3604 4.4479
# 6 0.3229 -2.7231 10.0783 0.9807 4.4479 35.0815
#
#
#
# Elastic Compliance Matrix: (Units=1/GPa)
#
#
# Indices 1 2 3 4 5 6 
#
# 1 0.006591 -0.000184 -0.000239 0.001480 -0.002032 0.000210
# 2 -0.000184 0.009265 -0.003281 0.006259 -0.000871 0.001599
# 3 -0.000239 -0.003281 0.027428 0.001438 0.000643 -0.008254
# 4 0.001480 0.006259 0.001438 0.062643 -0.015563 0.000281
# 5 -0.002032 -0.000871 0.000643 -0.015563 0.034875 -0.004220
# 6 0.000210 0.001599 -0.008254 0.000281 -0.004220 0.031526
#
#
# Mechanical properties :
#
#
# Convention : Reuss Voigt Hill
#
# Bulk Modulus (GPa) = 27.87350 40.51692 34.19521
# Shear Modulus (GPa) = 26.08343 37.32925 31.70634
#
# Velocity S-wave (km/s) = 3.11096 3.72166 3.42993
# Velocity P-wave (km/s) = 4.82145 5.78802 5.32670
#
# Compressibility (1/GPa) = 0.03587637
#
# Stress axis : x y z
#
# Youngs Moduli (GPa) = 151.72718 107.92980 36.45964
#
# Poissons Ratio (x) = 0.01982 0.00872
# Poissons Ratio (y) = 0.02786 0.11961
# Poissons Ratio (z) = 0.03631 0.35409
#
# Static dielectric constant tensor:
#      x y z
#    x 9.248130 -5.920730 2.768530 
#    y -5.920730 13.343040 -3.576290 
#    z 2.768530 -3.576290 6.405470 
# 
# 
# High freq. dielectric constant tensor:
#      x y z
#    x 2.106900 -0.004730 0.008360 
#    y -0.004730 2.083250 0.017140 
#    z 0.008360 0.017140 2.074120 
# 
# From -- ./inp_files/414414.got.cif
#   From: 2010.06.25/outbox.cif.g09.slc.cpg/sg2_208_cif.got.tgz:414414.got - 2010.06.27 13:26:56.
