data_PCOD8018704
_publ_section_title
;
Structure prediction by ZEFSAII (Michael W. Deem and Ramdas Pophale) SiO2 
 PCOD8018704
Probable space group: P -1
;
_chemical_formula_sum "Si O2"
_cell_formula_units_Z 12
_cell_length_a 10.402201
_cell_length_b 8.091337
_cell_length_c 10.364052
_cell_angle_alpha 114.374791
_cell_angle_beta 63.660522
_cell_angle_gamma 67.479370
_cell_volume 512.998178
_symmetry_space_group_name_H-M "P -1"
_symmetry_group_IT_number 2
_symmetry_cell_setting 'triclinic'
loop_
_space_group_symop_operation_xyz
x,y,z
-x,-y,-z
loop_
_atom_site_type_symbol
_atom_site_label
_atom_site_fract_x
_atom_site_fract_y
_atom_site_fract_z
Si Si1 0.452582 0.039015 0.812913
Si Si2 0.757712 0.828329 0.816077
Si Si3 0.061315 0.694524 0.457468
Si Si4 0.854109 0.986546 0.401886
Si Si5 0.154819 0.530865 0.949565
Si Si6 0.543552 0.653083 0.458177
O O1 0.345730 0.291803 0.863993
O O2 0.594449 0.021426 0.843629
O O3 0.568844 0.792075 0.594523
O O4 0.297286 0.059320 0.978498
O O5 0.768576 0.599041 0.743167
O O6 0.965337 0.732913 0.651432
O O7 0.897996 0.824765 0.456050
O O8 0.162915 0.797888 0.463569
O O9 0.644308 0.122231 0.474320
O O10 0.038103 0.797210 0.158714
O O11 0.248607 0.528833 0.773813
O O12 0.000000 0.500000 0.000000
O O13 0.500000 0.500000 0.500000
#
# Coordination Sequence:
#
# PCOD8018704 Si02
#       6
#     2   2   2   2   2   2
#     4  11  23  42  66 100 133 178 226 274 334 405
#     4  10  22  40  69  96 134 177 225 271 336 398
#     4  10  22  42  67  97 134 177 222 277 332 405
#     4  11  24  45  67 101 135 175 226 278 340 395
#     4  12  26  45  72  99 135 184 226 273 341 407
#     4  12  28  45  69 101 138 175 228 289 335 392
#
# _framework density 23.391895000000002
#
# number of rings (size 3 to 8) (size 9 to 14) (size 15 to 20)
#    0.000    1.000    3.333    2.500    4.667    2.000 
#    0.000    2.500    0.000    0.000    0.000    0.000 
#    0.000    0.000    0.000    0.000    0.000    0.000 
#
# Total GULP energy -148721.533200 kJ/mol
# GULP energy per Si atom -12393.461100 kJ/mol
# Density = 2.333865 g / cm^3
# Si number density = 23.391895 Si / 1000 Ang^3
#
#
#
# Elastic Constant Matrix: (Units=GPa)
#
#
# Indices 1 2 3 4 5 6 
#
# 1 36.7537 22.9921 16.9256 -6.8519 -1.1534 7.9020
# 2 22.9921 75.0011 20.1537 -1.1643 -9.0939 -6.1665
# 3 16.9256 20.1537 151.1005 -21.4393 -14.5453 7.6181
# 4 -6.8519 -1.1643 -21.4393 40.2487 3.3155 -4.2884
# 5 -1.1534 -9.0939 -14.5453 3.3155 33.7678 -8.2527
# 6 7.9020 -6.1665 7.6181 -4.2884 -8.2527 19.8422
#
#
#
# Elastic Compliance Matrix: (Units=1/GPa)
#
#
# Indices 1 2 3 4 5 6 
#
# 1 0.044173 -0.016296 -0.001895 0.004191 -0.010291 -0.025303
# 2 -0.016296 0.021093 -0.001231 -0.001758 0.008879 0.016831
# 3 -0.001895 -0.001231 0.007763 0.003488 0.002395 -0.000858
# 4 0.004191 -0.001758 0.003488 0.027665 -0.001059 0.001984
# 5 -0.010291 0.008879 0.002395 -0.001059 0.038053 0.021536
# 6 -0.025303 0.016831 -0.000858 0.001984 0.021536 0.075421
#
#
# Mechanical properties :
#
#
# Convention : Reuss Voigt Hill
#
# Bulk Modulus (GPa) = 29.25179 42.55536 35.90357
# Shear Modulus (GPa) = 18.91021 32.29068 25.60045
#
# Velocity S-wave (km/s) = 2.84634 3.71943 3.31178
# Velocity P-wave (km/s) = 4.83057 6.05619 5.47777
#
# Compressibility (1/GPa) = 0.03418595
#
# Stress axis : x y z
#
# Youngs Moduli (GPa) = 22.63803 47.40979 128.80938
#
# Poissons Ratio (x) = 0.77258 0.24408
# Poissons Ratio (y) = 0.36890 0.15859
# Poissons Ratio (z) = 0.04290 0.05837
#
# Static dielectric constant tensor:
#      x y z
#    x 3.771340 -0.219860 0.018600 
#    y -0.219860 4.392120 -0.176350 
#    z 0.018600 -0.176350 4.698880 
# 
# 
# High freq. dielectric constant tensor:
#      x y z
#    x 1.898170 -0.014530 -0.003230 
#    y -0.014530 1.930790 -0.007390 
#    z -0.003230 -0.007390 1.946980 
# 
# From -- ./inp_files/237490.got.cif
#   From: 2010.06.25/outbox.cif.g09.slc.cpg/sg2_119_cif.got.tgz:237490.got - 2010.06.27 13:26:56.
