data_PCOD8018909
_publ_section_title
;
Structure prediction by ZEFSAII (Michael W. Deem and Ramdas Pophale) SiO2 
 PCOD8018909
Probable space group: P -1
;
_chemical_formula_sum "Si O2"
_cell_formula_units_Z 12
_cell_length_a 5.157293
_cell_length_b 9.850112
_cell_length_c 12.113667
_cell_angle_alpha 74.153162
_cell_angle_beta 88.153303
_cell_angle_gamma 75.105852
_cell_volume 571.619531
_symmetry_space_group_name_H-M "P -1"
_symmetry_group_IT_number 2
_symmetry_cell_setting 'triclinic'
loop_
_space_group_symop_operation_xyz
x,y,z
-x,-y,-z
loop_
_atom_site_type_symbol
_atom_site_label
_atom_site_fract_x
_atom_site_fract_y
_atom_site_fract_z
Si Si1 0.418126 0.304095 0.785327
Si Si2 0.821374 0.657958 0.442716
Si Si3 0.237561 0.536977 0.921960
Si Si4 0.000111 0.156134 0.768361
Si Si5 0.565104 0.850891 0.598284
Si Si6 0.062192 0.843169 0.746643
O O1 0.393162 0.355422 0.645931
O O2 0.300971 0.444978 0.829641
O O3 0.727479 0.227527 0.822912
O O4 0.242489 0.185714 0.832792
O O5 0.676171 0.717237 0.544754
O O6 0.000000 0.500000 0.500000
O O7 0.996051 0.766261 0.369229
O O8 0.146249 0.707099 0.857194
O O9 0.500000 0.500000 0.000000
O O10 0.000000 0.500000 0.000000
O O11 0.034957 0.985295 0.790701
O O12 0.289330 0.830127 0.654672
O O13 0.776488 0.851577 0.692342
O O14 0.500000 0.000000 0.500000
#
# Coordination Sequence:
#
# PCOD8018909 Si02
#       6
#     2   2   2   2   2   2
#     4  10  23  43  63  92 133 161 222 268 321 390
#     4  10  23  36  62  94 138 174 213 248 327 389
#     4  12  27  49  72  95 123 173 230 289 343 377
#     4  10  22  41  62  92 136 171 204 264 320 382
#     4  12  23  39  65 103 140 182 210 254 322 404
#     4  12  25  43  67  99 139 172 227 272 314 396
#
# _framework density 20.992984
#
# number of rings (size 3 to 8) (size 9 to 14) (size 15 to 20)
#    1.000    0.000    1.667    5.500    4.667    0.667 
#    0.000    5.000    0.000    0.000    0.000    0.000 
#    0.000    0.000    0.000    0.000    0.000    0.000 
#
# Total GULP energy -148794.380650 kJ/mol
# GULP energy per Si atom -12399.531721 kJ/mol
# Density = 2.094520 g / cm^3
# Si number density = 20.992984 Si / 1000 Ang^3
#
#
#
# Elastic Constant Matrix: (Units=GPa)
#
#
# Indices 1 2 3 4 5 6 
#
# 1 111.8578 13.9305 22.3348 -4.1784 -4.7434 -10.7991
# 2 13.9305 139.5810 29.2367 -18.3769 -5.0668 -11.0193
# 3 22.3348 29.2367 73.1323 -33.6313 0.9796 -0.2694
# 4 -4.1784 -18.3769 -33.6313 34.1066 -0.9358 5.1900
# 5 -4.7434 -5.0668 0.9796 -0.9358 39.8719 8.0505
# 6 -10.7991 -11.0193 -0.2694 5.1900 8.0505 35.8098
#
#
#
# Elastic Compliance Matrix: (Units=1/GPa)
#
#
# Indices 1 2 3 4 5 6 
#
# 1 0.010160 -0.000247 -0.004982 -0.004314 0.000499 0.003464
# 2 -0.000247 0.008094 -0.002382 0.001698 0.000695 0.001996
# 3 -0.004982 -0.002382 0.028684 0.027316 0.000260 -0.006037
# 4 -0.004314 0.001698 0.027316 0.058154 0.002319 -0.009523
# 5 0.000499 0.000695 0.000260 0.002319 0.026471 -0.005921
# 6 0.003464 0.001996 -0.006037 -0.009523 -0.005921 0.032250
#
#
# Mechanical properties :
#
#
# Convention : Reuss Voigt Hill
#
# Bulk Modulus (GPa) = 31.52952 50.61945 41.07449
# Shear Modulus (GPa) = 26.37035 39.22894 32.79964
#
# Velocity S-wave (km/s) = 3.54807 4.32750 3.95702
# Velocity P-wave (km/s) = 5.64240 7.00961 6.36283
#
# Compressibility (1/GPa) = 0.03171631
#
# Stress axis : x y z
#
# Youngs Moduli (GPa) = 98.42668 123.54649 34.86299
#
# Poissons Ratio (x) = 0.03050 0.17369
# Poissons Ratio (y) = 0.02430 0.08303
# Poissons Ratio (z) = 0.49038 0.29424
#
# Static dielectric constant tensor:
#      x y z
#    x 3.930100 0.019760 0.050760 
#    y 0.019760 3.914630 -0.123510 
#    z 0.050760 -0.123510 3.350930 
# 
# 
# High freq. dielectric constant tensor:
#      x y z
#    x 1.835150 -0.006220 -0.003550 
#    y -0.006220 1.838840 0.001060 
#    z -0.003550 0.001060 1.801090 
# 
# From -- ./inp_files/73704.got.cif
#   From: 2010.06.25/outbox.cif.g09.slc.cpg/sg2_37_cif.got.tgz:73704.got - 2010.06.27 13:26:56.
