data_PCOD8018258
_publ_section_title
;
Structure prediction by ZEFSAII (Michael W. Deem and Ramdas Pophale) SiO2 
 PCOD8018258
Probable space group: P -1
;
_chemical_formula_sum "Si O2"
_cell_formula_units_Z 16
_cell_length_a 12.891620
_cell_length_b 21.659537
_cell_length_c 8.980989
_cell_angle_alpha 129.664289
_cell_angle_beta 38.935459
_cell_angle_gamma 150.545274
_cell_volume 768.756529
_symmetry_space_group_name_H-M "P -1"
_symmetry_group_IT_number 2
_symmetry_cell_setting 'triclinic'
loop_
_space_group_symop_operation_xyz
x,y,z
-x,-y,-z
loop_
_atom_site_type_symbol
_atom_site_label
_atom_site_fract_x
_atom_site_fract_y
_atom_site_fract_z
Si Si1 0.352070 0.959889 0.256340
Si Si2 0.587942 0.478908 0.501973
Si Si3 0.847732 0.266703 0.692236
Si Si4 0.433570 0.709256 0.794625
Si Si5 0.424476 0.231820 0.618084
Si Si6 0.725267 0.212962 0.412020
Si Si7 0.698856 0.633899 0.058640
Si Si8 0.983335 0.958962 0.618078
O O1 0.254835 0.842959 0.260155
O O2 0.097176 0.912804 0.424151
O O3 0.527352 0.073795 0.353167
O O4 0.500000 0.000000 0.000000
O O5 0.500000 0.500000 0.500000
O O6 0.637948 0.409175 0.275010
O O7 0.352752 0.384443 0.736127
O O8 0.842231 0.615641 0.503534
O O9 0.697898 0.207360 0.611661
O O10 0.804848 0.330500 0.934954
O O11 0.480729 0.741390 0.616384
O O12 0.681424 0.835292 0.808180
O O13 0.654282 0.275641 0.525507
O O14 0.363102 0.300467 0.837742
O O15 0.152079 0.082106 0.723304
O O16 0.011180 0.289216 0.168205
O O17 0.500000 0.500000 0.000000
O O18 0.000000 0.000000 0.500000
#
# Coordination Sequence:
#
# PCOD8018258 Si02
#       8
#     2   2   2   2   2   2   2   2
#     4  11  24  40  71  96 126 173 218 273 329 391
#     4  11  25  42  65  96 131 173 225 272 322 392
#     4  12  24  43  62  98 135 168 218 273 335 386
#     4  10  22  40  64  92 131 169 218 275 324 389
#     4   9  22  41  67  95 125 172 225 267 325 394
#     4  11  25  44  66  99 135 172 219 271 335 392
#     4  11  24  45  67  96 133 179 218 268 331 399
#     4   9  18  38  61  96 121 158 217 268 324 377
#
# _framework density 20.812832
#
# number of rings (size 3 to 8) (size 9 to 14) (size 15 to 20)
#    0.000    1.500    1.250    3.750   10.500    1.500 
#    2.250    1.250    0.000    0.000    0.000    0.000 
#    0.000    0.000    0.000    0.000    0.000    0.000 
#
# Total GULP energy -198338.309482 kJ/mol
# GULP energy per Si atom -12396.144343 kJ/mol
# Density = 2.076546 g / cm^3
# Si number density = 20.812832 Si / 1000 Ang^3
#
#
#
# Elastic Constant Matrix: (Units=GPa)
#
#
# Indices 1 2 3 4 5 6 
#
# 1 146.2351 51.0129 55.7741 11.0443 -18.2913 -18.8254
# 2 51.0129 104.0917 38.3754 9.7689 -7.5047 -12.1983
# 3 55.7741 38.3754 74.3011 6.1274 -18.1481 -9.7439
# 4 11.0443 9.7689 6.1274 35.9371 -0.7762 -4.8748
# 5 -18.2913 -7.5047 -18.1481 -0.7762 34.4524 2.7091
# 6 -18.8254 -12.1983 -9.7439 -4.8748 2.7091 36.9460
#
#
#
# Elastic Compliance Matrix: (Units=1/GPa)
#
#
# Indices 1 2 3 4 5 6 
#
# 1 0.010570 -0.002498 -0.005746 -0.001177 0.001797 0.002759
# 2 -0.002498 0.012821 -0.004680 -0.001730 -0.001162 0.001583
# 3 -0.005746 -0.004680 0.022169 -0.000476 0.007537 0.000758
# 4 -0.001177 -0.001730 -0.000476 0.029075 -0.000802 0.002599
# 5 0.001797 -0.001162 0.007537 -0.000802 0.033683 -0.000056
# 6 0.002759 0.001583 0.000758 0.002599 -0.000056 0.029542
#
#
# Mechanical properties :
#
#
# Convention : Reuss Voigt Hill
#
# Bulk Modulus (GPa) = 50.73462 68.32810 59.53136
# Shear Modulus (GPa) = 29.36355 33.43148 31.39752
#
# Velocity S-wave (km/s) = 3.76019 4.01220 3.88824
# Velocity P-wave (km/s) = 6.57887 7.37325 6.98736
#
# Compressibility (1/GPa) = 0.01971041
#
# Stress axis : x y z
#
# Youngs Moduli (GPa) = 94.60424 77.99880 45.10799
#
# Poissons Ratio (x) = 0.19488 0.25921
# Poissons Ratio (y) = 0.23637 0.21110
# Poissons Ratio (z) = 0.54364 0.36503
#
# Static dielectric constant tensor:
#      x y z
#    x 4.157740 0.205590 -0.497260 
#    y 0.205590 4.243140 -0.148070 
#    z -0.497260 -0.148070 4.035710 
# 
# 
# High freq. dielectric constant tensor:
#      x y z
#    x 1.818210 -0.001630 -0.015470 
#    y -0.001630 1.828050 0.002270 
#    z -0.015470 0.002270 1.809640 
# 
# From -- ./inp_files/283201.got.cif
#   From: 2010.06.25/outbox.cif.g09.slc.cpg/sg2_142_cif.got.tgz:283201.got - 2010.06.27 13:26:56.
