data_PCOD8018460
_publ_section_title
;
Structure prediction by ZEFSAII (Michael W. Deem and Ramdas Pophale) SiO2 
 PCOD8018460
Probable space group: P -1
;
_chemical_formula_sum "Si O2"
_cell_formula_units_Z 12
_cell_length_a 8.278779
_cell_length_b 8.812111
_cell_length_c 8.675606
_cell_angle_alpha 115.919717
_cell_angle_beta 80.105370
_cell_angle_gamma 83.052669
_cell_volume 546.879215
_symmetry_space_group_name_H-M "P -1"
_symmetry_group_IT_number 2
_symmetry_cell_setting 'triclinic'
loop_
_space_group_symop_operation_xyz
x,y,z
-x,-y,-z
loop_
_atom_site_type_symbol
_atom_site_label
_atom_site_fract_x
_atom_site_fract_y
_atom_site_fract_z
Si Si1 0.436167 0.318762 0.001886
Si Si2 0.062096 0.961336 0.197548
Si Si3 0.905161 0.345386 0.433823
Si Si4 0.272441 0.004625 0.901042
Si Si5 0.265997 0.673478 0.233880
Si Si6 0.396216 0.639925 0.693179
O O1 0.281000 0.483256 0.067173
O O2 0.538031 0.388182 0.155556
O O3 0.369166 0.153245 0.989410
O O4 0.556819 0.272881 0.812073
O O5 0.113449 0.824015 0.265139
O O6 0.888736 0.921927 0.145532
O O7 0.037888 0.161863 0.340623
O O8 0.212518 0.927580 0.034362
O O9 0.764985 0.349626 0.590951
O O10 0.801890 0.367834 0.298784
O O11 0.000000 0.500000 0.500000
O O12 0.399773 0.838930 0.730484
O O13 0.500000 0.500000 0.500000
#
# Coordination Sequence:
#
# PCOD8018460 Si02
#       6
#     2   2   2   2   2   2
#     4  11  23  42  67  92 129 169 208 262 319 369
#     4  10  22  40  66  95 130 161 218 258 305 384
#     4  11  24  43  65  93 128 171 209 261 320 372
#     4  10  22  42  67  95 123 173 210 254 320 375
#     4  11  23  41  62  96 129 162 215 265 307 375
#     4  11  22  41  66  94 126 164 217 255 307 388
#
# _framework density 21.942688
#
# number of rings (size 3 to 8) (size 9 to 14) (size 15 to 20)
#    0.000    1.333    3.333    2.000    0.000    0.667 
#    6.000    3.333    0.000    0.000    0.000    0.000 
#    0.000    0.000    0.000    0.000    0.000    0.000 
#
# Total GULP energy -148669.380634 kJ/mol
# GULP energy per Si atom -12389.115053 kJ/mol
# Density = 2.189275 g / cm^3
# Si number density = 21.942688 Si / 1000 Ang^3
#
#
#
# Elastic Constant Matrix: (Units=GPa)
#
#
# Indices 1 2 3 4 5 6 
#
# 1 78.4096 57.4426 48.3038 8.6200 10.2788 6.5193
# 2 57.4426 126.4297 50.0698 23.0630 7.3816 -2.3855
# 3 48.3038 50.0698 103.6301 19.5827 -7.0164 6.8092
# 4 8.6200 23.0630 19.5827 41.3467 -0.1813 -5.8934
# 5 10.2788 7.3816 -7.0164 -0.1813 35.9736 10.7089
# 6 6.5193 -2.3855 6.8092 -5.8934 10.7089 28.4510
#
#
#
# Elastic Compliance Matrix: (Units=1/GPa)
#
#
# Indices 1 2 3 4 5 6 
#
# 1 0.024446 -0.007932 -0.008553 0.003202 -0.006702 -0.001034
# 2 -0.007932 0.013383 -0.002319 -0.004244 -0.001951 0.003350
# 3 -0.008553 -0.002319 0.016828 -0.005786 0.008112 -0.006514
# 4 0.003202 -0.004244 -0.005786 0.029708 -0.003314 0.007696
# 5 -0.006702 -0.001951 0.008112 -0.003314 0.036097 -0.014843
# 6 -0.001034 0.003350 -0.006514 0.007696 -0.014843 0.044406
#
#
# Mechanical properties :
#
#
# Convention : Reuss Voigt Hill
#
# Bulk Modulus (GPa) = 58.65754 68.90019 63.77886
# Shear Modulus (GPa) = 24.02000 31.33115 27.67558
#
# Velocity S-wave (km/s) = 3.31217 3.78281 3.55528
# Velocity P-wave (km/s) = 6.43564 7.10969 6.78105
#
# Compressibility (1/GPa) = 0.01704811
#
# Stress axis : x y z
#
# Youngs Moduli (GPa) = 40.90623 74.72102 59.42610
#
# Poissons Ratio (x) = 0.59268 0.50829
# Poissons Ratio (y) = 0.32447 0.13782
# Poissons Ratio (z) = 0.34988 0.17329
#
# Static dielectric constant tensor:
#      x y z
#    x 3.847670 -0.287250 -0.116810 
#    y -0.287250 4.019200 0.240290 
#    z -0.116810 0.240290 4.050160 
# 
# 
# High freq. dielectric constant tensor:
#      x y z
#    x 1.845410 -0.025030 -0.013060 
#    y -0.025030 1.872910 0.024410 
#    z -0.013060 0.024410 1.861170 
# 
# From -- ./inp_files/148189.got.cif
#   From: 2010.06.25/outbox.cif.g09.slc.cpg/sg2_75_cif.got.tgz:148189.got - 2010.06.27 13:26:56.
