data_PCOD8018390
_publ_section_title
;
Structure prediction by ZEFSAII (Michael W. Deem and Ramdas Pophale) SiO2 
 PCOD8018390
Probable space group: P -1
;
_chemical_formula_sum "Si O2"
_cell_formula_units_Z 16
_cell_length_a 18.132588
_cell_length_b 12.085402
_cell_length_c 8.555071
_cell_angle_alpha 76.880678
_cell_angle_beta 136.931646
_cell_angle_gamma 135.040520
_cell_volume 723.063478
_symmetry_space_group_name_H-M "P -1"
_symmetry_group_IT_number 2
_symmetry_cell_setting 'triclinic'
loop_
_space_group_symop_operation_xyz
x,y,z
-x,-y,-z
loop_
_atom_site_type_symbol
_atom_site_label
_atom_site_fract_x
_atom_site_fract_y
_atom_site_fract_z
Si Si1 0.029297 0.360036 0.300877
Si Si2 0.754920 0.689343 0.938585
Si Si3 0.977535 0.910551 0.654330
Si Si4 0.033419 0.350023 0.659092
Si Si5 0.623538 0.571455 0.427843
Si Si6 0.744753 0.297906 0.894151
Si Si7 0.407288 0.703652 0.613452
Si Si8 0.624539 0.044951 0.057548
O O1 0.973842 0.179666 0.270399
O O2 0.193283 0.526465 0.385661
O O3 0.079315 0.443344 0.529238
O O4 0.860945 0.293704 0.997833
O O5 0.727592 0.641860 0.729348
O O6 0.561843 0.511908 0.797651
O O7 0.895513 0.717651 0.215936
O O8 0.858961 0.900288 0.042422
O O9 0.770286 0.745538 0.468775
O O10 0.000000 0.000000 0.500000
O O11 0.811347 0.162854 0.393162
O O12 0.121775 0.489622 0.898142
O O13 0.535823 0.377105 0.300323
O O14 0.589523 0.216560 0.563275
O O15 0.634867 0.152771 0.913591
O O16 0.538236 0.859561 0.903718
O O17 0.500000 0.000000 0.000000
#
# Coordination Sequence:
#
# PCOD8018390 Si02
#       8
#     2   2   2   2   2   2   2   2
#     4  10  22  40  65  96 130 173 214 285 337 400
#     4  11  23  46  68  95 140 179 234 284 345 402
#     4  11  23  43  68 100 134 178 233 281 348 410
#     4  11  22  43  66  94 131 179 219 276 341 404
#     4  10  25  44  69  99 136 184 228 291 340 406
#     4  11  22  41  68  93 131 175 221 269 342 405
#     4  11  22  42  66  98 133 168 227 275 339 406
#     4  11  24  42  63 100 137 173 219 280 339 413
#
# _framework density 22.128070999999998
#
# number of rings (size 3 to 8) (size 9 to 14) (size 15 to 20)
#    0.000    1.250    2.500    4.125    3.500    0.500 
#    4.500    0.000    0.000    0.000    0.000    0.000 
#    0.000    0.000    0.000    0.000    0.000    0.000 
#
# Total GULP energy -198317.609640 kJ/mol
# GULP energy per Si atom -12394.850602 kJ/mol
# Density = 2.207771 g / cm^3
# Si number density = 22.128071 Si / 1000 Ang^3
#
#
#
# Elastic Constant Matrix: (Units=GPa)
#
#
# Indices 1 2 3 4 5 6 
#
# 1 113.7622 32.3661 28.0571 7.7717 7.2268 1.9752
# 2 32.3661 88.6182 21.6671 10.0967 8.2589 0.7386
# 3 28.0571 21.6671 42.3880 3.1856 -2.6688 -8.5783
# 4 7.7717 10.0967 3.1856 30.3940 -10.6831 -7.4461
# 5 7.2268 8.2589 -2.6688 -10.6831 40.0176 12.4076
# 6 1.9752 0.7386 -8.5783 -7.4461 12.4076 34.4180
#
#
#
# Elastic Compliance Matrix: (Units=1/GPa)
#
#
# Indices 1 2 3 4 5 6 
#
# 1 0.011424 -0.001924 -0.006941 -0.002866 -0.002223 -0.002163
# 2 -0.001924 0.014545 -0.006308 -0.005476 -0.004075 -0.001490
# 3 -0.006941 -0.006308 0.033042 0.003559 0.003098 0.008422
# 4 -0.002866 -0.005476 0.003559 0.040345 0.010793 0.006007
# 5 -0.002223 -0.004075 0.003098 0.010793 0.031849 -0.008159
# 6 -0.002163 -0.001490 0.008422 0.006007 -0.008159 0.035551
#
#
# Mechanical properties :
#
#
# Convention : Reuss Voigt Hill
#
# Bulk Modulus (GPa) = 34.88386 45.43877 40.16132
# Shear Modulus (GPa) = 24.19458 31.81112 28.00285
#
# Velocity S-wave (km/s) = 3.31023 3.79567 3.56123
# Velocity P-wave (km/s) = 5.51443 6.30781 5.92442
#
# Compressibility (1/GPa) = 0.02866655
#
# Stress axis : x y z
#
# Youngs Moduli (GPa) = 87.53580 68.75000 30.26431
#
# Poissons Ratio (x) = 0.13225 0.21005
# Poissons Ratio (y) = 0.16839 0.19092
# Poissons Ratio (z) = 0.60755 0.43369
#
# Static dielectric constant tensor:
#      x y z
#    x 4.222870 -0.034860 -0.081050 
#    y -0.034860 4.117790 0.040410 
#    z -0.081050 0.040410 3.975170 
# 
# 
# High freq. dielectric constant tensor:
#      x y z
#    x 1.889180 -0.006890 -0.002480 
#    y -0.006890 1.865550 0.005950 
#    z -0.002480 0.005950 1.866560 
# 
# From -- ./inp_files/333304.got.cif
#   From: 2010.06.25/outbox.cif.g09.slc.cpg/sg2_167_cif.got.tgz:333304.got - 2010.06.27 13:26:56.
