data_PCOD8018197
_publ_section_title
;
Structure prediction by ZEFSAII (Michael W. Deem and Ramdas Pophale) SiO2 
 PCOD8018197
Probable space group: P -1
;
_chemical_formula_sum "Si O2"
_cell_formula_units_Z 16
_cell_length_a 15.346625
_cell_length_b 9.258024
_cell_length_c 8.531577
_cell_angle_alpha 89.565553
_cell_angle_beta 138.565881
_cell_angle_gamma 105.806997
_cell_volume 734.096864
_symmetry_space_group_name_H-M "P -1"
_symmetry_group_IT_number 2
_symmetry_cell_setting 'triclinic'
loop_
_space_group_symop_operation_xyz
x,y,z
-x,-y,-z
loop_
_atom_site_type_symbol
_atom_site_label
_atom_site_fract_x
_atom_site_fract_y
_atom_site_fract_z
Si Si1 0.481360 0.131102 0.089692
Si Si2 0.283354 0.545444 0.501351
Si Si3 0.097178 0.586640 0.483744
Si Si4 0.162049 0.089443 0.162689
Si Si5 0.387246 0.284823 0.699338
Si Si6 0.155830 0.386200 0.008372
Si Si7 0.652798 0.043714 0.782296
Si Si8 0.685848 0.334770 0.980915
O O1 0.629782 0.263705 0.363325
O O2 0.373578 0.044244 0.085652
O O3 0.402826 0.228286 0.894136
O O4 0.500000 0.000000 0.000000
O O5 0.144372 0.479495 0.430223
O O6 0.386287 0.458507 0.693076
O O7 0.218833 0.500505 0.241275
O O8 0.000000 0.500000 0.500000
O O9 0.013920 0.664522 0.260038
O O10 0.249821 0.700273 0.767570
O O11 0.242456 0.158768 0.431345
O O12 0.231165 0.983377 0.170626
O O13 0.179195 0.227357 0.061629
O O14 0.000000 0.000000 0.000000
O O15 0.516761 0.282815 0.767516
O O16 0.243700 0.481868 0.975386
O O17 0.721558 0.231844 0.898721
O O18 0.500000 0.000000 0.500000
#
# Coordination Sequence:
#
# PCOD8018197 Si02
#       8
#     2   2   2   2   2   2   2   2
#     4  12  23  40  65 105 138 176 225 286 352 401
#     4  11  23  39  68  98 132 180 229 285 340 406
#     4  10  22  40  63  94 136 176 224 283 341 408
#     4  11  27  47  68 100 145 181 228 291 347 412
#     4  11  24  43  67 102 138 174 234 290 337 413
#     4  10  25  42  69  97 135 179 231 279 343 409
#     4  12  24  43  70 101 136 185 228 283 349 414
#     4  11  22  43  68 100 135 175 234 287 338 411
#
# _framework density 21.795487999999999
#
# number of rings (size 3 to 8) (size 9 to 14) (size 15 to 20)
#    0.000    1.000    3.750    1.500    1.750   10.000 
#    0.000    1.250    0.000    0.000    0.000    0.000 
#    0.000    0.000    0.000    0.000    0.000    0.000 
#
# Total GULP energy -198242.908452 kJ/mol
# GULP energy per Si atom -12390.181778 kJ/mol
# Density = 2.174588 g / cm^3
# Si number density = 21.795488 Si / 1000 Ang^3
#
#
#
# Elastic Constant Matrix: (Units=GPa)
#
#
# Indices 1 2 3 4 5 6 
#
# 1 103.6161 26.1028 17.9604 -5.4464 19.5647 -3.9128
# 2 26.1028 87.5519 29.0408 -2.8660 7.1058 -4.3191
# 3 17.9604 29.0408 132.9972 -15.6668 11.5460 -3.4637
# 4 -5.4464 -2.8660 -15.6668 30.7962 5.8929 0.1994
# 5 19.5647 7.1058 11.5460 5.8929 33.5275 -4.8903
# 6 -3.9128 -4.3191 -3.4637 0.1994 -4.8903 34.9254
#
#
#
# Elastic Compliance Matrix: (Units=1/GPa)
#
#
# Indices 1 2 3 4 5 6 
#
# 1 0.011831 -0.002867 -0.000009 0.003131 -0.006845 -0.000006
# 2 -0.002867 0.013146 -0.002525 -0.000577 0.000012 0.001059
# 3 -0.000009 -0.002525 0.008955 0.004970 -0.003407 0.000069
# 4 0.003131 -0.000577 0.004970 0.037443 -0.010123 -0.000859
# 5 -0.006845 0.000012 -0.003407 -0.010123 0.037381 0.004189
# 6 -0.000006 0.001059 0.000069 -0.000859 0.004189 0.029361
#
#
# Mechanical properties :
#
#
# Convention : Reuss Voigt Hill
#
# Bulk Modulus (GPa) = 43.23166 52.26367 47.74766
# Shear Modulus (GPa) = 31.92257 36.58723 34.25490
#
# Velocity S-wave (km/s) = 3.83122 4.10159 3.96871
# Velocity P-wave (km/s) = 6.28086 6.81630 6.55405
#
# Compressibility (1/GPa) = 0.02313120
#
# Stress axis : x y z
#
# Youngs Moduli (GPa) = 84.52022 76.06653 111.67497
#
# Poissons Ratio (x) = 0.21807 0.00100
# Poissons Ratio (y) = 0.24230 0.28197
# Poissons Ratio (z) = 0.00075 0.19206
#
# Static dielectric constant tensor:
#      x y z
#    x 17.259900 -0.457010 -11.815840 
#    y -0.457010 3.959080 0.332050 
#    z -11.815840 0.332050 14.903650 
# 
# 
# High freq. dielectric constant tensor:
#      x y z
#    x 1.856150 -0.000170 -0.007780 
#    y -0.000170 1.846640 -0.005590 
#    z -0.007780 -0.005590 1.877080 
# 
# From -- ./inp_files/298631.got.cif
#   From: 2010.06.25/outbox.cif.g09.slc.cpg/sg2_150_cif.got.tgz:298631.got - 2010.06.27 13:26:56.
