data_PCOD8018921
_publ_section_title
;
Structure prediction by ZEFSAII (Michael W. Deem and Ramdas Pophale) SiO2 
 PCOD8018921
Probable space group: P -1
;
_chemical_formula_sum "Si O2"
_cell_formula_units_Z 16
_cell_length_a 14.927664
_cell_length_b 11.377632
_cell_length_c 8.939480
_cell_angle_alpha 143.353920
_cell_angle_beta 119.538278
_cell_angle_gamma 75.435167
_cell_volume 757.484209
_symmetry_space_group_name_H-M "P -1"
_symmetry_group_IT_number 2
_symmetry_cell_setting 'triclinic'
loop_
_space_group_symop_operation_xyz
x,y,z
-x,-y,-z
loop_
_atom_site_type_symbol
_atom_site_label
_atom_site_fract_x
_atom_site_fract_y
_atom_site_fract_z
Si Si1 0.111393 0.308405 0.643123
Si Si2 0.239569 0.240771 0.962578
Si Si3 0.213147 0.079064 0.278473
Si Si4 0.686392 0.134740 0.352435
Si Si5 0.587716 0.412413 0.406214
Si Si6 0.128563 0.897178 0.710620
Si Si7 0.743076 0.279739 0.870660
Si Si8 0.392653 0.493472 0.819953
O O1 0.197755 0.280050 0.806415
O O2 0.122050 0.171361 0.368448
O O3 0.992024 0.244431 0.542493
O O4 0.142138 0.547243 0.865203
O O5 0.328559 0.109717 0.887319
O O6 0.139904 0.111835 0.850997
O O7 0.294746 0.450370 0.306105
O O8 0.318170 0.260944 0.508135
O O9 0.243150 0.931778 0.274272
O O10 0.165999 0.943356 0.958427
O O11 0.587511 0.184713 0.231819
O O12 0.795972 0.222116 0.433295
O O13 0.693855 0.245766 0.630558
O O14 0.500000 0.500000 0.500000
O O15 0.574109 0.410722 0.216816
O O16 0.663865 0.359037 0.991075
O O17 0.500000 0.500000 0.000000
#
# Coordination Sequence:
#
# PCOD8018921 Si02
#       8
#     2   2   2   2   2   2   2   2
#     4  11  22  40  65  95 127 177 210 257 314 369
#     4  10  22  42  63  92 129 161 214 264 308 371
#     4  11  22  43  61  92 136 163 212 262 309 381
#     4  10  22  41  62  95 126 164 210 261 306 374
#     4  12  24  43  70  92 123 163 211 263 322 378
#     4  10  22  41  64  93 131 170 214 257 316 368
#     4  11  23  39  65  92 132 167 211 259 312 378
#     4  11  25  42  66  94 124 166 206 263 326 377
#
# _framework density 21.122553
#
# number of rings (size 3 to 8) (size 9 to 14) (size 15 to 20)
#    0.750    0.500    3.750    2.250    1.750    2.000 
#    2.250    0.000    0.000    0.000    0.000    0.000 
#    0.000    0.000    0.000    0.000    0.000    0.000 
#
# Total GULP energy -198362.683254 kJ/mol
# GULP energy per Si atom -12397.667703 kJ/mol
# Density = 2.107448 g / cm^3
# Si number density = 21.122553 Si / 1000 Ang^3
#
#
#
# Elastic Constant Matrix: (Units=GPa)
#
#
# Indices 1 2 3 4 5 6 
#
# 1 63.9164 22.2150 4.4229 -8.7432 -14.2468 7.3511
# 2 22.2150 107.3711 26.9232 -6.7241 -14.7143 0.2020
# 3 4.4229 26.9232 60.1629 -14.1234 -14.2536 3.3567
# 4 -8.7432 -6.7241 -14.1234 35.4753 8.6597 -7.6960
# 5 -14.2468 -14.7143 -14.2536 8.6597 29.3501 -6.7704
# 6 7.3511 0.2020 3.3567 -7.6960 -6.7704 33.8370
#
#
#
# Elastic Compliance Matrix: (Units=1/GPa)
#
#
# Indices 1 2 3 4 5 6 
#
# 1 0.018937 -0.003387 0.002667 0.002783 0.007453 -0.002234
# 2 -0.003387 0.011439 -0.004552 -0.000762 0.002436 0.001433
# 3 0.002667 -0.004552 0.021842 0.006679 0.007730 0.000347
# 4 0.002783 -0.000762 0.006679 0.033670 -0.004452 0.005505
# 5 0.007453 0.002436 0.007730 -0.004452 0.045280 0.005647
# 6 -0.002234 0.001433 0.000347 0.005505 0.005647 0.032378
#
#
# Mechanical properties :
#
#
# Convention : Reuss Voigt Hill
#
# Bulk Modulus (GPa) = 23.99525 37.61918 30.80721
# Shear Modulus (GPa) = 26.59840 31.59174 29.09507
#
# Velocity S-wave (km/s) = 3.55243 3.87155 3.71542
# Velocity P-wave (km/s) = 5.31140 6.15092 5.74651
#
# Compressibility (1/GPa) = 0.04167491
#
# Stress axis : x y z
#
# Youngs Moduli (GPa) = 52.80678 87.42028 45.78282
#
# Poissons Ratio (x) = 0.29609 -0.12211
# Poissons Ratio (y) = 0.17886 0.20840
# Poissons Ratio (z) = -0.14085 0.39793
#
# Static dielectric constant tensor:
#      x y z
#    x 3.801700 0.136850 -0.155990 
#    y 0.136850 3.910400 0.119850 
#    z -0.155990 0.119850 3.769860 
# 
# 
# High freq. dielectric constant tensor:
#      x y z
#    x 1.821540 0.010290 -0.013500 
#    y 0.010290 1.838680 0.000750 
#    z -0.013500 0.000750 1.825400 
# 
# From -- ./inp_files/308858.got.cif
#   From: 2010.06.25/outbox.cif.g09.slc.cpg/sg2_155_cif.got.tgz:308858.got - 2010.06.27 13:26:56.
