data_PCOD8018249
_publ_section_title
;
Structure prediction by ZEFSAII (Michael W. Deem and Ramdas Pophale) SiO2 
 PCOD8018249
Probable space group: P -1
;
_chemical_formula_sum "Si O2"
_cell_formula_units_Z 16
_cell_length_a 6.475714
_cell_length_b 8.179617
_cell_length_c 16.131324
_cell_angle_alpha 128.720502
_cell_angle_beta 82.536065
_cell_angle_gamma 97.414767
_cell_volume 659.742249
_symmetry_space_group_name_H-M "P -1"
_symmetry_group_IT_number 2
_symmetry_cell_setting 'triclinic'
loop_
_space_group_symop_operation_xyz
x,y,z
-x,-y,-z
loop_
_atom_site_type_symbol
_atom_site_label
_atom_site_fract_x
_atom_site_fract_y
_atom_site_fract_z
Si Si1 0.010575 0.433062 0.819621
Si Si2 0.336723 0.336366 0.996884
Si Si3 0.539286 0.259978 0.403213
Si Si4 0.411598 0.688530 0.867125
Si Si5 0.164222 0.976864 0.368813
Si Si6 0.200928 0.907947 0.809195
Si Si7 0.801216 0.227432 0.530669
Si Si8 0.824298 0.632329 0.736430
O O1 0.960101 0.181352 0.739364
O O2 0.963023 0.516388 0.758158
O O3 0.257940 0.488067 0.840723
O O4 0.866194 0.543412 0.928582
O O5 0.257400 0.157605 0.878106
O O6 0.500000 0.500000 0.000000
O O7 0.455244 0.229486 0.033902
O O8 0.500000 0.500000 0.500000
O O9 0.684318 0.234440 0.307739
O O10 0.635160 0.156108 0.446813
O O11 0.330053 0.115990 0.349588
O O12 0.264773 0.853393 0.883878
O O13 0.582428 0.637870 0.773498
O O14 0.272180 0.851881 0.398768
O O15 0.020754 0.140304 0.470275
O O16 0.951310 0.859294 0.790611
O O17 0.826938 0.483389 0.608171
#
# Coordination Sequence:
#
# PCOD8018249 Si02
#       8
#     2   2   2   2   2   2   2   2
#     4   9  21  40  63  92 121 157 206 252 304 367
#     4  11  24  42  63  91 125 158 203 259 308 366
#     4  12  25  40  63  95 131 166 207 259 314 371
#     4  10  22  42  66  87 121 164 203 253 313 369
#     4  10  22  41  65  93 127 168 212 256 309 372
#     4  11  24  40  62  92 122 163 208 249 309 374
#     4  10  22  40  64  91 126 169 212 256 309 371
#     4   9  20  39  63  91 123 157 203 255 302 365
#
# _framework density 24.251895999999999
#
# number of rings (size 3 to 8) (size 9 to 14) (size 15 to 20)
#    0.000    1.750    0.000    3.000    0.000   17.000 
#    0.000    0.000    0.000    0.000    0.000    0.000 
#    0.000    0.000    0.000    0.000    0.000    0.000 
#
# Total GULP energy -198303.266003 kJ/mol
# GULP energy per Si atom -12393.954125 kJ/mol
# Density = 2.419670 g / cm^3
# Si number density = 24.251896 Si / 1000 Ang^3
#
#
#
# Elastic Constant Matrix: (Units=GPa)
#
#
# Indices 1 2 3 4 5 6 
#
# 1 133.8188 39.8363 48.0408 11.4283 4.7012 44.9652
# 2 39.8363 72.0111 37.6277 20.5122 2.4792 37.4493
# 3 48.0408 37.6277 137.2044 19.1382 3.9127 27.1202
# 4 11.4283 20.5122 19.1382 30.2913 12.8895 13.7429
# 5 4.7012 2.4792 3.9127 12.8895 31.9610 -1.8697
# 6 44.9652 37.4493 27.1202 13.7429 -1.8697 46.6835
#
#
#
# Elastic Compliance Matrix: (Units=1/GPa)
#
#
# Indices 1 2 3 4 5 6 
#
# 1 0.011971 -0.000758 -0.002273 0.003933 -0.003648 -0.010906
# 2 -0.000758 0.026849 -0.002570 -0.009227 0.001096 -0.016555
# 3 -0.002273 -0.002570 0.009276 -0.003605 0.000849 -0.000043
# 4 0.003933 -0.009227 -0.003605 0.054545 -0.022076 -0.011233
# 5 -0.003648 0.001096 0.000849 -0.022076 0.041140 0.010287
# 6 -0.010906 -0.016555 -0.000043 -0.011233 0.010287 0.048950
#
#
# Mechanical properties :
#
#
# Convention : Reuss Voigt Hill
#
# Bulk Modulus (GPa) = 27.10339 66.00486 46.55412
# Shear Modulus (GPa) = 23.12353 36.28914 29.70633
#
# Velocity S-wave (km/s) = 3.09119 3.87246 3.50367
# Velocity P-wave (km/s) = 4.89291 6.87532 5.96702
#
# Compressibility (1/GPa) = 0.03689576
#
# Stress axis : x y z
#
# Youngs Moduli (GPa) = 83.53385 37.24573 107.80508
#
# Poissons Ratio (x) = 0.02823 0.24499
# Poissons Ratio (y) = 0.06330 0.27703
# Poissons Ratio (z) = 0.18984 0.09571
#
# Static dielectric constant tensor:
#      x y z
#    x 4.493630 0.113390 0.390310 
#    y 0.113390 4.336130 0.065670 
#    z 0.390310 0.065670 4.381770 
# 
# 
# High freq. dielectric constant tensor:
#      x y z
#    x 1.965960 0.007920 0.016280 
#    y 0.007920 1.954750 0.001350 
#    z 0.016280 0.001350 1.960580 
# 
# From -- ./inp_files/323882.got.cif
#   From: 2010.06.25/outbox.cif.g09.slc.cpg/sg2_162_cif.got.tgz:323882.got - 2010.06.27 13:26:56.
