data_PCOD8018312
_publ_section_title
;
Structure prediction by ZEFSAII (Michael W. Deem and Ramdas Pophale) SiO2 
 PCOD8018312
Probable space group: P -1
;
_chemical_formula_sum "Si O2"
_cell_formula_units_Z 16
_cell_length_a 12.262252
_cell_length_b 5.463760
_cell_length_c 24.166746
_cell_angle_alpha 108.104216
_cell_angle_beta 29.756579
_cell_angle_gamma 117.801089
_cell_volume 694.299020
_symmetry_space_group_name_H-M "P -1"
_symmetry_group_IT_number 2
_symmetry_cell_setting 'triclinic'
loop_
_space_group_symop_operation_xyz
x,y,z
-x,-y,-z
loop_
_atom_site_type_symbol
_atom_site_label
_atom_site_fract_x
_atom_site_fract_y
_atom_site_fract_z
Si Si1 0.075393 0.636840 0.253247
Si Si2 0.086139 0.242614 0.550491
Si Si3 0.789360 0.198526 0.579732
Si Si4 0.719166 0.382085 0.131922
Si Si5 0.406061 0.231163 0.983132
Si Si6 0.557550 0.659122 0.312768
Si Si7 0.733939 0.825948 0.079571
Si Si8 0.016383 0.011376 0.774912
O O1 0.363661 0.833922 0.137849
O O2 0.027472 0.307926 0.244620
O O3 0.968801 0.660014 0.360317
O O4 0.948559 0.767079 0.274507
O O5 0.305401 0.503456 0.444296
O O6 0.838225 0.108978 0.613459
O O7 0.180132 0.996954 0.496349
O O8 0.517266 0.181633 0.693145
O O9 0.000000 0.500000 0.500000
O O10 0.673752 0.459781 0.220141
O O11 0.600536 0.532163 0.151946
O O12 0.600540 0.040290 0.155609
O O13 0.000000 0.500000 0.000000
O O14 0.273573 0.267226 0.987968
O O15 0.500000 0.500000 0.000000
O O16 0.202483 0.982167 0.090627
O O17 0.741060 0.879068 0.289006
O O18 0.000000 0.000000 0.000000
#
# Coordination Sequence:
#
# PCOD8018312 Si02
#       8
#     2   2   2   2   2   2   2   2
#     4  11  27  45  72  98 140 189 242 285 347 431
#     4  10  24  45  69 103 139 185 237 290 359 421
#     4   9  22  44  68  99 136 183 229 290 357 417
#     4  10  23  39  63 102 137 177 218 285 346 409
#     4  10  24  47  70 100 143 190 233 292 360 428
#     4  11  25  42  73 101 148 178 235 294 363 417
#     4  10  22  40  65 100 134 175 234 285 342 413
#     4  11  26  46  70 105 138 188 234 294 352 422
#
# _framework density 23.044827000000002
#
# number of rings (size 3 to 8) (size 9 to 14) (size 15 to 20)
#    0.000    1.750    0.000    1.875    8.750   11.000 
#    0.000    0.000    0.000    0.000    0.000    0.000 
#    0.000    0.000    0.000    0.000    0.000    0.000 
#
# Total GULP energy -198208.854941 kJ/mol
# GULP energy per Si atom -12388.053434 kJ/mol
# Density = 2.299238 g / cm^3
# Si number density = 23.044827 Si / 1000 Ang^3
#
#
#
# Elastic Constant Matrix: (Units=GPa)
#
#
# Indices 1 2 3 4 5 6 
#
# 1 145.8209 58.2135 53.9201 10.2580 1.9324 9.4380
# 2 58.2135 125.8409 30.9421 21.2210 3.4864 -14.8654
# 3 53.9201 30.9421 129.1005 19.1354 6.4370 13.4345
# 4 10.2580 21.2210 19.1354 25.9084 6.7356 0.3990
# 5 1.9324 3.4864 6.4370 6.7356 42.1110 -1.4100
# 6 9.4380 -14.8654 13.4345 0.3990 -1.4100 46.8838
#
#
#
# Elastic Compliance Matrix: (Units=1/GPa)
#
#
# Indices 1 2 3 4 5 6 
#
# 1 0.009768 -0.004406 -0.003066 0.002051 -0.000027 -0.002503
# 2 -0.004406 0.011996 -0.000385 -0.008060 0.000721 0.004891
# 3 -0.003066 -0.000385 0.010268 -0.005877 -0.000538 -0.002413
# 4 0.002051 -0.008060 -0.005877 0.050491 -0.006669 -0.001914
# 5 -0.000027 0.000721 -0.000538 -0.006669 0.024877 0.001193
# 6 -0.002503 0.004891 -0.002413 -0.001914 0.001193 0.024128
#
#
# Mechanical properties :
#
#
# Convention : Reuss Voigt Hill
#
# Bulk Modulus (GPa) = 61.28193 76.32376 68.80284
# Shear Modulus (GPa) = 32.74778 40.15976 36.45377
#
# Velocity S-wave (km/s) = 3.77377 4.17907 3.98158
# Velocity P-wave (km/s) = 6.75564 7.51517 7.14550
#
# Compressibility (1/GPa) = 0.01631802
#
# Stress axis : x y z
#
# Youngs Moduli (GPa) = 102.37113 83.35884 97.39049
#
# Poissons Ratio (x) = 0.36726 0.29861
# Poissons Ratio (y) = 0.45102 0.03754
# Poissons Ratio (z) = 0.31388 0.03213
#
# Static dielectric constant tensor:
#      x y z
#    x 6.418720 -1.951070 0.461130 
#    y -1.951070 5.923650 -0.436060 
#    z 0.461130 -0.436060 4.478460 
# 
# 
# High freq. dielectric constant tensor:
#      x y z
#    x 1.911650 -0.003920 0.001100 
#    y -0.003920 1.911340 0.007300 
#    z 0.001100 0.007300 1.909210 
# 
# From -- ./inp_files/609213.got.cif
#   From: 2010.06.25/outbox.cif.g09.slc.cpg/sg2_305_cif.got.tgz:609213.got - 2010.06.27 13:26:56.
