data_PCOD8018788
_publ_section_title
;
Structure prediction by ZEFSAII (Michael W. Deem and Ramdas Pophale) SiO2 
 PCOD8018788
Probable space group: P -1
;
_chemical_formula_sum "Si O2"
_cell_formula_units_Z 16
_cell_length_a 17.965421
_cell_length_b 7.644017
_cell_length_c 17.845246
_cell_angle_alpha 124.659710
_cell_angle_beta 23.112109
_cell_angle_gamma 134.368163
_cell_volume 663.027240
_symmetry_space_group_name_H-M "P -1"
_symmetry_group_IT_number 2
_symmetry_cell_setting 'triclinic'
loop_
_space_group_symop_operation_xyz
x,y,z
-x,-y,-z
loop_
_atom_site_type_symbol
_atom_site_label
_atom_site_fract_x
_atom_site_fract_y
_atom_site_fract_z
Si Si1 0.257123 0.650052 0.064429
Si Si2 0.051773 0.957640 0.336044
Si Si3 0.948918 0.870181 0.104374
Si Si4 0.550109 0.905929 0.272370
Si Si5 0.807150 0.679315 0.354526
Si Si6 0.365873 0.638819 0.794913
Si Si7 0.658389 0.625880 0.730235
Si Si8 0.817947 0.242051 0.306122
O O1 0.364568 0.726710 0.900796
O O2 0.429506 0.624721 0.950404
O O3 0.214194 0.860582 0.186879
O O4 0.011524 0.386800 0.225801
O O5 0.997527 0.913428 0.286856
O O6 0.811602 0.804273 0.563376
O O7 0.193981 0.255472 0.300838
O O8 0.833026 0.774481 0.269638
O O9 0.875056 0.622264 0.062591
O O10 0.853039 0.023956 0.188330
O O11 0.216539 0.059919 0.911629
O O12 0.403951 0.657274 0.295357
O O13 0.424521 0.890226 0.461573
O O14 0.599007 0.147073 0.241010
O O15 0.559588 0.582465 0.590521
O O16 0.840030 0.443624 0.272872
#
# Coordination Sequence:
#
# PCOD8018788 Si02
#       8
#     2   2   2   2   2   2   2   2
#     4  11  21  45  65 101 134 176 220 283 338 398
#     4  10  22  40  71  97 133 175 222 277 345 398
#     4  12  27  48  68  97 144 183 225 284 338 396
#     4  12  23  44  68  99 138 176 230 285 328 405
#     4  11  23  48  68 101 140 178 226 287 336 401
#     4  12  26  45  69  99 141 184 223 279 346 398
#     4  11  21  41  70 100 128 176 227 277 335 406
#     4  11  24  43  71  98 135 180 231 275 337 398
#
# _framework density 24.131740000000001
#
# number of rings (size 3 to 8) (size 9 to 14) (size 15 to 20)
#    0.000    0.750    6.250    2.625    0.000    1.000 
#    2.250    3.125    0.000    0.000    0.000    0.000 
#    0.000    0.000    0.000    0.000    0.000    0.000 
#
# Total GULP energy -198422.668114 kJ/mol
# GULP energy per Si atom -12401.416757 kJ/mol
# Density = 2.407682 g / cm^3
# Si number density = 24.131740 Si / 1000 Ang^3
#
#
#
# Elastic Constant Matrix: (Units=GPa)
#
#
# Indices 1 2 3 4 5 6 
#
# 1 63.8508 19.3541 -8.0775 -6.0670 -3.5970 -6.7852
# 2 19.3541 132.2537 14.9788 -2.7098 -12.3531 3.9440
# 3 -8.0775 14.9788 118.7677 7.1490 -12.9579 -8.2508
# 4 -6.0670 -2.7098 7.1490 40.1027 -5.4739 -2.1997
# 5 -3.5970 -12.3531 -12.9579 -5.4739 27.9878 -0.3859
# 6 -6.7852 3.9440 -8.2508 -2.1997 -0.3859 31.2921
#
#
#
# Elastic Compliance Matrix: (Units=1/GPa)
#
#
# Indices 1 2 3 4 5 6 
#
# 1 0.017652 -0.002654 0.001997 0.002764 0.002630 0.004915
# 2 -0.002654 0.008419 -0.001085 0.000666 0.002977 -0.001839
# 3 0.001997 -0.001085 0.009387 -0.000728 0.004023 0.003043
# 4 0.002764 0.000666 -0.000728 0.026404 0.005507 0.002247
# 5 0.002630 0.002977 0.004023 0.005507 0.040351 0.002141
# 6 0.004915 -0.001839 0.003043 0.002247 0.002141 0.034241
#
#
# Mechanical properties :
#
#
# Convention : Reuss Voigt Hill
#
# Bulk Modulus (GPa) = 31.27534 40.82033 36.04783
# Shear Modulus (GPa) = 33.20153 39.11764 36.15959
#
# Velocity S-wave (km/s) = 3.71326 4.03054 3.87515
# Velocity P-wave (km/s) = 5.60114 6.21391 5.91546
#
# Compressibility (1/GPa) = 0.03197408
#
# Stress axis : x y z
#
# Youngs Moduli (GPa) = 56.65197 118.77782 106.53374
#
# Poissons Ratio (x) = 0.31519 -0.21278
# Poissons Ratio (y) = 0.15033 0.11562
# Poissons Ratio (z) = -0.11315 0.12891
#
# Static dielectric constant tensor:
#      x y z
#    x 4.109300 0.191000 -0.188840 
#    y 0.191000 4.386800 0.053880 
#    z -0.188840 0.053880 4.827970 
# 
# 
# High freq. dielectric constant tensor:
#      x y z
#    x 1.933600 0.012550 -0.007210 
#    y 0.012550 1.957610 0.007340 
#    z -0.007210 0.007340 1.987530 
# 
# From -- ./inp_files/601179.got.cif
#   From: 2010.06.25/outbox.cif.g09.slc.cpg/sg2_301_cif.got.tgz:601179.got - 2010.06.27 13:26:56.
