data_PCOD8018123
_publ_section_title
;
Structure prediction by ZEFSAII (Michael W. Deem and Ramdas Pophale) SiO2 
 PCOD8018123
Probable space group: P -1
;
_chemical_formula_sum "Si O2"
_cell_formula_units_Z 14
_cell_length_a 14.148691
_cell_length_b 10.955925
_cell_length_c 11.344447
_cell_angle_alpha 40.960100
_cell_angle_beta 76.064577
_cell_angle_gamma 45.038989
_cell_volume 632.647636
_symmetry_space_group_name_H-M "P -1"
_symmetry_group_IT_number 2
_symmetry_cell_setting 'triclinic'
loop_
_space_group_symop_operation_xyz
x,y,z
-x,-y,-z
loop_
_atom_site_type_symbol
_atom_site_label
_atom_site_fract_x
_atom_site_fract_y
_atom_site_fract_z
Si Si1 0.005626 0.512632 0.761795
Si Si2 0.697212 0.831900 0.938864
Si Si3 0.609861 0.290604 0.002392
Si Si4 0.345769 0.845493 0.495170
Si Si5 0.365284 0.413979 0.728206
Si Si6 0.977961 0.826855 0.165933
Si Si7 0.239957 0.328433 0.643658
O O1 0.028213 0.267479 0.888863
O O2 0.080952 0.528725 0.628899
O O3 0.113984 0.375354 0.949628
O O4 0.806723 0.871424 0.575908
O O5 0.628907 0.016208 0.699781
O O6 0.575238 0.091459 0.895795
O O7 0.700584 0.600308 0.126152
O O8 0.519011 0.542231 0.738164
O O9 0.500000 0.500000 0.000000
O O10 0.804658 0.060916 0.123357
O O11 0.616787 0.059250 0.137358
O O12 0.295852 0.734217 0.520505
O O13 0.320998 0.386978 0.634682
O O14 0.151950 0.497831 0.420923
O O15 0.000000 0.000000 0.000000
#
# Coordination Sequence:
#
# PCOD8018123 Si02
#       7
#     2   2   2   2   2   2   2
#     4  10  22  43  61  92 127 170 207 261 321 379
#     4  10  22  40  62  93 131 166 214 260 314 387
#     4  11  23  44  68  92 125 173 217 261 324 375
#     4  12  23  39  69  93 130 167 212 265 318 380
#     4  10  22  40  64  96 125 169 212 259 325 373
#     4  11  24  42  65  93 127 168 214 266 324 376
#     4  10  22  42  66  86 131 166 211 260 316 393
#
# _framework density 22.129221999999999
#
# number of rings (size 3 to 8) (size 9 to 14) (size 15 to 20)
#    0.000    1.429    0.000    7.714    4.000    2.286 
#    7.714    1.429    0.000    0.000    0.000    0.000 
#    0.000    0.000    0.000    0.000    0.000    0.000 
#
# Total GULP energy -173503.885447 kJ/mol
# GULP energy per Si atom -12393.134675 kJ/mol
# Density = 2.207885 g / cm^3
# Si number density = 22.129222 Si / 1000 Ang^3
#
#
#
# Elastic Constant Matrix: (Units=GPa)
#
#
# Indices 1 2 3 4 5 6 
#
# 1 84.7440 18.7388 11.5870 -6.0959 -4.9632 0.3592
# 2 18.7388 89.4311 15.2271 -17.1662 -7.5610 2.4249
# 3 11.5870 15.2271 100.5786 6.8142 14.3185 -7.2376
# 4 -6.0959 -17.1662 6.8142 37.6531 0.5990 2.6885
# 5 -4.9632 -7.5610 14.3185 0.5990 27.8300 3.4057
# 6 0.3592 2.4249 -7.2376 2.6885 3.4057 17.3027
#
#
#
# Elastic Compliance Matrix: (Units=1/GPa)
#
#
# Indices 1 2 3 4 5 6 
#
# 1 0.012736 -0.001743 -0.001848 0.001672 0.002912 -0.001626
# 2 -0.001743 0.014228 -0.003717 0.007197 0.006024 -0.005817
# 3 -0.001848 -0.003717 0.012922 -0.004795 -0.008921 0.008465
# 4 0.001672 0.007197 -0.004795 0.031536 0.005138 -0.008960
# 5 0.002912 0.006024 -0.008921 0.005138 0.044300 -0.014154
# 6 -0.001626 -0.005817 0.008465 -0.008960 -0.014154 0.066363
#
#
# Mechanical properties :
#
#
# Convention : Reuss Voigt Hill
#
# Bulk Modulus (GPa) = 39.57209 40.65106 40.11157
# Shear Modulus (GPa) = 24.37552 31.83720 28.10636
#
# Velocity S-wave (km/s) = 3.32250 3.79713 3.56771
# Velocity P-wave (km/s) = 5.71312 6.13465 5.92764
#
# Compressibility (1/GPa) = 0.02527034
#
# Stress axis : x y z
#
# Youngs Moduli (GPa) = 78.51774 70.28247 77.38680
#
# Poissons Ratio (x) = 0.12249 0.14302
# Poissons Ratio (y) = 0.13684 0.28765
# Poissons Ratio (z) = 0.14511 0.26124
#
# Static dielectric constant tensor:
#      x y z
#    x 7.593690 1.328730 5.112470 
#    y 1.328730 4.272110 1.872210 
#    z 5.112470 1.872210 11.124360 
# 
# 
# High freq. dielectric constant tensor:
#      x y z
#    x 1.869420 -0.003820 0.009260 
#    y -0.003820 1.855810 -0.002060 
#    z 0.009260 -0.002060 1.876770 
# 
# From -- ./inp_files/428476.got.cif
#   From: 2010.06.25/outbox.cif.g09.slc.cpg/sg2_215_cif.got.tgz:428476.got - 2010.06.27 13:26:56.
