data_PCOD8018243
_publ_section_title
;
Structure prediction by ZEFSAII (Michael W. Deem and Ramdas Pophale) SiO2 
 PCOD8018243
Probable space group: P -1
;
_chemical_formula_sum "Si O2"
_cell_formula_units_Z 16
_cell_length_a 8.377248
_cell_length_b 15.768410
_cell_length_c 8.789600
_cell_angle_alpha 132.228970
_cell_angle_beta 66.798375
_cell_angle_gamma 125.818882
_cell_volume 697.130951
_symmetry_space_group_name_H-M "P -1"
_symmetry_group_IT_number 2
_symmetry_cell_setting 'triclinic'
loop_
_space_group_symop_operation_xyz
x,y,z
-x,-y,-z
loop_
_atom_site_type_symbol
_atom_site_label
_atom_site_fract_x
_atom_site_fract_y
_atom_site_fract_z
Si Si1 0.537553 0.292666 0.910173
Si Si2 0.907477 0.867486 0.176070
Si Si3 0.781558 0.159852 0.164412
Si Si4 0.516864 0.882217 0.028752
Si Si5 0.980499 0.845753 0.458648
Si Si6 0.278826 0.516303 0.657776
Si Si7 0.870421 0.324806 0.615832
Si Si8 0.373266 0.292831 0.387573
O O1 0.316103 0.246286 0.881703
O O2 0.681687 0.334028 0.760951
O O3 0.552171 0.172211 0.841497
O O4 0.603264 0.412898 0.147263
O O5 0.008922 0.853493 0.276350
O O6 0.918382 0.009005 0.334614
O O7 0.027119 0.851907 0.971400
O O8 0.673973 0.176633 0.077956
O O9 0.836990 0.278546 0.399104
O O10 0.628526 0.036263 0.170130
O O11 0.667262 0.827740 0.853477
O O12 0.741807 0.772024 0.491270
O O13 0.079466 0.766633 0.403428
O O14 0.283327 0.381657 0.460418
O O15 0.386617 0.612852 0.589299
O O16 0.048956 0.473560 0.718121
#
# Coordination Sequence:
#
# PCOD8018243 Si02
#       8
#     2   2   2   2   2   2   2   2
#     4  11  24  41  65  90 127 167 212 256 311 366
#     4  11  24  38  64  97 129 162 207 254 315 381
#     4  11  24  38  64  97 129 162 207 254 315 381
#     4  10  22  40  64  90 134 162 200 256 322 371
#     4  10  22  40  64  90 134 162 200 256 322 371
#     4   9  21  40  66  86 124 164 218 258 306 358
#     4  11  24  41  65  90 127 167 212 256 311 366
#     4   9  18  38  65  90 114 166 200 258 307 359
#
# _framework density 22.951214
#
# number of rings (size 3 to 8) (size 9 to 14) (size 15 to 20)
#    0.000    1.750    1.250    1.875   10.500    4.000 
#    0.000    5.000    5.500    0.000    0.000    0.000 
#    0.000    0.000    0.000    0.000    0.000    0.000 
#
# Total GULP energy -198253.386881 kJ/mol
# GULP energy per Si atom -12390.836680 kJ/mol
# Density = 2.289898 g / cm^3
# Si number density = 22.951214 Si / 1000 Ang^3
#
#
#
# Elastic Constant Matrix: (Units=GPa)
#
#
# Indices 1 2 3 4 5 6 
#
# 1 65.6043 12.8308 20.3215 -1.6709 5.0305 28.9321
# 2 12.8308 80.9824 11.9835 -4.9573 -1.1268 31.7594
# 3 20.3215 11.9835 85.5233 -0.4905 0.6053 23.7144
# 4 -1.6709 -4.9573 -0.4905 34.2520 4.7653 -1.6871
# 5 5.0305 -1.1268 0.6053 4.7653 28.4185 -1.1990
# 6 28.9321 31.7594 23.7144 -1.6871 -1.1990 36.4847
#
#
#
# Elastic Compliance Matrix: (Units=1/GPa)
#
#
# Indices 1 2 3 4 5 6 
#
# 1 0.026041 0.006181 0.000300 0.001674 -0.005763 -0.026337
# 2 0.006181 0.020730 0.002441 0.002375 -0.001755 -0.024481
# 3 0.000300 0.002441 0.014573 0.000102 -0.000784 -0.011856
# 4 0.001674 0.002375 0.000102 0.030259 -0.005373 -0.002238
# 5 -0.005763 -0.001755 -0.000784 -0.005373 0.037377 0.007587
# 6 -0.026337 -0.024481 -0.011856 -0.002238 0.007587 0.077456
#
#
# Mechanical properties :
#
#
# Convention : Reuss Voigt Hill
#
# Bulk Modulus (GPa) = 12.62844 35.82017 24.22430
# Shear Modulus (GPa) = 23.25711 32.29598 27.77654
#
# Velocity S-wave (km/s) = 3.18673 3.75528 3.48263
# Velocity P-wave (km/s) = 4.36516 5.86888 5.17196
#
# Compressibility (1/GPa) = 0.07918638
#
# Stress axis : x y z
#
# Youngs Moduli (GPa) = 38.40130 48.24020 68.61993
#
# Poissons Ratio (x) = -0.29817 -0.02056
# Poissons Ratio (y) = -0.23736 -0.16749
# Poissons Ratio (z) = -0.01151 -0.11775
#
# Static dielectric constant tensor:
#      x y z
#    x 3.827170 0.262830 -0.147460 
#    y 0.262830 4.533970 -0.038770 
#    z -0.147460 -0.038770 3.949980 
# 
# 
# High freq. dielectric constant tensor:
#      x y z
#    x 1.880080 0.018770 -0.011610 
#    y 0.018770 1.922550 -0.000550 
#    z -0.011610 -0.000550 1.895610 
# 
# From -- ./inp_files/218574.got.cif
#   From: 2010.06.25/outbox.cif.g09.slc.cpg/sg2_110_cif.got.tgz:218574.got - 2010.06.27 13:26:56.
