data_PCOD8018540
_publ_section_title
;
Structure prediction by ZEFSAII (Michael W. Deem and Ramdas Pophale) SiO2 
 PCOD8018540
Probable space group: P -1
;
_chemical_formula_sum "Si O2"
_cell_formula_units_Z 16
_cell_length_a 14.315152
_cell_length_b 8.527465
_cell_length_c 6.980100
_cell_angle_alpha 103.299225
_cell_angle_beta 78.068131
_cell_angle_gamma 74.342484
_cell_volume 764.889589
_symmetry_space_group_name_H-M "P -1"
_symmetry_group_IT_number 2
_symmetry_cell_setting 'triclinic'
loop_
_space_group_symop_operation_xyz
x,y,z
-x,-y,-z
loop_
_atom_site_type_symbol
_atom_site_label
_atom_site_fract_x
_atom_site_fract_y
_atom_site_fract_z
Si Si1 0.275094 0.029706 0.755299
Si Si2 0.886311 0.123971 0.101302
Si Si3 0.539854 0.254528 0.569748
Si Si4 0.594949 0.579372 0.667498
Si Si5 0.100173 0.620702 0.133819
Si Si6 0.433608 0.148209 0.934022
Si Si7 0.823719 0.420071 0.490593
Si Si8 0.120903 0.340449 0.741727
O O1 0.191640 0.980009 0.899583
O O2 0.348134 0.867167 0.566221
O O3 0.334169 0.107877 0.902205
O O4 0.217741 0.168906 0.658918
O O5 0.875352 0.230037 0.332734
O O6 0.857958 0.254519 0.972571
O O7 0.000000 0.000000 0.000000
O O8 0.542690 0.436911 0.692570
O O9 0.469213 0.281887 0.419942
O O10 0.496695 0.161885 0.723977
O O11 0.705459 0.488281 0.506554
O O12 0.600967 0.672575 0.889350
O O13 0.163395 0.583664 0.289839
O O14 0.980378 0.709595 0.247712
O O15 0.119705 0.442003 0.967502
O O16 0.500000 0.000000 0.000000
O O17 0.875463 0.548274 0.413900
#
# Coordination Sequence:
#
# PCOD8018540 Si02
#       8
#     2   2   2   2   2   2   2   2
#     4  12  23  46  69  98 136 182 216 284 342 386
#     4  11  24  46  66  96 141 174 226 276 334 397
#     4  11  25  46  70  94 140 177 220 278 339 401
#     4  11  24  46  69  97 134 181 223 272 335 408
#     4  10  22  43  65  94 131 179 220 277 328 396
#     4  12  26  42  67 102 135 170 227 278 331 396
#     4  11  23  41  68  98 128 180 227 265 337 402
#     4  10  22  40  67  92 135 171 223 277 333 391
#
# _framework density 20.918053
#
# number of rings (size 3 to 8) (size 9 to 14) (size 15 to 20)
#    0.000    1.000    3.750    2.625    1.750    2.500 
#    2.250    0.000    0.000    0.000    0.000    0.000 
#    0.000    0.000    0.000    0.000    0.000    0.000 
#
# Total GULP energy -198516.931297 kJ/mol
# GULP energy per Si atom -12407.308206 kJ/mol
# Density = 2.087044 g / cm^3
# Si number density = 20.918053 Si / 1000 Ang^3
#
#
#
# Elastic Constant Matrix: (Units=GPa)
#
#
# Indices 1 2 3 4 5 6 
#
# 1 121.9063 49.6138 41.4089 -5.5861 -14.9819 6.9188
# 2 49.6138 101.1332 40.2759 -2.8220 -0.0135 -5.7380
# 3 41.4089 40.2759 97.3029 -6.1234 -2.7119 3.2329
# 4 -5.5861 -2.8220 -6.1234 37.1171 -3.4139 -8.1262
# 5 -14.9819 -0.0135 -2.7119 -3.4139 31.7526 3.7808
# 6 6.9188 -5.7380 3.2329 -8.1262 3.7808 45.2950
#
#
#
# Elastic Compliance Matrix: (Units=1/GPa)
#
#
# Indices 1 2 3 4 5 6 
#
# 1 0.012067 -0.004930 -0.002785 0.000955 0.005864 -0.002587
# 2 -0.004930 0.014032 -0.003891 0.000079 -0.003010 0.003074
# 3 -0.002785 -0.003891 0.013182 0.001293 0.000042 -0.000780
# 4 0.000955 0.000079 0.001293 0.028606 0.003083 0.004647
# 5 0.005864 -0.003010 0.000042 0.003083 0.035029 -0.003651
# 6 -0.002587 0.003074 -0.000780 0.004647 -0.003651 0.024056
#
#
# Mechanical properties :
#
#
# Convention : Reuss Voigt Hill
#
# Bulk Modulus (GPa) = 62.23571 64.77106 63.50339
# Shear Modulus (GPa) = 32.14607 35.43586 33.79096
#
# Velocity S-wave (km/s) = 3.92441 4.12033 4.02356
# Velocity P-wave (km/s) = 7.09587 7.32581 7.21176
#
# Compressibility (1/GPa) = 0.01606795
#
# Stress axis : x y z
#
# Youngs Moduli (GPa) = 82.87266 71.26384 75.86329
#
# Poissons Ratio (x) = 0.35132 0.21129
# Poissons Ratio (y) = 0.40855 0.29521
# Poissons Ratio (z) = 0.23081 0.27731
#
# Static dielectric constant tensor:
#      x y z
#    x 3.856430 0.045520 -0.091080 
#    y 0.045520 3.901770 0.063700 
#    z -0.091080 0.063700 3.679780 
# 
# 
# High freq. dielectric constant tensor:
#      x y z
#    x 1.827360 0.001200 -0.008050 
#    y 0.001200 1.833380 0.001640 
#    z -0.008050 0.001640 1.810990 
# 
# From -- ./inp_files/81066.got.cif
#   From: 2010.06.25/outbox.cif.g09.slc.cpg/sg2_41_cif.got.tgz:81066.got - 2010.06.27 13:26:56.
