data_PCOD8018595
_publ_section_title
;
Structure prediction by ZEFSAII (Michael W. Deem and Ramdas Pophale) SiO2 
 PCOD8018595
Probable space group: P -1
;
_chemical_formula_sum "Si O2"
_cell_formula_units_Z 16
_cell_length_a 12.679211
_cell_length_b 19.751099
_cell_length_c 8.861641
_cell_angle_alpha 134.968749
_cell_angle_beta 45.510234
_cell_angle_gamma 154.081834
_cell_volume 670.857810
_symmetry_space_group_name_H-M "P -1"
_symmetry_group_IT_number 2
_symmetry_cell_setting 'triclinic'
loop_
_space_group_symop_operation_xyz
x,y,z
-x,-y,-z
loop_
_atom_site_type_symbol
_atom_site_label
_atom_site_fract_x
_atom_site_fract_y
_atom_site_fract_z
Si Si1 0.782929 0.354339 0.652415
Si Si2 0.309683 0.414486 0.190127
Si Si3 0.516740 0.170672 0.926064
Si Si4 0.335708 0.619919 0.639483
Si Si5 0.781976 0.929044 0.504910
Si Si6 0.044347 0.096433 0.977711
Si Si7 0.992337 0.350680 0.191203
Si Si8 0.717286 0.113260 0.842261
O O1 0.577699 0.213392 0.754267
O O2 0.763613 0.285023 0.405117
O O3 0.056182 0.490403 0.665832
O O4 0.766986 0.456407 0.774908
O O5 0.398370 0.539756 0.421710
O O6 0.061382 0.309220 0.181410
O O7 0.500000 0.500000 0.000000
O O8 0.217101 0.271648 0.144992
O O9 0.642327 0.137067 0.807888
O O10 0.626594 0.323522 0.137458
O O11 0.221835 0.009837 0.990878
O O12 0.520352 0.783861 0.620635
O O13 0.780466 0.864232 0.256280
O O14 0.814266 0.056551 0.620779
O O15 0.000000 0.000000 0.500000
O O16 0.000000 0.000000 0.000000
O O17 0.936640 0.280861 0.972804
O O18 0.500000 0.000000 0.000000
#
# Coordination Sequence:
#
# PCOD8018595 Si02
#       8
#     2   2   2   2   2   2   2   2
#     4  10  23  42  69 103 143 184 231 299 359 414
#     4  11  24  43  73  99 139 190 239 285 351 439
#     4  12  25  46  74 105 148 182 237 305 360 428
#     4  11  22  42  74 100 138 186 240 291 346 425
#     4  12  23  45  73 103 144 192 239 295 354 428
#     4  12  29  49  70 108 147 187 235 302 368 422
#     4  10  22  40  68 101 135 184 241 281 350 429
#     4  12  23  40  72 104 139 188 241 291 359 426
#
# _framework density 23.850061
#
# number of rings (size 3 to 8) (size 9 to 14) (size 15 to 20)
#    0.000    0.750    5.000    1.875    1.750    4.000 
#    0.000    4.375    0.000    0.000    0.000    0.000 
#    0.000    0.000    0.000    0.000    0.000    0.000 
#
# Total GULP energy -198236.273962 kJ/mol
# GULP energy per Si atom -12389.767123 kJ/mol
# Density = 2.379578 g / cm^3
# Si number density = 23.850061 Si / 1000 Ang^3
#
#
#
# Elastic Constant Matrix: (Units=GPa)
#
#
# Indices 1 2 3 4 5 6 
#
# 1 80.6791 16.4235 30.2486 15.6441 -6.1069 -19.1960
# 2 16.4235 88.9382 41.6009 10.2470 -7.4435 -20.2298
# 3 30.2486 41.6009 106.1768 23.5808 -16.2044 -13.7070
# 4 15.6441 10.2470 23.5808 42.8370 -8.9264 0.7213
# 5 -6.1069 -7.4435 -16.2044 -8.9264 29.8182 1.8731
# 6 -19.1960 -20.2298 -13.7070 0.7213 1.8731 45.0710
#
#
#
# Elastic Compliance Matrix: (Units=1/GPa)
#
#
# Indices 1 2 3 4 5 6 
#
# 1 0.015671 0.000305 -0.002837 -0.004320 0.000073 0.006015
# 2 0.000305 0.014849 -0.004943 -0.000933 0.000471 0.005287
# 3 -0.002837 -0.004943 0.013929 -0.004555 0.004347 0.000701
# 4 -0.004320 -0.000933 -0.004555 0.028832 0.005310 -0.004326
# 5 0.000073 0.000471 0.004347 0.005310 0.037626 -0.000084
# 6 0.006015 0.005287 0.000701 -0.004326 -0.000084 0.027408
#
#
# Mechanical properties :
#
#
# Convention : Reuss Voigt Hill
#
# Bulk Modulus (GPa) = 33.89994 50.26001 42.07998
# Shear Modulus (GPa) = 30.65653 36.04666 33.35159
#
# Velocity S-wave (km/s) = 3.58912 3.89187 3.74356
# Velocity P-wave (km/s) = 5.60538 6.42765 6.03055
#
# Compressibility (1/GPa) = 0.02949858
#
# Stress axis : x y z
#
# Youngs Moduli (GPa) = 63.81385 67.34397 71.79381
#
# Poissons Ratio (x) = -0.02055 0.20367
# Poissons Ratio (y) = -0.01947 0.35489
# Poissons Ratio (z) = 0.18103 0.33290
#
# Static dielectric constant tensor:
#      x y z
#    x 2.540270 1.045870 -0.715980 
#    y 1.045870 3.965620 0.713680 
#    z -0.715980 0.713680 3.799890 
# 
# 
# High freq. dielectric constant tensor:
#      x y z
#    x 1.941480 0.001630 -0.010530 
#    y 0.001630 1.944200 0.012190 
#    z -0.010530 0.012190 1.947070 
# 
# From -- ./inp_files/279804.got.cif
#   From: 2010.06.25/outbox.cif.g09.slc.cpg/sg2_140_cif.got.tgz:279804.got - 2010.06.27 13:26:56.
