data_PCOD8018414
_publ_section_title
;
Structure prediction by ZEFSAII (Michael W. Deem and Ramdas Pophale) SiO2 
 PCOD8018414
Probable space group: P -1
;
_chemical_formula_sum "Si O2"
_cell_formula_units_Z 14
_cell_length_a 28.838891
_cell_length_b 12.172730
_cell_length_c 14.059046
_cell_angle_alpha 150.258047
_cell_angle_beta 158.963461
_cell_angle_gamma 20.461726
_cell_volume 618.573350
_symmetry_space_group_name_H-M "P -1"
_symmetry_group_IT_number 2
_symmetry_cell_setting 'triclinic'
loop_
_space_group_symop_operation_xyz
x,y,z
-x,-y,-z
loop_
_atom_site_type_symbol
_atom_site_label
_atom_site_fract_x
_atom_site_fract_y
_atom_site_fract_z
Si Si1 0.100905 0.230098 0.567168
Si Si2 0.005325 0.530482 0.811485
Si Si3 0.909595 0.109788 0.011583
Si Si4 0.526901 0.769635 0.806114
Si Si5 0.585251 0.832429 0.636544
Si Si6 0.526764 0.388472 0.232433
Si Si7 0.654343 0.742945 0.329052
O O1 0.041603 0.365893 0.659203
O O2 0.000000 0.500000 0.500000
O O3 0.319209 0.974474 0.781298
O O4 0.046952 0.042596 0.302296
O O5 0.869337 0.529929 0.609826
O O6 0.201133 0.353061 0.099302
O O7 0.878810 0.899257 0.828883
O O8 0.730847 0.481742 0.941295
O O9 0.000000 0.000000 0.000000
O O10 0.479710 0.611129 0.662982
O O11 0.398067 0.980368 0.628963
O O12 0.500000 0.000000 0.000000
O O13 0.560442 0.599309 0.426678
O O14 0.500000 0.000000 0.500000
O O15 0.475202 0.101762 0.709337
O O16 0.355621 0.480122 0.916968
#
# Coordination Sequence:
#
# PCOD8018414 Si02
#       7
#     2   2   2   2   2   2   2
#     4  12  21  37  66 104 145 182 224 278 354 442
#     4  12  25  43  69 103 138 184 243 298 352 425
#     4  12  23  37  64 101 148 195 229 276 355 436
#     4  10  22  40  66 105 148 185 219 284 361 442
#     4  12  28  50  71  97 137 191 253 307 347 409
#     4  11  23  44  69 101 145 185 228 288 362 426
#     4  11  24  45  69 103 143 179 234 289 363 432
#
# _framework density 22.632725000000001
#
# number of rings (size 3 to 8) (size 9 to 14) (size 15 to 20)
#    0.000    0.571    4.286    6.000    0.000    2.286 
#    0.000    0.714    0.000    0.000    0.000    0.000 
#    0.000    0.000    0.000    0.000    0.000    0.000 
#
# Total GULP energy -173456.877799 kJ/mol
# GULP energy per Si atom -12389.776986 kJ/mol
# Density = 2.258121 g / cm^3
# Si number density = 22.632725 Si / 1000 Ang^3
#
#
#
# Elastic Constant Matrix: (Units=GPa)
#
#
# Indices 1 2 3 4 5 6 
#
# 1 90.8692 28.0387 24.5960 -11.5058 -7.1716 -0.1292
# 2 28.0387 62.8763 23.4598 -5.9563 -0.7826 -13.1240
# 3 24.5960 23.4598 140.6629 -7.6663 8.0082 0.4987
# 4 -11.5058 -5.9563 -7.6663 29.5773 -9.3317 2.2838
# 5 -7.1716 -0.7826 8.0082 -9.3317 34.3621 -4.7034
# 6 -0.1292 -13.1240 0.4987 2.2838 -4.7034 37.9953
#
#
#
# Elastic Compliance Matrix: (Units=1/GPa)
#
#
# Indices 1 2 3 4 5 6 
#
# 1 0.014165 -0.005512 -0.001504 0.005544 0.004466 -0.001617
# 2 -0.005512 0.020988 -0.002567 0.001251 0.001271 0.007346
# 3 -0.001504 -0.002567 0.007955 0.000330 -0.002315 -0.001302
# 4 0.005544 0.001251 0.000330 0.040107 0.011934 -0.000487
# 5 0.004466 0.001271 -0.002315 0.011934 0.034394 0.004025
# 6 -0.001617 0.007346 -0.001302 -0.000487 0.004025 0.029396
#
#
# Mechanical properties :
#
#
# Convention : Reuss Voigt Hill
#
# Bulk Modulus (GPa) = 41.76811 49.62195 45.69503
# Shear Modulus (GPa) = 28.71099 34.94120 31.82609
#
# Velocity S-wave (km/s) = 3.56555 3.93343 3.75400
# Velocity P-wave (km/s) = 5.95363 6.52699 6.24689
#
# Compressibility (1/GPa) = 0.02394171
#
# Stress axis : x y z
#
# Youngs Moduli (GPa) = 70.59737 47.64703 125.71286
#
# Poissons Ratio (x) = 0.26264 0.18906
# Poissons Ratio (y) = 0.38914 0.32267
# Poissons Ratio (z) = 0.10617 0.12230
#
# Static dielectric constant tensor:
#      x y z
#    x 4.330950 -0.239910 0.573040 
#    y -0.239910 4.040990 0.055450 
#    z 0.573040 0.055450 5.280590 
# 
# 
# High freq. dielectric constant tensor:
#      x y z
#    x 1.870770 -0.035040 0.010740 
#    y -0.035040 1.879110 0.012010 
#    z 0.010740 0.012010 1.918550 
# 
# From -- ./inp_files/544971.got.cif
#   From: 2010.06.25/outbox.cif.g09.slc.cpg/sg2_273_cif.got.tgz:544971.got - 2010.06.27 13:26:56.
