data_PCOD8018625
_publ_section_title
;
Structure prediction by ZEFSAII (Michael W. Deem and Ramdas Pophale) SiO2 
 PCOD8018625
Probable space group: P -1
;
_chemical_formula_sum "Si O2"
_cell_formula_units_Z 16
_cell_length_a 9.465264
_cell_length_b 19.934335
_cell_length_c 10.274758
_cell_angle_alpha 28.715625
_cell_angle_beta 97.227265
_cell_angle_gamma 113.371996
_cell_volume 738.698776
_symmetry_space_group_name_H-M "P -1"
_symmetry_group_IT_number 2
_symmetry_cell_setting 'triclinic'
loop_
_space_group_symop_operation_xyz
x,y,z
-x,-y,-z
loop_
_atom_site_type_symbol
_atom_site_label
_atom_site_fract_x
_atom_site_fract_y
_atom_site_fract_z
Si Si1 0.375738 0.793513 0.855520
Si Si2 0.869376 0.321030 0.212402
Si Si3 0.989898 0.886346 0.861333
Si Si4 0.585527 0.697458 0.197515
Si Si5 0.376626 0.629488 0.541316
Si Si6 0.546345 0.119059 0.681076
Si Si7 0.226668 0.789063 0.103304
Si Si8 0.900977 0.761010 0.778986
O O1 0.261284 0.682299 0.903749
O O2 0.500000 0.000000 0.500000
O O3 0.511339 0.751444 0.982926
O O4 0.226620 0.724641 0.068274
O O5 0.735867 0.180126 0.543901
O O6 0.978537 0.262133 0.260223
O O7 0.000000 0.500000 0.000000
O O8 0.999357 0.844707 0.783596
O O9 0.797214 0.815033 0.012803
O O10 0.118870 0.098532 0.531156
O O11 0.057291 0.789153 0.113521
O O12 0.500000 0.500000 0.500000
O O13 0.532060 0.719292 0.298437
O O14 0.449924 0.718484 0.540968
O O15 0.233649 0.665669 0.418060
O O16 0.286804 0.425199 0.896180
O O17 0.500000 0.000000 0.000000
O O18 0.393868 0.996161 0.768221
#
# Coordination Sequence:
#
# PCOD8018625 Si02
#       8
#     2   2   2   2   2   2   2   2
#     4  11  22  39  69 100 127 175 231 271 328 400
#     4  12  23  40  67 105 135 169 229 287 329 396
#     4  11  24  40  64  98 134 167 223 274 334 385
#     4  11  24  42  65  96 137 174 214 278 339 397
#     4  10  22  43  65  92 132 177 222 268 336 399
#     4  10  22  41  65  91 134 175 221 271 343 389
#     4  10  22  40  68  95 127 175 229 275 317 406
#     4  11  23  38  64  96 133 168 211 273 335 385
#
# _framework density 21.659707999999998
#
# number of rings (size 3 to 8) (size 9 to 14) (size 15 to 20)
#    0.000    1.250    5.000    0.750    5.250    1.500 
#    0.000    2.500    0.000    0.000    0.000    0.000 
#    0.000    0.000    0.000    0.000    0.000    0.000 
#
# Total GULP energy -198275.459508 kJ/mol
# GULP energy per Si atom -12392.216219 kJ/mol
# Density = 2.161041 g / cm^3
# Si number density = 21.659708 Si / 1000 Ang^3
#
#
#
# Elastic Constant Matrix: (Units=GPa)
#
#
# Indices 1 2 3 4 5 6 
#
# 1 125.4232 27.2179 37.6801 4.2631 -1.5624 -4.9044
# 2 27.2179 97.4673 31.6759 -11.2859 -10.8645 -18.1388
# 3 37.6801 31.6759 115.0867 -10.5893 6.2661 0.7184
# 4 4.2631 -11.2859 -10.5893 35.0756 -8.1378 -3.6264
# 5 -1.5624 -10.8645 6.2661 -8.1378 36.3104 1.2588
# 6 -4.9044 -18.1388 0.7184 -3.6264 1.2588 33.0862
#
#
#
# Elastic Compliance Matrix: (Units=1/GPa)
#
#
# Indices 1 2 3 4 5 6 
#
# 1 0.009325 -0.002070 -0.002712 -0.002698 -0.000356 0.000024
# 2 -0.002070 0.014840 -0.003206 0.006323 0.006032 0.008362
# 3 -0.002712 -0.003206 0.010769 0.001759 -0.002467 -0.002107
# 4 -0.002698 0.006323 0.001759 0.034133 0.008899 0.006431
# 5 -0.000356 0.006032 -0.002467 0.008899 0.031643 0.003079
# 6 0.000024 0.008362 -0.002107 0.006431 0.003079 0.035445
#
#
# Mechanical properties :
#
#
# Convention : Reuss Voigt Hill
#
# Bulk Modulus (GPa) = 52.74823 59.01388 55.88105
# Shear Modulus (GPa) = 31.55528 36.98800 34.27164
#
# Velocity S-wave (km/s) = 3.82103 4.13690 3.98210
# Velocity P-wave (km/s) = 6.62367 7.07981 6.85554
#
# Compressibility (1/GPa) = 0.01895798
#
# Stress axis : x y z
#
# Youngs Moduli (GPa) = 107.23420 67.38334 92.86076
#
# Poissons Ratio (x) = 0.13950 0.25188
# Poissons Ratio (y) = 0.22200 0.29768
# Poissons Ratio (z) = 0.29087 0.21601
#
# Static dielectric constant tensor:
#      x y z
#    x 3.954550 -0.338600 0.033520 
#    y -0.338600 4.904390 -0.536050 
#    z 0.033520 -0.536050 4.453990 
# 
# 
# High freq. dielectric constant tensor:
#      x y z
#    x 1.836720 -0.025250 -0.002590 
#    y -0.025250 1.846440 -0.005340 
#    z -0.002590 -0.005340 1.858210 
# 
# From -- ./inp_files/404532.got.cif
#   From: 2010.06.25/outbox.cif.g09.slc.cpg/sg2_203_cif.got.tgz:404532.got - 2010.06.27 13:26:56.
