data_PCOD8018669
_publ_section_title
;
Structure prediction by ZEFSAII (Michael W. Deem and Ramdas Pophale) SiO2 
 PCOD8018669
Probable space group: P -1
;
_chemical_formula_sum "Si O2"
_cell_formula_units_Z 14
_cell_length_a 16.786464
_cell_length_b 13.940680
_cell_length_c 9.278898
_cell_angle_alpha 44.320348
_cell_angle_beta 127.673730
_cell_angle_gamma 154.780582
_cell_volume 641.643836
_symmetry_space_group_name_H-M "P -1"
_symmetry_group_IT_number 2
_symmetry_cell_setting 'triclinic'
loop_
_space_group_symop_operation_xyz
x,y,z
-x,-y,-z
loop_
_atom_site_type_symbol
_atom_site_label
_atom_site_fract_x
_atom_site_fract_y
_atom_site_fract_z
Si Si1 0.640439 0.619671 0.690446
Si Si2 0.989682 0.643872 0.378625
Si Si3 0.894409 0.686552 0.946876
Si Si4 0.244886 0.243122 0.644765
Si Si5 0.709868 0.004069 0.427283
Si Si6 0.718337 0.271355 0.984690
Si Si7 0.281031 0.570090 0.459664
O O1 0.761243 0.658906 0.884593
O O2 0.420969 0.354204 0.777633
O O3 0.686685 0.617071 0.583520
O O4 0.700097 0.846918 0.508668
O O5 0.168690 0.881202 0.419845
O O6 0.000000 0.500000 0.500000
O O7 0.796313 0.457456 0.447641
O O8 0.999265 0.745841 0.136606
O O9 0.763147 0.426209 0.999309
O O10 0.059020 0.935995 0.757467
O O11 0.205423 0.327817 0.613223
O O12 0.507169 0.829769 0.437792
O O13 0.800437 0.217458 0.183783
O O14 0.804767 0.431131 0.760647
O O15 0.500000 0.000000 0.000000
#
# Coordination Sequence:
#
# PCOD8018669 Si02
#       7
#     2   2   2   2   2   2   2
#     4  10  22  41  71  99 134 165 220 277 324 391
#     4  12  27  44  61  98 135 178 218 262 331 396
#     4  12  24  43  68  97 135 173 218 273 323 394
#     4  10  22  40  69 105 127 169 219 274 335 376
#     4  10  23  44  66  98 135 170 218 272 327 387
#     4  10  22  43  68  98 131 171 221 272 327 375
#     4  10  23  44  69  94 135 172 218 277 324 380
#
# _framework density 21.818957000000001
#
# number of rings (size 3 to 8) (size 9 to 14) (size 15 to 20)
#    0.000    1.429    2.857    1.286    4.000    5.714 
#    2.571    2.857    0.000    0.000    0.000    0.000 
#    0.000    0.000    0.000    0.000    0.000    0.000 
#
# Total GULP energy -173552.357853 kJ/mol
# GULP energy per Si atom -12396.596989 kJ/mol
# Density = 2.176930 g / cm^3
# Si number density = 21.818957 Si / 1000 Ang^3
#
#
#
# Elastic Constant Matrix: (Units=GPa)
#
#
# Indices 1 2 3 4 5 6 
#
# 1 110.2433 22.9529 23.0107 -4.5367 16.2752 5.3766
# 2 22.9529 114.8474 40.7028 5.7370 14.3472 8.7441
# 3 23.0107 40.7028 84.1294 8.5541 20.2830 2.7448
# 4 -4.5367 5.7370 8.5541 34.2414 -0.5784 2.8021
# 5 16.2752 14.3472 20.2830 -0.5784 36.2594 7.3173
# 6 5.3766 8.7441 2.7448 2.8021 7.3173 24.8424
#
#
#
# Elastic Compliance Matrix: (Units=1/GPa)
#
#
# Indices 1 2 3 4 5 6 
#
# 1 0.010226 -0.001085 -0.001729 0.002000 -0.002961 -0.000993
# 2 -0.001085 0.010905 -0.004670 -0.000584 -0.000654 -0.002829
# 3 -0.001729 -0.004670 0.016702 -0.003971 -0.007344 0.002784
# 4 0.002000 -0.000584 -0.003971 0.030946 0.002881 -0.004128
# 5 -0.002961 -0.000654 -0.007344 0.002881 0.035136 -0.008992
# 6 -0.000993 -0.002829 0.002784 -0.004128 -0.008992 0.044271
#
#
# Mechanical properties :
#
#
# Convention : Reuss Voigt Hill
#
# Bulk Modulus (GPa) = 43.73493 53.61699 48.67596
# Shear Modulus (GPa) = 29.27819 33.90558 31.59189
#
# Velocity S-wave (km/s) = 3.66713 3.94629 3.80927
# Velocity P-wave (km/s) = 6.16591 6.73730 6.45793
#
# Compressibility (1/GPa) = 0.02286502
#
# Stress axis : x y z
#
# Youngs Moduli (GPa) = 97.79458 91.69724 59.87195
#
# Poissons Ratio (x) = 0.09952 0.10351
# Poissons Ratio (y) = 0.10613 0.27960
# Poissons Ratio (z) = 0.16907 0.42823
#
# Static dielectric constant tensor:
#      x y z
#    x 3.809310 0.245870 0.352000 
#    y 0.245870 3.470250 0.003860 
#    z 0.352000 0.003860 4.018210 
# 
# 
# High freq. dielectric constant tensor:
#      x y z
#    x 1.849670 0.007010 0.025420 
#    y 0.007010 1.868600 0.005160 
#    z 0.025420 0.005160 1.850740 
# 
# From -- ./inp_files/188482.got.cif
#   From: 2010.06.25/outbox.cif.g09.slc.cpg/sg2_95_cif.got.tgz:188482.got - 2010.06.27 13:26:56.
