data_PCOD8018057
_publ_section_title
;
Structure prediction by ZEFSAII (Michael W. Deem and Ramdas Pophale) SiO2 
 PCOD8018057
Probable space group: P -1
;
_chemical_formula_sum "Si O2"
_cell_formula_units_Z 12
_cell_length_a 8.739997
_cell_length_b 22.528120
_cell_length_c 7.645539
_cell_angle_alpha 37.308544
_cell_angle_beta 129.405257
_cell_angle_gamma 141.121851
_cell_volume 572.211419
_symmetry_space_group_name_H-M "P -1"
_symmetry_group_IT_number 2
_symmetry_cell_setting 'triclinic'
loop_
_space_group_symop_operation_xyz
x,y,z
-x,-y,-z
loop_
_atom_site_type_symbol
_atom_site_label
_atom_site_fract_x
_atom_site_fract_y
_atom_site_fract_z
Si Si1 0.747633 0.942477 0.352263
Si Si2 0.942174 0.262234 0.185463
Si Si3 0.279801 0.886805 0.296246
Si Si4 0.942758 0.497082 0.165953
Si Si5 0.381833 0.312706 0.211979
Si Si6 0.998399 0.697396 0.240152
O O1 0.566295 0.946982 0.341848
O O2 0.627709 0.807390 0.519256
O O3 0.000000 0.000000 0.500000
O O4 0.786969 0.022319 0.023496
O O5 0.790329 0.147627 0.471357
O O6 0.225621 0.307376 0.277945
O O7 0.840006 0.226584 0.994324
O O8 0.918520 0.366951 0.986059
O O9 0.128448 0.766317 0.350451
O O10 0.656689 0.427386 0.159126
O O11 0.045600 0.431953 0.493996
O O12 0.000000 0.500000 0.000000
O O13 0.263521 0.323778 0.921390
#
# Coordination Sequence:
#
# PCOD8018057 Si02
#       6
#     2   2   2   2   2   2
#     4  11  21  41  67  90 122 164 205 254 303 365
#     4  10  23  42  61  94 124 162 203 250 309 360
#     4  11  22  43  65  89 126 161 204 254 305 361
#     4  12  21  41  66  88 128 166 198 253 308 360
#     4  10  23  39  61  95 124 155 212 249 300 369
#     4  10  22  40  61  92 125 154 207 250 301 363
#
# _framework density 20.971270000000001
#
# number of rings (size 3 to 8) (size 9 to 14) (size 15 to 20)
#    1.000    0.333    5.000    1.000    0.000    1.333 
#    3.000    7.500    0.000    0.000    0.000    0.000 
#    0.000    0.000    0.000    0.000    0.000    0.000 
#
# Total GULP energy -148739.388139 kJ/mol
# GULP energy per Si atom -12394.949012 kJ/mol
# Density = 2.092354 g / cm^3
# Si number density = 20.971270 Si / 1000 Ang^3
#
#
#
# Elastic Constant Matrix: (Units=GPa)
#
#
# Indices 1 2 3 4 5 6 
#
# 1 67.5916 -12.4624 35.9087 2.3838 -3.4464 4.8296
# 2 -12.4624 31.5806 4.7715 2.8277 8.0117 10.2696
# 3 35.9087 4.7715 140.6390 8.3381 -0.3819 15.6963
# 4 2.3838 2.8277 8.3381 23.4499 0.7188 -0.8936
# 5 -3.4464 8.0117 -0.3819 0.7188 46.3847 3.3038
# 6 4.8296 10.2696 15.6963 -0.8936 3.3038 28.0337
#
#
#
# Elastic Compliance Matrix: (Units=1/GPa)
#
#
# Indices 1 2 3 4 5 6 
#
# 1 0.019532 0.010010 -0.004731 -0.001680 0.000026 -0.004439
# 2 0.010010 0.043017 -0.001894 -0.005972 -0.005472 -0.015968
# 3 -0.004731 -0.001894 0.008943 -0.002619 0.000348 -0.003623
# 4 -0.001680 -0.005972 -0.002619 0.044678 -0.000191 0.005390
# 5 0.000026 -0.005472 0.000348 -0.000191 0.022573 -0.000861
# 6 -0.004439 -0.015968 -0.003623 0.005390 -0.000861 0.044588
#
#
# Mechanical properties :
#
#
# Convention : Reuss Voigt Hill
#
# Bulk Modulus (GPa) = 12.77767 32.91631 22.84699
# Shear Modulus (GPa) = 24.67333 33.67988 29.17661
#
# Velocity S-wave (km/s) = 3.43378 4.01184 3.73401
# Velocity P-wave (km/s) = 4.67197 6.09835 5.43218
#
# Compressibility (1/GPa) = 0.07826154
#
# Stress axis : x y z
#
# Youngs Moduli (GPa) = 51.19868 23.24666 111.81554
#
# Poissons Ratio (x) = -0.23270 0.52905
# Poissons Ratio (y) = -0.51251 0.21177
# Poissons Ratio (z) = 0.24224 0.04403
#
# Static dielectric constant tensor:
#      x y z
#    x 3.746310 0.063880 0.187180 
#    y 0.063880 3.421450 -0.030720 
#    z 0.187180 -0.030720 4.042900 
# 
# 
# High freq. dielectric constant tensor:
#      x y z
#    x 1.813700 0.002100 0.014800 
#    y 0.002100 1.796480 -0.003570 
#    z 0.014800 -0.003570 1.839310 
# 
# From -- ./inp_files/168287.got.cif
#   From: 2010.06.25/outbox.cif.g09.slc.cpg/sg2_85_cif.got.tgz:168287.got - 2010.06.27 13:26:56.
