data_PCOD8018605
_publ_section_title
;
Structure prediction by ZEFSAII (Michael W. Deem and Ramdas Pophale) SiO2 
 PCOD8018605
Probable space group: P -1
;
_chemical_formula_sum "Si O2"
_cell_formula_units_Z 16
_cell_length_a 9.436066
_cell_length_b 11.675308
_cell_length_c 20.539480
_cell_angle_alpha 50.955742
_cell_angle_beta 151.105585
_cell_angle_gamma 123.583456
_cell_volume 849.179618
_symmetry_space_group_name_H-M "P -1"
_symmetry_group_IT_number 2
_symmetry_cell_setting 'triclinic'
loop_
_space_group_symop_operation_xyz
x,y,z
-x,-y,-z
loop_
_atom_site_type_symbol
_atom_site_label
_atom_site_fract_x
_atom_site_fract_y
_atom_site_fract_z
Si Si1 0.708795 0.795752 0.330937
Si Si2 0.363547 0.698104 0.644378
Si Si3 0.270823 0.105495 0.836809
Si Si4 0.382328 0.006909 0.375474
Si Si5 0.194784 0.442812 0.368457
Si Si6 0.246438 0.122347 0.544156
Si Si7 0.831434 0.576439 0.269566
Si Si8 0.566041 0.472649 0.393586
O O1 0.665265 0.897682 0.213760
O O2 0.573048 0.865928 0.318097
O O3 0.558867 0.641057 0.306645
O O4 0.051049 0.777793 0.491183
O O5 0.600747 0.827202 0.706810
O O6 0.391227 0.557736 0.753794
O O7 0.433129 0.644527 0.620033
O O8 0.310456 0.267066 0.827499
O O9 0.947942 0.046898 0.741170
O O10 0.500000 0.000000 0.000000
O O11 0.500000 0.000000 0.500000
O O12 0.556427 0.904790 0.430619
O O13 0.500000 0.500000 0.500000
O O14 0.103344 0.282955 0.417184
O O15 0.258672 0.439722 0.318644
O O16 0.929606 0.554982 0.241005
O O17 0.000000 0.000000 0.500000
O O18 0.131081 0.552798 0.437939
#
# Coordination Sequence:
#
# PCOD8018605 Si02
#       8
#     2   2   2   2   2   2   2   2
#     4  11  19  35  55  85 121 149 191 238 301 341
#     4  11  17  33  58  87 110 150 185 246 289 342
#     4  12  25  40  57  83 122 164 199 238 293 353
#     4  12  22  37  60  92 123 149 195 243 297 348
#     4  10  17  27  48  84 110 143 185 235 292 340
#     4  12  20  32  56  94 127 144 179 253 308 339
#     4  10  17  33  53  77 113 149 189 235 287 345
#     4  10  17  29  58  87 113 140 196 244 288 338
#
# _framework density 18.841716000000002
#
# number of rings (size 3 to 8) (size 9 to 14) (size 15 to 20)
#    0.000    1.000    8.750    3.000    0.000    0.000 
#    0.000    1.250    0.000    0.000    0.000    5.250 
#    0.000    0.000    0.000    0.000    0.000    0.000 
#
# Total GULP energy -198213.589568 kJ/mol
# GULP energy per Si atom -12388.349348 kJ/mol
# Density = 1.879883 g / cm^3
# Si number density = 18.841716 Si / 1000 Ang^3
#
#
#
# Elastic Constant Matrix: (Units=GPa)
#
#
# Indices 1 2 3 4 5 6 
#
# 1 127.6913 24.7872 29.1110 -10.0654 5.3081 -6.6648
# 2 24.7872 109.5895 26.1376 -20.1899 0.4852 9.7918
# 3 29.1110 26.1376 56.6963 -13.4573 -2.8973 6.4533
# 4 -10.0654 -20.1899 -13.4573 16.4997 0.8256 -1.5384
# 5 5.3081 0.4852 -2.8973 0.8256 12.2118 -6.3109
# 6 -6.6648 9.7918 6.4533 -1.5384 -6.3109 38.5196
#
#
#
# Elastic Compliance Matrix: (Units=1/GPa)
#
#
# Indices 1 2 3 4 5 6 
#
# 1 0.009433 -0.000982 -0.004537 0.001249 -0.004186 0.002006
# 2 -0.000982 0.012482 -0.001996 0.012916 -0.002954 -0.002977
# 3 -0.004537 -0.001996 0.024973 0.014607 0.005446 -0.002986
# 4 0.001249 0.012916 0.014607 0.089081 -0.005052 -0.002784
# 5 -0.004186 -0.002954 0.005446 -0.005052 0.092750 0.014109
# 6 0.002006 -0.002977 -0.002986 -0.002784 0.014109 0.029765
#
#
# Mechanical properties :
#
#
# Convention : Reuss Voigt Hill
#
# Bulk Modulus (GPa) = 31.38948 50.44984 40.91966
# Shear Modulus (GPa) = 17.59738 27.70897 22.65317
#
# Velocity S-wave (km/s) = 3.05939 3.83902 3.47116
# Velocity P-wave (km/s) = 5.40144 6.81796 6.15061
#
# Compressibility (1/GPa) = 0.03185781
#
# Stress axis : x y z
#
# Youngs Moduli (GPa) = 106.00557 80.11602 40.04388
#
# Poissons Ratio (x) = 0.07870 0.18166
# Poissons Ratio (y) = 0.10413 0.07994
# Poissons Ratio (z) = 0.48090 0.15993
#
# Static dielectric constant tensor:
#      x y z
#    x 3.858490 0.151470 0.560670 
#    y 0.151470 3.810380 -0.538970 
#    z 0.560670 -0.538970 3.997590 
# 
# 
# High freq. dielectric constant tensor:
#      x y z
#    x 1.768550 0.002510 0.009290 
#    y 0.002510 1.754150 -0.022850 
#    z 0.009290 -0.022850 1.630170 
# 
# From -- ./inp_files/434332.got.cif
#   From: 2010.06.25/outbox.cif.g09.slc.cpg/sg2_218_cif.got.tgz:434332.got - 2010.06.27 13:26:56.
