data_PCOD8018583
_publ_section_title
;
Structure prediction by ZEFSAII (Michael W. Deem and Ramdas Pophale) SiO2 
 PCOD8018583
Probable space group: P -1
;
_chemical_formula_sum "Si O2"
_cell_formula_units_Z 16
_cell_length_a 9.971061
_cell_length_b 18.386369
_cell_length_c 11.140270
_cell_angle_alpha 50.995721
_cell_angle_beta 78.744557
_cell_angle_gamma 37.262126
_cell_volume 730.435778
_symmetry_space_group_name_H-M "P -1"
_symmetry_group_IT_number 2
_symmetry_cell_setting 'triclinic'
loop_
_space_group_symop_operation_xyz
x,y,z
-x,-y,-z
loop_
_atom_site_type_symbol
_atom_site_label
_atom_site_fract_x
_atom_site_fract_y
_atom_site_fract_z
Si Si1 0.695988 0.147063 0.946229
Si Si2 0.268014 0.001695 0.694250
Si Si3 0.704136 0.124927 0.401831
Si Si4 0.330263 0.511089 0.974688
Si Si5 0.223173 0.200297 0.082464
Si Si6 0.651443 0.773087 0.460041
Si Si7 0.847003 0.414933 0.339339
Si Si8 0.372443 0.181429 0.841078
O O1 0.441513 0.381081 0.747544
O O2 0.619330 0.104871 0.920742
O O3 0.747205 0.085158 0.138859
O O4 0.000000 0.000000 0.000000
O O5 0.020351 0.220814 0.565259
O O6 0.223648 0.010386 0.550532
O O7 0.594442 0.845007 0.811408
O O8 0.513020 0.307013 0.164410
O O9 0.529059 0.203059 0.472702
O O10 0.000000 0.000000 0.500000
O O11 0.500000 0.500000 0.000000
O O12 0.228147 0.575286 0.789659
O O13 0.066124 0.663178 0.952922
O O14 0.417690 0.992777 0.238744
O O15 0.145653 0.307239 0.862846
O O16 0.773079 0.685329 0.392782
O O17 0.917307 0.642086 0.637620
O O18 0.500000 0.000000 0.000000
#
# Coordination Sequence:
#
# PCOD8018583 Si02
#       8
#     2   2   2   2   2   2   2   2
#     4  11  25  43  70 100 138 181 228 291 340 404
#     4  10  22  44  67  96 134 174 226 272 343 405
#     4  12  25  39  64  98 137 173 220 286 340 401
#     4  12  25  42  66  99 135 177 227 281 350 408
#     4   9  20  41  68  95 130 178 218 280 329 400
#     4  10  22  40  67  98 133 175 227 276 331 405
#     4  11  24  44  69  97 133 176 228 279 341 414
#     4   9  21  43  68  96 136 179 230 273 341 402
#
# _framework density 21.904731000000002
#
# number of rings (size 3 to 8) (size 9 to 14) (size 15 to 20)
#    0.000    1.500    1.250    3.750    5.250    6.000 
#    0.000    0.000    0.000    0.000    0.000    0.000 
#    0.000    0.000    0.000    0.000    0.000    0.000 
#
# Total GULP energy -198221.536354 kJ/mol
# GULP energy per Si atom -12388.846022 kJ/mol
# Density = 2.185488 g / cm^3
# Si number density = 21.904731 Si / 1000 Ang^3
#
#
#
# Elastic Constant Matrix: (Units=GPa)
#
#
# Indices 1 2 3 4 5 6 
#
# 1 137.5099 76.2419 37.0182 11.3364 21.7985 -14.6589
# 2 76.2419 117.3214 41.4779 -5.2550 18.2088 -12.9162
# 3 37.0182 41.4779 79.4427 2.7557 11.4546 -4.5114
# 4 11.3364 -5.2550 2.7557 42.6675 6.2663 5.0659
# 5 21.7985 18.2088 11.4546 6.2663 34.6969 -3.5721
# 6 -14.6589 -12.9162 -4.5114 5.0659 -3.5721 40.7320
#
#
#
# Elastic Compliance Matrix: (Units=1/GPa)
#
#
# Indices 1 2 3 4 5 6 
#
# 1 0.012694 -0.007225 -0.001475 -0.004050 -0.002720 0.002379
# 2 -0.007225 0.015538 -0.004430 0.004414 -0.002843 0.001038
# 3 -0.001475 -0.004430 0.015873 -0.000879 -0.001853 -0.000231
# 4 -0.004050 0.004414 -0.000879 0.026245 -0.004615 -0.003824
# 5 -0.002720 -0.002843 -0.001853 -0.004615 0.033615 0.001436
# 6 0.002379 0.001038 -0.000231 -0.003824 0.001436 0.026312
#
#
# Mechanical properties :
#
#
# Convention : Reuss Voigt Hill
#
# Bulk Modulus (GPa) = 56.04017 71.52776 63.78397
# Shear Modulus (GPa) = 30.77183 35.58836 33.18009
#
# Velocity S-wave (km/s) = 3.75214 4.03512 3.89620
# Velocity P-wave (km/s) = 6.66412 7.37797 7.03011
#
# Compressibility (1/GPa) = 0.01784434
#
# Stress axis : x y z
#
# Youngs Moduli (GPa) = 78.77806 64.35684 63.00121
#
# Poissons Ratio (x) = 0.46498 0.09292
# Poissons Ratio (y) = 0.56918 0.27911
# Poissons Ratio (z) = 0.11619 0.28512
#
# Static dielectric constant tensor:
#      x y z
#    x 4.030250 -0.024870 -0.145280 
#    y -0.024870 4.131020 0.185430 
#    z -0.145280 0.185430 4.099930 
# 
# 
# High freq. dielectric constant tensor:
#      x y z
#    x 1.859660 0.010050 -0.003140 
#    y 0.010050 1.859350 0.000570 
#    z -0.003140 0.000570 1.868370 
# 
# From -- ./inp_files/246064.got.cif
#   From: 2010.06.25/outbox.cif.g09.slc.cpg/sg2_124_cif.got.tgz:246064.got - 2010.06.27 13:26:56.
