data_PCOD8018539
_publ_section_title
;
Structure prediction by ZEFSAII (Michael W. Deem and Ramdas Pophale) SiO2 
 PCOD8018539
Probable space group: P -1
;
_chemical_formula_sum "Si O2"
_cell_formula_units_Z 10
_cell_length_a 9.046875
_cell_length_b 10.124702
_cell_length_c 7.870195
_cell_angle_alpha 106.383110
_cell_angle_beta 60.067370
_cell_angle_gamma 64.644863
_cell_volume 437.038815
_symmetry_space_group_name_H-M "P -1"
_symmetry_group_IT_number 2
_symmetry_cell_setting 'triclinic'
loop_
_space_group_symop_operation_xyz
x,y,z
-x,-y,-z
loop_
_atom_site_type_symbol
_atom_site_label
_atom_site_fract_x
_atom_site_fract_y
_atom_site_fract_z
Si Si1 0.472760 0.381376 0.586173
Si Si2 0.247404 0.790543 0.296492
Si Si3 0.093371 0.603521 0.146230
Si Si4 0.397051 0.148970 0.365119
Si Si5 0.649124 0.760346 0.953068
O O1 0.500000 0.500000 0.500000
O O2 0.669032 0.268767 0.578509
O O3 0.513737 0.224560 0.390172
O O4 0.208209 0.523825 0.865111
O O5 0.236307 0.645202 0.171680
O O6 0.426576 0.781917 0.081031
O O7 0.000000 0.000000 0.500000
O O8 0.815365 0.783426 0.365302
O O9 0.129441 0.440820 0.169246
O O10 0.591989 0.921741 0.167466
O O11 0.289750 0.223166 0.264575
#
# Coordination Sequence:
#
# PCOD8018539 Si02
#       5
#     2   2   2   2   2
#     4  11  24  43  66  97 132 166 217 272 315 380
#     4  11  22  43  67  91 131 175 211 258 324 388
#     4  11  22  41  68  90 131 174 211 259 329 384
#     4  11  22  41  65  98 127 165 221 266 318 378
#     4  10  22  40  67  92 134 170 211 263 324 387
#
# _framework density 22.881260999999999
#
# number of rings (size 3 to 8) (size 9 to 14) (size 15 to 20)
#    0.000    1.200    2.000    6.000    0.000    3.200 
#    3.600    2.000    0.000    0.000    0.000    0.000 
#    0.000    0.000    0.000    0.000    0.000    0.000 
#
# Total GULP energy -124033.764555 kJ/mol
# GULP energy per Si atom -12403.376456 kJ/mol
# Density = 2.282918 g / cm^3
# Si number density = 22.881261 Si / 1000 Ang^3
#
#
#
# Elastic Constant Matrix: (Units=GPa)
#
#
# Indices 1 2 3 4 5 6 
#
# 1 83.5727 23.5885 16.7776 14.4203 20.9837 24.8856
# 2 23.5885 108.8254 33.7347 4.2274 18.6062 18.0295
# 3 16.7776 33.7347 90.6664 11.3499 13.7963 -1.1274
# 4 14.4203 4.2274 11.3499 35.9734 12.2785 11.4609
# 5 20.9837 18.6062 13.7963 12.2785 34.2445 11.0764
# 6 24.8856 18.0295 -1.1274 11.4609 11.0764 45.4152
#
#
#
# Elastic Compliance Matrix: (Units=1/GPa)
#
#
# Indices 1 2 3 4 5 6 
#
# 1 0.016375 -0.000794 -0.001675 -0.001691 -0.006129 -0.006778
# 2 -0.000794 0.011886 -0.004077 0.002901 -0.004033 -0.004134
# 3 -0.001675 -0.004077 0.013745 -0.003783 -0.002366 0.004409
# 4 -0.001691 0.002901 -0.003783 0.034652 -0.009237 -0.006811
# 5 -0.006129 -0.004033 -0.002366 -0.009237 0.040250 -0.002585
# 6 -0.006778 -0.004134 0.004409 -0.006811 -0.002585 0.029832
#
#
# Mechanical properties :
#
#
# Convention : Reuss Voigt Hill
#
# Bulk Modulus (GPa) = 34.58337 47.91845 41.25091
# Shear Modulus (GPa) = 29.50399 37.05753 33.28076
#
# Velocity S-wave (km/s) = 3.59477 4.02874 3.81793
# Velocity P-wave (km/s) = 5.69007 6.52906 6.12395
#
# Compressibility (1/GPa) = 0.02891563
#
# Stress axis : x y z
#
# Youngs Moduli (GPa) = 61.06953 84.12963 72.75591
#
# Poissons Ratio (x) = 0.06677 0.12185
# Poissons Ratio (y) = 0.04847 0.29660
# Poissons Ratio (z) = 0.10227 0.34297
#
# Static dielectric constant tensor:
#      x y z
#    x 3.920960 0.232040 0.203770 
#    y 0.232040 4.252980 0.136080 
#    z 0.203770 0.136080 4.161100 
# 
# 
# High freq. dielectric constant tensor:
#      x y z
#    x 1.894260 0.016140 0.011290 
#    y 0.016140 1.913440 0.011430 
#    z 0.011290 0.011430 1.909510 
# 
# From -- ./inp_files/144036.got.cif
#   From: 2010.06.25/outbox.cif.g09.slc.cpg/sg2_73_cif.got.tgz:144036.got - 2010.06.27 13:26:56.
