data_PCOD8018107
_publ_section_title
;
Structure prediction by ZEFSAII (Michael W. Deem and Ramdas Pophale) SiO2 
 PCOD8018107
Probable space group: P -1
;
_chemical_formula_sum "Si O2"
_cell_formula_units_Z 16
_cell_length_a 6.463240
_cell_length_b 19.480555
_cell_length_c 7.874007
_cell_angle_alpha 55.701185
_cell_angle_beta 118.588048
_cell_angle_gamma 105.121107
_cell_volume 719.099343
_symmetry_space_group_name_H-M "P -1"
_symmetry_group_IT_number 2
_symmetry_cell_setting 'triclinic'
loop_
_space_group_symop_operation_xyz
x,y,z
-x,-y,-z
loop_
_atom_site_type_symbol
_atom_site_label
_atom_site_fract_x
_atom_site_fract_y
_atom_site_fract_z
Si Si1 0.795472 0.381293 0.527808
Si Si2 0.996810 0.251262 0.317894
Si Si3 0.270723 0.406901 0.219055
Si Si4 0.692991 0.086679 0.121408
Si Si5 0.347337 0.101063 0.654051
Si Si6 0.923993 0.483719 0.735508
Si Si7 0.468118 0.828233 0.716861
Si Si8 0.022678 0.230194 0.982076
O O1 0.543435 0.381808 0.334062
O O2 0.994269 0.432707 0.439981
O O3 0.889174 0.285930 0.710492
O O4 0.764819 0.424587 0.639442
O O5 0.131217 0.327466 0.354090
O O6 0.133630 0.164250 0.510732
O O7 0.735605 0.239145 0.307552
O O8 0.978740 0.276381 0.078458
O O9 0.243339 0.487422 0.216126
O O10 0.157621 0.433040 0.958248
O O11 0.606020 0.112220 0.239573
O O12 0.762535 0.989847 0.285689
O O13 0.496448 0.105540 0.877517
O O14 0.922219 0.137055 0.083768
O O15 0.495102 0.121645 0.513533
O O16 0.700278 0.777386 0.937162
#
# Coordination Sequence:
#
# PCOD8018107 Si02
#       8
#     2   2   2   2   2   2   2   2
#     4  11  22  42  64  91 126 161 206 258 313 373
#     4  10  22  40  62  91 126 164 205 258 313 374
#     4  11  22  42  64  91 126 161 206 258 313 373
#     4  10  22  40  63  92 125 164 212 262 313 375
#     4  10  22  40  63  92 125 164 212 262 313 375
#     4  10  24  40  62  96 120 162 206 254 318 376
#     4  10  23  40  62  90 126 172 204 262 314 370
#     4  10  22  40  62  91 126 164 205 258 313 374
#
# _framework density 22.250055
#
# number of rings (size 3 to 8) (size 9 to 14) (size 15 to 20)
#    0.000    1.750    1.250    1.875    0.000   12.500 
#    9.000    2.500    0.000    0.000    0.000    0.000 
#    0.000    0.000    0.000    0.000    0.000    0.000 
#
# Total GULP energy -198383.234366 kJ/mol
# GULP energy per Si atom -12398.952148 kJ/mol
# Density = 2.219941 g / cm^3
# Si number density = 22.250055 Si / 1000 Ang^3
#
#
#
# Elastic Constant Matrix: (Units=GPa)
#
#
# Indices 1 2 3 4 5 6 
#
# 1 73.2133 20.6153 14.1648 -9.5262 10.4093 14.8303
# 2 20.6153 83.8290 12.2750 -10.8553 -3.2355 13.4567
# 3 14.1648 12.2750 94.5232 -16.2342 6.9970 -2.4180
# 4 -9.5262 -10.8553 -16.2342 37.1536 -0.7574 -3.1116
# 5 10.4093 -3.2355 6.9970 -0.7574 26.2209 7.0997
# 6 14.8303 13.4567 -2.4180 -3.1116 7.0997 25.2976
#
#
#
# Elastic Compliance Matrix: (Units=1/GPa)
#
#
# Indices 1 2 3 4 5 6 
#
# 1 0.017155 -0.002718 -0.001682 0.002172 -0.004688 -0.007189
# 2 -0.002718 0.014565 -0.001685 0.002300 0.005439 -0.007559
# 3 -0.001682 -0.001685 0.012283 0.004761 -0.003968 0.004756
# 4 0.002172 0.002300 0.004761 0.030371 -0.001548 0.002128
# 5 -0.004688 0.005439 -0.003968 -0.001548 0.045321 -0.013434
# 6 -0.007189 -0.007559 0.004756 0.002128 -0.013434 0.052251
#
#
# Mechanical properties :
#
#
# Convention : Reuss Voigt Hill
#
# Bulk Modulus (GPa) = 31.41319 38.40839 34.91079
# Shear Modulus (GPa) = 25.67677 31.36845 28.52261
#
# Velocity S-wave (km/s) = 3.40076 3.75882 3.58426
# Velocity P-wave (km/s) = 5.43775 6.01149 5.73180
#
# Compressibility (1/GPa) = 0.03183376
#
# Stress axis : x y z
#
# Youngs Moduli (GPa) = 58.29308 68.65546 81.41101
#
# Poissons Ratio (x) = 0.18662 0.13690
# Poissons Ratio (y) = 0.15845 0.13719
# Poissons Ratio (z) = 0.09803 0.11569
#
# Static dielectric constant tensor:
#      x y z
#    x 3.676790 0.073320 -0.053180 
#    y 0.073320 4.208580 0.132230 
#    z -0.053180 0.132230 4.127550 
# 
# 
# High freq. dielectric constant tensor:
#      x y z
#    x 1.856410 0.005470 0.001930 
#    y 0.005470 1.886200 -0.000120 
#    z 0.001930 -0.000120 1.886040 
# 
# From -- ./inp_files/117226.got.cif
#   From: 2010.06.25/outbox.cif.g09.slc.cpg/sg2_59_cif.got.tgz:117226.got - 2010.06.27 13:26:56.
