data_PCOD8018613
_publ_section_title
;
Structure prediction by ZEFSAII (Michael W. Deem and Ramdas Pophale) SiO2 
 PCOD8018613
Probable space group: P -1
;
_chemical_formula_sum "Si O2"
_cell_formula_units_Z 16
_cell_length_a 5.569102
_cell_length_b 9.295020
_cell_length_c 17.216099
_cell_angle_alpha 64.729520
_cell_angle_beta 118.983237
_cell_angle_gamma 116.011645
_cell_volume 674.056015
_symmetry_space_group_name_H-M "P -1"
_symmetry_group_IT_number 2
_symmetry_cell_setting 'triclinic'
loop_
_space_group_symop_operation_xyz
x,y,z
-x,-y,-z
loop_
_atom_site_type_symbol
_atom_site_label
_atom_site_fract_x
_atom_site_fract_y
_atom_site_fract_z
Si Si1 0.384512 0.940109 0.116223
Si Si2 0.953580 0.097615 0.085100
Si Si3 0.042135 0.489761 0.630607
Si Si4 0.273918 0.750171 0.480321
Si Si5 0.575414 0.415934 0.795169
Si Si6 0.928788 0.324737 0.252739
Si Si7 0.580672 0.576281 0.910886
Si Si8 0.127153 0.067643 0.422670
O O1 0.338283 0.747842 0.175830
O O2 0.731306 0.034817 0.137952
O O3 0.234344 0.953796 0.008831
O O4 0.218635 0.014255 0.139955
O O5 0.094655 0.298242 0.066973
O O6 0.076597 0.640747 0.541083
O O7 0.319641 0.423923 0.696355
O O8 0.972566 0.547811 0.689547
O O9 0.780244 0.338865 0.591590
O O10 0.597515 0.776605 0.552297
O O11 0.209105 0.925909 0.419575
O O12 0.513821 0.418394 0.877828
O O13 0.827107 0.591291 0.790139
O O14 0.619786 0.310660 0.172655
O O15 0.917246 0.138201 0.320126
O O16 0.500000 0.500000 0.000000
O O17 0.000000 0.000000 0.500000
#
# Coordination Sequence:
#
# PCOD8018613 Si02
#       8
#     2   2   2   2   2   2   2   2
#     4  10  24  43  70  96 136 178 229 297 354 416
#     4  10  24  45  67  99 134 178 235 290 357 420
#     4  10  22  42  63  99 129 178 224 285 338 423
#     4  10  22  40  68  93 135 172 226 275 353 415
#     4  11  25  44  68  96 140 180 235 293 349 417
#     4  11  24  42  67  97 139 176 237 286 346 420
#     4  11  27  44  72 101 137 185 236 289 356 425
#     4  11  22  41  65  98 134 180 219 283 347 417
#
# _framework density 23.736899000000001
#
# number of rings (size 3 to 8) (size 9 to 14) (size 15 to 20)
#    0.000    1.500    2.500    0.750   10.500    3.500 
#    2.250    0.000    0.000    0.000    0.000    0.000 
#    0.000    0.000    0.000    0.000    0.000    0.000 
#
# Total GULP energy -198342.678714 kJ/mol
# GULP energy per Si atom -12396.417420 kJ/mol
# Density = 2.368287 g / cm^3
# Si number density = 23.736899 Si / 1000 Ang^3
#
#
#
# Elastic Constant Matrix: (Units=GPa)
#
#
# Indices 1 2 3 4 5 6 
#
# 1 92.2458 25.6246 22.5134 -6.1537 10.8615 2.6487
# 2 25.6246 100.5104 32.4714 -5.1352 7.5350 10.2794
# 3 22.5134 32.4714 88.1671 -5.1013 0.4875 -3.1748
# 4 -6.1537 -5.1352 -5.1013 42.9598 -1.9472 4.6820
# 5 10.8615 7.5350 0.4875 -1.9472 28.1602 -5.3011
# 6 2.6487 10.2794 -3.1748 4.6820 -5.3011 35.9411
#
#
#
# Elastic Compliance Matrix: (Units=1/GPa)
#
#
# Indices 1 2 3 4 5 6 
#
# 1 0.012622 -0.001863 -0.002492 0.001242 -0.004513 -0.001445
# 2 -0.001863 0.012550 -0.004226 0.001066 -0.003331 -0.004455
# 3 -0.002492 -0.004226 0.013658 0.000556 0.002437 0.002886
# 4 0.001242 0.001066 0.000556 0.024035 0.000240 -0.003443
# 5 -0.004513 -0.003331 0.002437 0.000240 0.039491 0.007294
# 6 -0.001445 -0.004455 0.002886 -0.003443 0.007294 0.030983
#
#
# Mechanical properties :
#
#
# Convention : Reuss Voigt Hill
#
# Bulk Modulus (GPa) = 46.15591 49.12689 47.64140
# Shear Modulus (GPa) = 31.70103 34.76647 33.23375
#
# Velocity S-wave (km/s) = 3.65844 3.83124 3.74583
# Velocity P-wave (km/s) = 6.11004 6.34922 6.23077
#
# Compressibility (1/GPa) = 0.02166570
#
# Stress axis : x y z
#
# Youngs Moduli (GPa) = 79.22603 79.68414 73.21933
#
# Poissons Ratio (x) = 0.14848 0.18246
# Poissons Ratio (y) = 0.14762 0.30946
# Poissons Ratio (z) = 0.19743 0.33678
#
# Static dielectric constant tensor:
#      x y z
#    x 4.322640 -0.135050 0.230690 
#    y -0.135050 4.176740 0.140280 
#    z 0.230690 0.140280 4.135930 
# 
# 
# High freq. dielectric constant tensor:
#      x y z
#    x 1.936680 -0.002960 0.007300 
#    y -0.002960 1.942240 0.001320 
#    z 0.007300 0.001320 1.935630 
# 
# From -- ./inp_files/350723.got.cif
#   From: 2010.06.25/outbox.cif.g09.slc.cpg/sg2_176_cif.got.tgz:350723.got - 2010.06.27 13:26:56.
