data_PCOD8018403
_publ_section_title
;
Structure prediction by ZEFSAII (Michael W. Deem and Ramdas Pophale) SiO2 
 PCOD8018403
Probable space group: P -1
;
_chemical_formula_sum "Si O2"
_cell_formula_units_Z 16
_cell_length_a 12.534048
_cell_length_b 15.245793
_cell_length_c 9.406746
_cell_angle_alpha 76.327397
_cell_angle_beta 116.255541
_cell_angle_gamma 152.006652
_cell_volume 704.039618
_symmetry_space_group_name_H-M "P -1"
_symmetry_group_IT_number 2
_symmetry_cell_setting 'triclinic'
loop_
_space_group_symop_operation_xyz
x,y,z
-x,-y,-z
loop_
_atom_site_type_symbol
_atom_site_label
_atom_site_fract_x
_atom_site_fract_y
_atom_site_fract_z
Si Si1 0.652839 0.101763 0.403483
Si Si2 0.891802 0.869638 0.179624
Si Si3 0.442541 0.050768 0.034496
Si Si4 0.658693 0.901361 0.466993
Si Si5 0.853657 0.646173 0.780168
Si Si6 0.487143 0.719763 0.148030
Si Si7 0.305223 0.298263 0.166789
Si Si8 0.760924 0.506088 0.476069
O O1 0.966498 0.339639 0.499387
O O2 0.500000 0.000000 0.500000
O O3 0.516060 0.082773 0.228617
O O4 0.610345 0.972263 0.370352
O O5 0.630292 0.739432 0.135146
O O6 0.787461 0.740520 0.032947
O O7 0.051278 0.910064 0.361541
O O8 0.093157 0.085333 0.182825
O O9 0.140410 0.873229 0.908631
O O10 0.500000 0.000000 0.000000
O O11 0.593417 0.243190 0.996641
O O12 0.673766 0.861089 0.341043
O O13 0.415735 0.699431 0.498165
O O14 0.791240 0.509106 0.873505
O O15 0.665546 0.596888 0.750478
O O16 0.827439 0.616200 0.607103
O O17 0.594640 0.448678 0.282689
#
# Coordination Sequence:
#
# PCOD8018403 Si02
#       8
#     2   2   2   2   2   2   2   2
#     4  12  28  44  71  98 135 188 223 281 345 404
#     4  10  22  40  66 100 142 179 221 281 344 404
#     4  12  24  46  69  95 139 177 230 282 326 408
#     4  10  23  43  67 100 136 176 232 280 337 404
#     4  11  23  40  71 105 132 182 228 280 338 402
#     4  11  23  41  71 101 131 183 229 280 338 401
#     4  10  22  40  68 101 142 179 220 280 349 399
#     4  10  23  44  67 100 140 176 228 284 333 405
#
# _framework density 22.725995000000001
#
# number of rings (size 3 to 8) (size 9 to 14) (size 15 to 20)
#    0.000    1.250    3.750    0.750    3.500    4.500 
#    0.000    0.000    0.000    0.000    0.000    0.000 
#    0.000    0.000    0.000    0.000    0.000    0.000 
#
# Total GULP energy -198345.036598 kJ/mol
# GULP energy per Si atom -12396.564787 kJ/mol
# Density = 2.267427 g / cm^3
# Si number density = 22.725995 Si / 1000 Ang^3
#
#
#
# Elastic Constant Matrix: (Units=GPa)
#
#
# Indices 1 2 3 4 5 6 
#
# 1 61.8528 20.0056 15.4032 -11.3283 -0.0486 7.0609
# 2 20.0056 80.2459 29.2292 -4.3237 3.9721 1.0317
# 3 15.4032 29.2292 130.4632 -13.0740 8.0145 2.0215
# 4 -11.3283 -4.3237 -13.0740 24.6226 3.1436 -2.4766
# 5 -0.0486 3.9721 8.0145 3.1436 32.3819 -4.6657
# 6 7.0609 1.0317 2.0215 -2.4766 -4.6657 30.1884
#
#
#
# Elastic Compliance Matrix: (Units=1/GPa)
#
#
# Indices 1 2 3 4 5 6 
#
# 1 0.019486 -0.004183 -0.000497 0.007660 -0.000633 -0.003851
# 2 -0.004183 0.014521 -0.002775 -0.000678 -0.000968 0.000463
# 3 -0.000497 -0.002775 0.008925 0.004282 -0.002342 -0.000397
# 4 0.007660 -0.000678 0.004282 0.047078 -0.005395 0.000973
# 5 -0.000633 -0.000968 -0.002342 -0.005395 0.032818 0.004968
# 6 -0.003851 0.000463 -0.000397 0.000973 0.004968 0.034884
#
#
# Mechanical properties :
#
#
# Convention : Reuss Voigt Hill
#
# Bulk Modulus (GPa) = 35.68812 44.64868 40.16840
# Shear Modulus (GPa) = 27.47792 31.30017 29.38904
#
# Velocity S-wave (km/s) = 3.48098 3.71520 3.60000
# Velocity P-wave (km/s) = 5.64748 6.17194 5.91552
#
# Compressibility (1/GPa) = 0.02802053
#
# Stress axis : x y z
#
# Youngs Moduli (GPa) = 51.31794 68.86654 112.05076
#
# Poissons Ratio (x) = 0.28809 0.05572
# Poissons Ratio (y) = 0.21468 0.31094
# Poissons Ratio (z) = 0.02552 0.19111
#
# Static dielectric constant tensor:
#      x y z
#    x 4.038370 0.020830 0.200790 
#    y 0.020830 4.327230 0.007050 
#    z 0.200790 0.007050 4.366450 
# 
# 
# High freq. dielectric constant tensor:
#      x y z
#    x 1.882250 -0.004240 0.000990 
#    y -0.004240 1.910890 -0.006500 
#    z 0.000990 -0.006500 1.895050 
# 
# From -- ./inp_files/272966.got.cif
#   From: 2010.06.25/outbox.cif.g09.slc.cpg/sg2_137_cif.got.tgz:272966.got - 2010.06.27 13:26:56.
