data_PCOD8018042
_publ_section_title
;
Structure prediction by ZEFSAII (Michael W. Deem and Ramdas Pophale) SiO2 
 PCOD8018042
Probable space group: P -1
;
_chemical_formula_sum "Si O2"
_cell_formula_units_Z 10
_cell_length_a 15.915579
_cell_length_b 13.057612
_cell_length_c 15.709570
_cell_angle_alpha 36.557745
_cell_angle_beta 162.215021
_cell_angle_gamma 152.158180
_cell_volume 448.238219
_symmetry_space_group_name_H-M "P -1"
_symmetry_group_IT_number 2
_symmetry_cell_setting 'triclinic'
loop_
_space_group_symop_operation_xyz
x,y,z
-x,-y,-z
loop_
_atom_site_type_symbol
_atom_site_label
_atom_site_fract_x
_atom_site_fract_y
_atom_site_fract_z
Si Si1 0.483862 0.860133 0.886969
Si Si2 0.365073 0.357086 0.201691
Si Si3 0.536229 0.064777 0.619988
Si Si4 0.933826 0.863515 0.444073
Si Si5 0.877938 0.400882 0.541002
O O1 0.293465 0.904844 0.742098
O O2 0.239243 0.584863 0.823916
O O3 0.549092 0.985433 0.778273
O O4 0.859781 0.955401 0.229061
O O5 0.381679 0.194564 0.386769
O O6 0.584315 0.597923 0.300511
O O7 0.553710 0.391016 0.269765
O O8 0.945810 0.240146 0.859780
O O9 0.275638 0.855443 0.442272
O O10 0.000000 0.000000 0.500000
O O11 0.000000 0.500000 0.500000
#
# Coordination Sequence:
#
# PCOD8018042 Si02
#       5
#     2   2   2   2   2
#     4  10  22  40  61  88 118 156 197 233 288 358
#     4  11  22  38  59  89 118 154 198 241 286 343
#     4  11  22  38  60  91 125 151 186 242 293 345
#     4  11  23  43  63  82 113 158 202 245 290 343
#     4   9  20  37  60  88 123 159 188 227 289 357
#
# _framework density 22.309564999999999
#
# number of rings (size 3 to 8) (size 9 to 14) (size 15 to 20)
#    0.000    1.600    0.000    5.400    0.000    3.200 
#    0.000   23.000    0.000    0.000    0.000    0.000 
#    0.000    0.000    0.000    0.000    0.000    0.000 
#
# Total GULP energy -123963.655279 kJ/mol
# GULP energy per Si atom -12396.365528 kJ/mol
# Density = 2.225879 g / cm^3
# Si number density = 22.309565 Si / 1000 Ang^3
#
#
#
# Elastic Constant Matrix: (Units=GPa)
#
#
# Indices 1 2 3 4 5 6 
#
# 1 103.3910 58.4503 4.4358 14.7547 -16.5172 -11.0047
# 2 58.4503 126.2179 17.9512 7.9050 -13.4927 -16.2164
# 3 4.4358 17.9512 65.2166 -1.3456 -10.2613 -12.5924
# 4 14.7547 7.9050 -1.3456 29.6828 3.3279 1.5216
# 5 -16.5172 -13.4927 -10.2613 3.3279 28.1943 4.8244
# 6 -11.0047 -16.2164 -12.5924 1.5216 4.8244 43.5498
#
#
#
# Elastic Compliance Matrix: (Units=1/GPa)
#
#
# Indices 1 2 3 4 5 6 
#
# 1 0.015252 -0.005915 0.001918 -0.006825 0.007329 0.001633
# 2 -0.005915 0.011351 -0.002205 -0.000383 0.000865 0.002012
# 3 0.001918 -0.002205 0.017503 -0.000432 0.005788 0.004098
# 4 -0.006825 -0.000383 -0.000432 0.038233 -0.008442 -0.002393
# 5 0.007329 0.000865 0.005788 -0.008442 0.043392 -0.000664
# 6 0.001633 0.002012 0.004098 -0.002393 -0.000664 0.025466
#
#
# Mechanical properties :
#
#
# Convention : Reuss Voigt Hill
#
# Bulk Modulus (GPa) = 31.54411 50.72224 41.13318
# Shear Modulus (GPa) = 28.70756 34.55127 31.62942
#
# Velocity S-wave (km/s) = 3.59107 3.93965 3.76939
# Velocity P-wave (km/s) = 5.60039 6.59389 6.11734
#
# Compressibility (1/GPa) = 0.03170164
#
# Stress axis : x y z
#
# Youngs Moduli (GPa) = 65.56327 88.10021 57.13207
#
# Poissons Ratio (x) = 0.52115 -0.10960
# Poissons Ratio (y) = 0.38784 0.12600
# Poissons Ratio (z) = -0.12578 0.19429
#
# Static dielectric constant tensor:
#      x y z
#    x 3.883740 0.130930 0.116890 
#    y 0.130930 4.472070 0.172990 
#    z 0.116890 0.172990 4.015900 
# 
# 
# High freq. dielectric constant tensor:
#      x y z
#    x 1.873770 0.014200 0.000900 
#    y 0.014200 1.889670 -0.008670 
#    z 0.000900 -0.008670 1.880940 
# 
# From -- ./inp_files/19370.got.cif
#   From: 2010.06.25/outbox.cif.g09.slc.cpg/sg2_10_cif.got.tgz:19370.got - 2010.06.27 13:26:56.
