data_PCOD8018839
_publ_section_title
;
Structure prediction by ZEFSAII (Michael W. Deem and Ramdas Pophale) SiO2 
 PCOD8018839
Probable space group: P -1
;
_chemical_formula_sum "Si O2"
_cell_formula_units_Z 14
_cell_length_a 22.330586
_cell_length_b 10.194508
_cell_length_c 18.765578
_cell_angle_alpha 35.173030
_cell_angle_beta 17.233512
_cell_angle_gamma 43.365826
_cell_volume 691.990298
_symmetry_space_group_name_H-M "P -1"
_symmetry_group_IT_number 2
_symmetry_cell_setting 'triclinic'
loop_
_space_group_symop_operation_xyz
x,y,z
-x,-y,-z
loop_
_atom_site_type_symbol
_atom_site_label
_atom_site_fract_x
_atom_site_fract_y
_atom_site_fract_z
Si Si1 0.585312 0.284704 0.769341
Si Si2 0.880093 0.426173 0.250205
Si Si3 0.841556 0.669426 0.774885
Si Si4 0.861041 0.851697 0.832845
Si Si5 0.162320 0.889121 0.781191
Si Si6 0.042387 0.334851 0.745610
Si Si7 0.433821 0.720221 0.449856
O O1 0.654409 0.327154 0.590311
O O2 0.787006 0.418791 0.529154
O O3 0.399466 0.396344 0.949396
O O4 0.500000 0.000000 0.000000
O O5 0.801019 0.372305 0.281823
O O6 0.047279 0.295559 0.147677
O O7 0.965956 0.710578 0.040419
O O8 0.845929 0.730021 0.827099
O O9 0.913579 0.432219 0.789238
O O10 0.983225 0.879134 0.470507
O O11 0.632456 0.872729 0.108418
O O12 0.387570 0.873429 0.501062
O O13 0.158581 0.160584 0.655445
O O14 0.129499 0.810386 0.936093
O O15 0.500000 0.500000 0.500000
#
# Coordination Sequence:
#
# PCOD8018839 Si02
#       7
#     2   2   2   2   2   2   2
#     4  11  19  34  63  92 114 148 199 246 288 337
#     4  11  21  37  58  90 117 150 193 248 292 339
#     4  11  19  36  59  90 118 150 198 240 290 350
#     4  11  21  34  60  91 119 147 196 251 290 336
#     4  10  22  42  56  85 124 158 189 243 296 346
#     4  10  22  41  59  84 125 154 193 241 297 350
#     4  12  23  37  61  89 115 155 203 240 292 350
#
# _framework density 20.231497000000001
#
# number of rings (size 3 to 8) (size 9 to 14) (size 15 to 20)
#    0.000    1.143    7.143    1.286    0.000    0.000 
#    2.571    2.857    0.000    1.714    0.000    0.000 
#    0.000    0.000    0.000    0.000    0.000    0.000 
#
# Total GULP energy -173498.699024 kJ/mol
# GULP energy per Si atom -12392.764216 kJ/mol
# Density = 2.018545 g / cm^3
# Si number density = 20.231497 Si / 1000 Ang^3
#
#
#
# Elastic Constant Matrix: (Units=GPa)
#
#
# Indices 1 2 3 4 5 6 
#
# 1 57.7801 23.8616 8.7189 2.6256 -1.7907 -8.2782
# 2 23.8616 144.3790 37.9884 7.8343 5.3675 -12.8736
# 3 8.7189 37.9884 69.5326 9.6138 -4.1471 -2.3864
# 4 2.6256 7.8343 9.6138 34.2467 -8.0723 2.7776
# 5 -1.7907 5.3675 -4.1471 -8.0723 18.8431 10.6469
# 6 -8.2782 -12.8736 -2.3864 2.7776 10.6469 28.9803
#
#
#
# Elastic Compliance Matrix: (Units=1/GPa)
#
#
# Indices 1 2 3 4 5 6 
#
# 1 0.019144 -0.002425 -0.000787 -0.001299 -0.000927 0.004792
# 2 -0.002425 0.009802 -0.004892 -0.003537 -0.009651 0.007143
# 3 -0.000787 -0.004892 0.017705 -0.002154 0.005941 -0.002916
# 4 -0.001299 -0.003537 -0.002154 0.037835 0.025069 -0.014956
# 5 -0.000927 -0.009651 0.005941 0.025069 0.090143 -0.039583
# 6 0.004792 0.007143 -0.002916 -0.014956 -0.039583 0.054784
#
#
# Mechanical properties :
#
#
# Convention : Reuss Voigt Hill
#
# Bulk Modulus (GPa) = 32.84840 45.86995 39.35917
# Shear Modulus (GPa) = 19.54886 29.82220 24.68553
#
# Velocity S-wave (km/s) = 3.11184 3.84350 3.49686
# Velocity P-wave (km/s) = 5.40212 6.51294 5.98337
#
# Compressibility (1/GPa) = 0.03044289
#
# Stress axis : x y z
#
# Youngs Moduli (GPa) = 52.23604 102.02142 56.47987
#
# Poissons Ratio (x) = 0.24736 0.04445
# Poissons Ratio (y) = 0.12665 0.27633
# Poissons Ratio (z) = 0.04111 0.49914
#
# Static dielectric constant tensor:
#      x y z
#    x 3.578250 -0.140020 0.173330 
#    y -0.140020 3.713220 0.331830 
#    z 0.173330 0.331830 4.053170 
# 
# 
# High freq. dielectric constant tensor:
#      x y z
#    x 1.768270 -0.020030 0.015710 
#    y -0.020030 1.777530 0.021880 
#    z 0.015710 0.021880 1.802890 
# 
# From -- ./inp_files/421870.got.cif
#   From: 2010.06.25/outbox.cif.g09.slc.cpg/sg2_211_cif.got.tgz:421870.got - 2010.06.27 13:26:56.
