data_PCOD8018297
_publ_section_title
;
Structure prediction by ZEFSAII (Michael W. Deem and Ramdas Pophale) SiO2 
 PCOD8018297
Probable space group: P -1
;
_chemical_formula_sum "Si O2"
_cell_formula_units_Z 16
_cell_length_a 17.355503
_cell_length_b 20.253732
_cell_length_c 11.747250
_cell_angle_alpha 149.224153
_cell_angle_beta 40.882566
_cell_angle_gamma 159.816918
_cell_volume 698.696622
_symmetry_space_group_name_H-M "P -1"
_symmetry_group_IT_number 2
_symmetry_cell_setting 'triclinic'
loop_
_space_group_symop_operation_xyz
x,y,z
-x,-y,-z
loop_
_atom_site_type_symbol
_atom_site_label
_atom_site_fract_x
_atom_site_fract_y
_atom_site_fract_z
Si Si1 0.101833 0.217234 0.820769
Si Si2 0.700929 0.738633 0.713050
Si Si3 0.400264 0.762332 0.760367
Si Si4 0.262790 0.644436 0.300889
Si Si5 0.099364 0.510329 0.523065
Si Si6 0.989990 0.768239 0.499527
Si Si7 0.720887 0.974057 0.211903
Si Si8 0.190360 0.023071 0.420258
O O1 0.262823 0.240983 0.685610
O O2 0.241113 0.470588 0.087904
O O3 0.870875 0.979735 0.800116
O O4 0.038845 0.187836 0.715584
O O5 0.500000 0.500000 0.500000
O O6 0.829717 0.742978 0.637490
O O7 0.615599 0.750881 0.930810
O O8 0.308109 0.652006 0.573513
O O9 0.179670 0.518997 0.728075
O O10 0.604282 0.854051 0.694231
O O11 0.500000 0.000000 0.000000
O O12 0.226164 0.678728 0.515851
O O13 0.521798 0.899021 0.335796
O O14 0.046799 0.511080 0.278618
O O15 0.918091 0.222071 0.278428
O O16 0.169618 0.952909 0.677935
O O17 0.134040 0.892503 0.405629
#
# Coordination Sequence:
#
# PCOD8018297 Si02
#       8
#     2   2   2   2   2   2   2   2
#     4  10  22  40  64  97 131 165 221 270 317 377
#     4  11  23  41  65  98 133 172 214 268 323 384
#     4  11  23  42  66  92 127 172 211 265 329 382
#     4  11  22  40  66  91 123 175 212 266 320 381
#     4  10  23  43  60  93 132 160 221 265 315 393
#     4  10  24  42  63  96 134 166 214 267 323 389
#     4  11  23  41  65  94 129 173 212 263 331 380
#     4  10  22  41  63  95 133 166 214 270 322 387
#
# _framework density 22.899782999999999
#
# number of rings (size 3 to 8) (size 9 to 14) (size 15 to 20)
#    0.000    1.500    1.250    3.000    7.000    0.500 
#    0.000    3.125    0.000    0.000    0.000    0.000 
#    0.000    0.000    0.000    0.000    0.000    0.000 
#
# Total GULP energy -198230.795504 kJ/mol
# GULP energy per Si atom -12389.424719 kJ/mol
# Density = 2.284766 g / cm^3
# Si number density = 22.899783 Si / 1000 Ang^3
#
#
#
# Elastic Constant Matrix: (Units=GPa)
#
#
# Indices 1 2 3 4 5 6 
#
# 1 95.8482 11.5408 20.6654 -2.8127 5.3876 3.5079
# 2 11.5408 55.3324 23.0134 -11.6236 13.8075 13.7160
# 3 20.6654 23.0134 92.9589 3.5622 -2.2076 9.2151
# 4 -2.8127 -11.6236 3.5622 30.6064 4.1710 -6.8990
# 5 5.3876 13.8075 -2.2076 4.1710 26.2533 -8.4536
# 6 3.5079 13.7160 9.2151 -6.8990 -8.4536 41.6338
#
#
#
# Elastic Compliance Matrix: (Units=1/GPa)
#
#
# Indices 1 2 3 4 5 6 
#
# 1 0.011226 -0.000033 -0.002547 0.001560 -0.002979 -0.000718
# 2 -0.000033 0.033550 -0.008259 0.014367 -0.024414 -0.011798
# 3 -0.002547 -0.008259 0.013724 -0.005849 0.007067 0.000363
# 4 0.001560 0.014367 -0.005849 0.041022 -0.014815 0.000220
# 5 -0.002979 -0.024414 0.007067 -0.014815 0.059775 0.016412
# 6 -0.000718 -0.011798 0.000363 0.000220 0.016412 0.031255
#
#
# Mechanical properties :
#
#
# Convention : Reuss Voigt Hill
#
# Bulk Modulus (GPa) = 27.15801 39.39761 33.27781
# Shear Modulus (GPa) = 22.27144 32.29335 27.28240
#
# Velocity S-wave (km/s) = 3.12197 3.75934 3.45539
# Velocity P-wave (km/s) = 4.98807 6.00710 5.52115
#
# Compressibility (1/GPa) = 0.03682154
#
# Stress axis : x y z
#
# Youngs Moduli (GPa) = 89.08092 29.80664 72.86410
#
# Poissons Ratio (x) = 0.00099 0.18556
# Poissons Ratio (y) = 0.00295 0.60179
# Poissons Ratio (z) = 0.22686 0.24618
#
# Static dielectric constant tensor:
#      x y z
#    x 4.267520 0.058930 -0.198470 
#    y 0.058930 4.412540 0.060410 
#    z -0.198470 0.060410 4.054930 
# 
# 
# High freq. dielectric constant tensor:
#      x y z
#    x 1.912020 -0.000660 -0.016410 
#    y -0.000660 1.910420 0.001950 
#    z -0.016410 0.001950 1.887060 
# 
# From -- ./inp_files/405342.got.cif
#   From: 2010.06.25/outbox.cif.g09.slc.cpg/sg2_203_cif.got.tgz:405342.got - 2010.06.27 13:26:56.
