data_PCOD8018010
_publ_section_title
;
Structure prediction by ZEFSAII (Michael W. Deem and Ramdas Pophale) SiO2 
 PCOD8018010
Probable space group: P -1
;
_chemical_formula_sum "Si O2"
_cell_formula_units_Z 16
_cell_length_a 18.656790
_cell_length_b 23.412927
_cell_length_c 13.098609
_cell_angle_alpha 23.620723
_cell_angle_beta 154.944583
_cell_angle_gamma 160.075127
_cell_volume 738.565236
_symmetry_space_group_name_H-M "P -1"
_symmetry_group_IT_number 2
_symmetry_cell_setting 'triclinic'
loop_
_space_group_symop_operation_xyz
x,y,z
-x,-y,-z
loop_
_atom_site_type_symbol
_atom_site_label
_atom_site_fract_x
_atom_site_fract_y
_atom_site_fract_z
Si Si1 0.699695 0.273692 0.054923
Si Si2 0.820804 0.548410 0.596967
Si Si3 0.321742 0.546980 0.872946
Si Si4 0.846931 0.302504 0.708128
Si Si5 0.474179 0.053751 0.770043
Si Si6 0.357316 0.003703 0.224039
Si Si7 0.189406 0.135770 0.937781
Si Si8 0.515016 0.621863 0.728395
O O1 0.524350 0.181527 0.072550
O O2 0.951747 0.413460 0.191039
O O3 0.688621 0.120665 0.227786
O O4 0.666336 0.387906 0.746802
O O5 0.853462 0.728861 0.380304
O O6 0.717804 0.483749 0.456961
O O7 0.261421 0.597781 0.606555
O O8 0.108890 0.459193 0.815208
O O9 0.557666 0.738480 0.899661
O O10 0.326099 0.377793 0.145301
O O11 0.725985 0.168171 0.867770
O O12 0.794273 0.188356 0.721732
O O13 0.383762 0.167367 0.462696
O O14 0.500000 0.000000 0.000000
O O15 0.500000 0.000000 0.500000
O O16 0.184545 0.019346 0.029488
O O17 0.000000 0.000000 0.000000
O O18 0.500000 0.500000 0.000000
#
# Coordination Sequence:
#
# PCOD8018010 Si02
#       8
#     2   2   2   2   2   2   2   2
#     4  10  23  42  66  95 136 177 225 273 330 412
#     4  10  23  41  63  97 135 174 224 278 333 400
#     4  10  22  40  59  96 131 164 218 278 328 385
#     4  10  22  40  64  93 132 172 220 272 330 397
#     4  11  22  42  67  95 134 178 222 266 333 403
#     4  11  22  39  64  94 130 177 220 275 337 395
#     4  11  24  41  65  93 130 170 219 281 333 399
#     4  11  22  38  66  99 131 174 222 280 329 389
#
# _framework density 21.663623999999999
#
# number of rings (size 3 to 8) (size 9 to 14) (size 15 to 20)
#    0.000    1.500    3.750    0.750    1.750    5.500 
#    0.000    0.625    0.000    0.000    0.000    0.000 
#    0.000    0.000    0.000    0.000    0.000    0.000 
#
# Total GULP energy -198233.915366 kJ/mol
# GULP energy per Si atom -12389.619710 kJ/mol
# Density = 2.161432 g / cm^3
# Si number density = 21.663624 Si / 1000 Ang^3
#
#
#
# Elastic Constant Matrix: (Units=GPa)
#
#
# Indices 1 2 3 4 5 6 
#
# 1 114.0662 42.9284 49.8823 -11.5774 -8.4854 11.2503
# 2 42.9284 101.1706 42.1186 -0.6742 -2.5271 21.4235
# 3 49.8823 42.1186 124.0975 -21.7792 -1.8326 2.4082
# 4 -11.5774 -0.6742 -21.7792 46.5793 -3.4329 3.3772
# 5 -8.4854 -2.5271 -1.8326 -3.4329 40.4362 -11.1495
# 6 11.2503 21.4235 2.4082 3.3772 -11.1495 32.8701
#
#
#
# Elastic Compliance Matrix: (Units=1/GPa)
#
#
# Indices 1 2 3 4 5 6 
#
# 1 0.011902 -0.003373 -0.003310 0.001588 0.001960 -0.001131
# 2 -0.003373 0.014708 -0.003849 -0.001975 -0.002561 -0.008815
# 3 -0.003310 -0.003849 0.011413 0.004319 0.000662 0.002586
# 4 0.001588 -0.001975 0.004319 0.024105 0.002082 -0.001343
# 5 0.001960 -0.002561 0.000662 0.002082 0.028011 0.010238
# 6 -0.001131 -0.008815 0.002586 -0.001343 0.010238 0.039976
#
#
# Mechanical properties :
#
#
# Convention : Reuss Voigt Hill
#
# Bulk Modulus (GPa) = 58.96916 67.68809 63.32862
# Shear Modulus (GPa) = 31.88111 37.60413 34.74262
#
# Velocity S-wave (km/s) = 3.84036 4.17084 4.00901
# Velocity P-wave (km/s) = 6.85157 7.38291 7.12219
#
# Compressibility (1/GPa) = 0.01695802
#
# Stress axis : x y z
#
# Youngs Moduli (GPa) = 84.01704 67.99155 87.62296
#
# Poissons Ratio (x) = 0.22937 0.29000
# Poissons Ratio (y) = 0.28343 0.33727
# Poissons Ratio (z) = 0.27807 0.26171
#
# Static dielectric constant tensor:
#      x y z
#    x 4.023500 0.036920 0.238150 
#    y 0.036920 3.939020 -0.222980 
#    z 0.238150 -0.222980 4.142200 
# 
# 
# High freq. dielectric constant tensor:
#      x y z
#    x 1.843450 0.001330 0.007280 
#    y 0.001330 1.851870 -0.009390 
#    z 0.007280 -0.009390 1.854060 
# 
# From -- ./inp_files/541880.got.cif
#   From: 2010.06.25/outbox.cif.g09.slc.cpg/sg2_271_cif.got.tgz:541880.got - 2010.06.27 13:26:56.
