data_PCOD8018737
_publ_section_title
;
Structure prediction by ZEFSAII (Michael W. Deem and Ramdas Pophale) SiO2 
 PCOD8018737
Probable space group: P -1
;
_chemical_formula_sum "Si O2"
_cell_formula_units_Z 16
_cell_length_a 8.586411
_cell_length_b 9.078923
_cell_length_c 11.237725
_cell_angle_alpha 117.768495
_cell_angle_beta 74.033698
_cell_angle_gamma 118.274192
_cell_volume 681.006563
_symmetry_space_group_name_H-M "P -1"
_symmetry_group_IT_number 2
_symmetry_cell_setting 'triclinic'
loop_
_space_group_symop_operation_xyz
x,y,z
-x,-y,-z
loop_
_atom_site_type_symbol
_atom_site_label
_atom_site_fract_x
_atom_site_fract_y
_atom_site_fract_z
Si Si1 0.932885 0.224967 0.233293
Si Si2 0.473881 0.493384 0.361542
Si Si3 0.704224 0.096394 0.025865
Si Si4 0.814796 0.899906 0.737594
Si Si5 0.151860 0.552387 0.148300
Si Si6 0.785889 0.507070 0.143553
Si Si7 0.309449 0.928513 0.363116
Si Si8 0.328521 0.777677 0.539114
O O1 0.791975 0.063362 0.118122
O O2 0.827904 0.318347 0.369297
O O3 0.008420 0.125384 0.276088
O O4 0.092264 0.386455 0.192691
O O5 0.500000 0.500000 0.500000
O O6 0.354674 0.287916 0.271098
O O7 0.654311 0.568442 0.272076
O O8 0.376171 0.626323 0.404774
O O9 0.749508 0.305196 0.112322
O O10 0.500000 0.000000 0.000000
O O11 0.809103 0.057421 0.882433
O O12 0.813753 0.977150 0.633483
O O13 0.301538 0.742465 0.233646
O O14 0.991874 0.615582 0.175506
O O15 0.231874 0.483902 0.992597
O O16 0.262615 0.884704 0.495240
O O17 0.509688 0.078050 0.365108
#
# Coordination Sequence:
#
# PCOD8018737 Si02
#       8
#     2   2   2   2   2   2   2   2
#     4  11  26  45  72 105 143 184 229 289 346 427
#     4  12  23  42  72 103 139 190 236 277 348 424
#     4  11  20  42  73 102 134 181 226 288 348 405
#     4  12  24  42  72 104 138 182 238 285 352 407
#     4  10  22  44  69  99 142 179 228 288 358 398
#     4  10  22  40  70 103 138 181 229 285 347 420
#     4  11  24  47  70  99 140 184 232 296 340 409
#     4  11  26  48  68 103 142 185 241 277 348 420
#
# _framework density 23.494631999999999
#
# number of rings (size 3 to 8) (size 9 to 14) (size 15 to 20)
#    0.000    1.000    3.750    3.375    0.000    3.500 
#    4.500    3.750    0.000    0.000    0.000    0.000 
#    0.000    0.000    0.000    0.000    0.000    0.000 
#
# Total GULP energy -198227.765011 kJ/mol
# GULP energy per Si atom -12389.235313 kJ/mol
# Density = 2.344116 g / cm^3
# Si number density = 23.494632 Si / 1000 Ang^3
#
#
#
# Elastic Constant Matrix: (Units=GPa)
#
#
# Indices 1 2 3 4 5 6 
#
# 1 114.0493 42.8172 60.3404 -12.0270 13.9937 -24.1456
# 2 42.8172 82.3437 38.4230 -10.3795 7.2999 -11.6106
# 3 60.3404 38.4230 120.2498 -17.0421 -11.2505 1.4867
# 4 -12.0270 -10.3795 -17.0421 41.5860 6.4422 4.9936
# 5 13.9937 7.2999 -11.2505 6.4422 43.6733 -8.2775
# 6 -24.1456 -11.6106 1.4867 4.9936 -8.2775 30.2591
#
#
#
# Elastic Compliance Matrix: (Units=1/GPa)
#
#
# Indices 1 2 3 4 5 6 
#
# 1 0.017486 -0.003040 -0.008389 0.000230 -0.005058 0.011778
# 2 -0.003040 0.016312 -0.003710 0.001667 -0.002368 0.003093
# 3 -0.008389 -0.003710 0.014692 0.002813 0.005184 -0.007886
# 4 0.000230 0.001667 0.002813 0.026991 -0.004560 -0.005017
# 5 -0.005058 -0.002368 0.005184 -0.004560 0.027505 0.003077
# 6 0.011778 0.003093 -0.007886 -0.005017 0.003077 0.045690
#
#
# Mechanical properties :
#
#
# Convention : Reuss Voigt Hill
#
# Bulk Modulus (GPa) = 54.90960 66.64490 60.77725
# Shear Modulus (GPa) = 27.02317 34.77448 30.89883
#
# Velocity S-wave (km/s) = 3.39512 3.85138 3.63043
# Velocity P-wave (km/s) = 6.22824 6.94299 6.59531
#
# Compressibility (1/GPa) = 0.01821175
#
# Stress axis : x y z
#
# Youngs Moduli (GPa) = 57.18775 61.30304 68.06251
#
# Poissons Ratio (x) = 0.18636 0.57100
# Poissons Ratio (y) = 0.17385 0.25254
# Poissons Ratio (z) = 0.47977 0.22746
#
# Static dielectric constant tensor:
#      x y z
#    x 2.928190 -0.981280 -0.452270 
#    y -0.981280 3.651010 -0.379560 
#    z -0.452270 -0.379560 3.931220 
# 
# 
# High freq. dielectric constant tensor:
#      x y z
#    x 1.924140 -0.001600 0.024550 
#    y -0.001600 1.922960 -0.001940 
#    z 0.024550 -0.001940 1.931330 
# 
# From -- ./inp_files/383185.got.cif
#   From: 2010.06.25/outbox.cif.g09.slc.cpg/sg2_192_cif.got.tgz:383185.got - 2010.06.27 13:26:56.
