data_PCOD8018867
_publ_section_title
;
Structure prediction by ZEFSAII (Michael W. Deem and Ramdas Pophale) SiO2 
 PCOD8018867
Probable space group: P -1
;
_chemical_formula_sum "Si O2"
_cell_formula_units_Z 16
_cell_length_a 8.843994
_cell_length_b 12.265211
_cell_length_c 14.585354
_cell_angle_alpha 30.234915
_cell_angle_beta 71.424061
_cell_angle_gamma 72.747770
_cell_volume 754.412085
_symmetry_space_group_name_H-M "P -1"
_symmetry_group_IT_number 2
_symmetry_cell_setting 'triclinic'
loop_
_space_group_symop_operation_xyz
x,y,z
-x,-y,-z
loop_
_atom_site_type_symbol
_atom_site_label
_atom_site_fract_x
_atom_site_fract_y
_atom_site_fract_z
Si Si1 0.909388 0.762957 0.919317
Si Si2 0.335056 0.950348 0.612532
Si Si3 0.926077 0.268595 0.279226
Si Si4 0.231572 0.765767 0.944006
Si Si5 0.684114 0.941293 0.117665
Si Si6 0.110374 0.493575 0.571326
Si Si7 0.120996 0.338238 0.351581
Si Si8 0.683366 0.107123 0.796226
O O1 0.949881 0.761550 0.805599
O O2 0.055803 0.859496 0.878841
O O3 0.752194 0.912544 0.860082
O O4 0.880547 0.518755 0.131940
O O5 0.240149 0.837823 0.630941
O O6 0.350734 0.800041 0.809560
O O7 0.500000 0.000000 0.500000
O O8 0.244973 0.175862 0.497974
O O9 0.019716 0.184578 0.413898
O O10 0.296053 0.881809 0.936183
O O11 0.222678 0.509264 0.150641
O O12 0.804400 0.739922 0.260908
O O13 0.504620 0.863521 0.206184
O O14 0.726501 0.053459 0.932226
O O15 0.243379 0.669516 0.409665
O O16 0.000000 0.500000 0.500000
O O17 0.997125 0.535706 0.648924
#
# Coordination Sequence:
#
# PCOD8018867 Si02
#       8
#     2   2   2   2   2   2   2   2
#     4   9  18  37  63  86 115 158 201 247 292 347
#     4  11  24  39  59  90 123 154 194 247 302 357
#     4   9  19  37  60  86 117 154 201 244 289 355
#     4  10  22  41  61  87 121 156 203 246 293 362
#     4  11  24  41  62  90 126 163 197 250 312 359
#     4  12  24  41  66  91 120 160 209 254 295 358
#     4  11  23  39  64  88 113 160 203 243 300 352
#     4  11  24  40  61  92 126 159 201 251 307 362
#
# _framework density 21.208569000000001
#
# number of rings (size 3 to 8) (size 9 to 14) (size 15 to 20)
#    0.000    1.500    0.000    6.750    0.000    5.000 
#    0.000    2.500    0.000    0.000    0.000    0.000 
#    0.000    0.000    0.000    0.000    0.000    0.000 
#
# Total GULP energy -198428.570401 kJ/mol
# GULP energy per Si atom -12401.785650 kJ/mol
# Density = 2.116030 g / cm^3
# Si number density = 21.208569 Si / 1000 Ang^3
#
#
#
# Elastic Constant Matrix: (Units=GPa)
#
#
# Indices 1 2 3 4 5 6 
#
# 1 90.7659 48.7358 38.3508 5.0289 -3.1973 5.5194
# 2 48.7358 96.5493 28.0268 9.3483 -7.6340 16.3469
# 3 38.3508 28.0268 102.2542 14.8033 -14.0840 -0.2900
# 4 5.0289 9.3483 14.8033 26.6914 -2.1127 -2.0432
# 5 -3.1973 -7.6340 -14.0840 -2.1127 34.8795 5.8464
# 6 5.5194 16.3469 -0.2900 -2.0432 5.8464 34.7593
#
#
#
# Elastic Compliance Matrix: (Units=1/GPa)
#
#
# Indices 1 2 3 4 5 6 
#
# 1 0.016954 -0.007777 -0.004838 0.002147 -0.002210 0.001423
# 2 -0.007777 0.016362 -0.000467 -0.004279 0.003649 -0.007329
# 3 -0.004838 -0.000467 0.013183 -0.005886 0.004420 0.000008
# 4 0.002147 -0.004279 -0.005886 0.042052 -0.001292 0.004311
# 5 -0.002210 0.003649 0.004420 -0.001292 0.032113 -0.006806
# 6 0.001423 -0.007329 0.000008 0.004311 -0.006806 0.033388
#
#
# Mechanical properties :
#
#
# Convention : Reuss Voigt Hill
#
# Bulk Modulus (GPa) = 49.17537 57.75515 53.46526
# Shear Modulus (GPa) = 26.73866 30.89643 28.81755
#
# Velocity S-wave (km/s) = 3.55455 3.82093 3.69015
# Velocity P-wave (km/s) = 6.33114 6.83792 6.58940
#
# Compressibility (1/GPa) = 0.02033538
#
# Stress axis : x y z
#
# Youngs Moduli (GPa) = 58.98264 61.11606 75.85572
#
# Poissons Ratio (x) = 0.47531 0.36701
# Poissons Ratio (y) = 0.45871 0.03540
# Poissons Ratio (z) = 0.28537 0.02852
#
# Static dielectric constant tensor:
#      x y z
#    x 3.771980 0.160620 -0.015320 
#    y 0.160620 3.793070 0.022700 
#    z -0.015320 0.022700 4.017740 
# 
# 
# High freq. dielectric constant tensor:
#      x y z
#    x 1.822430 0.010880 -0.001830 
#    y 0.010880 1.833170 0.000920 
#    z -0.001830 0.000920 1.850820 
# 
# From -- ./inp_files/477769.got.cif
#   From: 2010.06.25/outbox.cif.g09.slc.cpg/sg2_239_cif.got.tgz:477769.got - 2010.06.27 13:26:56.
