data_PCOD8018180
_publ_section_title
;
Structure prediction by ZEFSAII (Michael W. Deem and Ramdas Pophale) SiO2 
 PCOD8018180
Probable space group: P -1
;
_chemical_formula_sum "Si O2"
_cell_formula_units_Z 12
_cell_length_a 21.307780
_cell_length_b 5.825401
_cell_length_c 4.675304
_cell_angle_alpha 89.999950
_cell_angle_beta 100.906230
_cell_angle_gamma 123.146795
_cell_volume 473.324608
_symmetry_space_group_name_H-M "P -1"
_symmetry_group_IT_number 2
_symmetry_cell_setting 'triclinic'
loop_
_space_group_symop_operation_xyz
x,y,z
-x,-y,-z
loop_
_atom_site_type_symbol
_atom_site_label
_atom_site_fract_x
_atom_site_fract_y
_atom_site_fract_z
Si Si1 0.659710 0.523858 0.956932
Si Si2 0.559379 0.931059 0.948179
Si Si3 0.159710 0.114983 0.956932
Si Si4 0.059379 0.306458 0.948178
Si Si5 0.081443 0.735448 0.392457
Si Si6 0.581443 0.590324 0.392457
O O1 0.618927 0.648043 0.740309
O O2 0.628535 0.205277 0.846772
O O3 0.750000 0.714324 0.999999
O O4 0.634024 0.514780 0.260559
O O5 0.510333 0.668808 0.684937
O O6 0.590522 0.855618 0.250853
O O7 0.500000 0.000000 0.000000
O O8 0.128535 0.308861 0.846771
O O9 0.118928 0.827666 0.740309
O O10 0.134024 0.021314 0.260557
O O11 0.010333 0.372525 0.684937
O O12 0.090522 0.506469 0.250853
O O13 0.000000 0.000000 0.000000
#
# Coordination Sequence:
#
# PCOD8018180 Si02
#       6
#     2   2   2   2   2   2
#     4  11  23  40  61  92 131 169 210 263 329 390
#     4   9  21  40  66  91 121 165 216 266 318 381
#     4  11  23  40  61  92 131 169 210 263 329 390
#     4   9  21  40  66  91 121 165 216 266 318 381
#     4  10  22  40  63  92 124 164 217 269 317 381
#     4  10  22  40  63  92 124 164 217 269 317 381
#
# _framework density 25.35258
#
# number of rings (size 3 to 8) (size 9 to 14) (size 15 to 20)
#    0.000    2.000    0.000    2.000    0.000   18.667 
#    0.000    6.667    0.000    0.000    0.000    0.000 
#    0.000    0.000    0.000    0.000    0.000    0.000 
#
# Total GULP energy -148805.654289 kJ/mol
# GULP energy per Si atom -12400.471191 kJ/mol
# Density = 2.529488 g / cm^3
# Si number density = 25.352580 Si / 1000 Ang^3
#
#
#
# Elastic Constant Matrix: (Units=GPa)
#
#
# Indices 1 2 3 4 5 6 
#
# 1 153.3432 56.7416 33.2245 18.7158 26.7266 22.0936
# 2 56.7416 116.7845 29.3892 15.1976 25.1475 4.7206
# 3 33.2245 29.3892 100.2915 9.0300 11.0579 0.7580
# 4 18.7158 15.1976 9.0300 41.7519 -5.3452 1.9935
# 5 26.7266 25.1475 11.0579 -5.3452 34.5560 3.6147
# 6 22.0936 4.7206 0.7580 1.9935 3.6147 52.5621
#
#
#
# Elastic Compliance Matrix: (Units=1/GPa)
#
#
# Indices 1 2 3 4 5 6 
#
# 1 0.009633 -0.002556 -0.001508 -0.003585 -0.005318 -0.003296
# 2 -0.002556 0.012210 -0.001608 -0.003885 -0.007061 0.000634
# 3 -0.001508 -0.001608 0.011234 -0.001405 -0.001557 0.000777
# 4 -0.003585 -0.003885 -0.001405 0.028613 0.010468 0.000071
# 5 -0.005318 -0.007061 -0.001557 0.010468 0.040337 -0.000279
# 6 -0.003296 0.000634 0.000777 0.000071 -0.000279 0.020359
#
#
# Mechanical properties :
#
#
# Convention : Reuss Voigt Hill
#
# Bulk Modulus (GPa) = 46.01278 67.68109 56.84694
# Shear Modulus (GPa) = 35.46766 42.51160 38.98963
#
# Velocity S-wave (km/s) = 3.74435 4.09934 3.92586
# Velocity P-wave (km/s) = 6.07306 7.01142 6.55904
#
# Compressibility (1/GPa) = 0.02173309
#
# Stress axis : x y z
#
# Youngs Moduli (GPa) = 103.80757 81.90186 89.01588
#
# Poissons Ratio (x) = 0.20935 0.13426
# Poissons Ratio (y) = 0.26534 0.14310
# Poissons Ratio (z) = 0.15657 0.13166
#
# Static dielectric constant tensor:
#      x y z
#    x 5.018370 -0.548280 -0.029950 
#    y -0.548280 5.521290 0.113430 
#    z -0.029950 0.113430 4.610790 
# 
# 
# High freq. dielectric constant tensor:
#      x y z
#    x 2.012020 -0.013130 -0.016060 
#    y -0.013130 2.027630 -0.007460 
#    z -0.016060 -0.007460 2.008510 
# 
# From -- ./inp_files/114818.got.cif
#   From: 2010.06.25/outbox.cif.g09.slc.cpg/sg2_58_cif.got.tgz:114818.got - 2010.06.27 13:26:56.
