data_PCOD8018338
_publ_section_title
;
Structure prediction by ZEFSAII (Michael W. Deem and Ramdas Pophale) SiO2 
 PCOD8018338
Probable space group: P -1
;
_chemical_formula_sum "Si O2"
_cell_formula_units_Z 16
_cell_length_a 9.628255
_cell_length_b 17.599805
_cell_length_c 21.451433
_cell_angle_alpha 20.134636
_cell_angle_beta 40.461491
_cell_angle_gamma 39.700830
_cell_volume 786.966658
_symmetry_space_group_name_H-M "P -1"
_symmetry_group_IT_number 2
_symmetry_cell_setting 'triclinic'
loop_
_space_group_symop_operation_xyz
x,y,z
-x,-y,-z
loop_
_atom_site_type_symbol
_atom_site_label
_atom_site_fract_x
_atom_site_fract_y
_atom_site_fract_z
Si Si1 0.530516 0.617418 0.486478
Si Si2 0.134476 0.534407 0.614511
Si Si3 0.206506 0.588107 0.337603
Si Si4 0.996695 0.071938 0.017020
Si Si5 0.695327 0.788617 0.613723
Si Si6 0.490531 0.908292 0.830945
Si Si7 0.506220 0.541904 0.774969
Si Si8 0.235692 0.995887 0.452486
O O1 0.302457 0.563770 0.588313
O O2 0.741308 0.470173 0.489965
O O3 0.573047 0.543097 0.600786
O O4 0.518145 0.885439 0.276391
O O5 0.921856 0.750724 0.524741
O O6 0.075184 0.296874 0.831900
O O7 0.267363 0.531589 0.287375
O O8 0.000000 0.500000 0.500000
O O9 0.159156 0.856903 0.161128
O O10 0.750044 0.100033 0.104938
O O11 0.000000 0.000000 0.000000
O O12 0.586564 0.586159 0.783727
O O13 0.766146 0.804374 0.649482
O O14 0.500000 0.000000 0.500000
O O15 0.620288 0.948788 0.694844
O O16 0.599742 0.675038 0.011654
O O17 0.330641 0.752548 0.641469
O O18 0.000000 0.000000 0.500000
#
# Coordination Sequence:
#
# PCOD8018338 Si02
#       8
#     2   2   2   2   2   2   2   2
#     4  11  23  37  66 100 134 173 209 269 352 401
#     4  11  22  41  62  94 140 170 208 282 337 387
#     4  12  20  35  65  97 133 171 218 261 335 407
#     4  12  20  37  64  94 126 169 216 266 328 399
#     4  10  22  40  65  90 128 177 224 273 324 381
#     4  12  22  41  69  99 125 173 227 268 335 398
#     4  11  22  40  67  96 128 169 227 275 316 396
#     4  11  25  44  66  94 134 178 223 275 334 392
#
# _framework density 20.331230000000001
#
# number of rings (size 3 to 8) (size 9 to 14) (size 15 to 20)
#    0.000    0.750    6.250    1.500    0.000    2.500 
#    0.000    0.000    0.000    0.000    0.000    0.000 
#    0.000    0.000    0.000    0.000    0.000    0.000 
#
# Total GULP energy -198223.436031 kJ/mol
# GULP energy per Si atom -12388.964752 kJ/mol
# Density = 2.028496 g / cm^3
# Si number density = 20.331230 Si / 1000 Ang^3
#
#
#
# Elastic Constant Matrix: (Units=GPa)
#
#
# Indices 1 2 3 4 5 6 
#
# 1 126.1317 49.5885 58.0838 -3.3203 -16.4724 -0.5357
# 2 49.5885 123.0504 46.7387 -8.0333 -2.7593 -9.3965
# 3 58.0838 46.7387 125.6165 -13.7014 -3.2113 -10.2605
# 4 -3.3203 -8.0333 -13.7014 29.2239 -0.4987 -0.9860
# 5 -16.4724 -2.7593 -3.2113 -0.4987 31.3502 3.4943
# 6 -0.5357 -9.3965 -10.2605 -0.9860 3.4943 28.9442
#
#
#
# Elastic Compliance Matrix: (Units=1/GPa)
#
#
# Indices 1 2 3 4 5 6 
#
# 1 0.012100 -0.003338 -0.004660 -0.001737 0.005925 -0.003286
# 2 -0.003338 0.010526 -0.001992 0.001654 -0.001325 0.002865
# 3 -0.004660 -0.001992 0.011603 0.004459 -0.001782 0.003747
# 4 -0.001737 0.001654 0.004459 0.036678 -0.000100 0.003347
# 5 0.005925 -0.001325 -0.001782 -0.000100 0.035292 -0.005216
# 6 -0.003286 0.002865 0.003747 0.003347 -0.005216 0.037491
#
#
# Mechanical properties :
#
#
# Convention : Reuss Voigt Hill
#
# Bulk Modulus (GPa) = 70.17552 75.95784 73.06668
# Shear Modulus (GPa) = 29.68772 32.59616 31.14194
#
# Velocity S-wave (km/s) = 3.82541 4.00841 3.91798
# Velocity P-wave (km/s) = 7.35545 7.67232 7.51555
#
# Compressibility (1/GPa) = 0.01424998
#
# Stress axis : x y z
#
# Youngs Moduli (GPa) = 82.64158 95.00477 86.18124
#
# Poissons Ratio (x) = 0.31713 0.40156
# Poissons Ratio (y) = 0.27586 0.17170
# Poissons Ratio (z) = 0.38507 0.18928
#
# Static dielectric constant tensor:
#      x y z
#    x 4.293690 0.052970 -0.161500 
#    y 0.052970 4.250720 -0.292660 
#    z -0.161500 -0.292660 3.851490 
# 
# 
# High freq. dielectric constant tensor:
#      x y z
#    x 1.787940 0.001430 -0.007510 
#    y 0.001430 1.811360 -0.014290 
#    z -0.007510 -0.014290 1.781320 
# 
# From -- ./inp_files/338186.got.cif
#   From: 2010.06.25/outbox.cif.g09.slc.cpg/sg2_170_cif.got.tgz:338186.got - 2010.06.27 13:26:56.
