data_PCOD8018917
_publ_section_title
;
Structure prediction by ZEFSAII (Michael W. Deem and Ramdas Pophale) SiO2 
 PCOD8018917
Probable space group: P -1
;
_chemical_formula_sum "Si O2"
_cell_formula_units_Z 14
_cell_length_a 18.277917
_cell_length_b 18.831331
_cell_length_c 16.206082
_cell_angle_alpha 21.354509
_cell_angle_beta 22.983638
_cell_angle_gamma 22.124243
_cell_volume 693.596312
_symmetry_space_group_name_H-M "P -1"
_symmetry_group_IT_number 2
_symmetry_cell_setting 'triclinic'
loop_
_space_group_symop_operation_xyz
x,y,z
-x,-y,-z
loop_
_atom_site_type_symbol
_atom_site_label
_atom_site_fract_x
_atom_site_fract_y
_atom_site_fract_z
Si Si1 0.841528 0.256649 0.366293
Si Si2 0.047526 0.275113 0.653795
Si Si3 0.152359 0.885899 0.084700
Si Si4 0.111644 0.336130 0.865420
Si Si5 0.601378 0.135547 0.997501
Si Si6 0.174332 0.219918 0.411304
Si Si7 0.610713 0.521624 0.472044
O O1 0.787034 0.412192 0.335288
O O2 0.617476 0.282630 0.535601
O O3 0.000000 0.000000 0.500000
O O4 0.951122 0.346834 0.090985
O O5 0.226426 0.216527 0.459443
O O6 0.000000 0.500000 0.500000
O O7 0.838947 0.283073 0.814805
O O8 0.126059 0.105771 0.830972
O O9 0.356657 0.793736 0.031779
O O10 0.950038 0.925775 0.311419
O O11 0.301885 0.370905 0.668131
O O12 0.983114 0.525465 0.727164
O O13 0.208488 0.100041 0.974179
O O14 0.568074 0.327485 0.761441
O O15 0.386269 0.114886 0.249668
#
# Coordination Sequence:
#
# PCOD8018917 Si02
#       7
#     2   2   2   2   2   2   2
#     4  11  24  44  66  91 125 168 207 261 312 369
#     4   9  18  41  65  88 128 166 202 256 309 361
#     4   9  21  39  62  90 128 160 203 262 298 366
#     4  12  24  41  66  91 126 171 204 258 315 365
#     4  12  23  40  64  93 127 163 210 253 314 373
#     4  10  22  41  62  94 126 162 209 258 305 369
#     4  11  24  43  63  93 127 159 216 256 308 377
#
# _framework density 20.184652
#
# number of rings (size 3 to 8) (size 9 to 14) (size 15 to 20)
#    0.857    0.571    4.286    1.286    0.000    3.429 
#    2.571    0.714    0.000    0.000    0.000    0.000 
#    0.000    0.000    0.000    0.000    0.000    0.000 
#
# Total GULP energy -173467.755041 kJ/mol
# GULP energy per Si atom -12390.553932 kJ/mol
# Density = 2.013871 g / cm^3
# Si number density = 20.184652 Si / 1000 Ang^3
#
#
#
# Elastic Constant Matrix: (Units=GPa)
#
#
# Indices 1 2 3 4 5 6 
#
# 1 71.9095 32.8309 27.7146 -7.2568 3.7283 -7.2978
# 2 32.8309 97.1178 40.2945 -1.6075 5.9037 -7.0102
# 3 27.7146 40.2945 112.0435 0.7730 20.1969 1.2508
# 4 -7.2568 -1.6075 0.7730 29.1773 -0.2593 -1.9505
# 5 3.7283 5.9037 20.1969 -0.2593 38.4023 -4.2385
# 6 -7.2978 -7.0102 1.2508 -1.9505 -4.2385 25.1443
#
#
#
# Elastic Compliance Matrix: (Units=1/GPa)
#
#
# Indices 1 2 3 4 5 6 
#
# 1 0.018038 -0.004441 -0.003155 0.004650 0.001142 0.004707
# 2 -0.004441 0.013597 -0.003954 -0.000056 0.000731 0.002817
# 3 -0.003155 -0.003954 0.012254 -0.001631 -0.005957 -0.003758
# 4 0.004650 -0.000056 -0.001631 0.035773 0.001140 0.004382
# 5 0.001142 0.000731 -0.005957 0.001140 0.029610 0.005911
# 6 0.004707 0.002817 -0.003758 0.004382 0.005911 0.043445
#
#
# Mechanical properties :
#
#
# Convention : Reuss Voigt Hill
#
# Bulk Modulus (GPa) = 48.10413 53.63896 50.87154
# Shear Modulus (GPa) = 27.36016 30.56016 28.96016
#
# Velocity S-wave (km/s) = 3.68570 3.89527 3.79193
# Velocity P-wave (km/s) = 6.48045 6.84563 6.66554
#
# Compressibility (1/GPa) = 0.02078824
#
# Stress axis : x y z
#
# Youngs Moduli (GPa) = 55.43902 73.54693 81.60295
#
# Poissons Ratio (x) = 0.32665 0.25745
# Poissons Ratio (y) = 0.24623 0.32266
# Poissons Ratio (z) = 0.17491 0.29081
#
# Static dielectric constant tensor:
#      x y z
#    x 3.548630 -0.051830 0.054750 
#    y -0.051830 3.300900 0.062050 
#    z 0.054750 0.062050 3.703220 
# 
# 
# High freq. dielectric constant tensor:
#      x y z
#    x 1.797280 -0.004930 0.015600 
#    y -0.004930 1.754950 -0.002530 
#    z 0.015600 -0.002530 1.805930 
# 
# From -- ./inp_files/577308.got.cif
#   From: 2010.06.25/outbox.cif.g09.slc.cpg/sg2_289_cif.got.tgz:577308.got - 2010.06.27 13:26:56.
