data_PCOD8018185
_publ_section_title
;
Structure prediction by ZEFSAII (Michael W. Deem and Ramdas Pophale) SiO2 
 PCOD8018185
Probable space group: P -1
;
_chemical_formula_sum "Si O2"
_cell_formula_units_Z 16
_cell_length_a 12.876180
_cell_length_b 9.453437
_cell_length_c 17.541667
_cell_angle_alpha 105.081528
_cell_angle_beta 128.078386
_cell_angle_gamma 33.490715
_cell_volume 752.127584
_symmetry_space_group_name_H-M "P -1"
_symmetry_group_IT_number 2
_symmetry_cell_setting 'triclinic'
loop_
_space_group_symop_operation_xyz
x,y,z
-x,-y,-z
loop_
_atom_site_type_symbol
_atom_site_label
_atom_site_fract_x
_atom_site_fract_y
_atom_site_fract_z
Si Si1 0.616119 0.732825 0.547838
Si Si2 0.673084 0.403322 0.254282
Si Si3 0.687781 0.206001 0.494783
Si Si4 0.134706 0.675959 0.819312
Si Si5 0.203708 0.354043 0.005851
Si Si6 0.154517 0.324283 0.811706
Si Si7 0.481815 0.628443 0.357815
Si Si8 0.776438 0.338509 0.976710
O O1 0.398244 0.876362 0.532905
O O2 0.660539 0.578210 0.475642
O O3 0.921149 0.448348 0.686325
O O4 0.500000 0.000000 0.500000
O O5 0.657026 0.518548 0.186827
O O6 0.485367 0.658644 0.273195
O O7 0.531287 0.388456 0.163052
O O8 0.984468 0.081384 0.384237
O O9 0.500000 0.500000 0.500000
O O10 0.608206 0.339577 0.391447
O O11 0.063253 0.578481 0.787407
O O12 0.265292 0.626604 0.945697
O O13 0.843261 0.043488 0.714448
O O14 0.114696 0.609043 0.988884
O O15 0.536314 0.015200 0.131483
O O16 0.156941 0.301711 0.901398
O O17 0.000000 0.500000 0.000000
O O18 0.000000 0.000000 0.000000
#
# Coordination Sequence:
#
# PCOD8018185 Si02
#       8
#     2   2   2   2   2   2   2   2
#     4  11  21  43  67  95 129 174 213 261 323 388
#     4  12  23  42  68  92 132 175 209 269 330 377
#     4  10  22  40  63  92 132 167 208 266 318 377
#     4  11  22  44  65  97 132 171 212 276 325 380
#     4  10  25  46  67  96 129 170 217 271 322 384
#     4  10  23  44  69  92 133 172 214 266 327 384
#     4  11  23  40  65  94 134 165 217 266 320 387
#     4  11  25  42  69  99 126 170 223 268 325 390
#
# _framework density 21.272988000000002
#
# number of rings (size 3 to 8) (size 9 to 14) (size 15 to 20)
#    0.000    1.250    5.000    0.750    5.250    1.000 
#    4.500    1.250    0.000    0.000    0.000    0.000 
#    0.000    0.000    0.000    0.000    0.000    0.000 
#
# Total GULP energy -198309.954058 kJ/mol
# GULP energy per Si atom -12394.372129 kJ/mol
# Density = 2.122457 g / cm^3
# Si number density = 21.272988 Si / 1000 Ang^3
#
#
#
# Elastic Constant Matrix: (Units=GPa)
#
#
# Indices 1 2 3 4 5 6 
#
# 1 140.7311 48.7504 53.9811 7.1422 -9.1551 -11.6435
# 2 48.7504 69.3160 36.1944 3.7115 -3.3598 -1.8357
# 3 53.9811 36.1944 147.0213 10.1832 9.5991 -2.7623
# 4 7.1422 3.7115 10.1832 39.6146 -3.0981 -6.9507
# 5 -9.1551 -3.3598 9.5991 -3.0981 32.5930 0.7633
# 6 -11.6435 -1.8357 -2.7623 -6.9507 0.7633 39.7795
#
#
#
# Elastic Compliance Matrix: (Units=1/GPa)
#
#
# Indices 1 2 3 4 5 6 
#
# 1 0.010531 -0.005844 -0.002579 0.000003 0.003055 0.002576
# 2 -0.005844 0.020091 -0.002893 -0.000166 0.001290 -0.001038
# 3 -0.002579 -0.002893 0.008832 -0.001926 -0.003794 -0.000539
# 4 0.000003 -0.000166 -0.001926 0.026773 0.002991 0.004480
# 5 0.003055 0.001290 -0.003794 0.002991 0.033061 0.000579
# 6 0.002576 -0.001038 -0.000539 0.004480 0.000579 0.026579
#
#
# Mechanical properties :
#
#
# Convention : Reuss Voigt Hill
#
# Bulk Modulus (GPa) = 59.44366 70.54667 64.99517
# Shear Modulus (GPa) = 32.44525 36.94024 34.69275
#
# Velocity S-wave (km/s) = 3.90960 4.17164 4.04274
# Velocity P-wave (km/s) = 6.95585 7.51252 7.23954
#
# Compressibility (1/GPa) = 0.01682265
#
# Stress axis : x y z
#
# Youngs Moduli (GPa) = 94.95679 49.77362 113.22604
#
# Poissons Ratio (x) = 0.29086 0.29205
# Poissons Ratio (y) = 0.55489 0.32753
# Poissons Ratio (z) = 0.24492 0.14398
#
# Static dielectric constant tensor:
#      x y z
#    x 4.481990 -0.004030 -0.311440 
#    y -0.004030 3.803930 -0.016620 
#    z -0.311440 -0.016620 4.175180 
# 
# 
# High freq. dielectric constant tensor:
#      x y z
#    x 1.837890 -0.004900 -0.008140 
#    y -0.004900 1.813290 -0.004090 
#    z -0.008140 -0.004090 1.851360 
# 
# From -- ./inp_files/501202.got.cif
#   From: 2010.06.25/outbox.cif.g09.slc.cpg/sg2_251_cif.got.tgz:501202.got - 2010.06.27 13:26:56.
