data_PCOD8018250
_publ_section_title
;
Structure prediction by ZEFSAII (Michael W. Deem and Ramdas Pophale) SiO2 
 PCOD8018250
Probable space group: P -1
;
_chemical_formula_sum "Si O2"
_cell_formula_units_Z 16
_cell_length_a 5.123575
_cell_length_b 8.593022
_cell_length_c 18.714530
_cell_angle_alpha 122.080508
_cell_angle_beta 118.883144
_cell_angle_gamma 76.362610
_cell_volume 611.048144
_symmetry_space_group_name_H-M "P -1"
_symmetry_group_IT_number 2
_symmetry_cell_setting 'triclinic'
loop_
_space_group_symop_operation_xyz
x,y,z
-x,-y,-z
loop_
_atom_site_type_symbol
_atom_site_label
_atom_site_fract_x
_atom_site_fract_y
_atom_site_fract_z
Si Si1 0.602298 0.462005 0.844652
Si Si2 0.768730 0.693399 0.112013
Si Si3 0.713392 0.163625 0.524259
Si Si4 0.278817 0.184775 0.135705
Si Si5 0.667128 0.849645 0.345470
Si Si6 0.910497 0.703807 0.528624
Si Si7 0.725375 0.062746 0.269533
Si Si8 0.652726 0.162777 0.015939
O O1 0.378733 0.407999 0.864842
O O2 0.576394 0.683869 0.878064
O O3 0.501327 0.349251 0.731431
O O4 0.937070 0.411533 0.896818
O O5 0.557624 0.683104 0.010302
O O6 0.837246 0.908439 0.191262
O O7 0.443844 0.298131 0.534831
O O8 0.970284 0.170847 0.620499
O O9 0.895626 0.209768 0.487814
O O10 0.586320 0.952124 0.436411
O O11 0.491154 0.203370 0.237307
O O12 0.233608 0.963835 0.065758
O O13 0.941130 0.258114 0.117760
O O14 0.560044 0.967444 0.292226
O O15 0.000000 0.500000 0.500000
O O16 0.985370 0.816323 0.638434
O O17 0.500000 0.000000 0.000000
#
# Coordination Sequence:
#
# PCOD8018250 Si02
#       8
#     2   2   2   2   2   2   2   2
#     4  11  24  42  66 103 130 170 221 281 325 381
#     4  10  24  43  69  93 134 173 221 270 330 393
#     4  10  22  40  64  91 129 177 224 270 329 392
#     4  10  24  43  66  98 133 170 219 271 334 389
#     4   9  21  40  69  93 130 177 225 274 329 395
#     4  11  23  40  62  96 131 173 220 276 329 383
#     4   9  21  44  63  95 129 181 213 269 327 405
#     4  10  24  44  70  93 131 181 215 263 331 409
#
# _framework density 26.184518000000001
#
# number of rings (size 3 to 8) (size 9 to 14) (size 15 to 20)
#    0.000    2.000    0.000    1.125   10.500    7.500 
#    2.250    0.000    0.000    0.000    0.000    0.000 
#    0.000    0.000    0.000    0.000    0.000    0.000 
#
# Total GULP energy -198298.859422 kJ/mol
# GULP energy per Si atom -12393.678714 kJ/mol
# Density = 2.612492 g / cm^3
# Si number density = 26.184518 Si / 1000 Ang^3
#
#
#
# Elastic Constant Matrix: (Units=GPa)
#
#
# Indices 1 2 3 4 5 6 
#
# 1 81.4288 27.9674 12.4883 -16.4810 30.1769 -20.8728
# 2 27.9674 151.7906 56.9035 -16.8234 20.4883 -23.7856
# 3 12.4883 56.9035 85.7361 -19.4201 18.2733 -2.8779
# 4 -16.4810 -16.8234 -19.4201 52.9555 -7.5876 -2.8878
# 5 30.1769 20.4883 18.2733 -7.5876 35.9457 -5.0974
# 6 -20.8728 -23.7856 -2.8779 -2.8878 -5.0974 38.0572
#
#
#
# Elastic Compliance Matrix: (Units=1/GPa)
#
#
# Indices 1 2 3 4 5 6 
#
# 1 0.022073 -0.000424 0.002285 0.005722 -0.016796 0.010198
# 2 -0.000424 0.010030 -0.005892 0.000995 -0.001378 0.005482
# 3 0.002285 -0.005892 0.017602 0.004219 -0.006858 -0.001697
# 4 0.005722 0.000995 0.004219 0.022547 -0.001973 0.005526
# 5 -0.016796 -0.001378 -0.006858 -0.001973 0.045109 -0.004700
# 6 0.010198 0.005482 -0.001697 0.005526 -0.004700 0.034957
#
#
# Mechanical properties :
#
#
# Convention : Reuss Voigt Hill
#
# Bulk Modulus (GPa) = 24.01441 57.07489 40.54465
# Shear Modulus (GPa) = 28.69248 40.16478 34.42863
#
# Velocity S-wave (km/s) = 3.31385 3.92077 3.63002
# Velocity P-wave (km/s) = 4.88193 6.50700 5.75214
#
# Compressibility (1/GPa) = 0.04164166
#
# Stress axis : x y z
#
# Youngs Moduli (GPa) = 45.30487 99.69721 56.81192
#
# Poissons Ratio (x) = 0.04227 -0.12979
# Poissons Ratio (y) = 0.01921 0.33475
# Poissons Ratio (z) = -0.10350 0.58744
#
# Static dielectric constant tensor:
#      x y z
#    x 4.944890 -1.370810 -0.486730 
#    y -1.370810 6.677930 1.779170 
#    z -0.486730 1.779170 6.470880 
# 
# 
# High freq. dielectric constant tensor:
#      x y z
#    x 2.038870 -0.005330 0.008090 
#    y -0.005330 2.058490 -0.006740 
#    z 0.008090 -0.006740 2.057900 
# 
# From -- ./inp_files/582546.got.cif
#   From: 2010.06.25/outbox.cif.g09.slc.cpg/sg2_292_cif.got.tgz:582546.got - 2010.06.27 13:26:56.
