data_PCOD8018409
_publ_section_title
;
Structure prediction by ZEFSAII (Michael W. Deem and Ramdas Pophale) SiO2 
 PCOD8018409
Probable space group: P -1
;
_chemical_formula_sum "Si O2"
_cell_formula_units_Z 10
_cell_length_a 15.041801
_cell_length_b 5.385575
_cell_length_c 14.435649
_cell_angle_alpha 107.513847
_cell_angle_beta 160.748884
_cell_angle_gamma 74.117223
_cell_volume 367.490407
_symmetry_space_group_name_H-M "P -1"
_symmetry_group_IT_number 2
_symmetry_cell_setting 'triclinic'
loop_
_space_group_symop_operation_xyz
x,y,z
-x,-y,-z
loop_
_atom_site_type_symbol
_atom_site_label
_atom_site_fract_x
_atom_site_fract_y
_atom_site_fract_z
Si Si1 0.704501 0.952305 0.889530
Si Si2 0.809006 0.356516 0.592378
Si Si3 0.503210 0.591184 0.160397
Si Si4 0.736949 0.832299 0.245911
Si Si5 0.237706 0.341889 0.254572
O O1 0.401058 0.841127 0.587512
O O2 0.774120 0.937481 0.844323
O O3 0.694250 0.250970 0.947277
O O4 0.900374 0.778811 0.127826
O O5 0.709843 0.403805 0.395413
O O6 0.797259 0.643057 0.665907
O O7 0.702017 0.777937 0.315121
O O8 0.286397 0.437979 0.864552
O O9 0.000000 0.000000 0.500000
O O10 0.500000 0.000000 0.000000
O O11 0.500000 0.500000 0.500000
O O12 0.000000 0.500000 0.000000
#
# Coordination Sequence:
#
# PCOD8018409 Si02
#       5
#     2   2   2   2   2
#     4  10  22  40  66 102 142 180 227 279 331 405
#     4  10  22  40  66 102 142 180 227 279 331 405
#     4  11  26  45  76 104 132 185 236 283 354 416
#     4  11  28  51  71  98 139 177 226 297 361 418
#     4   8  16  35  60  93 141 184 215 269 334 389
#
# _framework density 27.211592
#
# number of rings (size 3 to 8) (size 9 to 14) (size 15 to 20)
#    0.000    2.000    0.000    1.200    0.000   15.200 
#    0.000    3.000    0.000   14.400    0.000    4.200 
#    0.000    0.000    0.000    0.000    0.000    0.000 
#
# Total GULP energy -123885.045502 kJ/mol
# GULP energy per Si atom -12388.504550 kJ/mol
# Density = 2.714966 g / cm^3
# Si number density = 27.211592 Si / 1000 Ang^3
#
#
#
# Elastic Constant Matrix: (Units=GPa)
#
#
# Indices 1 2 3 4 5 6 
#
# 1 90.9374 14.2106 20.3108 -1.5582 -12.8930 -20.5783
# 2 14.2106 90.6370 19.2952 -3.0799 8.5362 -32.1293
# 3 20.3108 19.2952 133.0776 -3.1996 16.1048 -7.7009
# 4 -1.5582 -3.0799 -3.1996 31.0274 -0.9583 -4.9062
# 5 -12.8930 8.5362 16.1048 -0.9583 37.9364 -2.8319
# 6 -20.5783 -32.1293 -7.7009 -4.9062 -2.8319 54.4329
#
#
#
# Elastic Compliance Matrix: (Units=1/GPa)
#
#
# Indices 1 2 3 4 5 6 
#
# 1 0.013640 -0.000364 -0.002451 0.001384 0.006169 0.005041
# 2 -0.000364 0.014645 -0.001252 0.002574 -0.002192 0.008448
# 3 -0.002451 -0.001252 0.008553 0.000403 -0.004220 -0.000638
# 4 0.001384 0.002574 0.000403 0.033442 0.000950 0.005163
# 5 0.006169 -0.002192 -0.004220 0.000950 0.030924 0.002136
# 6 0.005041 0.008448 -0.000638 0.005163 0.002136 0.025749
#
#
# Mechanical properties :
#
#
# Convention : Reuss Voigt Hill
#
# Bulk Modulus (GPa) = 34.83675 46.92059 40.87867
# Shear Modulus (GPa) = 34.56493 42.06837 38.31665
#
# Velocity S-wave (km/s) = 3.56789 3.93615 3.75654
# Velocity P-wave (km/s) = 5.45922 6.15938 5.81984
#
# Compressibility (1/GPa) = 0.02870532
#
# Stress axis : x y z
#
# Youngs Moduli (GPa) = 73.31495 68.28240 116.91327
#
# Poissons Ratio (x) = 0.02485 0.28651
# Poissons Ratio (y) = 0.02669 0.14636
# Poissons Ratio (z) = 0.17966 0.08548
#
# Static dielectric constant tensor:
#      x y z
#    x 0.606340 1.379920 1.824010 
#    y 1.379920 4.174780 -0.535220 
#    z 1.824010 -0.535220 4.454590 
# 
# 
# High freq. dielectric constant tensor:
#      x y z
#    x 2.099770 -0.033070 -0.004900 
#    y -0.033070 2.084260 0.005540 
#    z -0.004900 0.005540 2.111590 
# 
# From -- ./inp_files/8329.got.cif
#   From: 2010.06.25/outbox.cif.g09.slc.cpg/sg2_5_cif.got.tgz:8329.got - 2010.06.27 13:26:56.
