data_PCOD8018269
_publ_section_title
;
Structure prediction by ZEFSAII (Michael W. Deem and Ramdas Pophale) SiO2 
 PCOD8018269
Probable space group: P -1
;
_chemical_formula_sum "Si O2"
_cell_formula_units_Z 16
_cell_length_a 6.462011
_cell_length_b 10.948599
_cell_length_c 11.890629
_cell_angle_alpha 61.449164
_cell_angle_beta 99.635695
_cell_angle_gamma 94.921279
_cell_volume 728.517112
_symmetry_space_group_name_H-M "P -1"
_symmetry_group_IT_number 2
_symmetry_cell_setting 'triclinic'
loop_
_space_group_symop_operation_xyz
x,y,z
-x,-y,-z
loop_
_atom_site_type_symbol
_atom_site_label
_atom_site_fract_x
_atom_site_fract_y
_atom_site_fract_z
Si Si1 0.425865 0.088471 0.279440
Si Si2 0.801828 0.405076 0.004324
Si Si3 0.688828 0.968877 0.949114
Si Si4 0.466662 0.326165 0.457061
Si Si5 0.826540 0.431037 0.596013
Si Si6 0.239690 0.034899 0.512680
Si Si7 0.034323 0.767742 0.106657
Si Si8 0.480464 0.623666 0.807199
O O1 0.305772 0.004199 0.403480
O O2 0.359603 0.250418 0.200240
O O3 0.398681 0.018969 0.188885
O O4 0.670463 0.079919 0.342778
O O5 0.868546 0.281396 0.981817
O O6 0.602162 0.480481 0.897732
O O7 0.726318 0.358050 0.141973
O O8 0.000000 0.500000 0.000000
O O9 0.855244 0.090602 0.913818
O O10 0.500000 0.000000 0.000000
O O11 0.790467 0.816028 0.049113
O O12 0.658236 0.327887 0.563956
O O13 0.299996 0.445331 0.413560
O O14 0.327422 0.184508 0.500204
O O15 0.583655 0.360862 0.335234
O O16 0.945903 0.346265 0.742881
O O17 0.000000 0.500000 0.500000
O O18 0.000000 0.000000 0.500000
#
# Coordination Sequence:
#
# PCOD8018269 Si02
#       8
#     2   2   2   2   2   2   2   2
#     4  10  22  42  63 101 128 175 222 275 341 403
#     4  11  23  39  65  95 129 172 220 278 331 410
#     4  11  25  44  70  93 140 177 222 289 347 412
#     4  10  23  43  65 100 137 184 228 286 342 409
#     4  11  25  43  68  98 142 185 237 285 341 416
#     4  10  23  41  71  96 135 176 228 286 339 407
#     4  11  25  44  65 104 129 178 239 274 343 424
#     4  10  22  40  64  93 134 168 216 276 342 393
#
# _framework density 21.962420000000002
#
# number of rings (size 3 to 8) (size 9 to 14) (size 15 to 20)
#    0.000    1.500    1.250    2.250    1.750   13.000 
#    0.000    0.000    0.000    0.000    0.000    0.000 
#    0.000    0.000    0.000    0.000    0.000    0.000 
#
# Total GULP energy -198245.614733 kJ/mol
# GULP energy per Si atom -12390.350921 kJ/mol
# Density = 2.191243 g / cm^3
# Si number density = 21.962420 Si / 1000 Ang^3
#
#
#
# Elastic Constant Matrix: (Units=GPa)
#
#
# Indices 1 2 3 4 5 6 
#
# 1 127.2253 53.9451 64.8055 9.6389 6.8107 -9.7646
# 2 53.9451 107.3463 51.7609 19.5137 -4.1362 -17.2020
# 3 64.8055 51.7609 130.6797 14.6792 -4.7449 -15.5591
# 4 9.6389 19.5137 14.6792 40.4033 -4.0814 -1.6564
# 5 6.8107 -4.1362 -4.7449 -4.0814 28.0327 -0.1141
# 6 -9.7646 -17.2020 -15.5591 -1.6564 -0.1141 42.6721
#
#
#
# Elastic Compliance Matrix: (Units=1/GPa)
#
#
# Indices 1 2 3 4 5 6 
#
# 1 0.012160 -0.004203 -0.004633 0.000352 -0.004310 -0.000599
# 2 -0.004203 0.014119 -0.002488 -0.004558 0.002035 0.003652
# 3 -0.004633 -0.002488 0.011440 -0.001515 0.002483 0.002056
# 4 0.000352 -0.004558 -0.001515 0.027672 0.003009 -0.001227
# 5 -0.004310 0.002035 0.002483 0.003009 0.037882 0.000957
# 6 -0.000599 0.003652 0.002056 -0.001227 0.000957 0.025474
#
#
# Mechanical properties :
#
#
# Convention : Reuss Voigt Hill
#
# Bulk Modulus (GPa) = 66.34558 78.47492 72.41025
# Shear Modulus (GPa) = 31.96539 35.20427 33.58483
#
# Velocity S-wave (km/s) = 3.81919 4.00801 3.91474
# Velocity P-wave (km/s) = 7.05142 7.56491 7.31267
#
# Compressibility (1/GPa) = 0.01507259
#
# Stress axis : x y z
#
# Youngs Moduli (GPa) = 82.23552 70.82502 87.41058
#
# Poissons Ratio (x) = 0.29768 0.40497
# Poissons Ratio (y) = 0.34564 0.21744
# Poissons Ratio (z) = 0.38099 0.17619
#
# Static dielectric constant tensor:
#      x y z
#    x 4.274650 -0.637400 -0.145520 
#    y -0.637400 4.956900 0.497040 
#    z -0.145520 0.497040 4.583410 
# 
# 
# High freq. dielectric constant tensor:
#      x y z
#    x 1.857900 -0.008790 0.001450 
#    y -0.008790 1.878250 0.003650 
#    z 0.001450 0.003650 1.874670 
# 
# From -- ./inp_files/69858.got.cif
#   From: 2010.06.25/outbox.cif.g09.slc.cpg/sg2_35_cif.got.tgz:69858.got - 2010.06.27 13:26:56.
