data_PCOD8018498
_publ_section_title
;
Structure prediction by ZEFSAII (Michael W. Deem and Ramdas Pophale) SiO2 
 PCOD8018498
Probable space group: P -1
;
_chemical_formula_sum "Si O2"
_cell_formula_units_Z 14
_cell_length_a 7.146600
_cell_length_b 10.078954
_cell_length_c 21.068768
_cell_angle_alpha 40.602464
_cell_angle_beta 119.007679
_cell_angle_gamma 88.480947
_cell_volume 622.345509
_symmetry_space_group_name_H-M "P -1"
_symmetry_group_IT_number 2
_symmetry_cell_setting 'triclinic'
loop_
_space_group_symop_operation_xyz
x,y,z
-x,-y,-z
loop_
_atom_site_type_symbol
_atom_site_label
_atom_site_fract_x
_atom_site_fract_y
_atom_site_fract_z
Si Si1 0.327582 0.505178 0.205443
Si Si2 0.659842 0.472819 0.657816
Si Si3 0.347741 0.296565 0.631228
Si Si4 0.684051 0.833565 0.951570
Si Si5 0.813286 0.372439 0.074420
Si Si6 0.570334 0.007116 0.642065
Si Si7 0.270443 0.851784 0.967785
O O1 0.457069 0.446488 0.318480
O O2 0.456803 0.209306 0.305966
O O3 0.419835 0.643909 0.129001
O O4 0.968612 0.747243 0.062015
O O5 0.453146 0.462289 0.584300
O O6 0.633733 0.716828 0.536189
O O7 0.004639 0.181029 0.820019
O O8 0.466979 0.084988 0.669475
O O9 0.000000 0.500000 0.500000
O O10 0.465070 0.146486 0.773845
O O11 0.788600 0.633438 0.979513
O O12 0.525420 0.802782 0.990282
O O13 0.872953 0.241331 0.062285
O O14 0.500000 0.500000 0.000000
O O15 0.088677 0.134668 0.252891
#
# Coordination Sequence:
#
# PCOD8018498 Si02
#       7
#     2   2   2   2   2   2   2
#     4  11  24  46  65  97 133 176 220 263 328 398
#     4  12  25  42  67  95 136 176 214 272 328 386
#     4  12  25  41  67 101 133 168 226 271 329 389
#     4  10  22  40  67 100 129 170 220 273 321 396
#     4   9  19  35  66  95 122 163 219 264 321 379
#     4  11  23  44  67  92 134 176 212 270 336 380
#     4  11  21  40  69  95 132 171 220 271 327 378
#
# _framework density 22.495543999999999
#
# number of rings (size 3 to 8) (size 9 to 14) (size 15 to 20)
#    0.000    1.143    2.857    3.000    4.000    2.857 
#    5.143    0.714    0.000    0.000    0.000    0.000 
#    0.000    0.000    0.000    0.000    0.000    0.000 
#
# Total GULP energy -173556.753405 kJ/mol
# GULP energy per Si atom -12396.910957 kJ/mol
# Density = 2.244434 g / cm^3
# Si number density = 22.495544 Si / 1000 Ang^3
#
#
#
# Elastic Constant Matrix: (Units=GPa)
#
#
# Indices 1 2 3 4 5 6 
#
# 1 85.5559 20.8329 38.5476 -9.1972 -18.5899 -7.7417
# 2 20.8329 85.1409 34.6910 -4.1137 4.1014 -17.6466
# 3 38.5476 34.6910 106.5542 -17.9031 -22.3829 -3.6226
# 4 -9.1972 -4.1137 -17.9031 32.4935 -1.8518 -4.1914
# 5 -18.5899 4.1014 -22.3829 -1.8518 40.0939 2.9087
# 6 -7.7417 -17.6466 -3.6226 -4.1914 2.9087 24.4899
#
#
#
# Elastic Compliance Matrix: (Units=1/GPa)
#
#
# Indices 1 2 3 4 5 6 
#
# 1 0.015375 -0.002021 -0.003138 0.003044 0.005521 0.002805
# 2 -0.002021 0.017498 -0.006150 -0.000626 -0.007045 0.011790
# 3 -0.003138 -0.006150 0.015306 0.006854 0.008251 -0.002966
# 4 0.003044 -0.000626 0.006854 0.036609 0.006483 0.007021
# 5 0.005521 -0.007045 0.008251 0.006483 0.033489 -0.004978
# 6 0.002805 0.011790 -0.002966 0.007021 -0.004978 0.051569
#
#
# Mechanical properties :
#
#
# Convention : Reuss Voigt Hill
#
# Bulk Modulus (GPa) = 39.12053 51.71044 45.41549
# Shear Modulus (GPa) = 24.87761 31.62742 28.25251
#
# Velocity S-wave (km/s) = 3.32910 3.75366 3.54774
# Velocity P-wave (km/s) = 5.67497 6.46711 6.08394
#
# Compressibility (1/GPa) = 0.02556203
#
# Stress axis : x y z
#
# Youngs Moduli (GPa) = 65.04223 57.14864 65.33299
#
# Poissons Ratio (x) = 0.11550 0.20498
# Poissons Ratio (y) = 0.13146 0.40179
# Poissons Ratio (z) = 0.20407 0.35146
#
# Static dielectric constant tensor:
#      x y z
#    x 3.829120 -0.004840 -0.058390 
#    y -0.004840 4.524260 -0.173810 
#    z -0.058390 -0.173810 4.085160 
# 
# 
# High freq. dielectric constant tensor:
#      x y z
#    x 1.874300 -0.001410 -0.004870 
#    y -0.001410 1.898630 -0.009430 
#    z -0.004870 -0.009430 1.882030 
# 
# From -- ./inp_files/184475.got.cif
#   From: 2010.06.25/outbox.cif.g09.slc.cpg/sg2_93_cif.got.tgz:184475.got - 2010.06.27 13:26:56.
