data_PCOD8018706
_publ_section_title
;
Structure prediction by ZEFSAII (Michael W. Deem and Ramdas Pophale) SiO2 
 PCOD8018706
Probable space group: P -1
;
_chemical_formula_sum "Si O2"
_cell_formula_units_Z 14
_cell_length_a 13.278832
_cell_length_b 24.487390
_cell_length_c 25.177318
_cell_angle_alpha 168.660165
_cell_angle_beta 157.537639
_cell_angle_gamma 22.888912
_cell_volume 602.374918
_symmetry_space_group_name_H-M "P -1"
_symmetry_group_IT_number 2
_symmetry_cell_setting 'triclinic'
loop_
_space_group_symop_operation_xyz
x,y,z
-x,-y,-z
loop_
_atom_site_type_symbol
_atom_site_label
_atom_site_fract_x
_atom_site_fract_y
_atom_site_fract_z
Si Si1 0.783176 0.763367 0.213329
Si Si2 0.928462 0.668095 0.309011
Si Si3 0.887120 0.237460 0.213947
Si Si4 0.125092 0.996222 0.903305
Si Si5 0.352100 0.636491 0.313550
Si Si6 0.224499 0.888065 0.256441
Si Si7 0.526602 0.539213 0.488531
O O1 0.769255 0.795902 0.300918
O O2 0.089883 0.710337 0.292487
O O3 0.584850 0.049845 0.366779
O O4 0.683844 0.486766 0.880408
O O5 0.237728 0.552828 0.333196
O O6 0.959613 0.902248 0.591993
O O7 0.765777 0.433662 0.026964
O O8 0.989949 0.100757 0.190150
O O9 0.570280 0.384706 0.206973
O O10 0.000000 0.500000 0.500000
O O11 0.000000 0.000000 0.000000
O O12 0.287408 0.738212 0.705280
O O13 0.876330 0.115923 0.857251
O O14 0.325221 0.208454 0.214697
O O15 0.500000 0.000000 0.500000
O O16 0.500000 0.500000 0.500000
#
# Coordination Sequence:
#
# PCOD8018706 Si02
#       7
#     2   2   2   2   2   2   2
#     4  10  22  40  69  97 131 170 216 288 344 395
#     4  12  24  41  68 101 129 173 222 269 347 411
#     4  12  27  45  69  98 136 189 237 278 338 413
#     4  12  25  45  68 101 137 177 225 293 342 398
#     4  10  22  43  64  97 133 169 226 283 338 392
#     4  12  26  43  63  94 138 176 217 266 332 421
#     4  12  22  42  73 101 136 170 222 289 347 410
#
# _framework density 23.241340999999998
#
# number of rings (size 3 to 8) (size 9 to 14) (size 15 to 20)
#    0.000    0.571    2.857    5.143    0.000    6.857 
#    0.000    0.000    0.000    0.000    0.000    0.000 
#    0.000    0.000    0.000    0.000    0.000    0.000 
#
# Total GULP energy -173442.827824 kJ/mol
# GULP energy per Si atom -12388.773416 kJ/mol
# Density = 2.318844 g / cm^3
# Si number density = 23.241341 Si / 1000 Ang^3
#
#
#
# Elastic Constant Matrix: (Units=GPa)
#
#
# Indices 1 2 3 4 5 6 
#
# 1 122.3520 18.1262 46.5198 7.5602 -10.2604 31.5445
# 2 18.1262 81.1955 7.2458 7.4438 -0.0136 12.7332
# 3 46.5198 7.2458 127.4663 15.5162 11.8123 9.3742
# 4 7.5602 7.4438 15.5162 45.9958 -7.7952 -0.8777
# 5 -10.2604 -0.0136 11.8123 -7.7952 39.1589 -0.0294
# 6 31.5445 12.7332 9.3742 -0.8777 -0.0294 41.1377
#
#
#
# Elastic Compliance Matrix: (Units=1/GPa)
#
#
# Indices 1 2 3 4 5 6 
#
# 1 0.012486 -0.001129 -0.004343 0.000221 0.004619 -0.008228
# 2 -0.001129 0.013277 0.000254 -0.002251 -0.000818 -0.003350
# 3 -0.004343 0.000254 0.010252 -0.003608 -0.004948 0.000835
# 4 0.000221 -0.002251 -0.003608 0.024338 0.005992 0.001873
# 5 0.004619 -0.000818 -0.004948 0.005992 0.029431 -0.002012
# 6 -0.008228 -0.003350 0.000835 0.001873 -0.002012 0.031503
#
#
# Mechanical properties :
#
#
# Convention : Reuss Voigt Hill
#
# Bulk Modulus (GPa) = 39.09462 52.75527 45.92495
# Shear Modulus (GPa) = 35.65069 42.53327 39.09198
#
# Velocity S-wave (km/s) = 3.92080 4.28257 4.10567
# Velocity P-wave (km/s) = 6.11184 6.87038 6.50218
#
# Compressibility (1/GPa) = 0.02557897
#
# Stress axis : x y z
#
# Youngs Moduli (GPa) = 80.08649 75.31807 97.54111
#
# Poissons Ratio (x) = 0.08505 0.42360
# Poissons Ratio (y) = 0.09044 -0.02474
# Poissons Ratio (z) = 0.34780 -0.01910
#
# Static dielectric constant tensor:
#      x y z
#    x 4.704920 1.384450 -0.093110 
#    y 1.384450 7.567320 -0.066410 
#    z -0.093110 -0.066410 4.391280 
# 
# 
# High freq. dielectric constant tensor:
#      x y z
#    x 1.921810 -0.001030 -0.007380 
#    y -0.001030 1.919810 0.010900 
#    z -0.007380 0.010900 1.933900 
# 
# From -- ./inp_files/620006.got.cif
#   From: 2010.06.25/outbox.cif.g09.slc.cpg/sg2_311_cif.got.tgz:620006.got - 2010.06.27 13:26:56.
