data_PCOD8018997
_publ_section_title
;
Structure prediction by ZEFSAII (Michael W. Deem and Ramdas Pophale) SiO2 
 PCOD8018997
Probable space group: P -1
;
_chemical_formula_sum "Si O2"
_cell_formula_units_Z 14
_cell_length_a 14.216211
_cell_length_b 10.841277
_cell_length_c 11.616907
_cell_angle_alpha 51.010517
_cell_angle_beta 153.734890
_cell_angle_gamma 138.242286
_cell_volume 522.834216
_symmetry_space_group_name_H-M "P -1"
_symmetry_group_IT_number 2
_symmetry_cell_setting 'triclinic'
loop_
_space_group_symop_operation_xyz
x,y,z
-x,-y,-z
loop_
_atom_site_type_symbol
_atom_site_label
_atom_site_fract_x
_atom_site_fract_y
_atom_site_fract_z
Si Si1 0.621862 0.926026 0.768731
Si Si2 0.552452 0.633880 0.706330
Si Si3 0.316114 0.237396 0.667417
Si Si4 0.121433 0.704070 0.461692
Si Si5 0.985147 0.512116 0.201225
Si Si6 0.870658 0.727986 0.795496
Si Si7 0.877791 0.145121 0.395733
O O1 0.705415 0.793676 0.875931
O O2 0.421037 0.805290 0.718441
O O3 0.500000 0.000000 0.500000
O O4 0.859035 0.091394 0.994208
O O5 0.568044 0.442596 0.850202
O O6 0.263811 0.561772 0.453256
O O7 0.655068 0.725643 0.639290
O O8 0.189482 0.286614 0.395234
O O9 0.135825 0.170791 0.618932
O O10 0.347974 0.066434 0.762283
O O11 0.001576 0.667473 0.222120
O O12 0.082686 0.832243 0.435218
O O13 0.000000 0.500000 0.500000
O O14 0.820349 0.296978 0.191519
O O15 0.873148 0.542675 0.944091
#
# Coordination Sequence:
#
# PCOD8018997 Si02
#       7
#     2   2   2   2   2   2   2
#     4  11  22  41  67 103 133 170 228 285 338 394
#     4  10  22  41  63  95 142 168 213 283 335 391
#     4  10  23  41  64  98 137 181 221 273 334 406
#     4   9  18  38  67  91 129 179 216 274 338 388
#     4   9  20  41  65 101 129 172 228 280 333 392
#     4  12  23  39  69 105 131 173 228 276 342 391
#     4   9  20  41  64  87 138 184 215 268 337 401
#
# _framework density 26.77713
#
# number of rings (size 3 to 8) (size 9 to 14) (size 15 to 20)
#    0.000    2.000    2.857    1.714    2.000    3.429 
#    0.000   10.000    0.000   19.714    0.000    0.000 
#    0.000    0.000    0.000    0.000    0.000    0.000 
#
# Total GULP energy -173452.158263 kJ/mol
# GULP energy per Si atom -12389.439876 kJ/mol
# Density = 2.671618 g / cm^3
# Si number density = 26.777130 Si / 1000 Ang^3
#
#
#
# Elastic Constant Matrix: (Units=GPa)
#
#
# Indices 1 2 3 4 5 6 
#
# 1 144.0220 40.2895 8.8519 11.9992 -4.0060 -10.3635
# 2 40.2895 168.4303 35.5447 7.2189 5.0475 -14.8809
# 3 8.8519 35.5447 45.1587 1.0408 -11.0509 -2.5053
# 4 11.9992 7.2189 1.0408 47.6818 5.2035 4.2422
# 5 -4.0060 5.0475 -11.0509 5.2035 15.1193 4.1512
# 6 -10.3635 -14.8809 -2.5053 4.2422 4.1512 57.5136
#
#
#
# Elastic Compliance Matrix: (Units=1/GPa)
#
#
# Indices 1 2 3 4 5 6 
#
# 1 0.007810 -0.002094 0.001245 -0.002206 0.004224 0.000777
# 2 -0.002094 0.008882 -0.009145 0.000375 -0.010961 0.002286
# 3 0.001245 -0.009145 0.036874 -0.003002 0.032090 -0.002630
# 4 -0.002206 0.000375 -0.003002 0.022789 -0.010373 -0.001364
# 5 0.004224 -0.010961 0.032090 -0.010373 0.099900 -0.007122
# 6 0.000777 0.002286 -0.002630 -0.001364 -0.007122 0.018619
#
#
# Mechanical properties :
#
#
# Convention : Reuss Voigt Hill
#
# Bulk Modulus (GPa) = 29.78095 58.55368 44.16731
# Shear Modulus (GPa) = 22.11842 42.25793 32.18817
#
# Velocity S-wave (km/s) = 2.87717 3.97688 3.47086
# Velocity P-wave (km/s) = 4.70993 6.55759 5.70900
#
# Compressibility (1/GPa) = 0.03357851
#
# Stress axis : x y z
#
# Youngs Moduli (GPa) = 128.04187 112.58101 27.11916
#
# Poissons Ratio (x) = 0.23579 -0.03377
# Poissons Ratio (y) = 0.26817 0.24801
# Poissons Ratio (z) = -0.15946 1.02956
#
# Static dielectric constant tensor:
#      x y z
#    x 5.503160 -0.234670 0.057600 
#    y -0.234670 5.680680 0.244210 
#    z 0.057600 0.244210 4.437480 
# 
# 
# High freq. dielectric constant tensor:
#      x y z
#    x 2.093990 0.000460 0.013140 
#    y 0.000460 2.103680 0.018150 
#    z 0.013140 0.018150 2.043730 
# 
# From -- ./inp_files/451168.got.cif
#   From: 2010.06.25/outbox.cif.g09.slc.cpg/sg2_226_cif.got.tgz:451168.got - 2010.06.27 13:26:56.
