data_PCOD8018408
_publ_section_title
;
Structure prediction by ZEFSAII (Michael W. Deem and Ramdas Pophale) SiO2 
 PCOD8018408
Probable space group: P -1
;
_chemical_formula_sum "Si O2"
_cell_formula_units_Z 16
_cell_length_a 11.178464
_cell_length_b 5.275655
_cell_length_c 15.853666
_cell_angle_alpha 89.471713
_cell_angle_beta 116.972139
_cell_angle_gamma 58.065752
_cell_volume 667.683231
_symmetry_space_group_name_H-M "P -1"
_symmetry_group_IT_number 2
_symmetry_cell_setting 'triclinic'
loop_
_space_group_symop_operation_xyz
x,y,z
-x,-y,-z
loop_
_atom_site_type_symbol
_atom_site_label
_atom_site_fract_x
_atom_site_fract_y
_atom_site_fract_z
Si Si1 0.746692 0.808658 0.764778
Si Si2 0.108362 0.456066 0.371284
Si Si3 0.762993 0.302032 0.095465
Si Si4 0.418510 0.429465 0.697495
Si Si5 0.239313 0.323946 0.763220
Si Si6 0.506804 0.657685 0.876639
Si Si7 0.156311 0.887326 0.491228
Si Si8 0.913594 0.134033 0.882568
O O1 0.802398 0.690086 0.688213
O O2 0.784232 0.517380 0.836137
O O3 0.546308 0.082182 0.698661
O O4 0.834628 0.957758 0.829699
O O5 0.177712 0.638061 0.430633
O O6 0.905666 0.718913 0.298408
O O7 0.138754 0.178489 0.440817
O O8 0.805640 0.500042 0.162817
O O9 0.635005 0.269024 0.102789
O O10 0.685018 0.477676 0.979754
O O11 0.937013 0.961941 0.134755
O O12 0.251075 0.502978 0.687972
O O13 0.525942 0.461509 0.801543
O O14 0.333668 0.702399 0.598670
O O15 0.432817 0.011301 0.825659
O O16 0.000000 0.000000 0.500000
O O17 0.000000 0.000000 0.000000
#
# Coordination Sequence:
#
# PCOD8018408 Si02
#       8
#     2   2   2   2   2   2   2   2
#     4  12  28  48  70 104 143 191 236 289 355 425
#     4  12  26  46  76 101 143 185 238 291 358 424
#     4  10  22  40  66 102 134 188 234 292 341 433
#     4  11  27  42  70 101 141 182 234 298 354 416
#     4  11  22  41  70  99 136 186 226 296 352 420
#     4  10  22  41  67 100 141 178 240 286 361 406
#     4  12  26  47  74 111 135 182 241 299 358 420
#     4  12  26  46  71 102 146 193 241 284 349 422
#
# _framework density 23.963460000000001
#
# number of rings (size 3 to 8) (size 9 to 14) (size 15 to 20)
#    0.000    0.750    2.500    4.125    7.000    1.000 
#    0.000    0.000    0.000    0.000    0.000    0.000 
#    0.000    0.000    0.000    0.000    0.000    0.000 
#
# Total GULP energy -198360.779167 kJ/mol
# GULP energy per Si atom -12397.548698 kJ/mol
# Density = 2.390892 g / cm^3
# Si number density = 23.963460 Si / 1000 Ang^3
#
#
#
# Elastic Constant Matrix: (Units=GPa)
#
#
# Indices 1 2 3 4 5 6 
#
# 1 42.5992 14.3780 15.5333 7.4756 4.9563 1.9091
# 2 14.3780 119.9747 26.1223 -6.8654 1.3374 -10.1378
# 3 15.5333 26.1223 97.8020 -1.6175 1.1511 -7.3233
# 4 7.4756 -6.8654 -1.6175 44.5632 -0.1991 -0.7294
# 5 4.9563 1.3374 1.1511 -0.1991 23.2628 -5.9530
# 6 1.9091 -10.1378 -7.3233 -0.7294 -5.9530 42.6311
#
#
#
# Elastic Compliance Matrix: (Units=1/GPa)
#
#
# Indices 1 2 3 4 5 6 
#
# 1 0.027774 -0.003023 -0.003888 -0.005355 -0.006527 -0.003633
# 2 -0.003023 0.009385 -0.001840 0.001925 0.000773 0.002192
# 3 -0.003888 -0.001840 0.011475 0.000819 0.000844 0.001840
# 4 -0.005355 0.001925 0.000819 0.023696 0.001567 0.001463
# 5 -0.006527 0.000773 0.000844 0.001567 0.046119 0.007088
# 6 -0.003633 0.002192 0.001840 0.001463 0.007088 0.025472
#
#
# Mechanical properties :
#
#
# Convention : Reuss Voigt Hill
#
# Bulk Modulus (GPa) = 32.11937 41.38255 36.75096
# Shear Modulus (GPa) = 29.10395 35.71425 32.40910
#
# Velocity S-wave (km/s) = 3.48877 3.86471 3.68154
# Velocity P-wave (km/s) = 5.44621 6.10091 5.78284
#
# Compressibility (1/GPa) = 0.03113386
#
# Stress axis : x y z
#
# Youngs Moduli (GPa) = 36.00443 106.55678 87.14659
#
# Poissons Ratio (x) = 0.32209 0.33880
# Poissons Ratio (y) = 0.10883 0.16032
# Poissons Ratio (z) = 0.13997 0.19603
#
# Static dielectric constant tensor:
#      x y z
#    x 4.211530 -0.097220 -0.094870 
#    y -0.097220 4.454950 -0.110280 
#    z -0.094870 -0.110280 4.590240 
# 
# 
# High freq. dielectric constant tensor:
#      x y z
#    x 1.944700 -0.012960 -0.007620 
#    y -0.012960 1.961600 -0.004900 
#    z -0.007620 -0.004900 1.962510 
# 
# From -- ./inp_files/100527.got.cif
#   From: 2010.06.25/outbox.cif.g09.slc.cpg/sg2_51_cif.got.tgz:100527.got - 2010.06.27 13:26:56.
