data_PCOD8018749
_publ_section_title
;
Structure prediction by ZEFSAII (Michael W. Deem and Ramdas Pophale) SiO2 
 PCOD8018749
Probable space group: P -1
;
_chemical_formula_sum "Si O2"
_cell_formula_units_Z 16
_cell_length_a 10.139982
_cell_length_b 8.935872
_cell_length_c 15.411745
_cell_angle_alpha 72.335224
_cell_angle_beta 32.403293
_cell_angle_gamma 68.414584
_cell_volume 695.772363
_symmetry_space_group_name_H-M "P -1"
_symmetry_group_IT_number 2
_symmetry_cell_setting 'triclinic'
loop_
_space_group_symop_operation_xyz
x,y,z
-x,-y,-z
loop_
_atom_site_type_symbol
_atom_site_label
_atom_site_fract_x
_atom_site_fract_y
_atom_site_fract_z
Si Si1 0.793795 0.535786 0.528882
Si Si2 0.614487 0.262771 0.575514
Si Si3 0.566306 0.857895 0.139073
Si Si4 0.902840 0.067535 0.951161
Si Si5 0.314169 0.406791 0.010926
Si Si6 0.423929 0.330045 0.215876
Si Si7 0.143042 0.335319 0.712567
Si Si8 0.173267 0.164384 0.260164
O O1 0.672177 0.394800 0.586098
O O2 0.572074 0.657188 0.683645
O O3 0.891075 0.621260 0.377524
O O4 0.000000 0.500000 0.500000
O O5 0.486252 0.146951 0.726991
O O6 0.425139 0.334373 0.589900
O O7 0.879955 0.170773 0.400597
O O8 0.316756 0.977772 0.217242
O O9 0.629371 0.676505 0.099834
O O10 0.820185 0.925269 0.967371
O O11 0.095041 0.155187 0.779399
O O12 0.642560 0.189542 0.088530
O O13 0.000000 0.000000 0.000000
O O14 0.325669 0.254194 0.093223
O O15 0.045819 0.533882 0.146278
O O16 0.537704 0.504303 0.881837
O O17 0.171935 0.276088 0.328907
#
# Coordination Sequence:
#
# PCOD8018749 Si02
#       8
#     2   2   2   2   2   2   2   2
#     4  12  23  43  68 105 134 174 227 282 334 403
#     4  12  23  43  68  98 143 172 224 279 341 407
#     4  11  24  41  68  95 137 181 224 277 340 403
#     4  10  22  46  66  94 137 179 222 277 341 401
#     4  11  22  41  66 102 132 174 232 284 329 398
#     4  10  22  40  70  94 130 181 229 273 331 398
#     4  11  25  44  74 100 135 181 225 282 342 398
#     4  11  23  42  64 100 138 180 223 279 340 400
#
# _framework density 22.996027000000002
#
# number of rings (size 3 to 8) (size 9 to 14) (size 15 to 20)
#    0.000    1.000    5.000    1.500    0.000    3.500 
#    2.250    0.625    0.000    0.000    0.000    0.000 
#    0.000    0.000    0.000    0.000    0.000    0.000 
#
# Total GULP energy -198209.409932 kJ/mol
# GULP energy per Si atom -12388.088121 kJ/mol
# Density = 2.294369 g / cm^3
# Si number density = 22.996027 Si / 1000 Ang^3
#
#
#
# Elastic Constant Matrix: (Units=GPa)
#
#
# Indices 1 2 3 4 5 6 
#
# 1 102.0158 21.9751 38.9396 0.9250 -11.0565 -12.9427
# 2 21.9751 69.1740 27.1919 -18.1401 -0.4443 -0.9562
# 3 38.9396 27.1919 104.2598 -11.5897 4.9560 -4.5094
# 4 0.9250 -18.1401 -11.5897 32.7293 -3.0818 5.7408
# 5 -11.0565 -0.4443 4.9560 -3.0818 38.2072 -6.0991
# 6 -12.9427 -0.9562 -4.5094 5.7408 -6.0991 31.7461
#
#
#
# Elastic Compliance Matrix: (Units=1/GPa)
#
#
# Indices 1 2 3 4 5 6 
#
# 1 0.013864 -0.003682 -0.004709 -0.004788 0.005271 0.006751
# 2 -0.003682 0.019359 -0.002644 0.010446 -0.000168 -0.003215
# 3 -0.004709 -0.002644 0.012460 0.003036 -0.002980 -0.001351
# 4 -0.004788 0.010446 0.003036 0.039013 0.000176 -0.008227
# 5 0.005271 -0.000168 -0.002980 0.000176 0.029265 0.007311
# 6 0.006751 -0.003215 -0.001351 -0.008227 0.007311 0.036856
#
#
# Mechanical properties :
#
#
# Convention : Reuss Voigt Hill
#
# Bulk Modulus (GPa) = 42.34594 50.18477 46.26535
# Shear Modulus (GPa) = 27.66150 33.02603 30.34376
#
# Velocity S-wave (km/s) = 3.47202 3.79378 3.63646
# Velocity P-wave (km/s) = 5.87603 6.40789 6.14771
#
# Compressibility (1/GPa) = 0.02361502
#
# Stress axis : x y z
#
# Youngs Moduli (GPa) = 72.12944 51.65589 80.25480
#
# Poissons Ratio (x) = 0.19018 0.37788
# Poissons Ratio (y) = 0.26556 0.21218
# Poissons Ratio (z) = 0.33963 0.13657
#
# Static dielectric constant tensor:
#      x y z
#    x 4.213730 0.334190 0.096770 
#    y 0.334190 4.354010 -0.087270 
#    z 0.096770 -0.087270 4.784490 
# 
# 
# High freq. dielectric constant tensor:
#      x y z
#    x 1.894800 0.004750 -0.004370 
#    y 0.004750 1.909250 -0.009500 
#    z -0.004370 -0.009500 1.919700 
# 
# From -- ./inp_files/308478.got.cif
#   From: 2010.06.25/outbox.cif.g09.slc.cpg/sg2_155_cif.got.tgz:308478.got - 2010.06.27 13:26:56.
