data_PCOD8018343
_publ_section_title
;
Structure prediction by ZEFSAII (Michael W. Deem and Ramdas Pophale) SiO2 
 PCOD8018343
Probable space group: P -1
;
_chemical_formula_sum "Si O2"
_cell_formula_units_Z 16
_cell_length_a 12.145967
_cell_length_b 15.485244
_cell_length_c 8.995534
_cell_angle_alpha 131.047765
_cell_angle_beta 38.012984
_cell_angle_gamma 113.534047
_cell_volume 759.970660
_symmetry_space_group_name_H-M "P -1"
_symmetry_group_IT_number 2
_symmetry_cell_setting 'triclinic'
loop_
_space_group_symop_operation_xyz
x,y,z
-x,-y,-z
loop_
_atom_site_type_symbol
_atom_site_label
_atom_site_fract_x
_atom_site_fract_y
_atom_site_fract_z
Si Si1 0.036261 0.771511 0.230694
Si Si2 0.829002 0.481018 0.251631
Si Si3 0.222920 0.771591 0.536420
Si Si4 0.326091 0.260547 0.266058
Si Si5 0.276726 0.874906 0.287948
Si Si6 0.376595 0.267294 0.877616
Si Si7 0.125793 0.142043 0.815907
Si Si8 0.182154 0.522879 0.395512
O O1 0.854774 0.772774 0.519804
O O2 0.967771 0.800481 0.169770
O O3 0.137922 0.868006 0.292836
O O4 0.193704 0.644765 0.929171
O O5 0.668828 0.603405 0.543040
O O6 0.863356 0.456122 0.360027
O O7 0.000000 0.500000 0.000000
O O8 0.231334 0.795741 0.380219
O O9 0.405722 0.793421 0.447060
O O10 0.222565 0.635541 0.400770
O O11 0.040924 0.859910 0.896627
O O12 0.509670 0.174872 0.044601
O O13 0.317312 0.240446 0.076076
O O14 0.249977 0.010175 0.515151
O O15 0.257328 0.219286 0.828732
O O16 0.348884 0.408741 0.051112
O O17 0.000000 0.500000 0.500000
#
# Coordination Sequence:
#
# PCOD8018343 Si02
#       8
#     2   2   2   2   2   2   2   2
#     4  11  22  41  63  88 124 165 206 255 305 365
#     4   9  19  36  62  90 122 157 201 246 314 366
#     4  11  23  40  63  96 121 162 207 255 310 359
#     4   9  22  41  62  92 120 163 202 254 314 359
#     4  11  26  41  62  90 126 167 211 247 303 371
#     4  10  22  40  65  91 127 159 204 257 306 369
#     4  12  24  42  62  92 124 168 207 252 307 359
#     4  11  19  37  64  93 125 155 201 257 312 364
#
# _framework density 21.053443999999999
#
# number of rings (size 3 to 8) (size 9 to 14) (size 15 to 20)
#    0.000    1.500    2.500    1.875    3.500    5.000 
#    0.000    0.000    0.000    0.000    0.000    0.000 
#    0.000    0.000    0.000    0.000    0.000    0.000 
#
# Total GULP energy -198306.346638 kJ/mol
# GULP energy per Si atom -12394.146665 kJ/mol
# Density = 2.100553 g / cm^3
# Si number density = 21.053444 Si / 1000 Ang^3
#
#
#
# Elastic Constant Matrix: (Units=GPa)
#
#
# Indices 1 2 3 4 5 6 
#
# 1 103.7236 24.1539 36.7211 4.3998 -3.7008 14.9477
# 2 24.1539 65.3507 27.7628 16.7954 8.7170 5.1727
# 3 36.7211 27.7628 123.8012 24.7848 -11.3609 16.2049
# 4 4.3998 16.7954 24.7848 20.8176 -0.1185 -2.7558
# 5 -3.7008 8.7170 -11.3609 -0.1185 28.8203 1.5453
# 6 14.9477 5.1727 16.2049 -2.7558 1.5453 21.9248
#
#
#
# Elastic Compliance Matrix: (Units=1/GPa)
#
#
# Indices 1 2 3 4 5 6 
#
# 1 0.012158 -0.004084 -0.002352 0.002825 0.002170 -0.005385
# 2 -0.004084 0.022850 -0.000635 -0.017361 -0.007554 -0.003787
# 3 -0.002352 -0.000635 0.014604 -0.017895 0.006202 -0.011727
# 4 0.002825 -0.017361 -0.017895 0.086234 -0.002502 0.026412
# 5 0.002170 -0.007554 0.006202 -0.002502 0.040094 -0.007422
# 6 -0.005385 -0.003787 -0.011727 0.026412 -0.007422 0.062686
#
#
# Mechanical properties :
#
#
# Convention : Reuss Voigt Hill
#
# Bulk Modulus (GPa) = 28.19144 52.23903 40.21524
# Shear Modulus (GPa) = 18.89701 27.92837 23.41269
#
# Velocity S-wave (km/s) = 2.99920 3.64613 3.33837
# Velocity P-wave (km/s) = 5.04114 6.52626 5.83118
#
# Compressibility (1/GPa) = 0.03547176
#
# Stress axis : x y z
#
# Youngs Moduli (GPa) = 82.24832 43.76307 68.47275
#
# Poissons Ratio (x) = 0.17871 0.16105
# Poissons Ratio (y) = 0.33587 0.04347
# Poissons Ratio (z) = 0.19346 0.02778
#
# Static dielectric constant tensor:
#      x y z
#    x 3.680720 -0.126040 -0.032190 
#    y -0.126040 4.277680 0.470000 
#    z -0.032190 0.470000 4.405490 
# 
# 
# High freq. dielectric constant tensor:
#      x y z
#    x 1.814070 -0.007640 -0.000020 
#    y -0.007640 1.822590 0.006390 
#    z -0.000020 0.006390 1.839260 
# 
# From -- ./inp_files/272056.got.cif
#   From: 2010.06.25/outbox.cif.g09.slc.cpg/sg2_137_cif.got.tgz:272056.got - 2010.06.27 13:26:56.
