data_PCOD8018192
_publ_section_title
;
Structure prediction by ZEFSAII (Michael W. Deem and Ramdas Pophale) SiO2 
 PCOD8018192
Probable space group: P -1
;
_chemical_formula_sum "Si O2"
_cell_formula_units_Z 16
_cell_length_a 6.448933
_cell_length_b 9.013050
_cell_length_c 19.832298
_cell_angle_alpha 55.512007
_cell_angle_beta 105.280631
_cell_angle_gamma 131.575642
_cell_volume 698.914438
_symmetry_space_group_name_H-M "P -1"
_symmetry_group_IT_number 2
_symmetry_cell_setting 'triclinic'
loop_
_space_group_symop_operation_xyz
x,y,z
-x,-y,-z
loop_
_atom_site_type_symbol
_atom_site_label
_atom_site_fract_x
_atom_site_fract_y
_atom_site_fract_z
Si Si1 0.784120 0.577262 0.317416
Si Si2 0.776975 0.333868 0.582241
Si Si3 0.647689 0.961391 0.579964
Si Si4 0.906557 0.274708 0.207391
Si Si5 0.463854 0.180371 0.092242
Si Si6 0.223809 0.166482 0.622210
Si Si7 0.931815 0.680897 0.156412
Si Si8 0.619294 0.526529 0.908827
O O1 0.496375 0.309244 0.357131
O O2 0.764231 0.714356 0.338617
O O3 0.842329 0.695855 0.219809
O O4 0.048859 0.589172 0.353494
O O5 0.529722 0.347345 0.565341
O O6 0.000000 0.500000 0.500000
O O7 0.620989 0.060195 0.621492
O O8 0.500000 0.000000 0.500000
O O9 0.987227 0.110314 0.563257
O O10 0.657491 0.163220 0.160841
O O11 0.943704 0.471139 0.206200
O O12 0.195719 0.392605 0.162613
O O13 0.838400 0.072997 0.302440
O O14 0.300897 0.246589 0.103696
O O15 0.656626 0.375747 0.000334
O O16 0.236565 0.927839 0.102369
O O17 0.710803 0.641808 0.094891
#
# Coordination Sequence:
#
# PCOD8018192 Si02
#       8
#     2   2   2   2   2   2   2   2
#     4  11  24  43  66  93 127 169 213 266 321 385
#     4  11  24  46  64  94 128 160 210 267 320 389
#     4  11  24  45  65  95 125 161 211 267 321 384
#     4  11  23  41  63  98 128 169 215 263 316 380
#     4  10  22  40  63  93 131 175 211 265 316 368
#     4  11  26  42  69  93 128 170 214 262 329 383
#     4  11  23  39  65  94 132 168 217 262 314 377
#     4  10  22  40  63  93 133 170 217 262 314 374
#
# _framework density 22.892647
#
# number of rings (size 3 to 8) (size 9 to 14) (size 15 to 20)
#    0.000    1.250    1.250    3.750    0.000   13.000 
#    0.000    0.000    0.000    0.000    0.000    0.000 
#    0.000    0.000    0.000    0.000    0.000    0.000 
#
# Total GULP energy -198384.919189 kJ/mol
# GULP energy per Si atom -12399.057449 kJ/mol
# Density = 2.284054 g / cm^3
# Si number density = 22.892647 Si / 1000 Ang^3
#
#
#
# Elastic Constant Matrix: (Units=GPa)
#
#
# Indices 1 2 3 4 5 6 
#
# 1 124.1182 36.0663 30.0461 -1.9785 -3.3590 16.3082
# 2 36.0663 125.9091 11.5450 -4.9948 3.6650 2.9641
# 3 30.0461 11.5450 74.4882 3.8065 3.7352 4.2251
# 4 -1.9785 -4.9948 3.8065 33.0570 -0.0954 2.4379
# 5 -3.3590 3.6650 3.7352 -0.0954 35.8188 -0.4941
# 6 16.3082 2.9641 4.2251 2.4379 -0.4941 32.4456
#
#
#
# Elastic Compliance Matrix: (Units=1/GPa)
#
#
# Indices 1 2 3 4 5 6 
#
# 1 0.010326 -0.002522 -0.003645 0.000996 0.001547 -0.004536
# 2 -0.002522 0.008768 -0.000371 0.001183 -0.001086 0.000410
# 3 -0.003645 -0.000371 0.015150 -0.002025 -0.001889 0.000017
# 4 0.000996 0.001183 -0.002025 0.030920 0.000229 -0.002665
# 5 0.001547 -0.001086 -0.001889 0.000229 0.028372 -0.000017
# 6 -0.004536 0.000410 0.000017 -0.002665 -0.000017 0.033261
#
#
# Mechanical properties :
#
#
# Convention : Reuss Voigt Hill
#
# Bulk Modulus (GPa) = 47.24348 53.31448 50.27898
# Shear Modulus (GPa) = 34.03008 36.72148 35.37578
#
# Velocity S-wave (km/s) = 3.85971 4.00943 3.93528
# Velocity P-wave (km/s) = 6.36749 6.69130 6.53140
#
# Compressibility (1/GPa) = 0.02116694
#
# Stress axis : x y z
#
# Youngs Moduli (GPa) = 96.84291 114.05563 66.00612
#
# Poissons Ratio (x) = 0.28769 0.24062
# Poissons Ratio (y) = 0.24427 0.02447
# Poissons Ratio (z) = 0.35303 0.04228
#
# Static dielectric constant tensor:
#      x y z
#    x 4.289800 0.096040 0.139090 
#    y 0.096040 4.522560 -0.033790 
#    z 0.139090 -0.033790 3.919830 
# 
# 
# High freq. dielectric constant tensor:
#      x y z
#    x 1.901730 0.005190 0.009930 
#    y 0.005190 1.919260 -0.002190 
#    z 0.009930 -0.002190 1.896420 
# 
# From -- ./inp_files/48038.got.cif
#   From: 2010.06.25/outbox.cif.g09.slc.cpg/sg2_25_cif.got.tgz:48038.got - 2010.06.27 13:26:56.
