data_PCOD8018640
_publ_section_title
;
Structure prediction by ZEFSAII (Michael W. Deem and Ramdas Pophale) SiO2 
 PCOD8018640
Probable space group: P -1
;
_chemical_formula_sum "Si O2"
_cell_formula_units_Z 16
_cell_length_a 12.655593
_cell_length_b 6.765495
_cell_length_c 27.044952
_cell_angle_alpha 45.656904
_cell_angle_beta 28.138292
_cell_angle_gamma 45.218756
_cell_volume 753.911825
_symmetry_space_group_name_H-M "P -1"
_symmetry_group_IT_number 2
_symmetry_cell_setting 'triclinic'
loop_
_space_group_symop_operation_xyz
x,y,z
-x,-y,-z
loop_
_atom_site_type_symbol
_atom_site_label
_atom_site_fract_x
_atom_site_fract_y
_atom_site_fract_z
Si Si1 0.951979 0.527948 0.313626
Si Si2 0.856412 0.863080 0.121089
Si Si3 0.187865 0.296816 0.066437
Si Si4 0.810202 0.067732 0.211880
Si Si5 0.905316 0.119230 0.661145
Si Si6 0.346844 0.753633 0.157967
Si Si7 0.464902 0.590329 0.309682
Si Si8 0.679505 0.704297 0.491806
O O1 0.783941 0.540106 0.427710
O O2 0.193373 0.579809 0.223081
O O3 0.823004 0.766329 0.285887
O O4 0.003317 0.222149 0.320079
O O5 0.620404 0.817707 0.202550
O O6 0.022904 0.553863 0.120192
O O7 0.792631 0.050497 0.163436
O O8 0.000000 0.000000 0.000000
O O9 0.040852 0.166130 0.111179
O O10 0.302616 0.074683 0.099947
O O11 0.382610 0.402607 0.936275
O O12 0.579495 0.298736 0.284134
O O13 0.705353 0.219213 0.767287
O O14 0.788702 0.256530 0.634217
O O15 0.123316 0.237123 0.564065
O O16 0.442255 0.504671 0.391340
O O17 0.500000 0.000000 0.500000
#
# Coordination Sequence:
#
# PCOD8018640 Si02
#       8
#     2   2   2   2   2   2   2   2
#     4  10  22  40  68  98 122 167 221 265 321 388
#     4  11  26  38  63  94 132 170 222 258 313 386
#     4   9  20  38  60  90 125 172 220 264 311 376
#     4  10  22  41  64  91 130 175 219 259 321 383
#     4  11  25  39  68  97 130 165 215 265 328 378
#     4   9  20  38  62  89 132 167 210 270 319 373
#     4  11  26  44  64  97 136 170 211 270 325 380
#     4  11  24  46  71  94 130 168 216 268 326 385
#
# _framework density 21.222639999999998
#
# number of rings (size 3 to 8) (size 9 to 14) (size 15 to 20)
#    0.000    1.750    1.250    1.125    8.750    4.000 
#    0.000    3.750    0.000    0.000    0.000    0.000 
#    0.000    0.000    0.000    0.000    0.000    0.000 
#
# Total GULP energy -198451.856504 kJ/mol
# GULP energy per Si atom -12403.241031 kJ/mol
# Density = 2.117434 g / cm^3
# Si number density = 21.222640 Si / 1000 Ang^3
#
#
#
# Elastic Constant Matrix: (Units=GPa)
#
#
# Indices 1 2 3 4 5 6 
#
# 1 82.8120 18.5261 28.7681 -0.3546 8.8810 -6.1086
# 2 18.5261 58.1274 16.7448 1.0489 -1.0802 4.8376
# 3 28.7681 16.7448 107.4753 1.7646 8.5522 0.4967
# 4 -0.3546 1.0489 1.7646 31.8895 -5.6116 1.2135
# 5 8.8810 -1.0802 8.5522 -5.6116 30.0349 8.2856
# 6 -6.1086 4.8376 0.4967 1.2135 8.2856 32.9674
#
#
#
# Elastic Compliance Matrix: (Units=1/GPa)
#
#
# Indices 1 2 3 4 5 6 
#
# 1 0.014988 -0.004420 -0.002921 -0.000624 -0.005200 0.004800
# 2 -0.004420 0.019701 -0.002187 0.000304 0.003989 -0.004691
# 3 -0.002921 -0.002187 0.010642 -0.001002 -0.002512 0.000287
# 4 -0.000624 0.000304 -0.001002 0.032842 0.007511 -0.003242
# 5 -0.005200 0.003989 -0.002512 0.007511 0.040387 -0.011938
# 6 0.004800 -0.004691 0.000287 -0.003242 -0.011938 0.035026
#
#
# Mechanical properties :
#
#
# Convention : Reuss Voigt Hill
#
# Bulk Modulus (GPa) = 38.05990 41.83255 39.94623
# Shear Modulus (GPa) = 27.56299 31.27008 29.41653
#
# Velocity S-wave (km/s) = 3.60773 3.84269 3.72706
# Velocity P-wave (km/s) = 5.94364 6.28032 6.11430
#
# Compressibility (1/GPa) = 0.02627437
#
# Stress axis : x y z
#
# Youngs Moduli (GPa) = 66.71874 50.75764 93.96557
#
# Poissons Ratio (x) = 0.22436 0.27452
# Poissons Ratio (y) = 0.29491 0.20551
# Poissons Ratio (z) = 0.19492 0.11101
#
# Static dielectric constant tensor:
#      x y z
#    x 3.623180 -0.043470 0.028060 
#    y -0.043470 3.867550 0.077620 
#    z 0.028060 0.077620 4.032370 
# 
# 
# High freq. dielectric constant tensor:
#      x y z
#    x 1.826510 -0.004540 0.001110 
#    y -0.004540 1.833960 0.005420 
#    z 0.001110 0.005420 1.840720 
# 
# From -- ./inp_files/78252.got.cif
#   From: 2010.06.25/outbox.cif.g09.slc.cpg/sg2_40_cif.got.tgz:78252.got - 2010.06.27 13:26:56.
