data_PCOD8018708
_publ_section_title
;
Structure prediction by ZEFSAII (Michael W. Deem and Ramdas Pophale) SiO2 
 PCOD8018708
Probable space group: P -1
;
_chemical_formula_sum "Si O2"
_cell_formula_units_Z 16
_cell_length_a 13.676424
_cell_length_b 7.975135
_cell_length_c 12.042215
_cell_angle_alpha 71.645158
_cell_angle_beta 136.248837
_cell_angle_gamma 78.474262
_cell_volume 654.393863
_symmetry_space_group_name_H-M "P -1"
_symmetry_group_IT_number 2
_symmetry_cell_setting 'triclinic'
loop_
_space_group_symop_operation_xyz
x,y,z
-x,-y,-z
loop_
_atom_site_type_symbol
_atom_site_label
_atom_site_fract_x
_atom_site_fract_y
_atom_site_fract_z
Si Si1 0.795987 0.825799 0.451333
Si Si2 0.691889 0.029039 0.096959
Si Si3 0.642088 0.527268 0.154844
Si Si4 0.619032 0.818549 0.903284
Si Si5 0.173343 0.855355 0.252034
Si Si6 0.047717 0.954302 0.378990
Si Si7 0.761381 0.821081 0.792048
Si Si8 0.828090 0.525479 0.717436
O O1 0.869400 0.586401 0.619559
O O2 0.769649 0.827639 0.296328
O O3 0.933733 0.876127 0.577548
O O4 0.600120 0.037793 0.301534
O O5 0.681961 0.949899 0.984633
O O6 0.480399 0.254195 0.906694
O O7 0.831348 0.080770 0.191885
O O8 0.718832 0.579133 0.102617
O O9 0.819593 0.303317 0.407742
O O10 0.500000 0.500000 0.000000
O O11 0.675176 0.779694 0.829731
O O12 0.095929 0.936538 0.294759
O O13 0.271858 0.582747 0.368128
O O14 0.308570 0.916129 0.328546
O O15 0.000000 0.000000 0.000000
O O16 0.705979 0.755376 0.648694
O O17 0.982373 0.659286 0.021706
#
# Coordination Sequence:
#
# PCOD8018708 Si02
#       8
#     2   2   2   2   2   2   2   2
#     4  11  23  43  66 101 140 179 230 292 351 423
#     4  11  25  43  68 101 145 184 231 289 356 425
#     4  11  24  44  66 107 142 178 232 289 353 422
#     4  11  25  45  67  98 145 179 225 302 347 420
#     4  10  22  43  67 101 139 179 244 298 345 422
#     4  12  24  44  73 101 141 193 233 291 358 431
#     4  10  22  45  65  96 137 180 238 291 348 417
#     4  10  22  40  69  97 132 186 236 288 351 422
#
# _framework density 24.450105000000001
#
# number of rings (size 3 to 8) (size 9 to 14) (size 15 to 20)
#    0.000    1.250    3.750    3.375    5.250    1.000 
#    2.250    0.625    0.000    0.000    0.000    0.000 
#    0.000    0.000    0.000    0.000    0.000    0.000 
#
# Total GULP energy -198342.560747 kJ/mol
# GULP energy per Si atom -12396.410047 kJ/mol
# Density = 2.439446 g / cm^3
# Si number density = 24.450105 Si / 1000 Ang^3
#
#
#
# Elastic Constant Matrix: (Units=GPa)
#
#
# Indices 1 2 3 4 5 6 
#
# 1 111.7984 18.6231 6.9505 1.1277 -14.9294 13.7419
# 2 18.6231 111.0496 6.1815 -6.6025 -0.9282 19.3764
# 3 6.9505 6.1815 44.1091 -9.1205 -6.1508 10.5136
# 4 1.1277 -6.6025 -9.1205 26.6913 11.9821 -12.0762
# 5 -14.9294 -0.9282 -6.1508 11.9821 32.3120 4.8077
# 6 13.7419 19.3764 10.5136 -12.0762 4.8077 38.1715
#
#
#
# Elastic Compliance Matrix: (Units=1/GPa)
#
#
# Indices 1 2 3 4 5 6 
#
# 1 0.011364 -0.001033 -0.000331 -0.008336 0.009333 -0.007288
# 2 -0.001033 0.010014 -0.000020 0.000193 0.000434 -0.004700
# 3 -0.000331 -0.000020 0.025616 0.004151 0.004096 -0.006129
# 4 -0.008336 0.000193 0.004151 0.065154 -0.031129 0.026293
# 5 0.009333 0.000434 0.004096 -0.031129 0.050712 -0.020944
# 6 -0.007288 -0.004700 -0.006129 0.026293 -0.020944 0.043851
#
#
# Mechanical properties :
#
#
# Convention : Reuss Voigt Hill
#
# Bulk Modulus (GPa) = 22.61105 36.71859 29.66482
# Shear Modulus (GPa) = 22.29940 35.11511 28.70725
#
# Velocity S-wave (km/s) = 3.02327 3.79383 3.43025
# Velocity P-wave (km/s) = 4.63193 5.85160 5.27712
#
# Compressibility (1/GPa) = 0.04422617
#
# Stress axis : x y z
#
# Youngs Moduli (GPa) = 87.99996 99.85534 39.03785
#
# Poissons Ratio (x) = 0.10317 0.01291
# Poissons Ratio (y) = 0.09092 0.00078
# Poissons Ratio (z) = 0.02911 0.00200
#
# Static dielectric constant tensor:
#      x y z
#    x 4.317660 0.223240 -0.112850 
#    y 0.223240 5.170950 -0.230260 
#    z -0.112850 -0.230260 4.310430 
# 
# 
# High freq. dielectric constant tensor:
#      x y z
#    x 1.968480 0.014820 -0.019620 
#    y 0.014820 1.975680 0.011930 
#    z -0.019620 0.011930 1.965980 
# 
# From -- ./inp_files/176738.got.cif
#   From: 2010.06.25/outbox.cif.g09.slc.cpg/sg2_89_cif.got.tgz:176738.got - 2010.06.27 13:26:56.
