data_PCOD8018281
_publ_section_title
;
Structure prediction by ZEFSAII (Michael W. Deem and Ramdas Pophale) SiO2 
 PCOD8018281
Probable space group: P -1
;
_chemical_formula_sum "Si O2"
_cell_formula_units_Z 16
_cell_length_a 16.947065
_cell_length_b 5.103751
_cell_length_c 9.000688
_cell_angle_alpha 74.640488
_cell_angle_beta 111.259162
_cell_angle_gamma 74.753344
_cell_volume 641.357003
_symmetry_space_group_name_H-M "P -1"
_symmetry_group_IT_number 2
_symmetry_cell_setting 'triclinic'
loop_
_space_group_symop_operation_xyz
x,y,z
-x,-y,-z
loop_
_atom_site_type_symbol
_atom_site_label
_atom_site_fract_x
_atom_site_fract_y
_atom_site_fract_z
Si Si1 0.517199 0.609584 0.214130
Si Si2 0.663495 0.290858 0.593912
Si Si3 0.193160 0.191295 0.702067
Si Si4 0.773867 0.683906 0.617478
Si Si5 0.593898 0.722241 0.962416
Si Si6 0.916601 0.207149 0.314595
Si Si7 0.090641 0.758736 0.022660
Si Si8 0.275883 0.773990 0.045917
O O1 0.566648 0.477116 0.422588
O O2 0.479794 0.381088 0.152623
O O3 0.434976 0.930407 0.138687
O O4 0.592650 0.651465 0.148004
O O5 0.735338 0.439352 0.582527
O O6 0.647966 0.294879 0.760814
O O7 0.701621 0.947802 0.624127
O O8 0.214382 0.161780 0.548307
O O9 0.132531 0.524372 0.649677
O O10 0.143835 0.973098 0.740406
O O11 0.278813 0.043950 0.899894
O O12 0.870122 0.531595 0.799407
O O13 0.694986 0.525029 0.990243
O O14 0.940270 0.309516 0.153420
O O15 0.000000 0.000000 0.500000
O O16 0.176951 0.856507 0.048137
O O17 0.000000 0.000000 0.000000
#
# Coordination Sequence:
#
# PCOD8018281 Si02
#       8
#     2   2   2   2   2   2   2   2
#     4  10  22  40  65  96 128 168 207 261 317 388
#     4  11  23  41  64  97 133 167 213 258 324 383
#     4  11  23  41  64  91 123 166 216 261 323 381
#     4  11  23  41  66  94 130 172 213 267 322 381
#     4  10  22  40  64  95 131 166 212 258 319 380
#     4  11  23  41  63  91 123 161 216 273 323 377
#     4  10  23  44  66  94 132 173 219 268 323 379
#     4  10  24  42  65  96 131 172 214 268 320 380
#
# _framework density 24.947102000000001
#
# number of rings (size 3 to 8) (size 9 to 14) (size 15 to 20)
#    0.000    1.500    0.000    4.125    0.000   10.000 
#    0.000    5.625    0.000    0.000    0.000    0.000 
#    0.000    0.000    0.000    0.000    0.000    0.000 
#
# Total GULP energy -198316.654479 kJ/mol
# GULP energy per Si atom -12394.790905 kJ/mol
# Density = 2.489032 g / cm^3
# Si number density = 24.947102 Si / 1000 Ang^3
#
#
#
# Elastic Constant Matrix: (Units=GPa)
#
#
# Indices 1 2 3 4 5 6 
#
# 1 53.5197 7.1782 15.8099 -7.3816 -14.8740 -13.6235
# 2 7.1782 116.3066 30.2392 -11.4957 -7.7357 -16.1023
# 3 15.8099 30.2392 239.0016 -17.4543 -11.5407 -9.9037
# 4 -7.3816 -11.4957 -17.4543 40.0978 -6.5356 3.2345
# 5 -14.8740 -7.7357 -11.5407 -6.5356 41.8920 5.7017
# 6 -13.6235 -16.1023 -9.9037 3.2345 5.7017 38.9227
#
#
#
# Elastic Compliance Matrix: (Units=1/GPa)
#
#
# Indices 1 2 3 4 5 6 
#
# 1 0.023442 0.000679 -0.000596 0.005038 0.008155 0.006721
# 2 0.000679 0.009629 -0.000852 0.002504 0.001692 0.003548
# 3 -0.000596 -0.000852 0.004526 0.001776 0.001117 0.000280
# 4 0.005038 0.002504 0.001776 0.028548 0.007219 -0.000179
# 5 0.008155 0.001692 0.001117 0.007219 0.028643 -0.000957
# 6 0.006721 0.003548 0.000280 -0.000179 -0.000957 0.029738
#
#
# Mechanical properties :
#
#
# Convention : Reuss Voigt Hill
#
# Bulk Modulus (GPa) = 27.73185 57.25361 42.49273
# Shear Modulus (GPa) = 36.20963 47.88922 42.04942
#
# Velocity S-wave (km/s) = 3.81393 4.38611 4.10999
# Velocity P-wave (km/s) = 5.52586 6.97499 6.29228
#
# Compressibility (1/GPa) = 0.03605962
#
# Stress axis : x y z
#
# Youngs Moduli (GPa) = 42.65855 103.85495 220.92216
#
# Poissons Ratio (x) = -0.07053 0.13176
# Poissons Ratio (y) = -0.02897 0.18812
# Poissons Ratio (z) = 0.02544 0.08844
#
# Static dielectric constant tensor:
#      x y z
#    x 4.239240 -0.047650 -0.030080 
#    y -0.047650 4.374510 0.080690 
#    z -0.030080 0.080690 5.378890 
# 
# 
# High freq. dielectric constant tensor:
#      x y z
#    x 1.979670 -0.004300 -0.007170 
#    y -0.004300 1.993940 0.000100 
#    z -0.007170 0.000100 2.030360 
# 
# From -- ./inp_files/340352.got.cif
#   From: 2010.06.25/outbox.cif.g09.slc.cpg/sg2_171_cif.got.tgz:340352.got - 2010.06.27 13:26:56.
