data_PCOD8018438
_publ_section_title
;
Structure prediction by ZEFSAII (Michael W. Deem and Ramdas Pophale) SiO2 
 PCOD8018438
Probable space group: P -1
;
_chemical_formula_sum "Si O2"
_cell_formula_units_Z 16
_cell_length_a 12.186631
_cell_length_b 21.057144
_cell_length_c 8.692659
_cell_angle_alpha 31.850971
_cell_angle_beta 131.095967
_cell_angle_gamma 140.555192
_cell_volume 747.879086
_symmetry_space_group_name_H-M "P -1"
_symmetry_group_IT_number 2
_symmetry_cell_setting 'triclinic'
loop_
_space_group_symop_operation_xyz
x,y,z
-x,-y,-z
loop_
_atom_site_type_symbol
_atom_site_label
_atom_site_fract_x
_atom_site_fract_y
_atom_site_fract_z
Si Si1 0.384190 0.524390 0.226762
Si Si2 0.056910 0.412191 0.368271
Si Si3 0.624950 0.823345 0.674793
Si Si4 0.891915 0.304098 0.144184
Si Si5 0.713338 0.929024 0.215123
Si Si6 0.071626 0.204501 0.038424
Si Si7 0.447718 0.953847 0.718575
Si Si8 0.822884 0.728088 0.659395
O O1 0.500000 0.500000 0.500000
O O2 0.218565 0.494313 0.231187
O O3 0.334383 0.419431 0.250863
O O4 0.478605 0.681736 0.917337
O O5 0.892616 0.301736 0.337813
O O6 0.083483 0.330393 0.694162
O O7 0.029228 0.531441 0.174102
O O8 0.596362 0.822785 0.464578
O O9 0.811596 0.845459 0.832767
O O10 0.628037 0.958292 0.464056
O O11 0.703110 0.212501 0.084338
O O12 0.000958 0.237543 0.326894
O O13 0.782913 0.850843 0.333115
O O14 0.605449 0.974211 0.921987
O O15 0.876586 0.070512 0.150370
O O16 0.156703 0.278023 0.126884
O O17 0.500000 0.000000 0.500000
#
# Coordination Sequence:
#
# PCOD8018438 Si02
#       8
#     2   2   2   2   2   2   2   2
#     4  11  23  42  65  96 129 165 216 267 320 382
#     4  10  22  40  66  92 131 170 209 272 320 374
#     4  11  24  43  66  91 133 171 208 272 323 377
#     4  10  22  42  61  92 131 167 216 262 318 387
#     4  11  25  42  66  96 133 169 217 267 318 385
#     4  11  22  43  67  93 128 172 216 263 322 386
#     4  12  25  39  66  98 129 172 219 266 318 385
#     4  10  24  41  66  92 126 171 213 263 320 389
#
# _framework density 21.393833000000001
#
# number of rings (size 3 to 8) (size 9 to 14) (size 15 to 20)
#    0.000    1.250    1.250    4.875    3.500    5.500 
#    0.000    3.125    0.000    0.000    0.000    0.000 
#    0.000    0.000    0.000    0.000    0.000    0.000 
#
# Total GULP energy -198347.910559 kJ/mol
# GULP energy per Si atom -12396.744410 kJ/mol
# Density = 2.134514 g / cm^3
# Si number density = 21.393833 Si / 1000 Ang^3
#
#
#
# Elastic Constant Matrix: (Units=GPa)
#
#
# Indices 1 2 3 4 5 6 
#
# 1 63.1204 24.8177 22.8303 -13.6706 14.5758 -12.3480
# 2 24.8177 134.9657 44.4759 0.5439 7.3544 -4.3703
# 3 22.8303 44.4759 120.8182 3.8717 5.8903 -8.6848
# 4 -13.6706 0.5439 3.8717 32.5549 2.4318 3.0643
# 5 14.5758 7.3544 5.8903 2.4318 39.8697 -6.6185
# 6 -12.3480 -4.3703 -8.6848 3.0643 -6.6185 27.3328
#
#
#
# Elastic Compliance Matrix: (Units=1/GPa)
#
#
# Indices 1 2 3 4 5 6 
#
# 1 0.022949 -0.002733 -0.002861 0.009965 -0.007042 0.006199
# 2 -0.002733 0.008809 -0.002732 -0.000887 -0.000278 -0.000662
# 3 -0.002861 -0.002732 0.010014 -0.002563 0.000537 0.001870
# 4 0.009965 -0.000887 -0.002563 0.035811 -0.005588 -0.001822
# 5 -0.007042 -0.000278 0.000537 -0.005588 0.028720 0.004526
# 6 0.006199 -0.000662 0.001870 -0.001822 0.004526 0.041175
#
#
# Mechanical properties :
#
#
# Convention : Reuss Voigt Hill
#
# Bulk Modulus (GPa) = 39.80847 55.90580 47.85714
# Shear Modulus (GPa) = 28.98495 35.07018 32.02756
#
# Velocity S-wave (km/s) = 3.68479 4.05318 3.87337
# Velocity P-wave (km/s) = 6.06230 6.93490 6.51323
#
# Compressibility (1/GPa) = 0.02512028
#
# Stress axis : x y z
#
# Youngs Moduli (GPa) = 43.57459 113.51458 99.86389
#
# Poissons Ratio (x) = 0.31022 0.28571
# Poissons Ratio (y) = 0.11908 0.27284
# Poissons Ratio (z) = 0.12467 0.31014
#
# Static dielectric constant tensor:
#      x y z
#    x 2.170430 0.941110 -0.144120 
#    y 0.941110 3.672580 0.223370 
#    z -0.144120 0.223370 3.816050 
# 
# 
# High freq. dielectric constant tensor:
#      x y z
#    x 1.839580 -0.002100 0.018630 
#    y -0.002100 1.845960 0.004770 
#    z 0.018630 0.004770 1.845000 
# 
# From -- ./inp_files/282652.got.cif
#   From: 2010.06.25/outbox.cif.g09.slc.cpg/sg2_142_cif.got.tgz:282652.got - 2010.06.27 13:26:56.
