data_PCOD8018321
_publ_section_title
;
Structure prediction by ZEFSAII (Michael W. Deem and Ramdas Pophale) SiO2 
 PCOD8018321
Probable space group: P -1
;
_chemical_formula_sum "Si O2"
_cell_formula_units_Z 16
_cell_length_a 15.294366
_cell_length_b 8.847937
_cell_length_c 11.642168
_cell_angle_alpha 139.496940
_cell_angle_beta 80.531754
_cell_angle_gamma 121.561608
_cell_volume 790.483816
_symmetry_space_group_name_H-M "P -1"
_symmetry_group_IT_number 2
_symmetry_cell_setting 'triclinic'
loop_
_space_group_symop_operation_xyz
x,y,z
-x,-y,-z
loop_
_atom_site_type_symbol
_atom_site_label
_atom_site_fract_x
_atom_site_fract_y
_atom_site_fract_z
Si Si1 0.927493 0.846549 0.676042
Si Si2 0.874621 0.171511 0.704807
Si Si3 0.702093 0.304754 0.072256
Si Si4 0.363425 0.395714 0.591285
Si Si5 0.902337 0.449979 0.262067
Si Si6 0.168304 0.376770 0.980536
Si Si7 0.201260 0.213687 0.115689
Si Si8 0.395811 0.353976 0.304658
O O1 0.885451 0.552737 0.445849
O O2 0.864826 0.740734 0.750531
O O3 0.895842 0.032913 0.725846
O O4 0.061405 0.041049 0.780007
O O5 0.875448 0.429848 0.905305
O O6 0.969274 0.299131 0.660879
O O7 0.752875 0.919131 0.527743
O O8 0.628499 0.342238 0.195932
O O9 0.821721 0.434639 0.177250
O O10 0.731470 0.494431 0.059167
O O11 0.631515 0.962796 0.855900
O O12 0.365380 0.438971 0.478020
O O13 0.470005 0.409048 0.613273
O O14 0.873880 0.133418 0.100575
O O15 0.218842 0.397783 0.105924
O O16 0.325714 0.347052 0.210817
#
# Coordination Sequence:
#
# PCOD8018321 Si02
#       8
#     2   2   2   2   2   2   2   2
#     4  12  21  39  60  89 120 157 196 244 290 351
#     4  12  20  38  61  91 118 148 201 243 290 344
#     4  11  20  39  62  90 115 149 199 249 292 340
#     4  11  21  38  66  90 109 150 206 250 288 336
#     4  11  22  37  64  89 117 156 196 245 295 344
#     4  12  24  37  59  89 127 163 185 237 304 354
#     4  11  24  42  55  87 129 158 193 235 298 359
#     4  10  22  40  65  85 115 152 200 251 289 340
#
# _framework density 20.240767000000002
#
# number of rings (size 3 to 8) (size 9 to 14) (size 15 to 20)
#    0.000    0.750    6.250    3.000    0.000    0.500 
#    2.250    1.250    0.000    0.000    0.000    0.000 
#    0.000    0.000    0.000    0.000    0.000    0.000 
#
# Total GULP energy -198476.074723 kJ/mol
# GULP energy per Si atom -12404.754670 kJ/mol
# Density = 2.019470 g / cm^3
# Si number density = 20.240767 Si / 1000 Ang^3
#
#
#
# Elastic Constant Matrix: (Units=GPa)
#
#
# Indices 1 2 3 4 5 6 
#
# 1 78.5312 41.8557 28.7034 -7.7758 10.5285 16.6178
# 2 41.8557 84.3486 43.8289 -23.7289 -0.2750 6.8920
# 3 28.7034 43.8289 98.0480 -28.2556 -4.3178 5.7648
# 4 -7.7758 -23.7289 -28.2556 23.5240 13.7015 6.1197
# 5 10.5285 -0.2750 -4.3178 13.7015 38.0314 -3.5523
# 6 16.6178 6.8920 5.7648 6.1197 -3.5523 21.2824
#
#
#
# Elastic Compliance Matrix: (Units=1/GPa)
#
#
# Indices 1 2 3 4 5 6 
#
# 1 0.025623 -0.004254 0.003233 0.027377 -0.019481 -0.030629
# 2 -0.004254 0.026262 0.002074 0.041811 -0.015359 -0.020331
# 3 0.003233 0.002074 0.022895 0.047963 -0.018007 -0.026195
# 4 0.027377 0.041811 0.047963 0.247129 -0.103591 -0.136260
# 5 -0.019481 -0.015359 -0.018007 -0.103591 0.073116 0.067054
# 6 -0.030629 -0.020331 -0.026195 -0.136260 0.067054 0.134956
#
#
# Mechanical properties :
#
#
# Convention : Reuss Voigt Hill
#
# Bulk Modulus (GPa) = 13.00632 54.41152 33.70892
# Shear Modulus (GPa) = 9.03335 26.33687 17.68511
#
# Velocity S-wave (km/s) = 2.11486 3.61110 2.95911
# Velocity P-wave (km/s) = 3.52183 6.65787 5.32590
#
# Compressibility (1/GPa) = 0.07688567
#
# Stress axis : x y z
#
# Youngs Moduli (GPa) = 39.02694 38.07754 43.67785
#
# Poissons Ratio (x) = 0.16198 -0.14120
# Poissons Ratio (y) = 0.16602 -0.09058
# Poissons Ratio (z) = -0.12616 -0.07897
#
# Static dielectric constant tensor:
#      x y z
#    x 3.664100 0.183150 0.048210 
#    y 0.183150 3.440920 -0.057440 
#    z 0.048210 -0.057440 3.839470 
# 
# 
# High freq. dielectric constant tensor:
#      x y z
#    x 1.783010 0.018230 0.003310 
#    y 0.018230 1.764500 -0.011930 
#    z 0.003310 -0.011930 1.804170 
# 
# From -- ./inp_files/170450.got.cif
#   From: 2010.06.25/outbox.cif.g09.slc.cpg/sg2_86_cif.got.tgz:170450.got - 2010.06.27 13:26:56.
