data_PCOD8018132
_publ_section_title
;
Structure prediction by ZEFSAII (Michael W. Deem and Ramdas Pophale) SiO2 
 PCOD8018132
Probable space group: P -1
;
_chemical_formula_sum "Si O2"
_cell_formula_units_Z 16
_cell_length_a 17.503727
_cell_length_b 11.335463
_cell_length_c 11.798067
_cell_angle_alpha 47.908799
_cell_angle_beta 41.153245
_cell_angle_gamma 32.258122
_cell_volume 818.441875
_symmetry_space_group_name_H-M "P -1"
_symmetry_group_IT_number 2
_symmetry_cell_setting 'triclinic'
loop_
_space_group_symop_operation_xyz
x,y,z
-x,-y,-z
loop_
_atom_site_type_symbol
_atom_site_label
_atom_site_fract_x
_atom_site_fract_y
_atom_site_fract_z
Si Si1 0.726825 0.101460 0.312632
Si Si2 0.217914 0.700953 0.707985
Si Si3 0.927417 0.503876 0.245600
Si Si4 0.997993 0.407501 0.676641
Si Si5 0.280281 0.556448 0.971112
Si Si6 0.102791 0.156553 0.083752
Si Si7 0.358912 0.457110 0.474536
Si Si8 0.415946 0.660009 0.098948
O O1 0.760270 0.136588 0.380495
O O2 0.763338 0.213027 0.112192
O O3 0.542643 0.219509 0.427826
O O4 0.837395 0.847159 0.324788
O O5 0.282354 0.523358 0.853250
O O6 0.320917 0.574943 0.561549
O O7 0.028382 0.849238 0.803375
O O8 0.754975 0.582619 0.398228
O O9 0.011552 0.451015 0.306365
O O10 0.053841 0.274412 0.184174
O O11 0.893750 0.705790 0.098311
O O12 0.000000 0.500000 0.500000
O O13 0.846937 0.432605 0.830137
O O14 0.455001 0.360238 0.959285
O O15 0.278657 0.911118 0.048854
O O16 0.333822 0.607002 0.305336
O O17 0.500000 0.500000 0.000000
#
# Coordination Sequence:
#
# PCOD8018132 Si02
#       8
#     2   2   2   2   2   2   2   2
#     4   9  21  37  64  87 116 162 199 253 304 356
#     4   9  19  39  72  84 115 159 214 247 296 364
#     4  10  23  42  62  85 129 167 204 234 311 382
#     4  12  25  38  59  91 124 162 207 248 300 366
#     4   9  22  42  62  87 119 162 204 254 303 355
#     4  10  22  42  67  89 119 171 199 250 305 365
#     4  10  22  40  62  95 119 158 205 256 308 354
#     4  11  26  38  63  96 126 153 208 260 304 351
#
# _framework density 19.549341999999999
#
# number of rings (size 3 to 8) (size 9 to 14) (size 15 to 20)
#    0.750    1.250    1.250    0.750    7.000    4.500 
#    0.000    0.625    0.000    0.000    0.000    0.000 
#    0.000    0.000    0.000    0.000    0.000    0.000 
#
# Total GULP energy -198352.709065 kJ/mol
# GULP energy per Si atom -12397.044317 kJ/mol
# Density = 1.950485 g / cm^3
# Si number density = 19.549342 Si / 1000 Ang^3
#
#
#
# Elastic Constant Matrix: (Units=GPa)
#
#
# Indices 1 2 3 4 5 6 
#
# 1 99.7799 43.0092 36.9033 8.4513 12.3883 -8.7573
# 2 43.0092 88.0579 25.5111 10.9203 0.9334 -9.0265
# 3 36.9033 25.5111 118.9254 6.4976 9.1866 1.6463
# 4 8.4513 10.9203 6.4976 19.0066 -3.6298 -2.8006
# 5 12.3883 0.9334 9.1866 -3.6298 26.9563 -2.0614
# 6 -8.7573 -9.0265 1.6463 -2.8006 -2.0614 21.9032
#
#
#
# Elastic Compliance Matrix: (Units=1/GPa)
#
#
# Indices 1 2 3 4 5 6 
#
# 1 0.014713 -0.005654 -0.002777 -0.003038 -0.005813 0.002826
# 2 -0.005654 0.015540 -0.001536 -0.004900 0.002217 0.003842
# 3 -0.002777 -0.001536 0.009964 -0.002230 -0.002598 -0.003022
# 4 -0.003038 -0.004900 -0.002230 0.060463 0.010903 0.005690
# 5 -0.005813 0.002217 -0.002598 0.010903 0.042364 0.004166
# 6 0.002826 0.003842 -0.003022 0.005690 0.004166 0.049715
#
#
# Mechanical properties :
#
#
# Convention : Reuss Voigt Hill
#
# Bulk Modulus (GPa) = 49.29839 57.51227 53.40533
# Shear Modulus (GPa) = 22.78383 26.99585 24.88984
#
# Velocity S-wave (km/s) = 3.41758 3.72009 3.57204
# Velocity P-wave (km/s) = 6.39103 6.92351 6.66259
#
# Compressibility (1/GPa) = 0.02028464
#
# Stress axis : x y z
#
# Youngs Moduli (GPa) = 67.96695 64.34814 100.35934
#
# Poissons Ratio (x) = 0.36380 0.27869
# Poissons Ratio (y) = 0.38426 0.15416
# Poissons Ratio (z) = 0.18874 0.09884
#
# Static dielectric constant tensor:
#      x y z
#    x 3.760960 -0.056520 0.028530 
#    y -0.056520 3.243410 0.047200 
#    z 0.028530 0.047200 3.610800 
# 
# 
# High freq. dielectric constant tensor:
#      x y z
#    x 1.776090 -0.008230 -0.000600 
#    y -0.008230 1.735200 0.009260 
#    z -0.000600 0.009260 1.766490 
# 
# From -- ./inp_files/464360.got.cif
#   From: 2010.06.25/outbox.cif.g09.slc.cpg/sg2_233_cif.got.tgz:464360.got - 2010.06.27 13:26:56.
