data_PCOD8018085
_publ_section_title
;
Structure prediction by ZEFSAII (Michael W. Deem and Ramdas Pophale) SiO2 
 PCOD8018085
Probable space group: P -1
;
_chemical_formula_sum "Si O2"
_cell_formula_units_Z 12
_cell_length_a 27.032557
_cell_length_b 21.790059
_cell_length_c 5.041483
_cell_angle_alpha 52.211311
_cell_angle_beta 53.542210
_cell_angle_gamma 12.448546
_cell_volume 505.742742
_symmetry_space_group_name_H-M "P -1"
_symmetry_group_IT_number 2
_symmetry_cell_setting 'triclinic'
loop_
_space_group_symop_operation_xyz
x,y,z
-x,-y,-z
loop_
_atom_site_type_symbol
_atom_site_label
_atom_site_fract_x
_atom_site_fract_y
_atom_site_fract_z
Si Si1 0.120347 0.389293 0.159190
Si Si2 0.376290 0.737912 0.454517
Si Si3 0.101806 0.193827 0.410750
Si Si4 0.523700 0.160187 0.575623
Si Si5 0.782737 0.154955 0.821535
Si Si6 0.220463 0.547110 0.025525
O O1 0.000000 0.500000 0.500000
O O2 0.387222 0.036901 0.238169
O O3 0.000000 0.500000 0.000000
O O4 0.080026 0.531057 0.899703
O O5 0.654467 0.392080 0.528262
O O6 0.317765 0.790506 0.197378
O O7 0.279489 0.939951 0.305829
O O8 0.264765 0.808867 0.816731
O O9 0.950741 0.314715 0.723854
O O10 0.256865 0.053083 0.496590
O O11 0.408050 0.334032 0.218269
O O12 0.338661 0.383135 0.807271
O O13 0.059319 0.820124 0.784780
#
# Coordination Sequence:
#
# PCOD8018085 Si02
#       6
#     2   2   2   2   2   2
#     4  10  22  40  62  88 122 159 200 253 300 351
#     4   9  18  34  61  86 115 160 198 241 302 356
#     4  10  23  42  65  88 122 165 204 246 307 361
#     4  11  24  40  60  92 125 157 205 255 296 356
#     4   9  18  35  57  89 121 150 199 250 293 353
#     4  11  23  39  63  91 122 162 202 248 304 360
#
# _framework density 23.727478999999999
#
# number of rings (size 3 to 8) (size 9 to 14) (size 15 to 20)
#    0.000    2.000    0.000    4.000    0.000   13.333 
#    0.000    1.667    0.000    0.000    0.000    0.000 
#    0.000    0.000    0.000    0.000    0.000    0.000 
#
# Total GULP energy -148704.766381 kJ/mol
# GULP energy per Si atom -12392.063865 kJ/mol
# Density = 2.367347 g / cm^3
# Si number density = 23.727479 Si / 1000 Ang^3
#
#
#
# Elastic Constant Matrix: (Units=GPa)
#
#
# Indices 1 2 3 4 5 6 
#
# 1 53.3775 14.1463 -0.6809 -2.8876 9.8676 11.6839
# 2 14.1463 127.1747 -23.2449 0.6899 21.3128 14.4145
# 3 -0.6809 -23.2449 3.7733 32.7287 40.6932 -12.8460
# 4 -2.8876 0.6899 32.7287 21.9404 -15.6102 17.5924
# 5 9.8676 21.3128 40.6932 -15.6102 24.1812 14.5193
# 6 11.6839 14.4145 -12.8460 17.5924 14.5193 38.0235
#
#
#
# Elastic Compliance Matrix: (Units=1/GPa)
#
#
# Indices 1 2 3 4 5 6 
#
# 1 0.021128 -0.000854 0.000925 0.002845 -0.004259 -0.005546
# 2 -0.000854 0.008444 -0.000583 0.004372 -0.000251 -0.005062
# 3 0.000925 -0.000583 0.001861 0.012697 0.010884 -0.009465
# 4 0.002845 0.004372 0.012697 0.018237 -0.013751 -0.001429
# 5 -0.004259 -0.000251 0.010884 -0.013751 0.012001 0.006860
# 6 -0.005546 -0.005062 -0.009465 -0.001429 0.006860 0.024766
#
#
# Mechanical properties :
#
#
# Convention : Reuss Voigt Hill
#
# Bulk Modulus (GPa) = 32.88564 18.30738 25.59651
# Shear Modulus (GPa) = 51.23085 29.76935 40.50010
#
# Velocity S-wave (km/s) = 4.65169 3.54593 4.13593
# Velocity P-wave (km/s) = 6.53764 4.94947 5.79819
#
# Compressibility (1/GPa) = 0.03040841
#
# Stress axis : x y z
#
# Youngs Moduli (GPa) = 47.33095 118.42954 537.30620
#
# Poissons Ratio (x) = 0.10117 -0.49692
# Poissons Ratio (y) = 0.04043 0.31314
# Poissons Ratio (z) = -0.04377 0.06902
#
# Static dielectric constant tensor:
#      x y z
#    x 4.150050 0.657680 -0.013550 
#    y 0.657680 5.317840 -0.774640 
#    z -0.013550 -0.774640 4.311090 
# 
# 
# High freq. dielectric constant tensor:
#      x y z
#    x 1.916980 0.028200 0.023880 
#    y 0.028200 1.965290 -0.025800 
#    z 0.023880 -0.025800 1.933970 
# 
# From -- ./inp_files/128817.got.cif
#   From: 2010.06.25/outbox.cif.g09.slc.cpg/sg2_65_cif.got.tgz:128817.got - 2010.06.27 13:26:56.
