data_PCOD8018419
_publ_section_title
;
Structure prediction by ZEFSAII (Michael W. Deem and Ramdas Pophale) SiO2 
 PCOD8018419
Probable space group: P -1
;
_chemical_formula_sum "Si O2"
_cell_formula_units_Z 10
_cell_length_a 8.569617
_cell_length_b 8.961640
_cell_length_c 9.125066
_cell_angle_alpha 49.607078
_cell_angle_beta 108.875285
_cell_angle_gamma 110.064770
_cell_volume 496.296461
_symmetry_space_group_name_H-M "P -1"
_symmetry_group_IT_number 2
_symmetry_cell_setting 'triclinic'
loop_
_space_group_symop_operation_xyz
x,y,z
-x,-y,-z
loop_
_atom_site_type_symbol
_atom_site_label
_atom_site_fract_x
_atom_site_fract_y
_atom_site_fract_z
Si Si1 0.643923 0.918503 0.512929
Si Si2 0.776312 0.817415 0.109727
Si Si3 0.940552 0.965743 0.773079
Si Si4 0.468945 0.522036 0.147852
Si Si5 0.723108 0.123077 0.108419
O O1 0.824987 0.016812 0.573659
O O2 0.612687 0.680419 0.668626
O O3 0.500000 0.000000 0.500000
O O4 0.640178 0.980209 0.304814
O O5 0.649824 0.607427 0.223059
O O6 0.681792 0.995678 0.025360
O O7 0.817523 0.845645 0.933004
O O8 0.948454 0.831437 0.249134
O O9 0.072712 0.830898 0.841042
O O10 0.500000 0.500000 0.000000
O O11 0.341522 0.671320 0.043114
#
# Coordination Sequence:
#
# PCOD8018419 Si02
#       5
#     2   2   2   2   2
#     4  12  23  39  63  91 124 159 201 251 297 358
#     4   9  20  41  63  89 121 161 199 246 304 357
#     4   9  20  40  64  87 124 162 194 249 307 349
#     4  12  22  39  65  90 121 162 203 242 306 357
#     4  10  22  40  66  87 125 155 204 249 298 355
#
# _framework density 20.149248
#
# number of rings (size 3 to 8) (size 9 to 14) (size 15 to 20)
#    1.200    0.400    4.000    1.200    0.000    1.600 
#    0.000    1.000    0.000    0.000    0.000    0.000 
#    0.000    0.000    0.000    0.000    0.000    0.000 
#
# Total GULP energy -123902.458837 kJ/mol
# GULP energy per Si atom -12390.245884 kJ/mol
# Density = 2.010339 g / cm^3
# Si number density = 20.149248 Si / 1000 Ang^3
#
#
#
# Elastic Constant Matrix: (Units=GPa)
#
#
# Indices 1 2 3 4 5 6 
#
# 1 117.3180 44.5205 40.9838 -6.0966 -8.1059 -8.5626
# 2 44.5205 86.7274 33.4743 -12.2320 6.5418 5.7445
# 3 40.9838 33.4743 87.8284 -22.4632 -9.9715 -4.3969
# 4 -6.0966 -12.2320 -22.4632 21.0823 -1.4919 7.2642
# 5 -8.1059 6.5418 -9.9715 -1.4919 27.9730 15.2710
# 6 -8.5626 5.7445 -4.3969 7.2642 15.2710 43.3854
#
#
#
# Elastic Compliance Matrix: (Units=1/GPa)
#
#
# Indices 1 2 3 4 5 6 
#
# 1 0.012352 -0.005597 -0.004864 -0.005928 0.001027 0.003317
# 2 -0.005597 0.016945 -0.003121 0.005545 -0.004820 -0.002896
# 3 -0.004864 -0.003121 0.021730 0.022943 0.011739 -0.006318
# 4 -0.005928 0.005545 0.022943 0.081958 0.020792 -0.020620
# 5 0.001027 -0.004820 0.011739 0.020792 0.053549 -0.020299
# 6 0.003317 -0.002896 -0.006318 -0.020620 -0.020299 0.034044
#
#
# Mechanical properties :
#
#
# Convention : Reuss Voigt Hill
#
# Bulk Modulus (GPa) = 41.90572 58.87010 50.38791
# Shear Modulus (GPa) = 19.55441 30.01449 24.78445
#
# Velocity S-wave (km/s) = 3.11863 3.86373 3.51100
# Velocity P-wave (km/s) = 5.81469 7.01320 6.44188
#
# Compressibility (1/GPa) = 0.02386309
#
# Stress axis : x y z
#
# Youngs Moduli (GPa) = 80.95877 59.01310 46.01976
#
# Poissons Ratio (x) = 0.33027 0.22386
# Poissons Ratio (y) = 0.45309 0.14363
# Poissons Ratio (z) = 0.39382 0.18418
#
# Static dielectric constant tensor:
#      x y z
#    x 4.035030 0.020760 -0.063220 
#    y 0.020760 3.672010 0.138700 
#    z -0.063220 0.138700 3.341490 
# 
# 
# High freq. dielectric constant tensor:
#      x y z
#    x 1.811580 0.003350 -0.009390 
#    y 0.003350 1.781980 0.021070 
#    z -0.009390 0.021070 1.749870 
# 
# From -- ./inp_files/26278.got.cif
#   From: 2010.06.25/outbox.cif.g09.slc.cpg/sg2_14_cif.got.tgz:26278.got - 2010.06.27 13:26:56.
