data_PCOD8018524
_publ_section_title
;
Structure prediction by ZEFSAII (Michael W. Deem and Ramdas Pophale) SiO2 
 PCOD8018524
Probable space group: P -1
;
_chemical_formula_sum "Si O2"
_cell_formula_units_Z 16
_cell_length_a 8.700940
_cell_length_b 12.053638
_cell_length_c 15.190405
_cell_angle_alpha 30.958931
_cell_angle_beta 103.446906
_cell_angle_gamma 114.313638
_cell_volume 721.751707
_symmetry_space_group_name_H-M "P -1"
_symmetry_group_IT_number 2
_symmetry_cell_setting 'triclinic'
loop_
_space_group_symop_operation_xyz
x,y,z
-x,-y,-z
loop_
_atom_site_type_symbol
_atom_site_label
_atom_site_fract_x
_atom_site_fract_y
_atom_site_fract_z
Si Si1 0.097557 0.792657 0.230535
Si Si2 0.321749 0.441780 0.062662
Si Si3 0.411479 0.959242 0.702638
Si Si4 0.368948 0.356319 0.329187
Si Si5 0.731266 0.752192 0.169111
Si Si6 0.638227 0.771245 0.332534
Si Si7 0.800228 0.052287 0.668491
Si Si8 0.131453 0.380237 0.423626
O O1 0.122775 0.802065 0.331468
O O2 0.180075 0.631413 0.306255
O O3 0.890947 0.683174 0.257597
O O4 0.208469 0.056792 0.029980
O O5 0.337814 0.377054 0.209493
O O6 0.181744 0.200566 0.161927
O O7 0.500000 0.500000 0.000000
O O8 0.282929 0.675162 0.886326
O O9 0.330959 0.086557 0.537208
O O10 0.433212 0.065792 0.732491
O O11 0.600419 0.002217 0.661490
O O12 0.567262 0.519974 0.272437
O O13 0.232468 0.433392 0.308369
O O14 0.682008 0.859572 0.177593
O O15 0.500000 0.500000 0.500000
O O16 0.810862 0.785940 0.393913
O O17 0.922058 0.226406 0.489345
#
# Coordination Sequence:
#
# PCOD8018524 Si02
#       8
#     2   2   2   2   2   2   2   2
#     4  11  24  37  62  97 125 164 199 260 324 368
#     4  10  24  44  65  90 124 170 215 255 301 372
#     4  10  22  40  67  89 123 169 208 257 312 364
#     4  11  24  42  64  98 124 162 215 254 310 377
#     4  11  22  38  59  93 131 156 206 258 313 375
#     4  11  20  37  60  93 124 159 202 255 317 375
#     4  11  22  41  64  89 126 166 211 254 306 377
#     4  11  23  37  64  93 124 162 200 262 319 368
#
# _framework density 22.168288
#
# number of rings (size 3 to 8) (size 9 to 14) (size 15 to 20)
#    0.000    1.250    3.750    3.375    1.750    3.000 
#    0.000    5.000    0.000    0.000    0.000    0.000 
#    0.000    0.000    0.000    0.000    0.000    0.000 
#
# Total GULP energy -198340.694146 kJ/mol
# GULP energy per Si atom -12396.293384 kJ/mol
# Density = 2.211783 g / cm^3
# Si number density = 22.168288 Si / 1000 Ang^3
#
#
#
# Elastic Constant Matrix: (Units=GPa)
#
#
# Indices 1 2 3 4 5 6 
#
# 1 84.9212 37.5501 34.5114 -2.8106 -9.3274 -19.8056
# 2 37.5501 80.3430 36.3916 -11.3771 1.4793 -25.2180
# 3 34.5114 36.3916 92.1574 -5.1424 5.1750 -16.4847
# 4 -2.8106 -11.3771 -5.1424 42.2542 -10.4536 2.2530
# 5 -9.3274 1.4793 5.1750 -10.4536 28.2433 0.8497
# 6 -19.8056 -25.2180 -16.4847 2.2530 0.8497 27.8569
#
#
#
# Elastic Compliance Matrix: (Units=1/GPa)
#
#
# Indices 1 2 3 4 5 6 
#
# 1 0.017580 -0.004599 -0.004103 0.000849 0.006944 0.005627
# 2 -0.004599 0.021126 -0.003991 0.003992 -0.000814 0.013195
# 3 -0.004103 -0.003991 0.014563 -0.000723 -0.004150 0.002272
# 4 0.000849 0.003992 -0.000723 0.027170 0.010222 0.001280
# 5 0.006944 -0.000814 -0.004150 0.010222 0.042297 -0.000373
# 6 0.005627 0.013195 0.002272 0.001280 -0.000373 0.053095
#
#
# Mechanical properties :
#
#
# Convention : Reuss Voigt Hill
#
# Bulk Modulus (GPa) = 35.86670 52.70311 44.28490
# Shear Modulus (GPa) = 23.75149 29.60210 26.67679
#
# Velocity S-wave (km/s) = 3.27680 3.65819 3.47273
# Velocity P-wave (km/s) = 5.52549 6.45514 6.00832
#
# Compressibility (1/GPa) = 0.02788102
#
# Stress axis : x y z
#
# Youngs Moduli (GPa) = 56.88322 47.33528 68.66775
#
# Poissons Ratio (x) = 0.21771 0.28176
# Poissons Ratio (y) = 0.26162 0.27408
# Poissons Ratio (z) = 0.23341 0.18893
#
# Static dielectric constant tensor:
#      x y z
#    x 4.010220 -0.124620 -0.198890 
#    y -0.124620 3.856990 -0.165860 
#    z -0.198890 -0.165860 4.195490 
# 
# 
# High freq. dielectric constant tensor:
#      x y z
#    x 1.872710 -0.022790 -0.016150 
#    y -0.022790 1.860490 -0.010750 
#    z -0.016150 -0.010750 1.872540 
# 
# From -- ./inp_files/216507.got.cif
#   From: 2010.06.25/outbox.cif.g09.slc.cpg/sg2_109_cif.got.tgz:216507.got - 2010.06.27 13:26:56.
