data_PCOD8018400
_publ_section_title
;
Structure prediction by ZEFSAII (Michael W. Deem and Ramdas Pophale) SiO2 
 PCOD8018400
Probable space group: P -1
;
_chemical_formula_sum "Si O2"
_cell_formula_units_Z 16
_cell_length_a 14.983124
_cell_length_b 9.625496
_cell_length_c 11.603966
_cell_angle_alpha 68.515615
_cell_angle_beta 65.088488
_cell_angle_gamma 28.292267
_cell_volume 719.357254
_symmetry_space_group_name_H-M "P -1"
_symmetry_group_IT_number 2
_symmetry_cell_setting 'triclinic'
loop_
_space_group_symop_operation_xyz
x,y,z
-x,-y,-z
loop_
_atom_site_type_symbol
_atom_site_label
_atom_site_fract_x
_atom_site_fract_y
_atom_site_fract_z
Si Si1 0.839847 0.328150 0.166596
Si Si2 0.036704 0.773078 0.263971
Si Si3 0.982908 0.692609 0.087235
Si Si4 0.549175 0.858088 0.814921
Si Si5 0.405605 0.870700 0.231537
Si Si6 0.621402 0.204642 0.974117
Si Si7 0.151541 0.438493 0.738617
Si Si8 0.058296 0.280810 0.461370
O O1 0.627810 0.534054 0.235022
O O2 0.902927 0.335236 0.242812
O O3 0.996976 0.991906 0.173588
O O4 0.836364 0.450339 0.021972
O O5 0.950523 0.776977 0.211914
O O6 0.934950 0.871264 0.411440
O O7 0.262924 0.447033 0.261130
O O8 0.991541 0.500423 0.143395
O O9 0.812776 0.969340 0.014645
O O10 0.602077 0.937924 0.835559
O O11 0.377564 0.106804 0.739478
O O12 0.488809 0.808060 0.950193
O O13 0.333045 0.861317 0.167633
O O14 0.270288 0.011278 0.371576
O O15 0.500000 0.500000 0.000000
O O16 0.110907 0.511411 0.604270
O O17 0.000000 0.500000 0.500000
#
# Coordination Sequence:
#
# PCOD8018400 Si02
#       8
#     2   2   2   2   2   2   2   2
#     4  11  24  41  65 101 131 161 218 278 333 377
#     4  12  24  42  67  95 134 177 214 269 326 377
#     4  11  21  39  66  94 131 170 210 265 328 395
#     4  10  22  40  65  99 126 172 217 269 320 387
#     4  11  23  43  66  94 129 175 220 263 321 391
#     4  11  22  38  65 101 136 164 209 274 334 384
#     4  10  23  42  66  96 124 171 220 265 323 388
#     4  12  24  45  69  90 130 178 227 263 313 390
#
# _framework density 22.242077999999999
#
# number of rings (size 3 to 8) (size 9 to 14) (size 15 to 20)
#    0.000    1.000    2.500    4.125    0.000    5.500 
#    0.000    0.000    0.000    0.000    0.000    0.000 
#    0.000    0.000    0.000    0.000    0.000    0.000 
#
# Total GULP energy -198313.573159 kJ/mol
# GULP energy per Si atom -12394.598322 kJ/mol
# Density = 2.219145 g / cm^3
# Si number density = 22.242078 Si / 1000 Ang^3
#
#
#
# Elastic Constant Matrix: (Units=GPa)
#
#
# Indices 1 2 3 4 5 6 
#
# 1 91.6086 37.1846 33.2540 2.7411 13.2569 -14.4937
# 2 37.1846 98.6549 22.0236 10.4782 3.3206 -0.1477
# 3 33.2540 22.0236 115.5415 12.9265 11.4354 -14.6708
# 4 2.7411 10.4782 12.9265 32.3341 -0.7099 -3.8302
# 5 13.2569 3.3206 11.4354 -0.7099 38.1180 0.2258
# 6 -14.4937 -0.1477 -14.6708 -3.8302 0.2258 28.8120
#
#
#
# Elastic Compliance Matrix: (Units=1/GPa)
#
#
# Indices 1 2 3 4 5 6 
#
# 1 0.015641 -0.005431 -0.002403 0.002123 -0.004247 0.006932
# 2 -0.005431 0.012763 -0.001029 -0.003678 0.001039 -0.003688
# 3 -0.002403 -0.001029 0.010625 -0.003315 -0.002346 0.003774
# 4 0.002123 -0.003678 -0.003315 0.033745 0.001182 0.003838
# 5 -0.004247 0.001039 -0.002346 0.001182 0.028367 -0.003391
# 6 0.006932 -0.003688 0.003774 0.003838 -0.003391 0.040634
#
#
# Mechanical properties :
#
#
# Convention : Reuss Voigt Hill
#
# Bulk Modulus (GPa) = 46.94423 54.52549 50.73486
# Shear Modulus (GPa) = 30.01160 34.07567 32.04363
#
# Velocity S-wave (km/s) = 3.67729 3.91837 3.79974
# Velocity P-wave (km/s) = 6.25954 6.71113 6.48926
#
# Compressibility (1/GPa) = 0.02130187
#
# Stress axis : x y z
#
# Youngs Moduli (GPa) = 63.93614 78.34989 94.11756
#
# Poissons Ratio (x) = 0.42550 0.22620
# Poissons Ratio (y) = 0.34722 0.09688
# Poissons Ratio (z) = 0.15366 0.08065
#
# Static dielectric constant tensor:
#      x y z
#    x 4.263620 -0.097670 -0.068170 
#    y -0.097670 4.015950 0.074960 
#    z -0.068170 0.074960 4.041730 
# 
# 
# High freq. dielectric constant tensor:
#      x y z
#    x 1.889440 -0.005980 0.006120 
#    y -0.005980 1.878880 0.003450 
#    z 0.006120 0.003450 1.857870 
# 
# From -- ./inp_files/273076.got.cif
#   From: 2010.06.25/outbox.cif.g09.slc.cpg/sg2_137_cif.got.tgz:273076.got - 2010.06.27 13:26:56.
