data_PCOD8018352
_publ_section_title
;
Structure prediction by ZEFSAII (Michael W. Deem and Ramdas Pophale) SiO2 
 PCOD8018352
Probable space group: P -1
;
_chemical_formula_sum "Si O2"
_cell_formula_units_Z 16
_cell_length_a 22.574574
_cell_length_b 6.376342
_cell_length_c 13.913848
_cell_angle_alpha 81.606725
_cell_angle_beta 159.625936
_cell_angle_gamma 100.022471
_cell_volume 685.768314
_symmetry_space_group_name_H-M "P -1"
_symmetry_group_IT_number 2
_symmetry_cell_setting 'triclinic'
loop_
_space_group_symop_operation_xyz
x,y,z
-x,-y,-z
loop_
_atom_site_type_symbol
_atom_site_label
_atom_site_fract_x
_atom_site_fract_y
_atom_site_fract_z
Si Si1 0.668819 0.646427 0.714956
Si Si2 0.510142 0.219159 0.173634
Si Si3 0.108410 0.329815 0.125750
Si Si4 0.177105 0.204724 0.870990
Si Si5 0.185934 0.936314 0.623608
Si Si6 0.536678 0.070072 0.716120
Si Si7 0.349121 0.572716 0.980910
Si Si8 0.825163 0.023908 0.610246
O O1 0.500000 0.500000 0.500000
O O2 0.756503 0.563995 0.755844
O O3 0.599210 0.875072 0.573904
O O4 0.804179 0.671709 0.006188
O O5 0.659332 0.155899 0.335769
O O6 0.562025 0.121820 0.360801
O O7 0.502435 0.471728 0.162197
O O8 0.322350 0.114852 0.864146
O O9 0.206605 0.199964 0.364540
O O10 0.000000 0.500000 0.000000
O O11 0.981129 0.164958 0.884976
O O12 0.224240 0.372872 0.845791
O O13 0.985075 0.095343 0.569818
O O14 0.293143 0.009574 0.063432
O O15 0.259328 0.706153 0.754953
O O16 0.131575 0.017570 0.431613
O O17 0.580478 0.279724 0.834428
#
# Coordination Sequence:
#
# PCOD8018352 Si02
#       8
#     2   2   2   2   2   2   2   2
#     4  12  23  44  70 101 133 177 225 274 344 408
#     4  10  23  41  67  90 131 179 218 269 329 392
#     4  11  27  45  71 103 137 172 221 286 339 400
#     4  11  23  41  64  95 134 173 215 278 334 397
#     4  11  24  41  64  96 132 173 229 269 327 395
#     4  10  22  40  65  93 131 172 218 272 333 400
#     4  10  23  41  62  97 131 176 218 272 327 396
#     4  11  24  46  68  95 134 176 223 272 337 399
#
# _framework density 23.331496000000001
#
# number of rings (size 3 to 8) (size 9 to 14) (size 15 to 20)
#    0.000    1.250    3.750    1.125    1.750    8.000 
#    0.000    0.000    0.000    0.000    0.000    0.000 
#    0.000    0.000    0.000    0.000    0.000    0.000 
#
# Total GULP energy -198286.898838 kJ/mol
# GULP energy per Si atom -12392.931177 kJ/mol
# Density = 2.327839 g / cm^3
# Si number density = 23.331496 Si / 1000 Ang^3
#
#
#
# Elastic Constant Matrix: (Units=GPa)
#
#
# Indices 1 2 3 4 5 6 
#
# 1 109.4713 42.6839 19.7621 -11.0119 4.5402 4.6876
# 2 42.6839 81.1778 20.0764 -17.2305 -0.4455 -12.5458
# 3 19.7621 20.0764 66.6760 -7.2008 1.1695 4.2025
# 4 -11.0119 -17.2305 -7.2008 38.0816 0.2976 7.3663
# 5 4.5402 -0.4455 1.1695 0.2976 45.6067 -9.7854
# 6 4.6876 -12.5458 4.2025 7.3663 -9.7854 31.6732
#
#
#
# Elastic Compliance Matrix: (Units=1/GPa)
#
#
# Indices 1 2 3 4 5 6 
#
# 1 0.012487 -0.006867 -0.001094 0.001382 -0.002473 -0.005508
# 2 -0.006867 0.019203 -0.003916 0.004187 0.002888 0.009061
# 3 -0.001094 -0.003916 0.017029 0.002020 -0.001353 -0.004536
# 4 0.001382 0.004187 0.002020 0.030179 -0.001710 -0.006361
# 5 -0.002473 0.002888 -0.001353 -0.001710 0.024306 0.009597
# 6 -0.005508 0.009061 -0.004536 -0.006361 0.009597 0.041023
#
#
# Mechanical properties :
#
#
# Convention : Reuss Voigt Hill
#
# Bulk Modulus (GPa) = 40.05560 46.92999 43.49279
# Shear Modulus (GPa) = 28.36036 34.72582 31.54309
#
# Velocity S-wave (km/s) = 3.49024 3.86212 3.68088
# Velocity P-wave (km/s) = 5.78340 6.32820 6.06192
#
# Compressibility (1/GPa) = 0.02496530
#
# Stress axis : x y z
#
# Youngs Moduli (GPa) = 80.08225 52.07579 58.72328
#
# Poissons Ratio (x) = 0.35760 0.06422
# Poissons Ratio (y) = 0.54992 0.22998
# Poissons Ratio (z) = 0.08758 0.20394
#
# Static dielectric constant tensor:
#      x y z
#    x 4.480500 0.110300 -0.058190 
#    y 0.110300 4.228680 -0.305120 
#    z -0.058190 -0.305120 4.293330 
# 
# 
# High freq. dielectric constant tensor:
#      x y z
#    x 1.927170 0.002550 0.001430 
#    y 0.002550 1.911350 -0.009950 
#    z 0.001430 -0.009950 1.924260 
# 
# From -- ./inp_files/72371.got.cif
#   From: 2010.06.25/outbox.cif.g09.slc.cpg/sg2_37_cif.got.tgz:72371.got - 2010.06.27 13:26:56.
