data_PCOD8018307
_publ_section_title
;
Structure prediction by ZEFSAII (Michael W. Deem and Ramdas Pophale) SiO2 
 PCOD8018307
Probable space group: P -1
;
_chemical_formula_sum "Si O2"
_cell_formula_units_Z 12
_cell_length_a 11.306764
_cell_length_b 13.165576
_cell_length_c 13.364911
_cell_angle_alpha 136.216160
_cell_angle_beta 21.414200
_cell_angle_gamma 135.234615
_cell_volume 496.930094
_symmetry_space_group_name_H-M "P -1"
_symmetry_group_IT_number 2
_symmetry_cell_setting 'triclinic'
loop_
_space_group_symop_operation_xyz
x,y,z
-x,-y,-z
loop_
_atom_site_type_symbol
_atom_site_label
_atom_site_fract_x
_atom_site_fract_y
_atom_site_fract_z
Si Si1 0.316872 0.981692 0.303960
Si Si2 0.788924 0.601480 0.458503
Si Si3 0.472161 0.740649 0.557234
Si Si4 0.801673 0.104151 0.291809
Si Si5 0.894989 0.819506 0.688374
Si Si6 0.117158 0.667024 0.048949
O O1 0.570576 0.133014 0.237091
O O2 0.000000 0.000000 0.500000
O O3 0.186656 0.919994 0.470692
O O4 0.544214 0.879487 0.993296
O O5 0.693102 0.424184 0.393620
O O6 0.882380 0.651236 0.534266
O O7 0.069491 0.677036 0.215349
O O8 0.490958 0.697433 0.739074
O O9 0.314907 0.768731 0.594762
O O10 0.871154 0.756520 0.245454
O O11 0.023580 0.187791 0.264027
O O12 0.500000 0.000000 0.500000
O O13 0.000000 0.000000 0.000000
O O14 0.000000 0.500000 0.000000
#
# Coordination Sequence:
#
# PCOD8018307 Si02
#       6
#     2   2   2   2   2   2
#     4  12  25  41  68  98 131 174 219 272 334 395
#     4  11  24  41  68  99 134 166 217 281 334 386
#     4  11  23  42  69  94 129 179 222 259 335 392
#     4  12  25  45  66  93 133 180 224 273 318 394
#     4  12  24  45  63  97 137 167 220 281 325 385
#     4  10  22  40  64  99 133 167 211 273 332 393
#
# _framework density 24.148264999999999
#
# number of rings (size 3 to 8) (size 9 to 14) (size 15 to 20)
#    0.000    0.667    3.333    5.500    0.000    8.667 
#    0.000    0.000    0.000    9.000    0.000    0.000 
#    0.000    0.000    0.000    0.000    0.000    0.000 
#
# Total GULP energy -148676.959720 kJ/mol
# GULP energy per Si atom -12389.746643 kJ/mol
# Density = 2.409330 g / cm^3
# Si number density = 24.148265 Si / 1000 Ang^3
#
#
#
# Elastic Constant Matrix: (Units=GPa)
#
#
# Indices 1 2 3 4 5 6 
#
# 1 141.6386 33.6415 17.8754 15.1069 -4.8196 13.1867
# 2 33.6415 107.6134 32.0711 7.3927 7.6455 17.3847
# 3 17.8754 32.0711 99.6418 -0.4045 18.8010 -8.3668
# 4 15.1069 7.3927 -0.4045 31.3949 2.9486 4.9611
# 5 -4.8196 7.6455 18.8010 2.9486 38.4481 9.6326
# 6 13.1867 17.3847 -8.3668 4.9611 9.6326 50.2064
#
#
#
# Elastic Compliance Matrix: (Units=1/GPa)
#
#
# Indices 1 2 3 4 5 6 
#
# 1 0.008371 -0.001736 -0.001707 -0.003593 0.003033 -0.002109
# 2 -0.001736 0.011747 -0.003931 -0.001362 0.000534 -0.004234
# 3 -0.001707 -0.003931 0.013474 0.001784 -0.007490 0.005316
# 4 -0.003593 -0.001362 0.001784 0.034410 -0.003433 -0.001029
# 5 0.003033 0.000534 -0.007490 -0.003433 0.032232 -0.008074
# 6 -0.002109 -0.004234 0.005316 -0.001029 -0.008074 0.024475
#
#
# Mechanical properties :
#
#
# Convention : Reuss Voigt Hill
#
# Bulk Modulus (GPa) = 53.06970 57.34109 55.20539
# Shear Modulus (GPa) = 34.30837 41.69694 38.00266
#
# Velocity S-wave (km/s) = 3.77336 4.15987 3.97132
# Velocity P-wave (km/s) = 6.40380 6.84614 6.62866
#
# Compressibility (1/GPa) = 0.01884314
#
# Stress axis : x y z
#
# Youngs Moduli (GPa) = 119.46412 85.13133 74.21559
#
# Poissons Ratio (x) = 0.14780 0.12667
# Poissons Ratio (y) = 0.20741 0.29176
# Poissons Ratio (z) = 0.20390 0.33467
#
# Static dielectric constant tensor:
#      x y z
#    x 4.321080 0.353930 0.491360 
#    y 0.353930 4.414790 0.204090 
#    z 0.491360 0.204090 1.664200 
# 
# 
# High freq. dielectric constant tensor:
#      x y z
#    x 1.952960 0.026830 0.017820 
#    y 0.026830 1.963070 0.001750 
#    z 0.017820 0.001750 1.967120 
# 
# From -- ./inp_files/449548.got.cif
#   From: 2010.06.25/outbox.cif.g09.slc.cpg/sg2_225_cif.got.tgz:449548.got - 2010.06.27 13:26:56.
