data_PCOD8018376
_publ_section_title
;
Structure prediction by ZEFSAII (Michael W. Deem and Ramdas Pophale) SiO2 
 PCOD8018376
Probable space group: P -1
;
_chemical_formula_sum "Si O2"
_cell_formula_units_Z 14
_cell_length_a 11.626538
_cell_length_b 6.255538
_cell_length_c 14.355931
_cell_angle_alpha 127.142144
_cell_angle_beta 49.219539
_cell_angle_gamma 122.775439
_cell_volume 611.266384
_symmetry_space_group_name_H-M "P -1"
_symmetry_group_IT_number 2
_symmetry_cell_setting 'triclinic'
loop_
_space_group_symop_operation_xyz
x,y,z
-x,-y,-z
loop_
_atom_site_type_symbol
_atom_site_label
_atom_site_fract_x
_atom_site_fract_y
_atom_site_fract_z
Si Si1 0.612189 0.267370 0.973744
Si Si2 0.613259 0.802516 0.527234
Si Si3 0.841929 0.110726 0.333067
Si Si4 0.092703 0.291242 0.563808
Si Si5 0.527928 0.814745 0.170835
Si Si6 0.963434 0.294044 0.829922
Si Si7 0.145541 0.865517 0.882515
O O1 0.596985 0.243261 0.863004
O O2 0.781844 0.283787 0.931869
O O3 0.550871 0.520410 0.114916
O O4 0.500000 0.000000 0.000000
O O5 0.500000 0.500000 0.500000
O O6 0.737053 0.753198 0.522561
O O7 0.695792 0.919284 0.416371
O O8 0.531981 0.030986 0.671785
O O9 0.889393 0.426413 0.433095
O O10 0.793814 0.130210 0.255746
O O11 0.993976 0.982352 0.226837
O O12 0.999663 0.347263 0.717026
O O13 0.000000 0.000000 0.500000
O O14 0.704818 0.988284 0.095157
O O15 0.080140 0.564269 0.885654
O O16 0.000000 0.000000 0.000000
#
# Coordination Sequence:
#
# PCOD8018376 Si02
#       7
#     2   2   2   2   2   2   2
#     4  11  26  42  65  98 134 178 220 269 344 402
#     4  11  24  44  68 100 139 174 228 280 338 405
#     4  10  24  41  71 100 134 179 223 279 341 393
#     4  10  22  40  65  95 131 178 223 274 325 398
#     4  11  25  44  65  97 138 173 216 284 331 394
#     4  10  22  42  64  98 129 170 227 274 327 403
#     4  11  23  43  70  96 133 174 225 278 329 397
#
# _framework density 22.903271
#
# number of rings (size 3 to 8) (size 9 to 14) (size 15 to 20)
#    0.000    1.429    1.429    3.429    2.000   12.000 
#    0.000    0.000    0.000    0.000    0.000    0.000 
#    0.000    0.000    0.000    0.000    0.000    0.000 
#
# Total GULP energy -173459.954874 kJ/mol
# GULP energy per Si atom -12389.996777 kJ/mol
# Density = 2.285114 g / cm^3
# Si number density = 22.903271 Si / 1000 Ang^3
#
#
#
# Elastic Constant Matrix: (Units=GPa)
#
#
# Indices 1 2 3 4 5 6 
#
# 1 100.7250 54.7537 20.4385 16.6202 -21.0889 12.4638
# 2 54.7537 187.4923 41.6226 35.2971 -11.0100 11.8358
# 3 20.4385 41.6226 97.9997 25.9423 -21.1467 0.4830
# 4 16.6202 35.2971 25.9423 42.1317 -1.3984 5.5969
# 5 -21.0889 -11.0100 -21.1467 -1.3984 30.4269 4.6301
# 6 12.4638 11.8358 0.4830 5.5969 4.6301 36.3321
#
#
#
# Elastic Compliance Matrix: (Units=1/GPa)
#
#
# Indices 1 2 3 4 5 6 
#
# 1 0.014654 -0.003078 0.001367 -0.003038 0.010604 -0.004926
# 2 -0.003078 0.007313 -0.001578 -0.003881 -0.000667 -0.000623
# 3 0.001367 -0.001578 0.014980 -0.008062 0.010455 -0.000245
# 4 -0.003038 -0.003881 -0.008062 0.033140 -0.007323 -0.001758
# 5 0.010604 -0.000667 0.010455 -0.007323 0.048208 -0.008575
# 6 -0.004926 -0.000623 -0.000245 -0.001758 -0.008575 0.030784
#
#
# Mechanical properties :
#
#
# Convention : Reuss Voigt Hill
#
# Bulk Modulus (GPa) = 32.92442 68.87182 50.89812
# Shear Modulus (GPa) = 30.16054 39.73830 34.94942
#
# Velocity S-wave (km/s) = 3.63280 4.16991 3.91059
# Velocity P-wave (km/s) = 5.65712 7.30207 6.53158
#
# Compressibility (1/GPa) = 0.03037259
#
# Stress axis : x y z
#
# Youngs Moduli (GPa) = 68.23851 136.73708 66.75372
#
# Poissons Ratio (x) = 0.42081 -0.09128
# Poissons Ratio (y) = 0.21000 0.10532
# Poissons Ratio (z) = -0.09331 0.21574
#
# Static dielectric constant tensor:
#      x y z
#    x 6.387270 -0.391520 0.498600 
#    y -0.391520 3.858790 -0.417650 
#    z 0.498600 -0.417650 3.945250 
# 
# 
# High freq. dielectric constant tensor:
#      x y z
#    x 1.900340 0.009230 -0.015790 
#    y 0.009230 1.920230 0.018500 
#    z -0.015790 0.018500 1.905170 
# 
# From -- ./inp_files/64347.got.cif
#   From: 2010.06.25/outbox.cif.g09.slc.cpg/sg2_33_cif.got.tgz:64347.got - 2010.06.27 13:26:56.
