data_PCOD8018542
_publ_section_title
;
Structure prediction by ZEFSAII (Michael W. Deem and Ramdas Pophale) SiO2 
 PCOD8018542
Probable space group: P -1
;
_chemical_formula_sum "Si O2"
_cell_formula_units_Z 16
_cell_length_a 9.104252
_cell_length_b 9.872763
_cell_length_c 21.339102
_cell_angle_alpha 132.780347
_cell_angle_beta 146.694633
_cell_angle_gamma 45.822900
_cell_volume 732.185292
_symmetry_space_group_name_H-M "P -1"
_symmetry_group_IT_number 2
_symmetry_cell_setting 'triclinic'
loop_
_space_group_symop_operation_xyz
x,y,z
-x,-y,-z
loop_
_atom_site_type_symbol
_atom_site_label
_atom_site_fract_x
_atom_site_fract_y
_atom_site_fract_z
Si Si1 0.750699 0.883957 0.896554
Si Si2 0.373017 0.713368 0.051030
Si Si3 0.803725 0.896991 0.646471
Si Si4 0.705523 0.316635 0.328998
Si Si5 0.768380 0.803721 0.739732
Si Si6 0.354547 0.741053 0.378429
Si Si7 0.165236 0.792619 0.522190
Si Si8 0.064720 0.380502 0.718981
O O1 0.532072 0.777650 0.806493
O O2 0.729122 0.930290 0.828083
O O3 0.671536 0.110747 0.962249
O O4 0.066301 0.746456 0.984675
O O5 0.603714 0.733733 0.190546
O O6 0.500000 0.500000 0.000000
O O7 0.838995 0.912080 0.738587
O O8 0.522077 0.842318 0.515462
O O9 0.069083 0.724871 0.659335
O O10 0.788557 0.106954 0.679734
O O11 0.565142 0.546338 0.361257
O O12 0.876049 0.214853 0.420076
O O13 0.496031 0.735383 0.607766
O O14 0.021241 0.607562 0.784876
O O15 0.109948 0.697155 0.316485
O O16 0.036950 0.642150 0.394961
O O17 0.000000 0.000000 0.500000
#
# Coordination Sequence:
#
# PCOD8018542 Si02
#       8
#     2   2   2   2   2   2   2   2
#     4  10  22  40  67  93 120 156 214 261 300 366
#     4  11  21  39  64  97 119 153 210 268 310 351
#     4  11  24  36  58  90 134 167 196 245 308 367
#     4  11  22  41  60  91 125 171 200 245 308 373
#     4  11  21  40  59  94 127 156 206 260 297 368
#     4  11  21  38  56  86 129 170 202 238 301 371
#     4  11  21  34  60  90 126 161 206 246 301 364
#     4  12  20  38  65  89 121 168 204 255 308 359
#
# _framework density 21.852391000000001
#
# number of rings (size 3 to 8) (size 9 to 14) (size 15 to 20)
#    0.000    1.000    5.000    4.500    1.750    0.000 
#    2.250    0.000    0.000    7.500    0.000    0.000 
#    0.000    0.000    0.000    0.000    0.000    0.000 
#
# Total GULP energy -198344.943113 kJ/mol
# GULP energy per Si atom -12396.558945 kJ/mol
# Density = 2.180265 g / cm^3
# Si number density = 21.852391 Si / 1000 Ang^3
#
#
#
# Elastic Constant Matrix: (Units=GPa)
#
#
# Indices 1 2 3 4 5 6 
#
# 1 88.4251 8.5997 15.8433 -10.9758 1.0373 11.9190
# 2 8.5997 121.8606 19.9344 -2.1452 3.7546 -6.9775
# 3 15.8433 19.9344 81.1562 -21.4188 16.5647 -1.9383
# 4 -10.9758 -2.1452 -21.4188 39.9079 -5.7631 4.8582
# 5 1.0373 3.7546 16.5647 -5.7631 12.7121 1.9787
# 6 11.9190 -6.9775 -1.9383 4.8582 1.9787 33.0419
#
#
#
# Elastic Compliance Matrix: (Units=1/GPa)
#
#
# Indices 1 2 3 4 5 6 
#
# 1 0.013038 -0.000935 -0.002536 0.003624 0.005076 -0.005886
# 2 -0.000935 0.008748 -0.002111 -0.001301 -0.000703 0.002294
# 3 -0.002536 -0.002111 0.019546 0.006238 -0.022127 0.002023
# 4 0.003624 -0.001301 0.006238 0.031103 0.007027 -0.006210
# 5 0.005076 -0.000703 -0.022127 0.007027 0.112193 -0.011029
# 6 -0.005886 0.002294 0.002023 -0.006210 -0.011029 0.034565
#
#
# Mechanical properties :
#
#
# Convention : Reuss Voigt Hill
#
# Bulk Modulus (GPa) = 33.14722 42.24408 37.69565
# Shear Modulus (GPa) = 20.79756 33.60335 27.20046
#
# Velocity S-wave (km/s) = 3.08836 3.92566 3.53191
# Velocity P-wave (km/s) = 5.28383 6.31833 5.82410
#
# Compressibility (1/GPa) = 0.03016844
#
# Stress axis : x y z
#
# Youngs Moduli (GPa) = 76.69910 114.31791 51.16022
#
# Poissons Ratio (x) = 0.10688 0.12973
# Poissons Ratio (y) = 0.07171 0.10801
# Poissons Ratio (z) = 0.19449 0.24134
#
# Static dielectric constant tensor:
#      x y z
#    x 3.801480 -0.216530 -0.139710 
#    y -0.216530 4.274200 -0.033660 
#    z -0.139710 -0.033660 4.324980 
# 
# 
# High freq. dielectric constant tensor:
#      x y z
#    x 1.818190 -0.017940 0.009160 
#    y -0.017940 1.879770 -0.003310 
#    z 0.009160 -0.003310 1.862790 
# 
# From -- ./inp_files/477671.got.cif
#   From: 2010.06.25/outbox.cif.g09.slc.cpg/sg2_239_cif.got.tgz:477671.got - 2010.06.27 13:26:56.
