data_PCOD8018253
_publ_section_title
;
Structure prediction by ZEFSAII (Michael W. Deem and Ramdas Pophale) SiO2 
 PCOD8018253
Probable space group: P -1
;
_chemical_formula_sum "Si O2"
_cell_formula_units_Z 16
_cell_length_a 12.356517
_cell_length_b 8.998293
_cell_length_c 8.593414
_cell_angle_alpha 65.545822
_cell_angle_beta 86.366864
_cell_angle_gamma 54.074455
_cell_volume 683.114260
_symmetry_space_group_name_H-M "P -1"
_symmetry_group_IT_number 2
_symmetry_cell_setting 'triclinic'
loop_
_space_group_symop_operation_xyz
x,y,z
-x,-y,-z
loop_
_atom_site_type_symbol
_atom_site_label
_atom_site_fract_x
_atom_site_fract_y
_atom_site_fract_z
Si Si1 0.145410 0.498549 0.870355
Si Si2 0.982597 0.613436 0.294417
Si Si3 0.599789 0.259759 0.555341
Si Si4 0.505457 0.758594 0.755483
Si Si5 0.184253 0.640016 0.103751
Si Si6 0.764232 0.082857 0.144525
Si Si7 0.842229 0.181632 0.409341
Si Si8 0.407496 0.052599 0.132680
O O1 0.021253 0.511219 0.795918
O O2 0.194106 0.591630 0.701665
O O3 0.098347 0.645677 0.962257
O O4 0.260683 0.265006 0.013934
O O5 0.000000 0.500000 0.500000
O O6 0.111616 0.620521 0.266473
O O7 0.836750 0.842466 0.211887
O O8 0.500000 0.500000 0.500000
O O9 0.553665 0.208240 0.425698
O O10 0.751866 0.194969 0.553409
O O11 0.605632 0.128231 0.755447
O O12 0.653548 0.538312 0.852761
O O13 0.401782 0.784410 0.887884
O O14 0.527200 0.928254 0.725221
O O15 0.178795 0.842607 0.023710
O O16 0.804525 0.116058 0.290831
O O17 0.000000 0.000000 0.500000
O O18 0.500000 0.000000 0.000000
#
# Coordination Sequence:
#
# PCOD8018253 Si02
#       8
#     2   2   2   2   2   2   2   2
#     4  10  23  42  63  90 127 167 210 257 314 378
#     4  12  25  40  62  95 128 163 208 260 311 371
#     4  11  25  42  66  97 128 168 215 263 318 379
#     4  10  23  43  67  94 127 165 213 265 318 377
#     4  10  23  42  66  91 124 168 208 256 316 376
#     4  10  22  40  64  92 123 161 208 259 311 369
#     4  10  22  42  64  89 126 167 207 256 315 375
#     4  11  23  41  66  96 129 169 212 264 319 377
#
# _framework density 23.422142999999998
#
# number of rings (size 3 to 8) (size 9 to 14) (size 15 to 20)
#    0.000    1.500    0.000    3.750    0.000   16.000 
#    0.000    0.000    0.000    0.000    0.000    0.000 
#    0.000    0.000    0.000    0.000    0.000    0.000 
#
# Total GULP energy -198296.037115 kJ/mol
# GULP energy per Si atom -12393.502320 kJ/mol
# Density = 2.336883 g / cm^3
# Si number density = 23.422143 Si / 1000 Ang^3
#
#
#
# Elastic Constant Matrix: (Units=GPa)
#
#
# Indices 1 2 3 4 5 6 
#
# 1 137.1542 39.3073 62.5594 -7.9034 -20.3078 -13.3974
# 2 39.3073 93.3143 41.1116 -22.1413 -13.9144 -2.7307
# 3 62.5594 41.1116 130.3023 -27.5692 -42.2032 -3.1469
# 4 -7.9034 -22.1413 -27.5692 24.8902 2.2367 -8.9077
# 5 -20.3078 -13.9144 -42.2032 2.2367 46.4655 1.4821
# 6 -13.3974 -2.7307 -3.1469 -8.9077 1.4821 36.2656
#
#
#
# Elastic Compliance Matrix: (Units=1/GPa)
#
#
# Indices 1 2 3 4 5 6 
#
# 1 0.010382 -0.003244 -0.005184 -0.004499 -0.000992 0.002077
# 2 -0.003244 0.015866 0.000907 0.015096 0.003314 0.003648
# 3 -0.005184 0.000907 0.018765 0.020185 0.013945 0.004169
# 4 -0.004499 0.015096 0.020185 0.080323 0.016374 0.020286
# 5 -0.000992 0.003314 0.013945 0.016374 0.033839 0.003732
# 6 0.002077 0.003648 0.004169 0.020286 0.003732 0.033808
#
#
# Mechanical properties :
#
#
# Convention : Reuss Voigt Hill
#
# Bulk Modulus (GPa) = 33.36480 71.85860 52.61170
# Shear Modulus (GPa) = 22.93413 36.04376 29.48895
#
# Velocity S-wave (km/s) = 3.13256 3.92711 3.55212
# Velocity P-wave (km/s) = 5.23066 7.16305 6.27172
#
# Compressibility (1/GPa) = 0.02997170
#
# Stress axis : x y z
#
# Youngs Moduli (GPa) = 96.32009 63.02696 53.29022
#
# Poissons Ratio (x) = 0.20446 0.27626
# Poissons Ratio (y) = 0.31246 -0.04834
# Poissons Ratio (z) = 0.49933 -0.05717
#
# Static dielectric constant tensor:
#      x y z
#    x 4.476270 0.302090 -0.191570 
#    y 0.302090 4.008700 0.073980 
#    z -0.191570 0.073980 4.163110 
# 
# 
# High freq. dielectric constant tensor:
#      x y z
#    x 1.942440 0.012800 -0.009560 
#    y 0.012800 1.923160 -0.001750 
#    z -0.009560 -0.001750 1.920060 
# 
# From -- ./inp_files/242549.got.cif
#   From: 2010.06.25/outbox.cif.g09.slc.cpg/sg2_122_cif.got.tgz:242549.got - 2010.06.27 13:26:56.
