data_PCOD8018151
_publ_section_title
;
Structure prediction by ZEFSAII (Michael W. Deem and Ramdas Pophale) SiO2 
 PCOD8018151
Probable space group: P -1
;
_chemical_formula_sum "Si O2"
_cell_formula_units_Z 12
_cell_length_a 12.081102
_cell_length_b 13.302055
_cell_length_c 11.639580
_cell_angle_alpha 32.519626
_cell_angle_beta 143.523627
_cell_angle_gamma 139.289253
_cell_volume 578.777002
_symmetry_space_group_name_H-M "P -1"
_symmetry_group_IT_number 2
_symmetry_cell_setting 'triclinic'
loop_
_space_group_symop_operation_xyz
x,y,z
-x,-y,-z
loop_
_atom_site_type_symbol
_atom_site_label
_atom_site_fract_x
_atom_site_fract_y
_atom_site_fract_z
Si Si1 0.335639 0.314681 0.677235
Si Si2 0.694283 0.924744 0.589475
Si Si3 0.332702 0.928133 0.168812
Si Si4 0.027452 0.684281 0.497326
Si Si5 0.405101 0.280417 0.514957
Si Si6 0.926075 0.722226 0.123749
O O1 0.151083 0.384402 0.499282
O O2 0.299462 0.240132 0.587854
O O3 0.525823 0.490223 0.673032
O O4 0.367493 0.147499 0.947222
O O5 0.465542 0.918799 0.402620
O O6 0.741931 0.823352 0.608125
O O7 0.813518 0.145651 0.476078
O O8 0.744841 0.802625 0.856109
O O9 0.406178 0.807728 0.244866
O O10 0.111226 0.838625 0.096380
O O11 0.118952 0.505540 0.719872
O O12 0.954343 0.762740 0.243200
#
# Coordination Sequence:
#
# PCOD8018151 Si02
#       6
#     2   2   2   2   2   2
#     4  11  20  42  65  86 127 160 197 249 307 352
#     4  10  23  39  63  94 117 159 207 242 304 354
#     4  10  22  40  63  88 124 158 197 250 301 353
#     4  11  23  40  64  88 122 166 194 255 301 348
#     4   9  23  40  60  95 119 159 204 243 303 362
#     4  11  23  44  59  90 128 154 206 247 301 359
#
# _framework density 20.733374999999999
#
# number of rings (size 3 to 8) (size 9 to 14) (size 15 to 20)
#    1.000    0.667    3.333    1.000    2.333    1.333 
#    0.000    3.333    0.000    0.000    0.000    0.000 
#    0.000    0.000    0.000    0.000    0.000    0.000 
#
# Total GULP energy -148763.627486 kJ/mol
# GULP energy per Si atom -12396.968957 kJ/mol
# Density = 2.068618 g / cm^3
# Si number density = 20.733375 Si / 1000 Ang^3
#
#
#
# Elastic Constant Matrix: (Units=GPa)
#
#
# Indices 1 2 3 4 5 6 
#
# 1 57.3916 12.5734 -14.6139 -7.7352 -3.6854 -4.7551
# 2 12.5734 103.7197 29.9751 -6.5293 -11.2621 -24.6675
# 3 -14.6139 29.9751 86.4690 -8.6750 -0.6033 3.7440
# 4 -7.7352 -6.5293 -8.6750 26.8350 0.2136 0.1080
# 5 -3.6854 -11.2621 -0.6033 0.2136 19.2023 -1.5048
# 6 -4.7551 -24.6675 3.7440 0.1080 -1.5048 24.2472
#
#
#
# Elastic Compliance Matrix: (Units=1/GPa)
#
#
# Indices 1 2 3 4 5 6 
#
# 1 0.020581 -0.003457 0.005384 0.006817 0.001999 -0.000218
# 2 -0.003457 0.018234 -0.007599 0.000814 0.011330 0.019745
# 3 0.005384 -0.007599 0.015985 0.004938 -0.003713 -0.009396
# 4 0.006817 0.000814 0.004938 0.041006 0.001588 0.001318
# 5 0.001999 0.011330 -0.003713 0.001588 0.060243 0.016224
# 6 -0.000218 0.019745 -0.009396 0.001318 0.016224 0.063739
#
#
# Mechanical properties :
#
#
# Convention : Reuss Voigt Hill
#
# Bulk Modulus (GPa) = 23.01121 33.71663 28.36392
# Shear Modulus (GPa) = 20.35676 28.69997 24.52836
#
# Velocity S-wave (km/s) = 3.13682 3.72457 3.44326
# Velocity P-wave (km/s) = 4.92365 5.89864 5.43306
#
# Compressibility (1/GPa) = 0.04345708
#
# Stress axis : x y z
#
# Youngs Moduli (GPa) = 48.58737 54.84210 62.55673
#
# Poissons Ratio (x) = 0.18957 -0.33680
# Poissons Ratio (y) = 0.16795 0.47540
# Poissons Ratio (z) = -0.26159 0.41677
#
# Static dielectric constant tensor:
#      x y z
#    x 3.694700 -0.198800 0.046800 
#    y -0.198800 3.600030 -0.152700 
#    z 0.046800 -0.152700 3.637520 
# 
# 
# High freq. dielectric constant tensor:
#      x y z
#    x 1.805050 -0.016160 0.004430 
#    y -0.016160 1.808400 -0.020480 
#    z 0.004430 -0.020480 1.806250 
# 
# From -- ./inp_files/188967.got.cif
#   From: 2010.06.25/outbox.cif.g09.slc.cpg/sg2_95_cif.got.tgz:188967.got - 2010.06.27 13:26:56.
