data_PCOD8018012
_publ_section_title
;
Structure prediction by ZEFSAII (Michael W. Deem and Ramdas Pophale) SiO2 
 PCOD8018012
Probable space group: P -1
;
_chemical_formula_sum "Si O2"
_cell_formula_units_Z 16
_cell_length_a 14.369555
_cell_length_b 9.645729
_cell_length_c 11.832029
_cell_angle_alpha 97.905971
_cell_angle_beta 28.857802
_cell_angle_gamma 86.754299
_cell_volume 728.217443
_symmetry_space_group_name_H-M "P -1"
_symmetry_group_IT_number 2
_symmetry_cell_setting 'triclinic'
loop_
_space_group_symop_operation_xyz
x,y,z
-x,-y,-z
loop_
_atom_site_type_symbol
_atom_site_label
_atom_site_fract_x
_atom_site_fract_y
_atom_site_fract_z
Si Si1 0.006024 0.111323 0.105820
Si Si2 0.312032 0.921777 0.380763
Si Si3 0.735283 0.377069 0.860384
Si Si4 0.605281 0.360989 0.229277
Si Si5 0.620411 0.663634 0.893567
Si Si6 0.151836 0.124028 0.358362
Si Si7 0.656186 0.022720 0.097177
Si Si8 0.165125 0.574655 0.796723
O O1 0.947348 0.282251 0.147065
O O2 0.857730 0.097766 0.360674
O O3 0.231487 0.064711 0.918974
O O4 0.000000 0.000000 0.000000
O O5 0.210773 0.001934 0.380849
O O6 0.477055 0.756939 0.158592
O O7 0.428033 0.015878 0.333837
O O8 0.511520 0.375268 0.066808
O O9 0.905875 0.214342 0.630818
O O10 0.714193 0.419422 0.019709
O O11 0.780650 0.508324 0.759121
O O12 0.359690 0.453923 0.511817
O O13 0.740504 0.364731 0.193365
O O14 0.635129 0.192443 0.149080
O O15 0.741542 0.756431 0.714998
O O16 0.218259 0.046613 0.158293
O O17 0.000000 0.500000 0.000000
#
# Coordination Sequence:
#
# PCOD8018012 Si02
#       8
#     2   2   2   2   2   2   2   2
#     4  12  26  45  68 101 129 177 236 278 336 398
#     4  11  24  42  68  97 140 172 225 282 331 402
#     4  11  22  38  66  94 139 177 213 274 334 402
#     4  11  24  44  68  96 130 180 225 274 345 395
#     4  10  22  40  60 100 137 175 218 266 335 407
#     4  11  23  40  67 105 135 173 223 268 336 406
#     4  11  24  43  72 101 138 179 220 281 338 401
#     4  11  28  48  67  94 133 173 234 287 333 398
#
# _framework density 21.971458999999999
#
# number of rings (size 3 to 8) (size 9 to 14) (size 15 to 20)
#    0.000    1.000    1.250    5.625    1.750    8.000 
#    0.000    0.000    0.000    0.000    0.000    0.000 
#    0.000    0.000    0.000    0.000    0.000    0.000 
#
# Total GULP energy -198423.911054 kJ/mol
# GULP energy per Si atom -12401.494441 kJ/mol
# Density = 2.192145 g / cm^3
# Si number density = 21.971459 Si / 1000 Ang^3
#
#
#
# Elastic Constant Matrix: (Units=GPa)
#
#
# Indices 1 2 3 4 5 6 
#
# 1 75.8535 59.4166 21.3083 18.6138 11.3522 -23.0894
# 2 59.4166 136.4389 41.9940 -0.6104 -2.0961 -12.6832
# 3 21.3083 41.9940 71.3570 4.7407 2.1240 -6.1669
# 4 18.6138 -0.6104 4.7407 34.4190 -6.8824 -1.5748
# 5 11.3522 -2.0961 2.1240 -6.8824 24.8847 7.0879
# 6 -23.0894 -12.6832 -6.1669 -1.5748 7.0879 33.2412
#
#
#
# Elastic Compliance Matrix: (Units=1/GPa)
#
#
# Indices 1 2 3 4 5 6 
#
# 1 0.074299 -0.030485 0.005771 -0.052395 -0.066468 0.052738
# 2 -0.030485 0.021715 -0.007683 0.022677 0.028145 -0.019242
# 3 0.005771 -0.007683 0.018051 -0.007170 -0.008483 0.005895
# 4 -0.052395 0.022677 -0.007170 0.068261 0.056068 -0.037792
# 5 -0.066468 0.028145 -0.008483 0.056068 0.105287 -0.056797
# 6 0.052738 -0.019242 0.005895 -0.037792 -0.056797 0.070787
#
#
# Mechanical properties :
#
#
# Convention : Reuss Voigt Hill
#
# Bulk Modulus (GPa) = 20.29636 58.78745 39.54190
# Shear Modulus (GPa) = 11.37351 29.23766 20.30559
#
# Velocity S-wave (km/s) = 2.27766 3.65185 3.04333
# Velocity P-wave (km/s) = 4.02177 6.67800 5.51227
#
# Compressibility (1/GPa) = 0.04926992
#
# Stress axis : x y z
#
# Youngs Moduli (GPa) = 13.45908 46.05106 55.39934
#
# Poissons Ratio (x) = 1.40388 -0.31972
# Poissons Ratio (y) = 0.41030 0.42566
# Poissons Ratio (z) = -0.07767 0.35383
#
# Static dielectric constant tensor:
#      x y z
#    x 4.278740 -0.034590 -0.129400 
#    y -0.034590 4.178720 0.075810 
#    z -0.129400 0.075810 4.052360 
# 
# 
# High freq. dielectric constant tensor:
#      x y z
#    x 1.876120 -0.000640 -0.004540 
#    y -0.000640 1.879510 0.005170 
#    z -0.004540 0.005170 1.862850 
# 
# From -- ./inp_files/447443.got.cif
#   From: 2010.06.25/outbox.cif.g09.slc.cpg/sg2_224_cif.got.tgz:447443.got - 2010.06.27 13:26:56.
