data_PCOD8018046
_publ_section_title
;
Structure prediction by ZEFSAII (Michael W. Deem and Ramdas Pophale) SiO2 
 PCOD8018046
Probable space group: P -1
;
_chemical_formula_sum "Si O2"
_cell_formula_units_Z 16
_cell_length_a 11.191927
_cell_length_b 9.953347
_cell_length_c 8.154168
_cell_angle_alpha 88.865775
_cell_angle_beta 127.823173
_cell_angle_gamma 96.108728
_cell_volume 712.242449
_symmetry_space_group_name_H-M "P -1"
_symmetry_group_IT_number 2
_symmetry_cell_setting 'triclinic'
loop_
_space_group_symop_operation_xyz
x,y,z
-x,-y,-z
loop_
_atom_site_type_symbol
_atom_site_label
_atom_site_fract_x
_atom_site_fract_y
_atom_site_fract_z
Si Si1 0.633066 0.586171 0.774102
Si Si2 0.636061 0.053294 0.736385
Si Si3 0.577569 0.304131 0.886140
Si Si4 0.203408 0.167088 0.942494
Si Si5 0.738204 0.652231 0.489569
Si Si6 0.845072 0.148562 0.642884
Si Si7 0.151922 0.085994 0.558584
Si Si8 0.687056 0.373225 0.343360
O O1 0.648375 0.428061 0.824165
O O2 0.682493 0.624441 0.629371
O O3 0.462156 0.623492 0.666111
O O4 0.748473 0.674758 0.988771
O O5 0.600229 0.152933 0.850423
O O6 0.767976 0.149570 0.753599
O O7 0.500000 0.000000 0.500000
O O8 0.703424 0.920192 0.857799
O O9 0.397768 0.303402 0.735961
O O10 0.640961 0.334314 0.120691
O O11 0.251524 0.132421 0.800184
O O12 0.022959 0.140889 0.817846
O O13 0.871729 0.779329 0.574846
O O14 0.786991 0.519417 0.445171
O O15 0.805838 0.275047 0.503735
O O16 0.766043 0.014004 0.485286
O O17 0.000000 0.000000 0.500000
#
# Coordination Sequence:
#
# PCOD8018046 Si02
#       8
#     2   2   2   2   2   2   2   2
#     4  11  22  40  66  96 127 163 207 258 311 370
#     4  12  24  40  64  94 125 163 209 258 310 368
#     4  11  22  39  65  97 125 161 209 260 310 366
#     4  11  23  41  61  89 125 166 206 255 310 370
#     4  11  21  39  65  94 126 163 206 262 313 363
#     4  11  23  41  61  91 128 166 207 256 310 370
#     4  10  22  40  61  88 125 169 209 252 308 368
#     4  11  22  40  66  95 125 163 209 257 308 371
#
# _framework density 22.464258999999998
#
# number of rings (size 3 to 8) (size 9 to 14) (size 15 to 20)
#    0.000    1.000    0.000   10.125    0.000    1.000 
#    0.000   14.375    0.000    0.000    0.000    0.000 
#    0.000    0.000    0.000    0.000    0.000    0.000 
#
# Total GULP energy -198252.822657 kJ/mol
# GULP energy per Si atom -12390.801416 kJ/mol
# Density = 2.241313 g / cm^3
# Si number density = 22.464259 Si / 1000 Ang^3
#
#
#
# Elastic Constant Matrix: (Units=GPa)
#
#
# Indices 1 2 3 4 5 6 
#
# 1 62.4001 53.2072 33.5701 0.9813 -11.3469 13.4483
# 2 53.2072 115.8846 32.7905 23.0457 -2.0490 1.6640
# 3 33.5701 32.7905 92.1680 9.0950 -9.6415 -7.0750
# 4 0.9813 23.0457 9.0950 45.9069 -3.7301 -6.3344
# 5 -11.3469 -2.0490 -9.6415 -3.7301 25.3205 0.3057
# 6 13.4483 1.6640 -7.0750 -6.3344 0.3057 41.7310
#
#
#
# Elastic Compliance Matrix: (Units=1/GPa)
#
#
# Indices 1 2 3 4 5 6 
#
# 1 0.041661 -0.017963 -0.009104 0.009387 0.015289 -0.012940
# 2 -0.017963 0.018373 0.000373 -0.009021 -0.007796 0.003807
# 3 -0.009104 0.000373 0.014758 -0.002117 0.001197 0.005091
# 4 0.009387 -0.009021 -0.002117 0.027219 0.006668 0.001058
# 5 0.015289 -0.007796 0.001197 0.006668 0.047197 -0.003747
# 6 -0.012940 0.003807 0.005091 0.001058 -0.003747 0.029032
#
#
# Mechanical properties :
#
#
# Convention : Reuss Voigt Hill
#
# Bulk Modulus (GPa) = 46.71962 56.62094 51.67028
# Shear Modulus (GPa) = 20.94131 32.65067 26.79599
#
# Velocity S-wave (km/s) = 3.05652 3.81655 3.45748
# Velocity P-wave (km/s) = 5.77052 6.68439 6.24419
#
# Compressibility (1/GPa) = 0.02140428
#
# Stress axis : x y z
#
# Youngs Moduli (GPa) = 24.00307 54.42824 67.76118
#
# Poissons Ratio (x) = 0.97770 0.61689
# Poissons Ratio (y) = 0.43117 -0.02528
# Poissons Ratio (z) = 0.21852 -0.02031
#
# Static dielectric constant tensor:
#      x y z
#    x 4.057990 0.025730 -0.294440 
#    y 0.025730 4.648410 0.519080 
#    z -0.294440 0.519080 4.239320 
# 
# 
# High freq. dielectric constant tensor:
#      x y z
#    x 1.877590 0.009620 -0.023040 
#    y 0.009620 1.906030 0.019510 
#    z -0.023040 0.019510 1.883140 
# 
# From -- ./inp_files/244801.got.cif
#   From: 2010.06.25/outbox.cif.g09.slc.cpg/sg2_123_cif.got.tgz:244801.got - 2010.06.27 13:26:56.
