data_PCOD8018646
_publ_section_title
;
Structure prediction by ZEFSAII (Michael W. Deem and Ramdas Pophale) SiO2 
 PCOD8018646
Probable space group: P -1
;
_chemical_formula_sum "Si O2"
_cell_formula_units_Z 16
_cell_length_a 11.626221
_cell_length_b 8.410368
_cell_length_c 12.158387
_cell_angle_alpha 128.098614
_cell_angle_beta 72.759420
_cell_angle_gamma 133.750713
_cell_volume 657.822334
_symmetry_space_group_name_H-M "P -1"
_symmetry_group_IT_number 2
_symmetry_cell_setting 'triclinic'
loop_
_space_group_symop_operation_xyz
x,y,z
-x,-y,-z
loop_
_atom_site_type_symbol
_atom_site_label
_atom_site_fract_x
_atom_site_fract_y
_atom_site_fract_z
Si Si1 0.891878 0.015450 0.678345
Si Si2 0.336490 0.683111 0.229166
Si Si3 0.377208 0.623800 0.952564
Si Si4 0.868481 0.001790 0.305121
Si Si5 0.870174 0.386621 0.082867
Si Si6 0.978810 0.206196 0.129042
Si Si7 0.621371 0.646130 0.762591
Si Si8 0.653041 0.873337 0.500286
O O1 0.786048 0.930269 0.785122
O O2 0.769480 0.882861 0.554116
O O3 0.978933 0.896195 0.618606
O O4 0.041270 0.338462 0.753033
O O5 0.346028 0.513742 0.241192
O O6 0.146869 0.513804 0.185404
O O7 0.408269 0.976201 0.378409
O O8 0.426093 0.722490 0.107562
O O9 0.309082 0.749784 0.967370
O O10 0.538343 0.728193 0.891412
O O11 0.229490 0.296198 0.848142
O O12 0.935745 0.199080 0.265223
O O13 0.747659 0.004408 0.412266
O O14 0.842683 0.156871 0.068938
O O15 0.000000 0.500000 0.000000
O O16 0.000000 0.000000 0.000000
O O17 0.505707 0.446217 0.608986
#
# Coordination Sequence:
#
# PCOD8018646 Si02
#       8
#     2   2   2   2   2   2   2   2
#     4  11  21  42  67  91 131 174 213 264 320 383
#     4  12  22  42  67  92 134 171 214 264 323 377
#     4  10  22  43  67  99 129 168 213 267 320 385
#     4  10  22  40  68  99 126 165 218 268 323 380
#     4  11  21  39  68  97 129 159 211 272 321 372
#     4  12  21  39  71  98 129 163 211 266 333 375
#     4  11  25  42  66  93 133 178 217 254 320 387
#     4  11  24  43  62  95 132 172 218 266 316 376
#
# _framework density 24.322675
#
# number of rings (size 3 to 8) (size 9 to 14) (size 15 to 20)
#    0.000    1.000    5.000    2.250    0.000    0.500 
#    0.000    6.250    0.000    0.000    0.000    0.000 
#    0.000    0.000    0.000    0.000    0.000    0.000 
#
# Total GULP energy -198410.990692 kJ/mol
# GULP energy per Si atom -12400.686918 kJ/mol
# Density = 2.426732 g / cm^3
# Si number density = 24.322675 Si / 1000 Ang^3
#
#
#
# Elastic Constant Matrix: (Units=GPa)
#
#
# Indices 1 2 3 4 5 6 
#
# 1 97.9685 19.2102 22.1181 -13.5043 -1.6369 -16.3185
# 2 19.2102 71.5413 25.4292 -10.3660 -10.4934 -7.9034
# 3 22.1181 25.4292 115.2675 -18.7288 -8.4272 -5.8590
# 4 -13.5043 -10.3660 -18.7288 27.4504 2.5396 2.8989
# 5 -1.6369 -10.4934 -8.4272 2.5396 39.9433 -11.2344
# 6 -16.3185 -7.9034 -5.8590 2.8989 -11.2344 43.0886
#
#
#
# Elastic Compliance Matrix: (Units=1/GPa)
#
#
# Indices 1 2 3 4 5 6 
#
# 1 0.012015 -0.001734 -0.001006 0.004084 0.000690 0.004001
# 2 -0.001734 0.016731 -0.002370 0.003111 0.004484 0.003050
# 3 -0.001006 -0.002370 0.010418 0.005533 0.001345 0.000580
# 4 0.004084 0.003111 0.005533 0.043475 -0.000677 -0.000232
# 5 0.000690 0.004484 0.001345 -0.000677 0.029070 0.008892
# 6 0.004001 0.003050 0.000580 -0.000232 0.008892 0.027695
#
#
# Mechanical properties :
#
#
# Convention : Reuss Voigt Hill
#
# Bulk Modulus (GPa) = 34.54762 46.47691 40.51226
# Shear Modulus (GPa) = 31.39272 36.63113 34.01193
#
# Velocity S-wave (km/s) = 3.59650 3.88499 3.74353
# Velocity P-wave (km/s) = 5.61080 6.26691 5.94791
#
# Compressibility (1/GPa) = 0.02894556
#
# Stress axis : x y z
#
# Youngs Moduli (GPa) = 83.22744 59.76776 95.98710
#
# Poissons Ratio (x) = 0.10363 0.09653
# Poissons Ratio (y) = 0.14431 0.22749
# Poissons Ratio (z) = 0.08370 0.14165
#
# Static dielectric constant tensor:
#      x y z
#    x 4.502410 0.063730 0.188810 
#    y 0.063730 4.334660 0.085890 
#    z 0.188810 0.085890 4.460870 
# 
# 
# High freq. dielectric constant tensor:
#      x y z
#    x 1.974390 -0.001660 0.009320 
#    y -0.001660 1.955420 -0.005260 
#    z 0.009320 -0.005260 1.962960 
# 
# From -- ./inp_files/190709.got.cif
#   From: 2010.06.25/outbox.cif.g09.slc.cpg/sg2_96_cif.got.tgz:190709.got - 2010.06.27 13:26:56.
