data_PCOD8018549
_publ_section_title
;
Structure prediction by ZEFSAII (Michael W. Deem and Ramdas Pophale) SiO2 
 PCOD8018549
Probable space group: P -1
;
_chemical_formula_sum "Si O2"
_cell_formula_units_Z 16
_cell_length_a 13.959606
_cell_length_b 11.338045
_cell_length_c 11.502726
_cell_angle_alpha 94.661334
_cell_angle_beta 148.106491
_cell_angle_gamma 64.287512
_cell_volume 691.297984
_symmetry_space_group_name_H-M "P -1"
_symmetry_group_IT_number 2
_symmetry_cell_setting 'triclinic'
loop_
_space_group_symop_operation_xyz
x,y,z
-x,-y,-z
loop_
_atom_site_type_symbol
_atom_site_label
_atom_site_fract_x
_atom_site_fract_y
_atom_site_fract_z
Si Si1 0.410435 0.334169 0.834497
Si Si2 0.768574 0.818540 0.445951
Si Si3 0.704141 0.967668 0.628174
Si Si4 0.272524 0.456852 0.954946
Si Si5 0.356895 0.321814 0.268486
Si Si6 0.054004 0.840895 0.562677
Si Si7 0.079381 0.651081 0.113107
Si Si8 0.759191 0.387237 0.465425
O O1 0.436460 0.184652 0.812114
O O2 0.241085 0.479117 0.575544
O O3 0.273940 0.397884 0.824152
O O4 0.672897 0.286703 0.105286
O O5 0.656667 0.941191 0.447415
O O6 0.841484 0.878388 0.425939
O O7 0.007718 0.637067 0.721027
O O8 0.500000 0.000000 0.500000
O O9 0.635355 0.140437 0.568614
O O10 0.985214 0.808157 0.952483
O O11 0.316595 0.337130 0.088942
O O12 0.480770 0.462889 0.180564
O O13 0.321237 0.473582 0.290830
O O14 0.152898 0.333897 0.124039
O O15 0.054754 0.774616 0.434877
O O16 0.000000 0.000000 0.500000
O O17 0.143893 0.665253 0.308522
#
# Coordination Sequence:
#
# PCOD8018549 Si02
#       8
#     2   2   2   2   2   2   2   2
#     4  11  24  42  70 101 133 173 230 279 338 414
#     4  12  23  43  74  95 133 189 222 277 358 397
#     4  10  24  43  65  99 136 171 238 289 326 407
#     4  11  21  42  66  99 130 172 226 282 338 411
#     4  10  22  40  67  93 131 175 232 281 334 405
#     4  11  26  45  63 103 146 171 224 286 337 414
#     4  10  22  42  66  92 131 181 225 282 341 395
#     4  11  23  42  67  96 136 174 223 284 340 403
#
# _framework density 23.144866
#
# number of rings (size 3 to 8) (size 9 to 14) (size 15 to 20)
#    0.000    1.250    3.750    1.875    8.750    3.000 
#    0.000    0.625    0.000    0.000    0.000    0.000 
#    0.000    0.000    0.000    0.000    0.000    0.000 
#
# Total GULP energy -198351.437038 kJ/mol
# GULP energy per Si atom -12396.964815 kJ/mol
# Density = 2.309219 g / cm^3
# Si number density = 23.144866 Si / 1000 Ang^3
#
#
#
# Elastic Constant Matrix: (Units=GPa)
#
#
# Indices 1 2 3 4 5 6 
#
# 1 81.1202 44.4801 11.2399 -2.2862 -23.4511 -18.5890
# 2 44.4801 145.8443 48.6213 -15.6738 -23.2091 -11.8596
# 3 11.2399 48.6213 54.6691 -4.5471 -29.7130 -9.8236
# 4 -2.2862 -15.6738 -4.5471 42.1202 7.7725 -10.3599
# 5 -23.4511 -23.2091 -29.7130 7.7725 41.1537 -3.2064
# 6 -18.5890 -11.8596 -9.8236 -10.3599 -3.2064 41.9571
#
#
#
# Elastic Compliance Matrix: (Units=1/GPa)
#
#
# Indices 1 2 3 4 5 6 
#
# 1 0.024494 -0.008612 0.017645 -0.000755 0.023084 0.014127
# 2 -0.008612 0.013254 -0.015607 0.003692 -0.009674 -0.003551
# 3 0.017645 -0.015607 0.055139 -0.002132 0.042952 0.019072
# 4 -0.000755 0.003692 -0.002132 0.027305 -0.004530 0.006606
# 5 0.023084 -0.009674 0.042952 -0.004530 0.065535 0.021439
# 6 0.014127 -0.003551 0.019072 0.006606 0.021439 0.036824
#
#
# Mechanical properties :
#
#
# Convention : Reuss Voigt Hill
#
# Bulk Modulus (GPa) = 12.54065 54.47958 33.51012
# Shear Modulus (GPa) = 19.06377 36.86566 27.96471
#
# Velocity S-wave (km/s) = 2.87308 3.99535 3.47976
# Velocity P-wave (km/s) = 4.05416 6.69876 5.53668
#
# Compressibility (1/GPa) = 0.07974071
#
# Stress axis : x y z
#
# Youngs Moduli (GPa) = 40.82690 75.44641 18.13602
#
# Poissons Ratio (x) = 0.64971 -0.32001
# Poissons Ratio (y) = 0.35158 0.28304
# Poissons Ratio (z) = -0.72039 1.17746
#
# Static dielectric constant tensor:
#      x y z
#    x 4.414600 0.104130 -0.313750 
#    y 0.104130 4.538680 -0.406120 
#    z -0.313750 -0.406120 4.553400 
# 
# 
# High freq. dielectric constant tensor:
#      x y z
#    x 1.923240 -0.000940 -0.011780 
#    y -0.000940 1.915290 -0.011630 
#    z -0.011780 -0.011630 1.897460 
# 
# From -- ./inp_files/315354.got.cif
#   From: 2010.06.25/outbox.cif.g09.slc.cpg/sg2_158_cif.got.tgz:315354.got - 2010.06.27 13:26:56.
