data_PCOD8018348
_publ_section_title
;
Structure prediction by ZEFSAII (Michael W. Deem and Ramdas Pophale) SiO2 
 PCOD8018348
Probable space group: P -1
;
_chemical_formula_sum "Si O2"
_cell_formula_units_Z 16
_cell_length_a 14.568433
_cell_length_b 8.772560
_cell_length_c 12.963631
_cell_angle_alpha 114.403817
_cell_angle_beta 67.911459
_cell_angle_gamma 56.753033
_cell_volume 771.701570
_symmetry_space_group_name_H-M "P -1"
_symmetry_group_IT_number 2
_symmetry_cell_setting 'triclinic'
loop_
_space_group_symop_operation_xyz
x,y,z
-x,-y,-z
loop_
_atom_site_type_symbol
_atom_site_label
_atom_site_fract_x
_atom_site_fract_y
_atom_site_fract_z
Si Si1 0.702128 0.188844 0.977603
Si Si2 0.540281 0.307122 0.515929
Si Si3 0.317159 0.770951 0.355372
Si Si4 0.072113 0.220857 0.420689
Si Si5 0.183094 0.702825 0.894878
Si Si6 0.810317 0.674416 0.121390
Si Si7 0.728504 0.545957 0.711965
Si Si8 0.667248 0.881954 0.013044
O O1 0.769239 0.059909 0.799163
O O2 0.707064 0.014067 0.995823
O O3 0.502798 0.545334 0.154947
O O4 0.823041 0.161920 0.968925
O O5 0.500000 0.500000 0.500000
O O6 0.660312 0.224410 0.531473
O O7 0.354427 0.496787 0.691841
O O8 0.653753 0.998556 0.332902
O O9 0.262104 0.660032 0.320659
O O10 0.158897 0.106784 0.466955
O O11 0.000000 0.500000 0.500000
O O12 0.903696 0.334481 0.510628
O O13 0.182145 0.513723 0.878813
O O14 0.000000 0.000000 0.000000
O O15 0.762279 0.715487 0.034125
O O16 0.000000 0.500000 0.000000
O O17 0.744370 0.637943 0.832732
O O18 0.547353 0.842849 0.808263
#
# Coordination Sequence:
#
# PCOD8018348 Si02
#       8
#     2   2   2   2   2   2   2   2
#     4  10  22  43  64  91 135 172 213 274 334 397
#     4  11  24  47  71  98 136 174 225 285 343 401
#     4  10  24  42  65  93 132 175 215 266 337 402
#     4  12  24  38  62  98 129 170 220 271 324 388
#     4  11  25  44  67 100 131 179 227 278 334 401
#     4  12  26  42  72  99 134 179 228 280 337 399
#     4  10  22  40  65  92 133 168 216 266 326 399
#     4  10  22  43  65  95 132 173 217 266 338 391
#
# _framework density 20.733402000000002
#
# number of rings (size 3 to 8) (size 9 to 14) (size 15 to 20)
#    0.000    1.250    1.250    4.875    3.500    6.000 
#    0.000    0.000    0.000    0.000    0.000    0.000 
#    0.000    0.000    0.000    0.000    0.000    0.000 
#
# Total GULP energy -198410.661758 kJ/mol
# GULP energy per Si atom -12400.666360 kJ/mol
# Density = 2.068621 g / cm^3
# Si number density = 20.733402 Si / 1000 Ang^3
#
#
#
# Elastic Constant Matrix: (Units=GPa)
#
#
# Indices 1 2 3 4 5 6 
#
# 1 136.5148 73.9487 40.9289 7.3361 -1.0976 -0.7413
# 2 73.9487 164.6450 47.3771 12.4819 -5.2469 -4.9297
# 3 40.9289 47.3771 75.4737 -3.0887 -3.6635 -5.7338
# 4 7.3361 12.4819 -3.0887 28.6549 4.1877 0.5522
# 5 -1.0976 -5.2469 -3.6635 4.1877 40.7780 3.7158
# 6 -0.7413 -4.9297 -5.7338 0.5522 3.7158 32.5285
#
#
#
# Elastic Compliance Matrix: (Units=1/GPa)
#
#
# Indices 1 2 3 4 5 6 
#
# 1 0.010391 -0.003579 -0.003526 -0.001425 -0.000272 -0.000872
# 2 -0.003579 0.009109 -0.003832 -0.003630 0.001053 0.000565
# 3 -0.003526 -0.003832 0.017946 0.004409 0.000354 0.002387
# 4 -0.001425 -0.003630 0.004409 0.037904 -0.004003 0.000008
# 5 -0.000272 0.001053 0.000354 -0.004003 0.025332 -0.002610
# 6 -0.000872 0.000565 0.002387 0.000008 -0.002610 0.031527
#
#
# Mechanical properties :
#
#
# Convention : Reuss Voigt Hill
#
# Bulk Modulus (GPa) = 64.21557 77.90478 71.06017
# Shear Modulus (GPa) = 31.39264 34.68420 33.03842
#
# Velocity S-wave (km/s) = 3.89538 4.09451 3.99618
# Velocity P-wave (km/s) = 7.16039 7.74657 7.45924
#
# Compressibility (1/GPa) = 0.01557255
#
# Stress axis : x y z
#
# Youngs Moduli (GPa) = 96.23999 109.77628 55.72266
#
# Poissons Ratio (x) = 0.39290 0.19647
# Poissons Ratio (y) = 0.34445 0.21352
# Poissons Ratio (z) = 0.33933 0.42065
#
# Static dielectric constant tensor:
#      x y z
#    x -3.259100 6.151670 0.103830 
#    y 6.151670 -1.692030 -0.051210 
#    z 0.103830 -0.051210 3.805870 
# 
# 
# High freq. dielectric constant tensor:
#      x y z
#    x 1.824560 -0.001460 -0.004380 
#    y -0.001460 1.814370 0.009420 
#    z -0.004380 0.009420 1.821190 
# 
# From -- ./inp_files/223251.got.cif
#   From: 2010.06.25/outbox.cif.g09.slc.cpg/sg2_112_cif.got.tgz:223251.got - 2010.06.27 13:26:56.
