data_PCOD8018733
_publ_section_title
;
Structure prediction by ZEFSAII (Michael W. Deem and Ramdas Pophale) SiO2 
 PCOD8018733
Probable space group: P -1
;
_chemical_formula_sum "Si O2"
_cell_formula_units_Z 16
_cell_length_a 11.994864
_cell_length_b 12.044764
_cell_length_c 11.245533
_cell_angle_alpha 153.316471
_cell_angle_beta 58.639642
_cell_angle_gamma 113.876236
_cell_volume 615.273092
_symmetry_space_group_name_H-M "P -1"
_symmetry_group_IT_number 2
_symmetry_cell_setting 'triclinic'
loop_
_space_group_symop_operation_xyz
x,y,z
-x,-y,-z
loop_
_atom_site_type_symbol
_atom_site_label
_atom_site_fract_x
_atom_site_fract_y
_atom_site_fract_z
Si Si1 0.265650 0.579593 0.022743
Si Si2 0.765505 0.049550 0.059525
Si Si3 0.783876 0.424259 0.212289
Si Si4 0.415425 0.245409 0.224958
Si Si5 0.974371 0.423581 0.678096
Si Si6 0.374378 0.860191 0.430022
Si Si7 0.898610 0.954740 0.135942
Si Si8 0.469479 0.616405 0.366498
O O1 0.205620 0.686866 0.033084
O O2 0.377993 0.336894 0.696402
O O3 0.151444 0.514003 0.106546
O O4 0.349006 0.770363 0.225169
O O5 0.822006 0.194508 0.060264
O O6 0.619803 0.177759 0.307465
O O7 0.879578 0.018884 0.066914
O O8 0.729992 0.791257 0.780629
O O9 0.631033 0.555174 0.451974
O O10 0.893855 0.606662 0.342716
O O11 0.485251 0.351040 0.174079
O O12 0.500000 0.000000 0.000000
O O13 0.974806 0.165981 0.357459
O O14 0.971155 0.668339 0.830763
O O15 0.399476 0.621534 0.279683
O O16 0.500000 0.000000 0.500000
O O17 0.244409 0.040717 0.720479
#
# Coordination Sequence:
#
# PCOD8018733 Si02
#       8
#     2   2   2   2   2   2   2   2
#     4  11  23  43  71 103 145 188 233 294 360 441
#     4  10  24  42  71 103 138 185 236 302 357 429
#     4  11  26  47  69 101 142 191 240 291 364 431
#     4  11  24  44  71 101 143 185 234 299 366 433
#     4  11  26  49  72 106 143 194 246 301 353 433
#     4  10  22  40  70 108 140 188 234 301 363 434
#     4  10  25  45  74 103 145 185 250 299 360 418
#     4  10  22  40  70 102 139 178 236 293 366 425
#
# _framework density 26.004714
#
# number of rings (size 3 to 8) (size 9 to 14) (size 15 to 20)
#    0.000    1.500    0.000    3.000   12.250    3.000 
#   11.250    3.125    0.000    0.000    0.000    0.000 
#    0.000    0.000    0.000    0.000    0.000    0.000 
#
# Total GULP energy -198272.589103 kJ/mol
# GULP energy per Si atom -12392.036819 kJ/mol
# Density = 2.594553 g / cm^3
# Si number density = 26.004714 Si / 1000 Ang^3
#
#
#
# Elastic Constant Matrix: (Units=GPa)
#
#
# Indices 1 2 3 4 5 6 
#
# 1 143.3021 56.7231 29.5205 -5.8350 23.7954 -12.8655
# 2 56.7231 119.5891 55.1419 -5.6368 22.5540 -25.8190
# 3 29.5205 55.1419 89.6861 10.7299 2.8272 -19.5604
# 4 -5.8350 -5.6368 10.7299 32.0432 -4.7382 2.0955
# 5 23.7954 22.5540 2.8272 -4.7382 40.7902 -5.2367
# 6 -12.8655 -25.8190 -19.5604 2.0955 -5.2367 46.0532
#
#
#
# Elastic Compliance Matrix: (Units=1/GPa)
#
#
# Indices 1 2 3 4 5 6 
#
# 1 0.009027 -0.003127 -0.001084 0.000967 -0.003365 -0.000118
# 2 -0.003127 0.015491 -0.007990 0.003813 -0.005277 0.003644
# 3 -0.001084 -0.007990 0.017970 -0.007350 0.003410 0.003572
# 4 0.000967 0.003813 -0.007350 0.034894 0.001619 -0.002118
# 5 -0.003365 -0.005277 0.003410 0.001619 0.029454 0.000826
# 6 -0.000118 0.003644 0.003572 -0.002118 0.000826 0.025431
#
#
# Mechanical properties :
#
#
# Convention : Reuss Voigt Hill
#
# Bulk Modulus (GPa) = 55.29234 70.59426 62.94330
# Shear Modulus (GPa) = 30.73175 37.85675 34.29425
#
# Velocity S-wave (km/s) = 3.44143 3.81959 3.63543
# Velocity P-wave (km/s) = 6.09096 6.83067 6.47139
#
# Compressibility (1/GPa) = 0.01808569
#
# Stress axis : x y z
#
# Youngs Moduli (GPa) = 110.78086 64.55342 55.64727
#
# Poissons Ratio (x) = 0.20187 0.06032
# Poissons Ratio (y) = 0.34644 0.44463
# Poissons Ratio (z) = 0.12008 0.51579
#
# Static dielectric constant tensor:
#      x y z
#    x 5.057460 -0.020710 -0.117980 
#    y -0.020710 4.761760 -0.294470 
#    z -0.117980 -0.294470 4.540690 
# 
# 
# High freq. dielectric constant tensor:
#      x y z
#    x 2.066250 0.002560 -0.015510 
#    y 0.002560 2.048390 -0.027190 
#    z -0.015510 -0.027190 2.029000 
# 
# From -- ./inp_files/429202.got.cif
#   From: 2010.06.25/outbox.cif.g09.slc.cpg/sg2_215_cif.got.tgz:429202.got - 2010.06.27 13:26:56.
