data_PCOD8018890
_publ_section_title
;
Structure prediction by ZEFSAII (Michael W. Deem and Ramdas Pophale) SiO2 
 PCOD8018890
Probable space group: P -1
;
_chemical_formula_sum "Si O2"
_cell_formula_units_Z 14
_cell_length_a 17.808846
_cell_length_b 9.597308
_cell_length_c 5.120723
_cell_angle_alpha 84.123633
_cell_angle_beta 94.877818
_cell_angle_gamma 132.844113
_cell_volume 638.201291
_symmetry_space_group_name_H-M "P -1"
_symmetry_group_IT_number 2
_symmetry_cell_setting 'triclinic'
loop_
_space_group_symop_operation_xyz
x,y,z
-x,-y,-z
loop_
_atom_site_type_symbol
_atom_site_label
_atom_site_fract_x
_atom_site_fract_y
_atom_site_fract_z
Si Si1 0.297040 0.250420 0.409580
Si Si2 0.430883 0.664871 0.536889
Si Si3 0.223115 0.570932 0.540225
Si Si4 0.781893 0.953576 0.082074
Si Si5 0.114834 0.155200 0.598465
Si Si6 0.460858 0.106852 0.972936
Si Si7 0.228135 0.759725 0.014476
O O1 0.394336 0.465232 0.476844
O O2 0.193672 0.216195 0.377661
O O3 0.284080 0.116101 0.656194
O O4 0.302231 0.188445 0.138740
O O5 0.337036 0.656097 0.509912
O O6 0.476924 0.721183 0.830894
O O7 0.519356 0.813855 0.329274
O O8 0.142323 0.349409 0.645031
O O9 0.218751 0.676282 0.749451
O O10 0.189055 0.606774 0.258162
O O11 0.835825 0.173056 0.007059
O O12 0.865476 0.932342 0.142127
O O13 0.000000 0.000000 0.500000
O O14 0.500000 0.000000 0.000000
O O15 0.343464 0.959373 0.051600
#
# Coordination Sequence:
#
# PCOD8018890 Si02
#       7
#     2   2   2   2   2   2   2
#     4   9  21  39  65  81 123 156 195 246 303 346
#     4  11  20  36  57  90 112 158 211 254 273 334
#     4  11  22  38  65  86 123 155 204 244 301 354
#     4  10  22  41  62  86 126 161 189 248 307 358
#     4   9  23  43  70  92 112 155 204 245 295 370
#     4  12  21  33  56  86 124 158 208 245 281 353
#     4  12  24  39  59  92 124 164 194 246 309 341
#
# _framework density 21.936651999999999
#
# number of rings (size 3 to 8) (size 9 to 14) (size 15 to 20)
#    0.857    0.571    2.857    3.000    4.000    0.571 
#    0.000    5.714    0.000    0.000    0.000    0.000 
#    0.000    0.000    0.000    0.000    0.000    0.000 
#
# Total GULP energy -173467.817368 kJ/mol
# GULP energy per Si atom -12390.558383 kJ/mol
# Density = 2.188672 g / cm^3
# Si number density = 21.936652 Si / 1000 Ang^3
#
#
#
# Elastic Constant Matrix: (Units=GPa)
#
#
# Indices 1 2 3 4 5 6 
#
# 1 45.4262 43.2648 15.8089 4.2363 2.1575 -11.8214
# 2 43.2648 105.9103 23.7784 12.0173 2.5517 -14.0370
# 3 15.8089 23.7784 127.2305 18.3726 1.7093 -12.6631
# 4 4.2363 12.0173 18.3726 33.0957 -5.2888 3.0214
# 5 2.1575 2.5517 1.7093 -5.2888 9.4459 -3.9623
# 6 -11.8214 -14.0370 -12.6631 3.0214 -3.9623 38.2903
#
#
#
# Elastic Compliance Matrix: (Units=1/GPa)
#
#
# Indices 1 2 3 4 5 6 
#
# 1 0.037686 -0.014308 -0.001471 0.000368 -0.001888 0.005679
# 2 -0.014308 0.016135 -0.000427 -0.004378 -0.002876 0.001404
# 3 -0.001471 -0.000427 0.009216 -0.005523 -0.003244 0.002537
# 4 0.000368 -0.004378 -0.005523 0.038723 0.022064 -0.004090
# 5 -0.001888 -0.002876 -0.003244 0.022064 0.123510 0.008330
# 6 0.005679 0.001404 0.002537 -0.004090 0.008330 0.030408
#
#
# Mechanical properties :
#
#
# Convention : Reuss Voigt Hill
#
# Bulk Modulus (GPa) = 32.65402 49.36348 41.00875
# Shear Modulus (GPa) = 16.76168 29.21403 22.98786
#
# Velocity S-wave (km/s) = 2.76722 3.65327 3.24067
# Velocity P-wave (km/s) = 5.01278 6.35191 5.72166
#
# Compressibility (1/GPa) = 0.03062410
#
# Stress axis : x y z
#
# Youngs Moduli (GPa) = 26.53476 61.97691 108.50711
#
# Poissons Ratio (x) = 0.88679 0.15963
# Poissons Ratio (y) = 0.37967 0.04634
# Poissons Ratio (z) = 0.03904 0.02647
#
# Static dielectric constant tensor:
#      x y z
#    x 2.292750 -0.089560 -0.024610 
#    y -0.089560 3.917490 -0.065110 
#    z -0.024610 -0.065110 4.016970 
# 
# 
# High freq. dielectric constant tensor:
#      x y z
#    x 1.836490 -0.029000 0.005350 
#    y -0.029000 1.857920 0.005390 
#    z 0.005350 0.005390 1.867860 
# 
# From -- ./inp_files/117058.got.cif
#   From: 2010.06.25/outbox.cif.g09.slc.cpg/sg2_59_cif.got.tgz:117058.got - 2010.06.27 13:26:56.
