data_PCOD8018164
_publ_section_title
;
Structure prediction by ZEFSAII (Michael W. Deem and Ramdas Pophale) SiO2 
 PCOD8018164
Probable space group: P -1
;
_chemical_formula_sum "Si O2"
_cell_formula_units_Z 14
_cell_length_a 6.404556
_cell_length_b 14.400890
_cell_length_c 8.594028
_cell_angle_alpha 88.962087
_cell_angle_beta 89.680782
_cell_angle_gamma 56.272506
_cell_volume 659.109941
_symmetry_space_group_name_H-M "P -1"
_symmetry_group_IT_number 2
_symmetry_cell_setting 'triclinic'
loop_
_space_group_symop_operation_xyz
x,y,z
-x,-y,-z
loop_
_atom_site_type_symbol
_atom_site_label
_atom_site_fract_x
_atom_site_fract_y
_atom_site_fract_z
Si Si1 0.364888 0.956847 0.603859
Si Si2 0.043859 0.575639 0.110697
Si Si3 0.194454 0.708885 0.896498
Si Si4 0.202074 0.893383 0.329054
Si Si5 0.503420 0.480055 0.316925
Si Si6 0.517184 0.673744 0.163446
Si Si7 0.313374 0.056334 0.143584
O O1 0.319104 0.876200 0.502904
O O2 0.551681 0.898937 0.750299
O O3 0.500000 0.000000 0.500000
O O4 0.093208 0.054339 0.665031
O O5 0.235509 0.508402 0.254143
O O6 0.774004 0.668076 0.181951
O O7 0.136133 0.638616 0.010659
O O8 0.000000 0.500000 0.000000
O O9 0.283732 0.649441 0.728018
O O10 0.963622 0.836979 0.891240
O O11 0.429852 0.699749 0.982158
O O12 0.307283 0.772266 0.266889
O O13 0.274635 0.964940 0.223383
O O14 0.500000 0.500000 0.500000
O O15 0.572231 0.556704 0.224801
O O16 0.500000 0.000000 0.000000
#
# Coordination Sequence:
#
# PCOD8018164 Si02
#       7
#     2   2   2   2   2   2   2
#     4   9  21  41  60  84 127 163 209 254 309 368
#     4  11  20  43  67  84 120 167 208 243 314 376
#     4  11  23  40  63  89 127 162 202 266 305 364
#     4  10  22  40  63  90 121 170 206 253 314 374
#     4  11  25  41  60  95 127 156 207 267 308 361
#     4  11  22  41  66  88 122 164 210 248 312 378
#     4  11  23  39  61  95 127 159 209 260 309 372
#
# _framework density 21.240767000000002
#
# number of rings (size 3 to 8) (size 9 to 14) (size 15 to 20)
#    0.000    1.429    2.857    2.571    0.000   12.000 
#    2.571    0.000    0.000    0.000    0.000    0.000 
#    0.000    0.000    0.000    0.000    0.000    0.000 
#
# Total GULP energy -173487.135548 kJ/mol
# GULP energy per Si atom -12391.938253 kJ/mol
# Density = 2.119242 g / cm^3
# Si number density = 21.240767 Si / 1000 Ang^3
#
#
#
# Elastic Constant Matrix: (Units=GPa)
#
#
# Indices 1 2 3 4 5 6 
#
# 1 106.1334 24.3630 32.4238 0.1360 5.9825 -30.2722
# 2 24.3630 106.0369 41.2016 19.6637 0.5421 -17.2915
# 3 32.4238 41.2016 119.7602 13.9607 14.6767 -21.1416
# 4 0.1360 19.6637 13.9607 36.1199 -9.8309 -0.7855
# 5 5.9825 0.5421 14.6767 -9.8309 35.9438 3.9749
# 6 -30.2722 -17.2915 -21.1416 -0.7855 3.9749 30.1735
#
#
#
# Elastic Compliance Matrix: (Units=1/GPa)
#
#
# Indices 1 2 3 4 5 6 
#
# 1 0.013827 -0.000680 -0.000693 -0.000078 -0.003518 0.013458
# 2 -0.000680 0.012428 -0.002377 -0.006094 -0.001300 0.004787
# 3 -0.000693 -0.002377 0.012075 -0.005112 -0.006972 0.007188
# 4 -0.000078 -0.006094 -0.005112 0.036348 0.013010 -0.007920
# 5 -0.003518 -0.001300 -0.006972 0.013010 0.036336 -0.013607
# 6 0.013458 0.004787 0.007188 -0.007920 -0.013607 0.056010
#
#
# Mechanical properties :
#
#
# Convention : Reuss Voigt Hill
#
# Bulk Modulus (GPa) = 32.43736 58.65637 45.54686
# Shear Modulus (GPa) = 27.05622 36.04359 31.54991
#
# Velocity S-wave (km/s) = 3.57289 4.12382 3.85820
# Velocity P-wave (km/s) = 5.68552 7.09574 6.42941
#
# Compressibility (1/GPa) = 0.03082865
#
# Stress axis : x y z
#
# Youngs Moduli (GPa) = 72.32181 80.46459 82.81803
#
# Poissons Ratio (x) = 0.05474 0.05743
# Poissons Ratio (y) = 0.04920 0.19683
# Poissons Ratio (z) = 0.05015 0.19124
#
# Static dielectric constant tensor:
#      x y z
#    x 4.487570 -0.215550 0.373400 
#    y -0.215550 3.865740 0.219000 
#    z 0.373400 0.219000 4.200770 
# 
# 
# High freq. dielectric constant tensor:
#      x y z
#    x 1.849990 -0.016360 0.008730 
#    y -0.016360 1.823120 0.018140 
#    z 0.008730 0.018140 1.833250 
# 
# From -- ./inp_files/28315.got.cif
#   From: 2010.06.25/outbox.cif.g09.slc.cpg/sg2_15_cif.got.tgz:28315.got - 2010.06.27 13:26:56.
