data_PCOD8018882
_publ_section_title
;
Structure prediction by ZEFSAII (Michael W. Deem and Ramdas Pophale) SiO2 
 PCOD8018882
Probable space group: P -1
;
_chemical_formula_sum "Si O2"
_cell_formula_units_Z 14
_cell_length_a 8.789857
_cell_length_b 13.871313
_cell_length_c 9.161835
_cell_angle_alpha 77.208498
_cell_angle_beta 112.782042
_cell_angle_gamma 137.726742
_cell_volume 688.966677
_symmetry_space_group_name_H-M "P -1"
_symmetry_group_IT_number 2
_symmetry_cell_setting 'triclinic'
loop_
_space_group_symop_operation_xyz
x,y,z
-x,-y,-z
loop_
_atom_site_type_symbol
_atom_site_label
_atom_site_fract_x
_atom_site_fract_y
_atom_site_fract_z
Si Si1 0.801138 0.151902 0.694309
Si Si2 0.898070 0.885173 0.693926
Si Si3 0.817469 0.339012 0.146544
Si Si4 0.680899 0.436734 0.850866
Si Si5 0.000919 0.741453 0.950289
Si Si6 0.536866 0.171207 0.377823
Si Si7 0.837372 0.805024 0.376770
O O1 0.662396 0.185863 0.566035
O O2 0.011795 0.213874 0.640535
O O3 0.616841 0.981561 0.705848
O O4 0.911148 0.230311 0.862019
O O5 0.632516 0.812209 0.645011
O O6 0.901334 0.825987 0.564033
O O7 0.969640 0.842556 0.864518
O O8 0.096094 0.058106 0.707203
O O9 0.805219 0.227597 0.095153
O O10 0.737167 0.295489 0.297804
O O11 0.094282 0.499940 0.189631
O O12 0.644867 0.342002 0.999424
O O13 0.442495 0.339226 0.699476
O O14 0.744524 0.572488 0.896725
#
# Coordination Sequence:
#
# PCOD8018882 Si02
#       7
#     2   2   2   2   2   2   2
#     4  10  23  39  63  94 124 159 206 251 306 360
#     4  10  23  39  66  95 114 163 211 248 309 350
#     4   9  21  42  61  87 126 163 202 246 307 366
#     4   9  22  41  63  87 128 162 202 248 307 364
#     4  10  22  41  61  95 118 158 213 243 305 366
#     4  10  22  41  62  92 127 159 201 258 303 359
#     4  10  22  42  63  85 132 158 202 257 299 364
#
# _framework density 20.320284999999998
#
# number of rings (size 3 to 8) (size 9 to 14) (size 15 to 20)
#    0.857    1.429    0.000    0.857    6.000    4.000 
#    0.000    1.429    0.000    0.000    0.000    0.000 
#    0.000    0.000    0.000    0.000    0.000    0.000 
#
# Total GULP energy -173592.965074 kJ/mol
# GULP energy per Si atom -12399.497505 kJ/mol
# Density = 2.027403 g / cm^3
# Si number density = 20.320285 Si / 1000 Ang^3
#
#
#
# Elastic Constant Matrix: (Units=GPa)
#
#
# Indices 1 2 3 4 5 6 
#
# 1 69.3766 18.8314 31.4344 -11.1755 -9.7530 3.7647
# 2 18.8314 70.1406 38.8390 2.8439 0.0199 9.3430
# 3 31.4344 38.8390 96.4712 -0.9595 -9.0841 2.8446
# 4 -11.1755 2.8439 -0.9595 36.1404 -1.6157 3.7672
# 5 -9.7530 0.0199 -9.0841 -1.6157 23.8926 -3.5256
# 6 3.7647 9.3430 2.8446 3.7672 -3.5256 30.8942
#
#
#
# Elastic Compliance Matrix: (Units=1/GPa)
#
#
# Indices 1 2 3 4 5 6 
#
# 1 0.019180 -0.002818 -0.004413 0.006441 0.006423 -0.001131
# 2 -0.002818 0.019930 -0.007437 -0.002307 -0.004930 -0.005280
# 3 -0.004413 -0.007437 0.015134 -0.000389 0.004216 0.001922
# 4 0.006441 -0.002307 -0.000389 0.030357 0.004050 -0.003291
# 5 0.006423 -0.004930 0.004216 0.004050 0.047125 0.005204
# 6 -0.001131 -0.005280 0.001922 -0.003291 0.005204 0.034921
#
#
# Mechanical properties :
#
#
# Convention : Reuss Voigt Hill
#
# Bulk Modulus (GPa) = 40.14714 46.02201 43.08458
# Shear Modulus (GPa) = 24.47541 27.97768 26.22655
#
# Velocity S-wave (km/s) = 3.47433 3.71460 3.59647
# Velocity P-wave (km/s) = 5.99122 6.41055 6.20443
#
# Compressibility (1/GPa) = 0.02490838
#
# Stress axis : x y z
#
# Youngs Moduli (GPa) = 52.13675 50.17539 66.07515
#
# Poissons Ratio (x) = 0.14141 0.29159
# Poissons Ratio (y) = 0.14694 0.49140
# Poissons Ratio (z) = 0.23008 0.37315
#
# Static dielectric constant tensor:
#      x y z
#    x 3.598830 0.006190 0.062710 
#    y 0.006190 3.518470 -0.070450 
#    z 0.062710 -0.070450 3.447170 
# 
# 
# High freq. dielectric constant tensor:
#      x y z
#    x 1.790840 0.000300 0.006300 
#    y 0.000300 1.782350 -0.006640 
#    z 0.006300 -0.006640 1.789720 
# 
# From -- ./inp_files/207063.got.cif
#   From: 2010.06.25/outbox.cif.g09.slc.cpg/sg2_104_cif.got.tgz:207063.got - 2010.06.27 13:26:56.
