data_PCOD8018938
_publ_section_title
;
Structure prediction by ZEFSAII (Michael W. Deem and Ramdas Pophale) SiO2 
 PCOD8018938
Probable space group: P -1
;
_chemical_formula_sum "Si O2"
_cell_formula_units_Z 14
_cell_length_a 6.241448
_cell_length_b 11.532597
_cell_length_c 12.360073
_cell_angle_alpha 50.137221
_cell_angle_beta 115.186014
_cell_angle_gamma 118.313051
_cell_volume 591.397846
_symmetry_space_group_name_H-M "P -1"
_symmetry_group_IT_number 2
_symmetry_cell_setting 'triclinic'
loop_
_space_group_symop_operation_xyz
x,y,z
-x,-y,-z
loop_
_atom_site_type_symbol
_atom_site_label
_atom_site_fract_x
_atom_site_fract_y
_atom_site_fract_z
Si Si1 0.633216 0.197524 0.694868
Si Si2 0.021646 0.665907 0.955996
Si Si3 0.120865 0.180431 0.543075
Si Si4 0.763749 0.863401 0.646847
Si Si5 0.739775 0.330829 0.400282
Si Si6 0.876272 0.673462 0.157903
Si Si7 0.453628 0.104967 0.027405
O O1 0.359612 0.217625 0.651851
O O2 0.724526 0.275542 0.553536
O O3 0.835291 0.286981 0.772268
O O4 0.609019 0.010114 0.811920
O O5 0.306786 0.752164 0.985372
O O6 0.916337 0.753718 0.789767
O O7 0.000000 0.500000 0.000000
O O8 0.858783 0.652893 0.037229
O O9 0.216500 0.129577 0.482585
O O10 0.012843 0.329492 0.418982
O O11 0.884247 0.037232 0.619972
O O12 0.469813 0.788166 0.649460
O O13 0.722136 0.508682 0.279216
O O14 0.768167 0.815839 0.087459
O O15 0.500000 0.000000 0.000000
#
# Coordination Sequence:
#
# PCOD8018938 Si02
#       7
#     2   2   2   2   2   2   2
#     4  11  25  45  73 105 134 188 240 299 351 428
#     4  12  26  45  74 105 151 190 238 297 366 428
#     4  10  22  42  69  99 141 184 240 290 356 422
#     4  10  22  41  63 102 136 191 237 285 347 431
#     4  11  25  43  69 103 145 183 233 299 360 429
#     4  12  28  46  72 109 149 189 239 298 366 428
#     4  12  27  49  75 105 144 193 249 299 355 430
#
# _framework density 23.672725
#
# number of rings (size 3 to 8) (size 9 to 14) (size 15 to 20)
#    0.000    0.857    2.857    3.000    4.000    5.143 
#    0.000    0.000    0.000    0.000    0.000    0.000 
#    0.000    0.000    0.000    0.000    0.000    0.000 
#
# Total GULP energy -173547.559852 kJ/mol
# GULP energy per Si atom -12396.254275 kJ/mol
# Density = 2.361884 g / cm^3
# Si number density = 23.672725 Si / 1000 Ang^3
#
#
#
# Elastic Constant Matrix: (Units=GPa)
#
#
# Indices 1 2 3 4 5 6 
#
# 1 109.8319 54.2882 32.6538 -3.8281 29.2627 14.2075
# 2 54.2882 117.7604 39.3503 -7.5127 8.3126 12.5896
# 3 32.6538 39.3503 108.0166 -20.9265 6.5472 7.5659
# 4 -3.8281 -7.5127 -20.9265 36.7057 7.2034 7.5052
# 5 29.2627 8.3126 6.5472 7.2034 50.4527 4.0638
# 6 14.2075 12.5896 7.5659 7.5052 4.0638 42.7198
#
#
#
# Elastic Compliance Matrix: (Units=1/GPa)
#
#
# Indices 1 2 3 4 5 6 
#
# 1 0.014525 -0.005289 -0.001543 0.001522 -0.007363 -0.002565
# 2 -0.005289 0.011891 -0.002647 0.000379 0.001518 -0.001487
# 3 -0.001543 -0.002647 0.012226 0.006884 -0.001079 -0.001979
# 4 0.001522 0.000379 0.006884 0.034087 -0.006122 -0.007243
# 5 -0.007363 0.001518 -0.001079 -0.006122 0.024782 0.000911
# 6 -0.002565 -0.001487 -0.001979 -0.007243 0.000911 0.026236
#
#
# Mechanical properties :
#
#
# Convention : Reuss Voigt Hill
#
# Bulk Modulus (GPa) = 50.80579 65.35484 58.08031
# Shear Modulus (GPa) = 33.49697 39.93010 36.71353
#
# Velocity S-wave (km/s) = 3.76573 4.11147 3.94239
# Velocity P-wave (km/s) = 6.35736 7.08565 6.73136
#
# Compressibility (1/GPa) = 0.01968280
#
# Stress axis : x y z
#
# Youngs Moduli (GPa) = 68.84828 84.09865 81.79038
#
# Poissons Ratio (x) = 0.44481 0.12621
# Poissons Ratio (y) = 0.36415 0.21652
# Poissons Ratio (z) = 0.10624 0.22263
#
# Static dielectric constant tensor:
#      x y z
#    x 4.359610 0.529240 0.044270 
#    y 0.529240 4.272660 0.066100 
#    z 0.044270 0.066100 4.314750 
# 
# 
# High freq. dielectric constant tensor:
#      x y z
#    x 1.936210 0.022220 0.011640 
#    y 0.022220 1.930100 -0.006470 
#    z 0.011640 -0.006470 1.954090 
# 
# From -- ./inp_files/363757.got.cif
#   From: 2010.06.25/outbox.cif.g09.slc.cpg/sg2_182_cif.got.tgz:363757.got - 2010.06.27 13:26:56.
