data_PCOD8018094
_publ_section_title
;
Structure prediction by ZEFSAII (Michael W. Deem and Ramdas Pophale) SiO2 
 PCOD8018094
Probable space group: P -1
;
_chemical_formula_sum "Si O2"
_cell_formula_units_Z 12
_cell_length_a 12.323111
_cell_length_b 10.406466
_cell_length_c 10.304036
_cell_angle_alpha 39.310379
_cell_angle_beta 124.944354
_cell_angle_gamma 140.877027
_cell_volume 526.968296
_symmetry_space_group_name_H-M "P -1"
_symmetry_group_IT_number 2
_symmetry_cell_setting 'triclinic'
loop_
_space_group_symop_operation_xyz
x,y,z
-x,-y,-z
loop_
_atom_site_type_symbol
_atom_site_label
_atom_site_fract_x
_atom_site_fract_y
_atom_site_fract_z
Si Si1 0.930623 0.067954 0.783904
Si Si2 0.983527 0.727516 0.954454
Si Si3 0.103095 0.498249 0.369970
Si Si4 0.452283 0.231444 0.221016
Si Si5 0.827498 0.176185 0.232071
Si Si6 0.487688 0.868828 0.386512
O O1 0.062071 0.370123 0.585937
O O2 0.752553 0.006735 0.737665
O O3 0.000000 0.000000 0.000000
O O4 0.902209 0.867931 0.809389
O O5 0.053333 0.690711 0.167758
O O6 0.842376 0.436852 0.020977
O O7 0.144730 0.902989 0.826520
O O8 0.305435 0.669529 0.343376
O O9 0.980886 0.256183 0.373435
O O10 0.524434 0.279400 0.377461
O O11 0.532750 0.143452 0.247884
O O12 0.500000 0.500000 0.000000
O O13 0.638242 0.935622 0.343589
#
# Coordination Sequence:
#
# PCOD8018094 Si02
#       6
#     2   2   2   2   2   2
#     4  12  23  38  63  92 123 159 204 248 301 364
#     4   9  21  42  62  89 122 159 203 248 301 357
#     4  10  22  40  62  90 118 163 197 248 306 348
#     4  11  23  38  58  92 123 162 200 246 302 355
#     4   9  20  44  62  88 121 161 200 249 303 348
#     4  11  22  40  61  88 126 155 203 250 295 363
#
# _framework density 22.771768000000002
#
# number of rings (size 3 to 8) (size 9 to 14) (size 15 to 20)
#    1.000    0.667    1.667    3.000    0.000    5.333 
#    0.000    0.833    0.000    0.000    0.000    0.000 
#    0.000    0.000    0.000    0.000    0.000    0.000 
#
# Total GULP energy -148702.903520 kJ/mol
# GULP energy per Si atom -12391.908627 kJ/mol
# Density = 2.271994 g / cm^3
# Si number density = 22.771768 Si / 1000 Ang^3
#
#
#
# Elastic Constant Matrix: (Units=GPa)
#
#
# Indices 1 2 3 4 5 6 
#
# 1 62.8603 1.6474 25.2407 -0.5632 -9.6268 7.2634
# 2 1.6474 67.7083 17.0267 -0.8974 -4.2273 34.2938
# 3 25.2407 17.0267 126.3448 4.2342 -6.2515 1.7901
# 4 -0.5632 -0.8974 4.2342 27.6550 7.7359 0.4420
# 5 -9.6268 -4.2273 -6.2515 7.7359 33.7556 -7.6840
# 6 7.2634 34.2938 1.7901 0.4420 -7.6840 30.1978
#
#
#
# Elastic Compliance Matrix: (Units=1/GPa)
#
#
# Indices 1 2 3 4 5 6 
#
# 1 0.019203 0.006295 -0.004413 0.000648 0.002842 -0.010792
# 2 0.006295 0.040942 -0.006580 0.005133 -0.006719 -0.049404
# 3 -0.004413 -0.006580 0.009760 -0.002568 0.002264 0.008568
# 4 0.000648 0.005133 -0.002568 0.039926 -0.010889 -0.009188
# 5 0.002842 -0.006719 0.002264 -0.010889 0.036192 0.016181
# 6 -0.010792 -0.049404 0.008568 -0.009188 0.016181 0.095560
#
#
# Mechanical properties :
#
#
# Convention : Reuss Voigt Hill
#
# Bulk Modulus (GPa) = 16.52629 38.30479 27.41554
# Shear Modulus (GPa) = 18.44009 32.52160 25.48084
#
# Velocity S-wave (km/s) = 2.84875 3.78319 3.34872
# Velocity P-wave (km/s) = 4.25366 5.99509 5.19782
#
# Compressibility (1/GPa) = 0.06050966
#
# Stress axis : x y z
#
# Youngs Moduli (GPa) = 52.07426 24.42474 102.46121
#
# Poissons Ratio (x) = -0.15374 0.45214
# Poissons Ratio (y) = -0.32778 0.67414
# Poissons Ratio (z) = 0.22980 0.16070
#
# Static dielectric constant tensor:
#      x y z
#    x 4.108750 0.079540 -0.021340 
#    y 0.079540 3.813980 0.056370 
#    z -0.021340 0.056370 4.157690 
# 
# 
# High freq. dielectric constant tensor:
#      x y z
#    x 1.889810 0.006110 -0.004170 
#    y 0.006110 1.870900 0.004060 
#    z -0.004170 0.004060 1.906910 
# 
# From -- ./inp_files/304326.got.cif
#   From: 2010.06.25/outbox.cif.g09.slc.cpg/sg2_153_cif.got.tgz:304326.got - 2010.06.27 13:26:56.
