data_PCOD8018182
_publ_section_title
;
Structure prediction by ZEFSAII (Michael W. Deem and Ramdas Pophale) SiO2 
 PCOD8018182
Probable space group: P -1
;
_chemical_formula_sum "Si O2"
_cell_formula_units_Z 16
_cell_length_a 14.070738
_cell_length_b 14.411384
_cell_length_c 11.368883
_cell_angle_alpha 112.415717
_cell_angle_beta 131.397496
_cell_angle_gamma 30.508372
_cell_volume 762.958981
_symmetry_space_group_name_H-M "P -1"
_symmetry_group_IT_number 2
_symmetry_cell_setting 'triclinic'
loop_
_space_group_symop_operation_xyz
x,y,z
-x,-y,-z
loop_
_atom_site_type_symbol
_atom_site_label
_atom_site_fract_x
_atom_site_fract_y
_atom_site_fract_z
Si Si1 0.133602 0.248821 0.476933
Si Si2 0.411183 0.457528 0.857060
Si Si3 0.510107 0.344682 0.333210
Si Si4 0.484651 0.821929 0.554701
Si Si5 0.886905 0.221608 0.709611
Si Si6 0.475823 0.763848 0.951824
Si Si7 0.002895 0.487441 0.686129
Si Si8 0.758905 0.170347 0.796306
O O1 0.147683 0.324550 0.425653
O O2 0.904964 0.328825 0.295932
O O3 0.077979 0.338225 0.599613
O O4 0.401309 0.996842 0.581426
O O5 0.500582 0.384005 0.760245
O O6 0.500000 0.500000 0.000000
O O7 0.537106 0.282933 0.956363
O O8 0.560244 0.203809 0.371033
O O9 0.750630 0.255977 0.507215
O O10 0.240149 0.579925 0.280737
O O11 0.490728 0.339466 0.175759
O O12 0.796465 0.600225 0.672347
O O13 0.305504 0.893169 0.342573
O O14 0.824480 0.205149 0.768684
O O15 0.198617 0.017250 0.837437
O O16 0.726641 0.663178 0.104782
O O17 0.000000 0.000000 0.000000
#
# Coordination Sequence:
#
# PCOD8018182 Si02
#       8
#     2   2   2   2   2   2   2   2
#     4  10  22  40  63  92 126 161 197 255 316 361
#     4  11  21  36  62  97 126 152 202 258 313 368
#     4  10  24  41  61  90 122 167 210 247 300 370
#     4  11  23  41  63  90 124 164 207 252 305 359
#     4  10  22  42  62  89 128 164 197 258 312 357
#     4  11  23  41  63  88 124 164 205 249 305 367
#     4  10  23  42  62  92 125 161 205 254 305 372
#     4  11  20  36  63  95 126 153 201 260 312 366
#
# _framework density 20.970984999999999
#
# number of rings (size 3 to 8) (size 9 to 14) (size 15 to 20)
#    0.000    1.500    2.500    2.250    1.750    3.500 
#    2.250    1.250    0.000    0.000    0.000    0.000 
#    0.000    0.000    0.000    0.000    0.000    0.000 
#
# Total GULP energy -198435.224267 kJ/mol
# GULP energy per Si atom -12402.201517 kJ/mol
# Density = 2.092325 g / cm^3
# Si number density = 20.970985 Si / 1000 Ang^3
#
#
#
# Elastic Constant Matrix: (Units=GPa)
#
#
# Indices 1 2 3 4 5 6 
#
# 1 50.1715 25.5249 25.8724 6.3095 8.2332 -8.5228
# 2 25.5249 115.8270 38.4843 -0.0436 1.6197 0.9774
# 3 25.8724 38.4843 109.4093 -1.9223 5.0340 -2.3459
# 4 6.3095 -0.0436 -1.9223 35.8292 -6.1240 1.6333
# 5 8.2332 1.6197 5.0340 -6.1240 23.3544 2.8112
# 6 -8.5228 0.9774 -2.3459 1.6333 2.8112 28.8644
#
#
#
# Elastic Compliance Matrix: (Units=1/GPa)
#
#
# Indices 1 2 3 4 5 6 
#
# 1 0.029596 -0.004900 -0.004626 -0.008057 -0.012437 0.010196
# 2 -0.004900 0.010599 -0.002697 0.001207 0.002168 -0.002304
# 3 -0.004626 -0.002697 0.011206 0.001401 -0.000179 -0.000426
# 4 -0.008057 0.001207 0.001401 0.031585 0.011363 -0.005200
# 5 -0.012437 0.002168 -0.000179 0.011363 0.051201 -0.009390
# 6 0.010196 -0.002304 -0.000426 -0.005200 -0.009390 0.038907
#
#
# Mechanical properties :
#
#
# Convention : Reuss Voigt Hill
#
# Bulk Modulus (GPa) = 37.09908 50.57456 43.83682
# Shear Modulus (GPa) = 24.20993 29.97801 27.09397
#
# Velocity S-wave (km/s) = 3.40140 3.78497 3.59830
# Velocity P-wave (km/s) = 5.75805 6.57801 6.18164
#
# Compressibility (1/GPa) = 0.02695485
#
# Stress axis : x y z
#
# Youngs Moduli (GPa) = 33.78817 94.34596 89.23481
#
# Poissons Ratio (x) = 0.46233 0.41278
# Poissons Ratio (y) = 0.16557 0.24070
# Poissons Ratio (z) = 0.15629 0.25449
#
# Static dielectric constant tensor:
#      x y z
#    x 3.690050 -0.047990 -0.155960 
#    y -0.047990 3.887780 -0.020920 
#    z -0.155960 -0.020920 3.990210 
# 
# 
# High freq. dielectric constant tensor:
#      x y z
#    x 1.812380 -0.008250 0.001580 
#    y -0.008250 1.823470 0.001710 
#    z 0.001580 0.001710 1.822460 
# 
# From -- ./inp_files/271709.got.cif
#   From: 2010.06.25/outbox.cif.g09.slc.cpg/sg2_136_cif.got.tgz:271709.got - 2010.06.27 13:26:56.
