data_PCOD8018624
_publ_section_title
;
Structure prediction by ZEFSAII (Michael W. Deem and Ramdas Pophale) SiO2 
 PCOD8018624
Probable space group: P -1
;
_chemical_formula_sum "Si O2"
_cell_formula_units_Z 16
_cell_length_a 12.273815
_cell_length_b 16.665165
_cell_length_c 5.293688
_cell_angle_alpha 97.209914
_cell_angle_beta 61.047944
_cell_angle_gamma 125.338100
_cell_volume 754.587615
_symmetry_space_group_name_H-M "P -1"
_symmetry_group_IT_number 2
_symmetry_cell_setting 'triclinic'
loop_
_space_group_symop_operation_xyz
x,y,z
-x,-y,-z
loop_
_atom_site_type_symbol
_atom_site_label
_atom_site_fract_x
_atom_site_fract_y
_atom_site_fract_z
Si Si1 0.983853 0.421532 0.683640
Si Si2 0.027826 0.286736 0.295883
Si Si3 0.079910 0.933561 0.634638
Si Si4 0.362714 0.389908 0.193363
Si Si5 0.199960 0.056703 0.045978
Si Si6 0.216346 0.433126 0.757426
Si Si7 0.496780 0.270539 0.875564
Si Si8 0.680967 0.365150 0.186317
O O1 0.000000 0.500000 0.500000
O O2 0.932929 0.316607 0.571056
O O3 0.155397 0.471815 0.623642
O O4 0.854893 0.395915 0.026891
O O5 0.208052 0.348135 0.194428
O O6 0.934119 0.167848 0.361319
O O7 0.055054 0.333177 0.003860
O O8 0.910240 0.907541 0.824800
O O9 0.156812 0.981950 0.297897
O O10 0.185530 0.004655 0.775583
O O11 0.323685 0.400425 0.530651
O O12 0.500000 0.500000 0.000000
O O13 0.401054 0.311705 0.086769
O O14 0.376586 0.151550 0.919246
O O15 0.315071 0.536279 0.853763
O O16 0.588888 0.316533 0.529878
O O17 0.604884 0.290372 0.000693
#
# Coordination Sequence:
#
# PCOD8018624 Si02
#       8
#     2   2   2   2   2   2   2   2
#     4  11  24  43  63  93 134 175 233 269 308 378
#     4  11  24  39  66  97 129 177 213 278 317 386
#     4  10  22  40  68  95 127 167 217 269 331 377
#     4  11  23  38  57  97 140 168 205 255 332 406
#     4  10  22  42  65  95 130 165 213 275 324 398
#     4  11  24  38  65  92 134 175 217 270 316 386
#     4  12  25  41  67  94 135 174 211 266 336 402
#     4  12  25  41  64  93 131 182 216 256 326 390
#
# _framework density 21.203635999999999
#
# number of rings (size 3 to 8) (size 9 to 14) (size 15 to 20)
#    0.000    1.000    3.750    2.625    7.000    2.000 
#    0.000    0.000    0.000    4.500    0.000    0.000 
#    0.000    0.000    0.000    0.000    0.000    0.000 
#
# Total GULP energy -198305.560739 kJ/mol
# GULP energy per Si atom -12394.097546 kJ/mol
# Density = 2.115538 g / cm^3
# Si number density = 21.203636 Si / 1000 Ang^3
#
#
#
# Elastic Constant Matrix: (Units=GPa)
#
#
# Indices 1 2 3 4 5 6 
#
# 1 42.4603 13.9976 13.3888 -1.4390 1.9028 8.2238
# 2 13.9976 127.5884 38.3139 -6.0256 0.6955 0.6694
# 3 13.3888 38.3139 122.4426 9.0833 -2.5104 -2.5390
# 4 -1.4390 -6.0256 9.0833 33.1107 -2.4606 -0.3679
# 5 1.9028 0.6955 -2.5104 -2.4606 36.7956 4.0278
# 6 8.2238 0.6694 -2.5390 -0.3679 4.0278 32.2244
#
#
#
# Elastic Compliance Matrix: (Units=1/GPa)
#
#
# Indices 1 2 3 4 5 6 
#
# 1 0.026405 -0.002043 -0.002502 0.001337 -0.000664 -0.006795
# 2 -0.002043 0.009000 -0.002762 0.002300 -0.000116 0.000158
# 3 -0.002502 -0.002762 0.009579 -0.003189 0.000474 0.001355
# 4 0.001337 0.002300 -0.003189 0.031685 0.001844 -0.000509
# 5 -0.000664 -0.000116 0.000474 0.001844 0.027723 -0.003235
# 6 -0.006795 0.000158 0.001355 -0.000509 -0.003235 0.033268
#
#
# Mechanical properties :
#
#
# Convention : Reuss Voigt Hill
#
# Bulk Modulus (GPa) = 32.92775 47.09909 40.01342
# Shear Modulus (GPa) = 30.78841 35.54556 33.16698
#
# Velocity S-wave (km/s) = 3.81469 4.09882 3.95930
# Velocity P-wave (km/s) = 5.91316 6.68292 6.30979
#
# Compressibility (1/GPa) = 0.03036952
#
# Stress axis : x y z
#
# Youngs Moduli (GPa) = 37.87164 111.11302 104.39007
#
# Poissons Ratio (x) = 0.22703 0.26115
# Poissons Ratio (y) = 0.07738 0.28838
# Poissons Ratio (z) = 0.09474 0.30695
#
# Static dielectric constant tensor:
#      x y z
#    x 3.858860 0.085240 0.052350 
#    y 0.085240 3.954030 0.193270 
#    z 0.052350 0.193270 4.073580 
# 
# 
# High freq. dielectric constant tensor:
#      x y z
#    x 1.820540 0.006370 0.008430 
#    y 0.006370 1.826960 0.013260 
#    z 0.008430 0.013260 1.840190 
# 
# From -- ./inp_files/77795.got.cif
#   From: 2010.06.25/outbox.cif.g09.slc.cpg/sg2_39_cif.got.tgz:77795.got - 2010.06.27 13:26:56.
