data_PCOD8018977
_publ_section_title
;
Structure prediction by ZEFSAII (Michael W. Deem and Ramdas Pophale) SiO2 
 PCOD8018977
Probable space group: P -1
;
_chemical_formula_sum "Si O2"
_cell_formula_units_Z 16
_cell_length_a 12.231016
_cell_length_b 11.789267
_cell_length_c 9.321183
_cell_angle_alpha 120.626464
_cell_angle_beta 50.624464
_cell_angle_gamma 87.667222
_cell_volume 748.393944
_symmetry_space_group_name_H-M "P -1"
_symmetry_group_IT_number 2
_symmetry_cell_setting 'triclinic'
loop_
_space_group_symop_operation_xyz
x,y,z
-x,-y,-z
loop_
_atom_site_type_symbol
_atom_site_label
_atom_site_fract_x
_atom_site_fract_y
_atom_site_fract_z
Si Si1 0.655280 0.621773 0.907357
Si Si2 0.848673 0.612935 0.479813
Si Si3 0.146919 0.643162 0.219084
Si Si4 0.723080 0.151135 0.685096
Si Si5 0.318654 0.115796 0.393252
Si Si6 0.979750 0.335396 0.970080
Si Si7 0.106087 0.047880 0.857104
Si Si8 0.618155 0.930026 0.221592
O O1 0.787875 0.547852 0.615564
O O2 0.691167 0.495185 0.918983
O O3 0.466392 0.694607 0.054896
O O4 0.683317 0.748914 0.036614
O O5 0.688251 0.785518 0.676189
O O6 0.925133 0.491303 0.205063
O O7 0.988499 0.651040 0.433075
O O8 0.148243 0.802053 0.335884
O O9 0.143465 0.615961 0.033910
O O10 0.731462 0.011703 0.682466
O O11 0.767958 0.088586 0.445220
O O12 0.507750 0.030424 0.241182
O O13 0.177506 0.245327 0.703981
O O14 0.969251 0.211642 0.998679
O O15 0.217073 0.065860 0.895416
O O16 0.000000 0.000000 0.000000
O O17 0.500000 0.000000 0.500000
#
# Coordination Sequence:
#
# PCOD8018977 Si02
#       8
#     2   2   2   2   2   2   2   2
#     4  11  24  41  63  96 124 162 209 253 307 366
#     4  11  24  38  66  96 125 157 211 262 294 364
#     4  11  23  40  65  90 129 169 199 251 312 369
#     4  10  23  41  62  88 128 169 200 251 315 365
#     4   9  20  40  65  90 122 165 209 250 300 372
#     4  10  22  41  63  93 122 166 207 250 307 365
#     4  11  24  40  64  92 126 156 211 260 301 368
#     4  11  20  40  67  87 118 166 206 246 309 364
#
# _framework density 21.379116
#
# number of rings (size 3 to 8) (size 9 to 14) (size 15 to 20)
#    0.000    1.500    3.750    3.000    5.250    6.500 
#    2.250    0.625    0.000    0.000    0.000    0.000 
#    0.000    0.000    0.000    0.000    0.000    0.000 
#
# Total GULP energy -198307.146234 kJ/mol
# GULP energy per Si atom -12394.196640 kJ/mol
# Density = 2.133046 g / cm^3
# Si number density = 21.379116 Si / 1000 Ang^3
#
#
#
# Elastic Constant Matrix: (Units=GPa)
#
#
# Indices 1 2 3 4 5 6 
#
# 1 102.5948 52.8528 26.9233 4.4175 7.2113 12.4707
# 2 52.8528 132.8055 24.8280 5.3091 -4.7238 -8.3976
# 3 26.9233 24.8280 59.9188 8.3724 5.9207 5.1154
# 4 4.4175 5.3091 8.3724 27.4860 5.6453 -3.6629
# 5 7.2113 -4.7238 5.9207 5.6453 22.4024 4.9398
# 6 12.4707 -8.3976 5.1154 -3.6629 4.9398 38.5082
#
#
#
# Elastic Compliance Matrix: (Units=1/GPa)
#
#
# Indices 1 2 3 4 5 6 
#
# 1 0.014340 -0.005524 -0.003346 -0.000098 -0.003785 -0.004928
# 2 -0.005524 0.010619 -0.002547 -0.000697 0.004015 0.003862
# 3 -0.003346 -0.002547 0.020427 -0.004846 -0.003143 -0.002243
# 4 -0.000098 -0.000697 -0.004846 0.040914 -0.010413 0.005751
# 5 -0.003785 0.004015 -0.003143 -0.010413 0.051271 -0.005049
# 6 -0.004928 0.003862 -0.002243 0.005751 -0.005049 0.029899
#
#
# Mechanical properties :
#
#
# Convention : Reuss Voigt Hill
#
# Bulk Modulus (GPa) = 44.34092 56.05860 50.19976
# Shear Modulus (GPa) = 25.27526 30.39364 27.83445
#
# Velocity S-wave (km/s) = 3.44210 3.77457 3.61216
# Velocity P-wave (km/s) = 6.04837 6.72864 6.39755
#
# Compressibility (1/GPa) = 0.02255253
#
# Stress axis : x y z
#
# Youngs Moduli (GPa) = 69.73482 94.16987 48.95380
#
# Poissons Ratio (x) = 0.52016 0.16381
# Poissons Ratio (y) = 0.38519 0.12469
# Poissons Ratio (z) = 0.23335 0.23986
#
# Static dielectric constant tensor:
#      x y z
#    x 4.650260 -0.466130 0.020110 
#    y -0.466130 4.501180 -0.263250 
#    z 0.020110 -0.263250 4.442000 
# 
# 
# High freq. dielectric constant tensor:
#      x y z
#    x 1.832360 -0.006200 0.000140 
#    y -0.006200 1.850050 0.011840 
#    z 0.000140 0.011840 1.823120 
# 
# From -- ./inp_files/262922.got.cif
#   From: 2010.06.25/outbox.cif.g09.slc.cpg/sg2_132_cif.got.tgz:262922.got - 2010.06.27 13:26:56.
