data_PCOD8018721
_publ_section_title
;
Structure prediction by ZEFSAII (Michael W. Deem and Ramdas Pophale) SiO2 
 PCOD8018721
Probable space group: P -1
;
_chemical_formula_sum "Si O2"
_cell_formula_units_Z 16
_cell_length_a 5.452795
_cell_length_b 9.863148
_cell_length_c 14.603917
_cell_angle_alpha 79.355509
_cell_angle_beta 64.653093
_cell_angle_gamma 99.918067
_cell_volume 669.089925
_symmetry_space_group_name_H-M "P -1"
_symmetry_group_IT_number 2
_symmetry_cell_setting 'triclinic'
loop_
_space_group_symop_operation_xyz
x,y,z
-x,-y,-z
loop_
_atom_site_type_symbol
_atom_site_label
_atom_site_fract_x
_atom_site_fract_y
_atom_site_fract_z
Si Si1 0.671511 0.157385 0.979719
Si Si2 0.492492 0.408110 0.924967
Si Si3 0.116768 0.187163 0.363249
Si Si4 0.158527 0.135471 0.558944
Si Si5 0.655688 0.163577 0.192326
Si Si6 0.932864 0.402911 0.258346
Si Si7 0.521655 0.153138 0.672816
Si Si8 0.770136 0.656306 0.204363
O O1 0.759594 0.167869 0.071038
O O2 0.450404 0.247280 0.986936
O O3 0.934380 0.216365 0.860256
O O4 0.500000 0.000000 0.000000
O O5 0.251677 0.403892 0.889356
O O6 0.783243 0.472390 0.818348
O O7 0.500000 0.500000 0.000000
O O8 0.279110 0.210925 0.433153
O O9 0.343516 0.187734 0.247231
O O10 0.961782 0.311319 0.355362
O O11 0.877789 0.034692 0.423861
O O12 0.390011 0.194639 0.593498
O O13 0.856216 0.169057 0.617842
O O14 0.868449 0.292386 0.197328
O O15 0.652380 0.009515 0.254363
O O16 0.730185 0.509062 0.289544
O O17 0.471865 0.268510 0.739470
#
# Coordination Sequence:
#
# PCOD8018721 Si02
#       8
#     2   2   2   2   2   2   2   2
#     4  11  25  40  65  98 135 177 224 277 339 411
#     4  11  23  41  63  91 134 179 230 281 333 403
#     4  10  22  40  70 100 135 168 232 289 344 400
#     4  10  24  43  72 104 134 178 229 294 344 408
#     4  11  23  40  69  99 132 177 231 285 341 406
#     4  11  22  40  66  94 133 176 229 275 347 401
#     4  11  25  44  71 101 142 178 229 283 356 404
#     4  11  26  42  64  96 143 182 222 280 342 415
#
# _framework density 23.913077000000001
#
# number of rings (size 3 to 8) (size 9 to 14) (size 15 to 20)
#    0.000    1.250    1.250    3.750    8.750    6.500 
#    0.000    1.250    0.000    0.000    0.000    0.000 
#    0.000    0.000    0.000    0.000    0.000    0.000 
#
# Total GULP energy -198270.441012 kJ/mol
# GULP energy per Si atom -12391.902563 kJ/mol
# Density = 2.385865 g / cm^3
# Si number density = 23.913077 Si / 1000 Ang^3
#
#
#
# Elastic Constant Matrix: (Units=GPa)
#
#
# Indices 1 2 3 4 5 6 
#
# 1 85.0023 41.0304 14.1976 -6.0733 23.2684 -16.8298
# 2 41.0304 158.7168 34.9904 -13.6581 11.6981 -26.5667
# 3 14.1976 34.9904 73.2497 -3.1005 19.3728 -15.5893
# 4 -6.0733 -13.6581 -3.1005 27.6319 -4.7343 4.6412
# 5 23.2684 11.6981 19.3728 -4.7343 34.0543 0.4350
# 6 -16.8298 -26.5667 -15.5893 4.6412 0.4350 45.0947
#
#
#
# Elastic Compliance Matrix: (Units=1/GPa)
#
#
# Indices 1 2 3 4 5 6 
#
# 1 0.017373 -0.003264 0.002654 -0.000574 -0.012411 0.005657
# 2 -0.003264 0.008365 -0.003153 0.002939 0.001530 0.002303
# 3 0.002654 -0.003153 0.018980 -0.001887 -0.011866 0.006003
# 4 -0.000574 0.002939 -0.001887 0.038851 0.005898 -0.003191
# 5 -0.012411 0.001530 -0.011866 0.005898 0.045003 -0.008874
# 6 0.005657 0.002303 0.006003 -0.003191 -0.008874 0.028133
#
#
# Mechanical properties :
#
#
# Convention : Reuss Voigt Hill
#
# Bulk Modulus (GPa) = 26.88800 55.26729 41.07764
# Shear Modulus (GPa) = 28.30790 36.47289 32.39040
#
# Velocity S-wave (km/s) = 3.44435 3.90965 3.68435
# Velocity P-wave (km/s) = 5.20447 6.59867 5.94260
#
# Compressibility (1/GPa) = 0.03719132
#
# Stress axis : x y z
#
# Youngs Moduli (GPa) = 57.56026 119.54476 52.68730
#
# Poissons Ratio (x) = 0.39019 -0.13983
# Poissons Ratio (y) = 0.18787 0.16614
# Poissons Ratio (z) = -0.15276 0.37697
#
# Static dielectric constant tensor:
#      x y z
#    x 4.458310 -0.209200 0.071200 
#    y -0.209200 4.346730 -0.078480 
#    z 0.071200 -0.078480 4.579300 
# 
# 
# High freq. dielectric constant tensor:
#      x y z
#    x 1.948960 -0.007820 0.014330 
#    y -0.007820 1.950170 -0.012890 
#    z 0.014330 -0.012890 1.935300 
# 
# From -- ./inp_files/37539.got.cif
#   From: 2010.06.25/outbox.cif.g09.slc.cpg/sg2_19_cif.got.tgz:37539.got - 2010.06.27 13:26:56.
