data_PCOD8018825
_publ_section_title
;
Structure prediction by ZEFSAII (Michael W. Deem and Ramdas Pophale) SiO2 
 PCOD8018825
Probable space group: P -1
;
_chemical_formula_sum "Si O2"
_cell_formula_units_Z 16
_cell_length_a 9.149359
_cell_length_b 10.842675
_cell_length_c 9.522788
_cell_angle_alpha 82.817978
_cell_angle_beta 58.475638
_cell_angle_gamma 64.332973
_cell_volume 719.459601
_symmetry_space_group_name_H-M "P -1"
_symmetry_group_IT_number 2
_symmetry_cell_setting 'triclinic'
loop_
_space_group_symop_operation_xyz
x,y,z
-x,-y,-z
loop_
_atom_site_type_symbol
_atom_site_label
_atom_site_fract_x
_atom_site_fract_y
_atom_site_fract_z
Si Si1 0.147520 0.018656 0.598692
Si Si2 0.691951 0.420535 0.000274
Si Si3 0.181513 0.272234 0.447254
Si Si4 0.232935 0.872168 0.090205
Si Si5 0.591106 0.043531 0.259494
Si Si6 0.367259 0.479651 0.686328
Si Si7 0.001876 0.487573 0.274917
Si Si8 0.570580 0.166810 0.718361
O O1 0.087433 0.167531 0.535088
O O2 0.964931 0.015254 0.762689
O O3 0.312672 0.995655 0.631536
O O4 0.227690 0.898762 0.457404
O O5 0.791759 0.262545 0.924243
O O6 0.841234 0.485285 0.894496
O O7 0.500000 0.500000 0.000000
O O8 0.632361 0.430660 0.191597
O O9 0.409448 0.190686 0.341080
O O10 0.121197 0.385419 0.582034
O O11 0.111474 0.345435 0.323330
O O12 0.396974 0.834912 0.130400
O O13 0.267443 0.944705 0.927349
O O14 0.541213 0.922640 0.248861
O O15 0.500000 0.500000 0.500000
O O16 0.147476 0.535220 0.745816
O O17 0.447133 0.320671 0.709260
#
# Coordination Sequence:
#
# PCOD8018825 Si02
#       8
#     2   2   2   2   2   2   2   2
#     4  11  23  45  70 103 137 181 237 293 347 423
#     4  12  26  48  72 104 149 188 235 299 357 425
#     4  10  22  40  75 100 139 182 237 284 366 409
#     4  12  25  44  70 104 141 184 234 291 358 421
#     4  11  24  46  71 103 136 189 234 295 352 423
#     4  12  29  47  75 110 143 187 241 298 358 426
#     4  11  24  45  73 105 143 191 241 290 357 431
#     4  11  25  46  71  98 145 183 233 286 358 424
#
# _framework density 22.238914000000001
#
# number of rings (size 3 to 8) (size 9 to 14) (size 15 to 20)
#    0.000    0.750    2.500    5.250    8.750    0.000 
#    0.000    0.000    0.000    0.000    0.000    0.000 
#    0.000    0.000    0.000    0.000    0.000    0.000 
#
# Total GULP energy -198497.752816 kJ/mol
# GULP energy per Si atom -12406.109551 kJ/mol
# Density = 2.218830 g / cm^3
# Si number density = 22.238914 Si / 1000 Ang^3
#
#
#
# Elastic Constant Matrix: (Units=GPa)
#
#
# Indices 1 2 3 4 5 6 
#
# 1 98.0433 18.1144 25.1851 -2.5772 7.6779 1.7344
# 2 18.1144 90.8244 15.0013 -0.5612 10.4866 -6.6234
# 3 25.1851 15.0013 109.6058 -0.5564 1.5624 10.5114
# 4 -2.5772 -0.5612 -0.5564 26.3885 -1.7533 -0.7726
# 5 7.6779 10.4866 1.5624 -1.7533 47.7340 0.7227
# 6 1.7344 -6.6234 10.5114 -0.7726 0.7227 19.0459
#
#
#
# Elastic Compliance Matrix: (Units=1/GPa)
#
#
# Indices 1 2 3 4 5 6 
#
# 1 0.011240 -0.001724 -0.002298 0.000917 -0.001316 -0.000268
# 2 -0.001724 0.012336 -0.001787 0.000055 -0.002456 0.005529
# 3 -0.002298 -0.001787 0.010485 -0.000190 0.000506 -0.006226
# 4 0.000917 0.000055 -0.000190 0.038108 0.001223 0.001540
# 5 -0.001316 -0.002456 0.000506 0.001223 0.021756 -0.001790
# 6 -0.000268 0.005529 -0.006226 0.001540 -0.001790 0.058018
#
#
# Mechanical properties :
#
#
# Convention : Reuss Voigt Hill
#
# Bulk Modulus (GPa) = 44.55610 46.11947 45.33778
# Shear Modulus (GPa) = 29.23223 34.64520 31.93871
#
# Velocity S-wave (km/s) = 3.62949 3.95126 3.79379
# Velocity P-wave (km/s) = 6.13538 6.44979 6.29455
#
# Compressibility (1/GPa) = 0.02244362
#
# Stress axis : x y z
#
# Youngs Moduli (GPa) = 88.96565 81.06061 95.37378
#
# Poissons Ratio (x) = 0.13977 0.21914
# Poissons Ratio (y) = 0.15340 0.17045
# Poissons Ratio (z) = 0.20441 0.14487
#
# Static dielectric constant tensor:
#      x y z
#    x 3.972260 -0.078180 0.089400 
#    y -0.078180 4.062210 0.019980 
#    z 0.089400 0.019980 4.243890 
# 
# 
# High freq. dielectric constant tensor:
#      x y z
#    x 1.878780 -0.006770 0.002790 
#    y -0.006770 1.879020 0.001360 
#    z 0.002790 0.001360 1.892120 
# 
# From -- ./inp_files/186498.got.cif
#   From: 2010.06.25/outbox.cif.g09.slc.cpg/sg2_94_cif.got.tgz:186498.got - 2010.06.27 13:26:56.
