data_PCOD8018915
_publ_section_title
;
Structure prediction by ZEFSAII (Michael W. Deem and Ramdas Pophale) SiO2 
 PCOD8018915
Probable space group: P -1
;
_chemical_formula_sum "Si O2"
_cell_formula_units_Z 14
_cell_length_a 15.690285
_cell_length_b 15.216284
_cell_length_c 9.867950
_cell_angle_alpha 139.512838
_cell_angle_beta 36.068911
_cell_angle_gamma 152.617963
_cell_volume 629.928726
_symmetry_space_group_name_H-M "P -1"
_symmetry_group_IT_number 2
_symmetry_cell_setting 'triclinic'
loop_
_space_group_symop_operation_xyz
x,y,z
-x,-y,-z
loop_
_atom_site_type_symbol
_atom_site_label
_atom_site_fract_x
_atom_site_fract_y
_atom_site_fract_z
Si Si1 0.529382 0.883091 0.403580
Si Si2 0.957726 0.190317 0.120583
Si Si3 0.510365 0.418438 0.521380
Si Si4 0.044242 0.347954 0.708599
Si Si5 0.067880 0.021489 0.592621
Si Si6 0.593958 0.478233 0.973914
Si Si7 0.848587 0.327612 0.193421
O O1 0.455435 0.712169 0.201777
O O2 0.395545 0.797342 0.614439
O O3 0.500000 0.000000 0.500000
O O4 0.777562 0.041271 0.288754
O O5 0.930695 0.306572 0.197647
O O6 0.159681 0.340326 0.127150
O O7 0.959338 0.063335 0.870044
O O8 0.500000 0.500000 0.500000
O O9 0.724284 0.478493 0.323279
O O10 0.314339 0.187258 0.498528
O O11 0.506993 0.528562 0.771137
O O12 0.023328 0.446817 0.732698
O O13 0.011178 0.177663 0.489735
O O14 0.877471 0.257669 0.938395
O O15 0.000000 0.000000 0.500000
O O16 0.500000 0.500000 0.000000
#
# Coordination Sequence:
#
# PCOD8018915 Si02
#       7
#     2   2   2   2   2   2   2
#     4  10  23  41  64  92 130 176 220 261 320 401
#     4  10  22  43  66  95 127 173 222 270 330 393
#     4  11  22  38  68 101 127 169 221 272 336 388
#     4  11  21  40  64  94 138 164 213 284 322 389
#     4  11  20  38  69  98 124 167 223 272 331 386
#     4  11  24  43  66  98 134 169 219 276 335 390
#     4  10  22  41  62  93 134 174 216 266 330 392
#
# _framework density 22.224737000000001
#
# number of rings (size 3 to 8) (size 9 to 14) (size 15 to 20)
#    0.000    1.429    2.857    2.571    0.000    2.857 
#    0.000   14.286    0.000    0.000    0.000    0.000 
#    0.000    0.000    0.000    0.000    0.000    0.000 
#
# Total GULP energy -173526.464416 kJ/mol
# GULP energy per Si atom -12394.747458 kJ/mol
# Density = 2.217415 g / cm^3
# Si number density = 22.224737 Si / 1000 Ang^3
#
#
#
# Elastic Constant Matrix: (Units=GPa)
#
#
# Indices 1 2 3 4 5 6 
#
# 1 97.1107 61.0943 58.4071 5.8980 -0.0178 -1.4072
# 2 61.0943 141.1936 75.9637 -7.0622 -7.2203 0.5038
# 3 58.4071 75.9637 110.0657 -6.5216 -6.7644 0.0358
# 4 5.8980 -7.0622 -6.5216 55.9459 -12.2962 -8.9621
# 5 -0.0178 -7.2203 -6.7644 -12.2962 26.1792 -0.4947
# 6 -1.4072 0.5038 0.0358 -8.9621 -0.4947 37.9932
#
#
#
# Elastic Compliance Matrix: (Units=1/GPa)
#
#
# Indices 1 2 3 4 5 6 
#
# 1 0.017358 -0.004330 -0.006784 -0.004320 -0.004972 -0.000377
# 2 -0.004330 0.012416 -0.005982 0.001972 0.002805 0.000182
# 3 -0.006784 -0.005982 0.017250 0.002990 0.004218 0.000572
# 4 -0.004320 0.001972 0.002990 0.022390 0.011929 0.005248
# 5 -0.004972 0.002805 0.004218 0.011929 0.045722 0.003184
# 6 -0.000377 0.000182 0.000572 0.005248 0.003184 0.027583
#
#
# Mechanical properties :
#
#
# Convention : Reuss Voigt Hill
#
# Bulk Modulus (GPa) = 77.93112 82.14443 80.03778
# Shear Modulus (GPa) = 27.59559 34.21732 30.90645
#
# Velocity S-wave (km/s) = 3.52754 3.92804 3.73316
# Velocity P-wave (km/s) = 7.19254 7.59037 7.39413
#
# Compressibility (1/GPa) = 0.01283184
#
# Stress axis : x y z
#
# Youngs Moduli (GPa) = 57.61083 80.54190 57.96936
#
# Poissons Ratio (x) = 0.34872 0.39328
# Poissons Ratio (y) = 0.24944 0.34679
# Poissons Ratio (z) = 0.39085 0.48182
#
# Static dielectric constant tensor:
#      x y z
#    x 3.726800 -0.212570 -0.286990 
#    y -0.212570 4.309920 -0.451340 
#    z -0.286990 -0.451340 4.489360 
# 
# 
# High freq. dielectric constant tensor:
#      x y z
#    x 1.861640 -0.012150 -0.017390 
#    y -0.012150 1.884750 -0.011640 
#    z -0.017390 -0.011640 1.886380 
# 
# From -- ./inp_files/316052.got.cif
#   From: 2010.06.25/outbox.cif.g09.slc.cpg/sg2_159_cif.got.tgz:316052.got - 2010.06.27 13:26:56.
