data_PCOD8018535
_publ_section_title
;
Structure prediction by ZEFSAII (Michael W. Deem and Ramdas Pophale) SiO2 
 PCOD8018535
Probable space group: P -1
;
_chemical_formula_sum "Si O2"
_cell_formula_units_Z 14
_cell_length_a 18.644509
_cell_length_b 9.000877
_cell_length_c 10.218278
_cell_angle_alpha 102.317348
_cell_angle_beta 146.973508
_cell_angle_gamma 100.435022
_cell_volume 672.832065
_symmetry_space_group_name_H-M "P -1"
_symmetry_group_IT_number 2
_symmetry_cell_setting 'triclinic'
loop_
_space_group_symop_operation_xyz
x,y,z
-x,-y,-z
loop_
_atom_site_type_symbol
_atom_site_label
_atom_site_fract_x
_atom_site_fract_y
_atom_site_fract_z
Si Si1 0.921080 0.074814 0.259377
Si Si2 0.325572 0.930732 0.286786
Si Si3 0.530049 0.376708 0.732488
Si Si4 0.598432 0.446479 0.315334
Si Si5 0.160790 0.567219 0.168686
Si Si6 0.267878 0.320662 0.687041
Si Si7 0.161183 0.317876 0.916038
O O1 0.071713 0.129614 0.400724
O O2 0.997898 0.188929 0.537629
O O3 0.791843 0.825339 0.020622
O O4 0.816858 0.139001 0.056659
O O5 0.228293 0.749159 0.208553
O O6 0.500000 0.000000 0.500000
O O7 0.387711 0.132975 0.490015
O O8 0.422295 0.453552 0.573997
O O9 0.655103 0.477381 0.072226
O O10 0.660540 0.459069 0.822976
O O11 0.674077 0.346846 0.466006
O O12 0.739399 0.634186 0.466091
O O13 0.404277 0.283002 0.913830
O O14 0.100126 0.367967 0.958623
O O15 0.000000 0.500000 0.000000
#
# Coordination Sequence:
#
# PCOD8018535 Si02
#       7
#     2   2   2   2   2   2   2
#     4  10  22  40  67  92 119 158 218 264 293 366
#     4  12  25  39  61  93 129 164 202 244 325 374
#     4   9  19  40  65  90 115 162 216 252 296 362
#     4   9  19  39  69  84 124 159 211 253 303 365
#     4  12  26  41  58  96 136 165 195 255 319 376
#     4   8  18  40  67  91 112 159 213 256 303 347
#     4  10  22  42  65  92 117 163 217 258 303 351
#
# _framework density 20.807569999999998
#
# number of rings (size 3 to 8) (size 9 to 14) (size 15 to 20)
#    0.857    1.143    1.429    1.714    2.000    2.857 
#    2.571    3.571    0.000    0.000    0.000    0.000 
#    0.000    0.000    0.000    0.000    0.000    0.000 
#
# Total GULP energy -173448.426719 kJ/mol
# GULP energy per Si atom -12389.173337 kJ/mol
# Density = 2.076021 g / cm^3
# Si number density = 20.807570 Si / 1000 Ang^3
#
#
#
# Elastic Constant Matrix: (Units=GPa)
#
#
# Indices 1 2 3 4 5 6 
#
# 1 113.6531 30.0227 27.2978 -9.5767 19.0182 3.7727
# 2 30.0227 122.4054 48.7521 -23.5105 6.2703 9.3255
# 3 27.2978 48.7521 67.4426 -14.4551 15.8373 4.6332
# 4 -9.5767 -23.5105 -14.4551 41.7665 -2.2433 -2.5415
# 5 19.0182 6.2703 15.8373 -2.2433 26.4952 0.1368
# 6 3.7727 9.3255 4.6332 -2.5415 0.1368 28.0041
#
#
#
# Elastic Compliance Matrix: (Units=1/GPa)
#
#
# Indices 1 2 3 4 5 6 
#
# 1 0.010710 -0.001496 -0.001579 0.000691 -0.006328 -0.000590
# 2 -0.001496 0.012595 -0.008300 0.003918 0.003398 -0.002280
# 3 -0.001579 -0.008300 0.024845 0.002897 -0.011504 -0.000815
# 4 0.000691 0.003918 0.002897 0.027300 -0.000847 0.000605
# 5 -0.006328 0.003398 -0.011504 -0.000847 0.048279 0.001312
# 6 -0.000590 -0.002280 -0.000815 0.000605 0.001312 0.036731
#
#
# Mechanical properties :
#
#
# Convention : Reuss Voigt Hill
#
# Bulk Modulus (GPa) = 39.37191 57.29405 48.33298
# Shear Modulus (GPa) = 26.08577 32.41505 29.25041
#
# Velocity S-wave (km/s) = 3.54456 3.95124 3.75341
# Velocity P-wave (km/s) = 5.97619 6.95783 6.48561
#
# Compressibility (1/GPa) = 0.02539882
#
# Stress axis : x y z
#
# Youngs Moduli (GPa) = 93.37182 79.39974 40.25018
#
# Poissons Ratio (x) = 0.11880 0.06354
# Poissons Ratio (y) = 0.13971 0.33409
# Poissons Ratio (z) = 0.14740 0.65904
#
# Static dielectric constant tensor:
#      x y z
#    x 3.768550 0.056950 0.072390 
#    y 0.056950 3.693880 -0.069710 
#    z 0.072390 -0.069710 3.663820 
# 
# 
# High freq. dielectric constant tensor:
#      x y z
#    x 1.814830 0.013650 0.006530 
#    y 0.013650 1.796650 -0.009730 
#    z 0.006530 -0.009730 1.808280 
# 
# From -- ./inp_files/468981.got.cif
#   From: 2010.06.25/outbox.cif.g09.slc.cpg/sg2_235_cif.got.tgz:468981.got - 2010.06.27 13:26:56.
