data_PCOD8018566
_publ_section_title
;
Structure prediction by ZEFSAII (Michael W. Deem and Ramdas Pophale) SiO2 
 PCOD8018566
Probable space group: P -1
;
_chemical_formula_sum "Si O2"
_cell_formula_units_Z 14
_cell_length_a 5.365226
_cell_length_b 11.393292
_cell_length_c 15.458274
_cell_angle_alpha 120.130726
_cell_angle_beta 49.831069
_cell_angle_gamma 97.203936
_cell_volume 595.696651
_symmetry_space_group_name_H-M "P -1"
_symmetry_group_IT_number 2
_symmetry_cell_setting 'triclinic'
loop_
_space_group_symop_operation_xyz
x,y,z
-x,-y,-z
loop_
_atom_site_type_symbol
_atom_site_label
_atom_site_fract_x
_atom_site_fract_y
_atom_site_fract_z
Si Si1 0.879295 0.889644 0.739992
Si Si2 0.263112 0.800206 0.061073
Si Si3 0.228244 0.923006 0.500481
Si Si4 0.261810 0.322353 0.793839
Si Si5 0.264762 0.399933 0.010099
Si Si6 0.789254 0.380962 0.343620
Si Si7 0.522300 0.308355 0.203871
O O1 0.547624 0.832946 0.792617
O O2 0.972176 0.916246 0.631548
O O3 0.190829 0.772252 0.674842
O O4 0.791485 0.032904 0.869067
O O5 0.653501 0.715838 0.972821
O O6 0.022098 0.762383 0.173853
O O7 0.210564 0.741101 0.954891
O O8 0.428684 0.760976 0.367758
O O9 0.500000 0.000000 0.500000
O O10 0.000000 0.000000 0.500000
O O11 0.372364 0.314414 0.865542
O O12 0.123821 0.489649 0.858168
O O13 0.500000 0.500000 0.000000
O O14 0.500000 0.500000 0.500000
O O15 0.689503 0.384369 0.266098
O O16 0.156002 0.411171 0.287481
#
# Coordination Sequence:
#
# PCOD8018566 Si02
#       7
#     2   2   2   2   2   2   2
#     4  10  25  42  70  95 137 172 224 275 335 393
#     4  11  21  42  67 100 134 170 226 278 336 401
#     4  12  26  44  69 101 133 181 221 274 335 397
#     4  10  22  40  67  95 137 176 224 278 333 396
#     4   9  21  40  62  96 132 174 221 279 330 389
#     4  10  24  47  66  98 136 175 226 267 332 400
#     4  10  25  42  71  99 129 176 219 278 336 388
#
# _framework density 23.501897
#
# number of rings (size 3 to 8) (size 9 to 14) (size 15 to 20)
#    0.857    0.857    1.429    1.714    6.000    2.857 
#    5.143    0.000    0.000    0.000    0.000    0.000 
#    0.000    0.000    0.000    0.000    0.000    0.000 
#
# Total GULP energy -173501.064039 kJ/mol
# GULP energy per Si atom -12392.933146 kJ/mol
# Density = 2.344841 g / cm^3
# Si number density = 23.501897 Si / 1000 Ang^3
#
#
#
# Elastic Constant Matrix: (Units=GPa)
#
#
# Indices 1 2 3 4 5 6 
#
# 1 127.5298 18.6060 32.3909 12.4953 18.1571 -25.7266
# 2 18.6060 82.7088 36.7398 19.7440 2.5431 -22.9595
# 3 32.3909 36.7398 137.0632 16.1626 15.8627 -18.0869
# 4 12.4953 19.7440 16.1626 49.2739 3.1727 -1.0377
# 5 18.1571 2.5431 15.8627 3.1727 34.1122 -5.8520
# 6 -25.7266 -22.9595 -18.0869 -1.0377 -5.8520 33.7097
#
#
#
# Elastic Compliance Matrix: (Units=1/GPa)
#
#
# Indices 1 2 3 4 5 6 
#
# 1 0.010120 0.000734 -0.000996 -0.002156 -0.003576 0.007002
# 2 0.000734 0.017800 -0.002973 -0.006246 0.002180 0.011275
# 3 -0.000996 -0.002973 0.009032 -0.001290 -0.003073 0.001488
# 4 -0.002156 -0.006246 -0.001290 0.023706 -0.001028 -0.006041
# 5 -0.003576 0.002180 -0.003073 -0.001028 0.033064 0.002814
# 6 0.007002 0.011275 0.001488 -0.006041 0.002814 0.043789
#
#
# Mechanical properties :
#
#
# Convention : Reuss Voigt Hill
#
# Bulk Modulus (GPa) = 32.80522 58.08613 45.44568
# Shear Modulus (GPa) = 32.43770 40.72349 36.58060
#
# Velocity S-wave (km/s) = 3.71916 4.16718 3.94952
# Velocity P-wave (km/s) = 5.69488 6.92264 6.33856
#
# Compressibility (1/GPa) = 0.03048295
#
# Stress axis : x y z
#
# Youngs Moduli (GPa) = 98.81281 56.18025 110.71414
#
# Poissons Ratio (x) = -0.04125 0.11031
# Poissons Ratio (y) = -0.07255 0.32911
# Poissons Ratio (z) = 0.09845 0.16700
#
# Static dielectric constant tensor:
#      x y z
#    x 15.977120 0.560400 -7.218590 
#    y 0.560400 4.299360 -0.297330 
#    z -7.218590 -0.297330 8.568780 
# 
# 
# High freq. dielectric constant tensor:
#      x y z
#    x 1.933590 -0.002670 0.007440 
#    y -0.002670 1.925570 0.003310 
#    z 0.007440 0.003310 1.930180 
# 
# From -- ./inp_files/482870.got.cif
#   From: 2010.06.25/outbox.cif.g09.slc.cpg/sg2_242_cif.got.tgz:482870.got - 2010.06.27 13:26:56.
