data_PCOD8018975
_publ_section_title
;
Structure prediction by ZEFSAII (Michael W. Deem and Ramdas Pophale) SiO2 
 PCOD8018975
Probable space group: P -1
;
_chemical_formula_sum "Si O2"
_cell_formula_units_Z 16
_cell_length_a 29.060234
_cell_length_b 5.196054
_cell_length_c 9.310286
_cell_angle_alpha 74.194129
_cell_angle_beta 32.005030
_cell_angle_gamma 71.043141
_cell_volume 704.661789
_symmetry_space_group_name_H-M "P -1"
_symmetry_group_IT_number 2
_symmetry_cell_setting 'triclinic'
loop_
_space_group_symop_operation_xyz
x,y,z
-x,-y,-z
loop_
_atom_site_type_symbol
_atom_site_label
_atom_site_fract_x
_atom_site_fract_y
_atom_site_fract_z
Si Si1 0.285169 0.483662 0.893024
Si Si2 0.585867 0.875951 0.880549
Si Si3 0.980951 0.818817 0.289577
Si Si4 0.077634 0.249576 0.839002
Si Si5 0.448328 0.254922 0.683787
Si Si6 0.681906 0.371223 0.527132
Si Si7 0.822137 0.930516 0.879266
Si Si8 0.152324 0.421010 0.872873
O O1 0.352172 0.353836 0.857211
O O2 0.336755 0.529675 0.602865
O O3 0.218001 0.280127 0.079598
O O4 0.229944 0.766933 0.053682
O O5 0.625079 0.586668 0.751187
O O6 0.656998 0.075777 0.657739
O O7 0.559078 0.833266 0.120036
O O8 0.500000 0.000000 0.000000
O O9 0.906149 0.834390 0.357775
O O10 0.925059 0.905290 0.567590
O O11 0.049277 0.533115 0.170313
O O12 0.047376 0.018136 0.048592
O O13 0.159312 0.337162 0.697160
O O14 0.000000 0.500000 0.000000
O O15 0.500000 0.500000 0.500000
O O16 0.500000 0.000000 0.500000
O O17 0.785341 0.357738 0.295216
O O18 0.815376 0.849300 0.076317
#
# Coordination Sequence:
#
# PCOD8018975 Si02
#       8
#     2   2   2   2   2   2   2   2
#     4  11  25  46  64 102 137 181 216 283 345 394
#     4  12  25  45  73 107 130 177 221 268 335 410
#     4  10  22  41  63  92 130 184 232 284 338 398
#     4   9  21  40  59  89 127 173 234 273 354 384
#     4  12  25  47  75 102 138 176 217 272 339 410
#     4  11  24  44  68  99 140 171 223 280 329 399
#     4  11  25  41  67  95 136 173 234 281 334 398
#     4  10  23  40  66  94 129 181 229 283 341 388
#
# _framework density 22.705929000000001
#
# number of rings (size 3 to 8) (size 9 to 14) (size 15 to 20)
#    0.000    1.250    0.000    5.250    8.750    1.500 
#    9.000    0.000    0.000    0.000    0.000    0.000 
#    0.000    0.000    0.000    0.000    0.000    0.000 
#
# Total GULP energy -198365.779916 kJ/mol
# GULP energy per Si atom -12397.861245 kJ/mol
# Density = 2.265425 g / cm^3
# Si number density = 22.705929 Si / 1000 Ang^3
#
#
#
# Elastic Constant Matrix: (Units=GPa)
#
#
# Indices 1 2 3 4 5 6 
#
# 1 88.1089 27.1744 57.5610 -53.8912 -1.0261 -37.1362
# 2 27.1744 115.2211 23.5240 4.3616 -1.6709 -1.2986
# 3 57.5610 23.5240 91.5823 18.5510 10.3632 1.4557
# 4 -53.8912 4.3616 18.5510 3.5237 -0.9328 -18.3657
# 5 -1.0261 -1.6709 10.3632 -0.9328 29.7679 5.4642
# 6 -37.1362 -1.2986 1.4557 -18.3657 5.4642 26.5173
#
#
#
# Elastic Compliance Matrix: (Units=1/GPa)
#
#
# Indices 1 2 3 4 5 6 
#
# 1 0.001587 -0.000295 0.001349 -0.010907 0.000231 -0.005468
# 2 -0.000295 0.009258 -0.002556 0.001011 0.001319 0.000609
# 3 0.001349 -0.002556 0.009770 0.006733 -0.004540 0.006826
# 4 -0.010907 0.001011 0.006733 0.000430 0.000164 -0.015330
# 5 0.000231 0.001319 -0.004540 0.000164 0.036504 -0.006772
# 6 -0.005468 0.000609 0.006826 -0.015330 -0.006772 0.020487
#
#
# Mechanical properties :
#
#
# Convention : Reuss Voigt Hill
#
# Bulk Modulus (GPa) = 56.78981 56.82568 56.80775
# Shear Modulus (GPa) = 57.53028 24.40532 40.96780
#
# Velocity S-wave (km/s) = 5.03906 3.28204 4.25229
# Velocity P-wave (km/s) = 7.67603 6.28041 7.01302
#
# Compressibility (1/GPa) = 0.01760879
#
# Stress axis : x y z
#
# Youngs Moduli (GPa) = 630.26586 108.01251 102.35925
#
# Poissons Ratio (x) = 0.03186 -0.13804
# Poissons Ratio (y) = 0.18590 0.26167
# Poissons Ratio (z) = -0.84999 0.27613
#
# Static dielectric constant tensor:
#      x y z
#    x 4.795300 0.080040 0.009550 
#    y 0.080040 4.051140 -0.084380 
#    z 0.009550 -0.084380 3.884790 
# 
# 
# High freq. dielectric constant tensor:
#      x y z
#    x 1.911270 0.004360 0.001740 
#    y 0.004360 1.909250 -0.000140 
#    z 0.001740 -0.000140 1.879870 
# 
# From -- ./inp_files/358200.got.cif
#   From: 2010.06.25/outbox.cif.g09.slc.cpg/sg2_180_cif.got.tgz:358200.got - 2010.06.27 13:26:56.
