data_PCOD8018999
_publ_section_title
;
Structure prediction by ZEFSAII (Michael W. Deem and Ramdas Pophale) SiO2 
 PCOD8018999
Probable space group: P -1
;
_chemical_formula_sum "Si O2"
_cell_formula_units_Z 14
_cell_length_a 9.159569
_cell_length_b 8.842550
_cell_length_c 12.499382
_cell_angle_alpha 46.184798
_cell_angle_beta 64.374914
_cell_angle_gamma 82.467588
_cell_volume 636.227081
_symmetry_space_group_name_H-M "P -1"
_symmetry_group_IT_number 2
_symmetry_cell_setting 'triclinic'
loop_
_space_group_symop_operation_xyz
x,y,z
-x,-y,-z
loop_
_atom_site_type_symbol
_atom_site_label
_atom_site_fract_x
_atom_site_fract_y
_atom_site_fract_z
Si Si1 0.430717 0.791919 0.695522
Si Si2 0.885847 0.553172 0.101711
Si Si3 0.380952 0.620954 0.411812
Si Si4 0.864833 0.987355 0.960007
Si Si5 0.655757 0.490834 0.762420
Si Si6 0.004373 0.455285 0.689654
Si Si7 0.418113 0.924056 0.865310
O O1 0.289765 0.626047 0.753017
O O2 0.583029 0.688087 0.728400
O O3 0.352151 0.850278 0.802981
O O4 0.500000 0.000000 0.500000
O O5 0.979279 0.561034 0.180446
O O6 0.000000 0.500000 0.000000
O O7 0.854408 0.791882 0.974993
O O8 0.500000 0.500000 0.500000
O O9 0.410791 0.572151 0.304084
O O10 0.183608 0.541711 0.538092
O O11 0.413491 0.880372 0.295576
O O12 0.914065 0.224158 0.773402
O O13 0.694000 0.944382 0.101411
O O14 0.000000 0.000000 0.000000
O O15 0.859644 0.582201 0.656767
O O16 0.574750 0.285832 0.965368
#
# Coordination Sequence:
#
# PCOD8018999 Si02
#       7
#     2   2   2   2   2   2   2
#     4  12  25  43  66  96 131 173 218 270 328 387
#     4  11  22  39  64  96 131 171 214 261 323 393
#     4  12  23  41  68  98 130 169 217 270 324 388
#     4   9  18  36  61  89 126 169 210 259 315 383
#     4  11  24  43  65  92 130 174 216 271 329 387
#     4  10  22  41  63  96 130 167 216 270 321 380
#     4  11  23  41  64  95 130 171 219 265 319 388
#
# _framework density 22.004722999999998
#
# number of rings (size 3 to 8) (size 9 to 14) (size 15 to 20)
#    0.000    1.143    0.000    9.000    0.000    2.286 
#    0.000    4.286    0.000    0.000    0.000    0.000 
#    0.000    0.000    0.000    0.000    0.000    0.000 
#
# Total GULP energy -173489.513913 kJ/mol
# GULP energy per Si atom -12392.108137 kJ/mol
# Density = 2.195464 g / cm^3
# Si number density = 22.004723 Si / 1000 Ang^3
#
#
#
# Elastic Constant Matrix: (Units=GPa)
#
#
# Indices 1 2 3 4 5 6 
#
# 1 104.6583 43.0585 47.2534 -11.9572 -7.3753 -8.3867
# 2 43.0585 152.0486 61.4513 -3.7704 -8.2354 -6.8935
# 3 47.2534 61.4513 138.1869 -8.7297 -1.6541 -1.7655
# 4 -11.9572 -3.7704 -8.7297 32.6512 11.1204 0.7051
# 5 -7.3753 -8.2354 -1.6541 11.1204 37.9156 2.3023
# 6 -8.3867 -6.8935 -1.7655 0.7051 2.3023 41.2162
#
#
#
# Elastic Compliance Matrix: (Units=1/GPa)
#
#
# Indices 1 2 3 4 5 6 
#
# 1 0.012360 -0.002045 -0.003083 0.003158 0.000781 0.001943
# 2 -0.002045 0.008517 -0.003132 -0.001168 0.001609 0.000804
# 3 -0.003083 -0.003132 0.009759 0.001566 -0.001272 -0.000689
# 4 0.003158 -0.001168 0.001566 0.035463 -0.010001 0.000466
# 5 0.000781 0.001609 -0.001272 -0.010001 0.029822 -0.001121
# 6 0.001943 0.000804 -0.000689 0.000466 -0.001121 0.024817
#
#
# Mechanical properties :
#
#
# Convention : Reuss Voigt Hill
#
# Bulk Modulus (GPa) = 70.85329 77.60225 74.22777
# Shear Modulus (GPa) = 35.22033 38.56532 36.89283
#
# Velocity S-wave (km/s) = 4.00507 4.19094 4.09906
# Velocity P-wave (km/s) = 7.32505 7.66560 7.49726
#
# Compressibility (1/GPa) = 0.01411367
#
# Stress axis : x y z
#
# Youngs Moduli (GPa) = 80.90549 117.41783 102.47253
#
# Poissons Ratio (x) = 0.24016 0.31596
# Poissons Ratio (y) = 0.16548 0.32096
# Poissons Ratio (z) = 0.24946 0.36777
#
# Static dielectric constant tensor:
#      x y z
#    x 4.104550 -0.168980 0.034940 
#    y -0.168980 5.185250 -0.375310 
#    z 0.034940 -0.375310 4.150330 
# 
# 
# High freq. dielectric constant tensor:
#      x y z
#    x 1.868610 -0.000440 -0.011000 
#    y -0.000440 1.871860 -0.000990 
#    z -0.011000 -0.000990 1.867070 
# 
# From -- ./inp_files/158603.got.cif
#   From: 2010.06.25/outbox.cif.g09.slc.cpg/sg2_80_cif.got.tgz:158603.got - 2010.06.27 13:26:56.
