data_PCOD8018670
_publ_section_title
;
Structure prediction by ZEFSAII (Michael W. Deem and Ramdas Pophale) SiO2 
 PCOD8018670
Probable space group: P -1
;
_chemical_formula_sum "Si O2"
_cell_formula_units_Z 14
_cell_length_a 8.218340
_cell_length_b 5.403361
_cell_length_c 12.117813
_cell_angle_alpha 83.234443
_cell_angle_beta 93.355986
_cell_angle_gamma 106.742442
_cell_volume 511.541103
_symmetry_space_group_name_H-M "P -1"
_symmetry_group_IT_number 2
_symmetry_cell_setting 'triclinic'
loop_
_space_group_symop_operation_xyz
x,y,z
-x,-y,-z
loop_
_atom_site_type_symbol
_atom_site_label
_atom_site_fract_x
_atom_site_fract_y
_atom_site_fract_z
Si Si1 0.973918 0.880613 0.683917
Si Si2 0.815989 0.486088 0.533928
Si Si3 0.128102 0.533273 0.841499
Si Si4 0.547740 0.035517 0.627009
Si Si5 0.318842 0.213775 0.173735
Si Si6 0.711298 0.682566 0.321008
Si Si7 0.239190 0.717329 0.066181
O O1 0.093787 0.697934 0.728409
O O2 0.833363 0.746860 0.593211
O O3 0.102809 0.146214 0.634507
O O4 0.875630 0.912111 0.789620
O O5 0.739579 0.236342 0.623959
O O6 0.681221 0.459495 0.427146
O O7 0.000000 0.500000 0.500000
O O8 0.258207 0.385893 0.801293
O O9 0.952735 0.346757 0.891616
O O10 0.232619 0.714145 0.933416
O O11 0.554872 0.783324 0.714958
O O12 0.430117 0.168392 0.686147
O O13 0.500000 0.000000 0.500000
O O14 0.344696 0.009642 0.092517
O O15 0.338749 0.506710 0.118331
#
# Coordination Sequence:
#
# PCOD8018670 Si02
#       7
#     2   2   2   2   2   2   2
#     4  11  22  42  72 101 140 181 242 288 351 423
#     4  12  23  43  70 103 140 185 238 286 351 424
#     4  10  22  40  69 105 136 182 236 299 349 411
#     4  12  27  45  68 104 143 190 230 289 363 427
#     4  11  23  45  70 101 138 190 237 291 350 422
#     4  12  24  42  68 104 146 181 235 290 362 420
#     4  10  23  42  74 102 140 182 244 298 349 413
#
# _framework density 27.368283000000002
#
# number of rings (size 3 to 8) (size 9 to 14) (size 15 to 20)
#    0.000    0.857    2.857    5.143    2.000    2.857 
#    0.000    1.429    0.000    0.000    0.000    0.000 
#    0.000    0.000    0.000    0.000    0.000    0.000 
#
# Total GULP energy -173515.688166 kJ/mol
# GULP energy per Si atom -12393.977726 kJ/mol
# Density = 2.730599 g / cm^3
# Si number density = 27.368283 Si / 1000 Ang^3
#
#
#
# Elastic Constant Matrix: (Units=GPa)
#
#
# Indices 1 2 3 4 5 6 
#
# 1 65.2226 4.1956 21.1281 2.3843 -4.9566 -28.7590
# 2 4.1956 81.6454 30.0232 21.1025 -10.7472 -26.1071
# 3 21.1281 30.0232 140.2812 34.1431 3.8274 -19.1175
# 4 2.3843 21.1025 34.1431 49.1837 -3.3671 -1.2374
# 5 -4.9566 -10.7472 3.8274 -3.3671 35.8422 3.6072
# 6 -28.7590 -26.1071 -19.1175 -1.2374 3.6072 41.0892
#
#
#
# Elastic Compliance Matrix: (Units=1/GPa)
#
#
# Indices 1 2 3 4 5 6 
#
# 1 0.024998 0.007075 -0.002059 -0.002057 0.003526 0.020663
# 2 0.007075 0.020205 -0.001530 -0.007203 0.004870 0.016433
# 3 -0.002059 -0.001530 0.009585 -0.006019 -0.002543 0.002088
# 4 -0.002057 -0.007203 -0.006019 0.027606 0.001610 -0.008127
# 5 0.003526 0.004870 -0.002543 0.001610 0.030091 0.001785
# 6 0.020663 0.016433 0.002088 -0.008127 0.001785 0.049811
#
#
# Mechanical properties :
#
#
# Convention : Reuss Voigt Hill
#
# Bulk Modulus (GPa) = 16.19164 44.20479 30.19822
# Shear Modulus (GPa) = 28.42370 40.67650 34.55010
#
# Velocity S-wave (km/s) = 3.22617 3.85939 3.55690
# Velocity P-wave (km/s) = 4.45046 6.00390 5.28457
#
# Compressibility (1/GPa) = 0.06176025
#
# Stress axis : x y z
#
# Youngs Moduli (GPa) = 40.00338 49.49373 104.32872
#
# Poissons Ratio (x) = -0.35019 0.21480
# Poissons Ratio (y) = -0.28304 0.15963
# Poissons Ratio (z) = 0.08236 0.07573
#
# Static dielectric constant tensor:
#      x y z
#    x 4.854440 -0.058590 -0.111280 
#    y -0.058590 5.153220 0.233570 
#    z -0.111280 0.233570 5.139910 
# 
# 
# High freq. dielectric constant tensor:
#      x y z
#    x 2.099050 -0.008470 -0.004780 
#    y -0.008470 2.098890 0.007550 
#    z -0.004780 0.007550 2.105090 
# 
# From -- ./inp_files/117019.got.cif
#   From: 2010.06.25/outbox.cif.g09.slc.cpg/sg2_59_cif.got.tgz:117019.got - 2010.06.27 13:26:56.
