data_PCOD8018448
_publ_section_title
;
Structure prediction by ZEFSAII (Michael W. Deem and Ramdas Pophale) SiO2 
 PCOD8018448
Probable space group: P -1
;
_chemical_formula_sum "Si O2"
_cell_formula_units_Z 16
_cell_length_a 10.138075
_cell_length_b 11.319203
_cell_length_c 14.576696
_cell_angle_alpha 147.998276
_cell_angle_beta 106.291534
_cell_angle_gamma 87.913987
_cell_volume 781.266113
_symmetry_space_group_name_H-M "P -1"
_symmetry_group_IT_number 2
_symmetry_cell_setting 'triclinic'
loop_
_space_group_symop_operation_xyz
x,y,z
-x,-y,-z
loop_
_atom_site_type_symbol
_atom_site_label
_atom_site_fract_x
_atom_site_fract_y
_atom_site_fract_z
Si Si1 0.892661 0.277644 0.479715
Si Si2 0.603713 0.345954 0.162039
Si Si3 0.834412 0.813044 0.598384
Si Si4 0.159409 0.713766 0.156725
Si Si5 0.647588 0.488207 0.060393
Si Si6 0.989308 0.811470 0.798989
Si Si7 0.705728 0.045821 0.127630
Si Si8 0.845463 0.032044 0.492141
O O1 0.986350 0.565849 0.680702
O O2 0.744987 0.189810 0.327428
O O3 0.017966 0.169506 0.416129
O O4 0.831868 0.201895 0.519674
O O5 0.680810 0.621475 0.396501
O O6 0.628968 0.332624 0.048534
O O7 0.671183 0.185429 0.127567
O O8 0.423877 0.223492 0.063432
O O9 0.844550 0.738106 0.656427
O O10 0.838993 0.083334 0.781735
O O11 0.201842 0.853002 0.353329
O O12 0.273794 0.604122 0.066061
O O13 0.000000 0.500000 0.000000
O O14 0.731286 0.762059 0.284651
O O15 0.500000 0.500000 0.000000
O O16 0.135819 0.963133 0.868457
O O17 0.000000 0.000000 0.000000
O O18 0.000000 0.000000 0.500000
#
# Coordination Sequence:
#
# PCOD8018448 Si02
#       8
#     2   2   2   2   2   2   2   2
#     4  11  20  42  64  96 139 169 226 281 344 398
#     4  11  21  43  68  90 133 176 224 271 341 408
#     4  11  21  41  68  95 132 181 223 280 339 406
#     4  12  26  42  73 105 132 181 243 279 341 418
#     4  12  27  47  68 100 142 185 226 287 353 408
#     4  11  24  38  64 102 136 170 227 286 339 398
#     4  10  22  40  66  94 124 181 217 271 342 404
#     4  12  23  43  71 101 137 182 229 287 340 406
#
# _framework density 20.479576000000002
#
# number of rings (size 3 to 8) (size 9 to 14) (size 15 to 20)
#    0.000    0.750    6.250    1.500    3.500    1.500 
#    0.000    1.875    0.000    0.000    0.000    0.000 
#    0.000    0.000    0.000    0.000    0.000    0.000 
#
# Total GULP energy -198212.880146 kJ/mol
# GULP energy per Si atom -12388.305009 kJ/mol
# Density = 2.043296 g / cm^3
# Si number density = 20.479576 Si / 1000 Ang^3
#
#
#
# Elastic Constant Matrix: (Units=GPa)
#
#
# Indices 1 2 3 4 5 6 
#
# 1 96.0937 55.3814 67.6596 -0.6903 4.5122 -0.1517
# 2 55.3814 134.2032 53.2390 -13.8399 -1.8963 14.3795
# 3 67.6596 53.2390 140.6845 -0.5385 3.1529 5.0012
# 4 -0.6903 -13.8399 -0.5385 39.4151 7.2739 3.0482
# 5 4.5122 -1.8963 3.1529 7.2739 44.4197 -1.9589
# 6 -0.1517 14.3795 5.0012 3.0482 -1.9589 24.2177
#
#
#
# Elastic Compliance Matrix: (Units=1/GPa)
#
#
# Indices 1 2 3 4 5 6 
#
# 1 0.018643 -0.005689 -0.006977 -0.001958 -0.001096 0.005093
# 2 -0.005689 0.011578 -0.001376 0.004480 0.000119 -0.007180
# 3 -0.006977 -0.001376 0.011039 -0.000313 -0.000147 -0.001479
# 4 -0.001958 0.004480 -0.000313 0.028241 -0.004500 -0.006526
# 5 -0.001096 0.000119 -0.000147 -0.004500 0.023483 0.002418
# 6 0.005093 -0.007180 -0.001479 -0.006526 0.002418 0.046910
#
#
# Mechanical properties :
#
#
# Convention : Reuss Voigt Hill
#
# Bulk Modulus (GPa) = 75.89286 80.39349 78.14317
# Shear Modulus (GPa) = 29.00751 34.59059 31.79905
#
# Velocity S-wave (km/s) = 3.76761 4.11424 3.94473
# Velocity P-wave (km/s) = 7.48764 7.86829 7.68032
#
# Compressibility (1/GPa) = 0.01317647
#
# Stress axis : x y z
#
# Youngs Moduli (GPa) = 53.63876 86.37277 90.58753
#
# Poissons Ratio (x) = 0.49134 0.63206
# Poissons Ratio (y) = 0.30513 0.12463
# Poissons Ratio (z) = 0.37426 0.11883
#
# Static dielectric constant tensor:
#      x y z
#    x 3.519860 0.178320 0.179460 
#    y 0.178320 3.897980 -0.123770 
#    z 0.179460 -0.123770 3.889500 
# 
# 
# High freq. dielectric constant tensor:
#      x y z
#    x 1.773030 0.005690 0.018480 
#    y 0.005690 1.823240 -0.004590 
#    z 0.018480 -0.004590 1.808730 
# 
# From -- ./inp_files/382381.got.cif
#   From: 2010.06.25/outbox.cif.g09.slc.cpg/sg2_192_cif.got.tgz:382381.got - 2010.06.27 13:26:56.
