data_PCOD8018450
_publ_section_title
;
Structure prediction by ZEFSAII (Michael W. Deem and Ramdas Pophale) SiO2 
 PCOD8018450
Probable space group: P -1
;
_chemical_formula_sum "Si O2"
_cell_formula_units_Z 14
_cell_length_a 21.624805
_cell_length_b 8.735323
_cell_length_c 9.189093
_cell_angle_alpha 132.337692
_cell_angle_beta 47.351252
_cell_angle_gamma 152.415483
_cell_volume 577.454930
_symmetry_space_group_name_H-M "P -1"
_symmetry_group_IT_number 2
_symmetry_cell_setting 'triclinic'
loop_
_space_group_symop_operation_xyz
x,y,z
-x,-y,-z
loop_
_atom_site_type_symbol
_atom_site_label
_atom_site_fract_x
_atom_site_fract_y
_atom_site_fract_z
Si Si1 0.545784 0.364451 0.286188
Si Si2 0.829765 0.740248 0.073393
Si Si3 0.014222 0.456132 0.286609
Si Si4 0.168527 0.236599 0.239915
Si Si5 0.896458 0.519080 0.294076
Si Si6 0.743417 0.188256 0.039415
Si Si7 0.470863 0.774284 0.098951
O O1 0.500000 0.500000 0.500000
O O2 0.711079 0.684708 0.229751
O O3 0.484665 0.051461 0.277351
O O4 0.486478 0.209601 0.120636
O O5 0.787905 0.499633 0.110014
O O6 0.830060 0.650162 0.849166
O O7 0.975366 0.134769 0.135410
O O8 0.000000 0.500000 0.500000
O O9 0.902986 0.355432 0.300279
O O10 0.168575 0.796324 0.195673
O O11 0.145592 0.350358 0.479537
O O12 0.313723 0.402858 0.147899
O O13 0.045088 0.828877 0.175828
O O14 0.783308 0.236769 0.174903
O O15 0.577804 0.852031 0.078526
#
# Coordination Sequence:
#
# PCOD8018450 Si02
#       7
#     2   2   2   2   2   2   2
#     4   9  19  36  64  96 131 168 220 262 318 390
#     4  10  22  40  66  94 127 170 211 267 321 384
#     4  12  26  39  66  96 128 167 220 266 322 383
#     4  10  22  43  65  89 132 170 213 257 336 376
#     4  11  25  41  67  93 128 169 216 269 319 389
#     4  11  23  43  65  97 130 166 218 263 325 388
#     4   9  21  40  63  93 133 174 209 271 325 382
#
# _framework density 24.244316000000001
#
# number of rings (size 3 to 8) (size 9 to 14) (size 15 to 20)
#    0.000    1.714    1.429    2.571    8.000    0.571 
#    0.000    0.714    0.000    0.000    0.000    0.000 
#    0.000    0.000    0.000    0.000    0.000    0.000 
#
# Total GULP energy -173560.908772 kJ/mol
# GULP energy per Si atom -12397.207769 kJ/mol
# Density = 2.418913 g / cm^3
# Si number density = 24.244316 Si / 1000 Ang^3
#
#
#
# Elastic Constant Matrix: (Units=GPa)
#
#
# Indices 1 2 3 4 5 6 
#
# 1 128.1568 16.0016 42.6923 -6.4526 21.7680 28.0463
# 2 16.0016 82.1928 8.5950 -9.8206 10.1196 29.1642
# 3 42.6923 8.5950 120.0046 -4.3031 10.6981 11.0237
# 4 -6.4526 -9.8206 -4.3031 28.6433 -0.3654 -5.4075
# 5 21.7680 10.1196 10.6981 -0.3654 32.7860 -2.4460
# 6 28.0463 29.1642 11.0237 -5.4075 -2.4460 41.3800
#
#
#
# Elastic Compliance Matrix: (Units=1/GPa)
#
#
# Indices 1 2 3 4 5 6 
#
# 1 0.012011 0.002535 -0.002772 0.001250 -0.008550 -0.009531
# 2 0.002535 0.018385 0.000021 0.004004 -0.008414 -0.014656
# 3 -0.002772 0.000021 0.009520 0.000671 -0.001314 -0.000662
# 4 0.001250 0.004004 0.000671 0.036806 -0.001811 0.000855
# 5 -0.008550 -0.008414 -0.001314 -0.001811 0.040244 0.014217
# 6 -0.009531 -0.014656 -0.000662 0.000855 0.014217 0.042084
#
#
# Mechanical properties :
#
#
# Convention : Reuss Voigt Hill
#
# Bulk Modulus (GPa) = 25.32607 51.65912 38.49259
# Shear Modulus (GPa) = 28.96178 38.09954 33.53066
#
# Velocity S-wave (km/s) = 3.46002 3.96849 3.72295
# Velocity P-wave (km/s) = 5.14113 6.50789 5.86446
#
# Compressibility (1/GPa) = 0.03948501
#
# Stress axis : x y z
#
# Youngs Moduli (GPa) = 83.25906 54.39124 105.04533
#
# Poissons Ratio (x) = -0.13791 0.29118
# Poissons Ratio (y) = -0.21110 -0.00222
# Poissons Ratio (z) = 0.23079 -0.00115
#
# Static dielectric constant tensor:
#      x y z
#    x 4.506760 0.386240 -0.134650 
#    y 0.386240 4.633970 -0.163310 
#    z -0.134650 -0.163310 4.103460 
# 
# 
# High freq. dielectric constant tensor:
#      x y z
#    x 1.971090 0.016370 -0.009140 
#    y 0.016370 1.959890 -0.009900 
#    z -0.009140 -0.009900 1.950290 
# 
# From -- ./inp_files/224327.got.cif
#   From: 2010.06.25/outbox.cif.g09.slc.cpg/sg2_113_cif.got.tgz:224327.got - 2010.06.27 13:26:56.
