data_PCOD8018288
_publ_section_title
;
Structure prediction by ZEFSAII (Michael W. Deem and Ramdas Pophale) SiO2 
 PCOD8018288
Probable space group: P -1
;
_chemical_formula_sum "Si O2"
_cell_formula_units_Z 14
_cell_length_a 11.223101
_cell_length_b 11.265215
_cell_length_c 11.442868
_cell_angle_alpha 44.826749
_cell_angle_beta 43.740981
_cell_angle_gamma 42.165020
_cell_volume 622.629185
_symmetry_space_group_name_H-M "P -1"
_symmetry_group_IT_number 2
_symmetry_cell_setting 'triclinic'
loop_
_space_group_symop_operation_xyz
x,y,z
-x,-y,-z
loop_
_atom_site_type_symbol
_atom_site_label
_atom_site_fract_x
_atom_site_fract_y
_atom_site_fract_z
Si Si1 0.435838 0.649557 0.293824
Si Si2 0.218980 0.182926 0.343252
Si Si3 0.288451 0.518703 0.115402
Si Si4 0.037212 0.812987 0.894498
Si Si5 0.898603 0.226807 0.720021
Si Si6 0.817146 0.701062 0.973166
Si Si7 0.667238 0.227054 0.471929
O O1 0.313288 0.729263 0.208122
O O2 0.485470 0.427288 0.422793
O O3 0.303290 0.767867 0.413859
O O4 0.620607 0.686119 0.132704
O O5 0.325491 0.302543 0.228843
O O6 0.166848 0.213849 0.221957
O O7 0.023413 0.255567 0.509022
O O8 0.362203 0.955635 0.417748
O O9 0.135073 0.629862 0.249589
O O10 0.500000 0.500000 0.000000
O O11 0.185000 0.631087 0.992020
O O12 0.137236 0.797083 0.709545
O O13 0.833571 0.819169 0.992326
O O14 0.998048 0.008855 0.849888
O O15 0.000000 0.500000 0.000000
#
# Coordination Sequence:
#
# PCOD8018288 Si02
#       7
#     2   2   2   2   2   2   2
#     4  11  23  41  66 100 131 166 215 262 322 380
#     4  11  24  43  66  94 130 170 213 264 327 375
#     4  12  25  45  67  92 130 172 220 266 314 383
#     4  11  23  44  66  94 132 172 212 264 326 374
#     4  11  25  43  67  94 129 174 218 260 317 386
#     4  12  22  40  66  96 133 165 207 266 325 377
#     4  10  22  40  64  96 128 165 213 263 319 378
#
# _framework density 22.485294
#
# number of rings (size 3 to 8) (size 9 to 14) (size 15 to 20)
#    0.000    0.857    2.857    4.286    2.000    5.714 
#    0.000    7.857    0.000    0.000    0.000    0.000 
#    0.000    0.000    0.000    0.000    0.000    0.000 
#
# Total GULP energy -173541.842942 kJ/mol
# GULP energy per Si atom -12395.845924 kJ/mol
# Density = 2.243412 g / cm^3
# Si number density = 22.485294 Si / 1000 Ang^3
#
#
#
# Elastic Constant Matrix: (Units=GPa)
#
#
# Indices 1 2 3 4 5 6 
#
# 1 112.9044 41.5334 56.6167 -4.3986 -16.1823 8.5102
# 2 41.5334 129.6413 53.9810 -17.2960 -6.6903 27.6681
# 3 56.6167 53.9810 116.0594 -9.4943 -2.3257 6.2498
# 4 -4.3986 -17.2960 -9.4943 37.9201 11.8281 -5.1331
# 5 -16.1823 -6.6903 -2.3257 11.8281 31.9111 3.6666
# 6 8.5102 27.6681 6.2498 -5.1331 3.6666 34.9278
#
#
#
# Elastic Compliance Matrix: (Units=1/GPa)
#
#
# Indices 1 2 3 4 5 6 
#
# 1 0.013473 -0.001382 -0.005913 -0.003241 0.007589 -0.002403
# 2 -0.001382 0.012141 -0.004275 0.002729 0.001472 -0.008270
# 3 -0.005913 -0.004275 0.013434 0.002476 -0.004205 0.003229
# 4 -0.003241 0.002729 0.002476 0.032669 -0.013506 0.004404
# 5 0.007589 0.001472 -0.004205 -0.013506 0.041178 -0.008570
# 6 -0.002403 -0.008270 0.003229 0.004404 -0.008570 0.036736
#
#
# Mechanical properties :
#
#
# Convention : Reuss Voigt Hill
#
# Bulk Modulus (GPa) = 62.86293 73.65192 68.25742
# Shear Modulus (GPa) = 28.07813 34.71674 31.39744
#
# Velocity S-wave (km/s) = 3.53758 3.93361 3.74084
# Velocity P-wave (km/s) = 6.68610 7.31148 7.00577
#
# Compressibility (1/GPa) = 0.01590763
#
# Stress axis : x y z
#
# Youngs Moduli (GPa) = 74.22044 82.36383 74.43943
#
# Poissons Ratio (x) = 0.11384 0.44019
# Poissons Ratio (y) = 0.10258 0.31822
# Poissons Ratio (z) = 0.43890 0.35209
#
# Static dielectric constant tensor:
#      x y z
#    x 4.610020 0.411850 -0.362560 
#    y 0.411850 4.364040 -0.250170 
#    z -0.362560 -0.250170 4.458620 
# 
# 
# High freq. dielectric constant tensor:
#      x y z
#    x 1.867890 0.016190 0.003120 
#    y 0.016190 1.900920 -0.006620 
#    z 0.003120 -0.006620 1.891710 
# 
# From -- ./inp_files/185545.got.cif
#   From: 2010.06.25/outbox.cif.g09.slc.cpg/sg2_93_cif.got.tgz:185545.got - 2010.06.27 13:26:56.
