data_PCOD8018101
_publ_section_title
;
Structure prediction by ZEFSAII (Michael W. Deem and Ramdas Pophale) SiO2 
 PCOD8018101
Probable space group: P -1
;
_chemical_formula_sum "Si O2"
_cell_formula_units_Z 16
_cell_length_a 13.929501
_cell_length_b 8.291941
_cell_length_c 8.103449
_cell_angle_alpha 125.515250
_cell_angle_beta 97.430675
_cell_angle_gamma 100.390637
_cell_volume 716.599280
_symmetry_space_group_name_H-M "P -1"
_symmetry_group_IT_number 2
_symmetry_cell_setting 'triclinic'
loop_
_space_group_symop_operation_xyz
x,y,z
-x,-y,-z
loop_
_atom_site_type_symbol
_atom_site_label
_atom_site_fract_x
_atom_site_fract_y
_atom_site_fract_z
Si Si1 0.651663 0.672652 0.745710
Si Si2 0.318575 0.265524 0.838110
Si Si3 0.023633 0.747009 0.192069
Si Si4 0.685110 0.345997 0.074399
Si Si5 0.496681 0.127397 0.731219
Si Si6 0.112541 0.966792 0.675310
Si Si7 0.558579 0.260772 0.310900
Si Si8 0.166349 0.915726 0.015734
O O1 0.642903 0.445658 0.536897
O O2 0.556511 0.735093 0.691632
O O3 0.646992 0.639326 0.918925
O O4 0.756508 0.848084 0.817330
O O5 0.268069 0.406294 0.798310
O O6 0.421495 0.264231 0.766702
O O7 0.232662 0.041652 0.704151
O O8 0.063497 0.795400 0.419786
O O9 0.100158 0.878082 0.145966
O O10 0.926371 0.829944 0.211782
O O11 0.000000 0.500000 0.000000
O O12 0.593860 0.283744 0.146701
O O13 0.774608 0.253503 0.077598
O O14 0.616277 0.256865 0.846789
O O15 0.500000 0.000000 0.500000
O O16 0.442757 0.968145 0.771043
O O17 0.098894 0.876556 0.807565
#
# Coordination Sequence:
#
# PCOD8018101 Si02
#       8
#     2   2   2   2   2   2   2   2
#     4  10  22  40  62  90 130 177 221 270 323 395
#     4  11  24  43  62  95 132 174 230 275 331 401
#     4  11  25  49  78 104 135 171 227 289 358 426
#     4  12  24  39  64  96 136 182 223 276 329 395
#     4  12  25  38  61  90 137 185 227 275 323 392
#     4  10  25  48  74 102 138 177 222 292 351 412
#     4  11  22  38  59  90 133 177 222 266 327 379
#     4  11  24  46  70 102 138 177 226 279 344 412
#
# _framework density 22.327681999999999
#
# number of rings (size 3 to 8) (size 9 to 14) (size 15 to 20)
#    0.000    1.000    2.500    4.125    7.000    0.500 
#   11.250    0.000    0.000    0.000    0.000    0.000 
#    0.000    0.000    0.000    0.000    0.000    0.000 
#
# Total GULP energy -198278.622074 kJ/mol
# GULP energy per Si atom -12392.413880 kJ/mol
# Density = 2.227686 g / cm^3
# Si number density = 22.327682 Si / 1000 Ang^3
#
#
#
# Elastic Constant Matrix: (Units=GPa)
#
#
# Indices 1 2 3 4 5 6 
#
# 1 79.3204 28.5477 34.6403 -6.9912 1.2551 -6.7616
# 2 28.5477 94.7195 27.1501 -1.4165 -1.7542 -3.0881
# 3 34.6403 27.1501 113.0061 -5.5195 1.7998 -5.4040
# 4 -6.9912 -1.4165 -5.5195 32.3796 -3.8548 -6.4469
# 5 1.2551 -1.7542 1.7998 -3.8548 26.0892 -2.9870
# 6 -6.7616 -3.0881 -5.4040 -6.4469 -2.9870 43.8819
#
#
#
# Elastic Compliance Matrix: (Units=1/GPa)
#
#
# Indices 1 2 3 4 5 6 
#
# 1 0.016026 -0.003628 -0.003784 0.003089 -0.000046 0.002199
# 2 -0.003628 0.012198 -0.001852 -0.000422 0.001070 0.000082
# 3 -0.003784 -0.001852 0.010543 0.000985 -0.000444 0.000699
# 4 0.003089 -0.000422 0.000985 0.033506 0.005376 0.005856
# 5 -0.000046 0.001070 -0.000444 0.005376 0.039630 0.003501
# 6 0.002199 0.000082 0.000699 0.005856 0.003501 0.024318
#
#
# Mechanical properties :
#
#
# Convention : Reuss Voigt Hill
#
# Bulk Modulus (GPa) = 49.41305 51.96911 50.69108
# Shear Modulus (GPa) = 30.96059 33.58399 32.27229
#
# Velocity S-wave (km/s) = 3.72781 3.88253 3.80596
# Velocity P-wave (km/s) = 6.38025 6.58976 6.48585
#
# Compressibility (1/GPa) = 0.02023757
#
# Stress axis : x y z
#
# Youngs Moduli (GPa) = 62.39897 81.97986 94.85282
#
# Poissons Ratio (x) = 0.29746 0.35893
# Poissons Ratio (y) = 0.22641 0.17568
# Poissons Ratio (z) = 0.23612 0.15184
#
# Static dielectric constant tensor:
#      x y z
#    x 4.009880 0.224940 -0.022150 
#    y 0.224940 4.205070 -0.132710 
#    z -0.022150 -0.132710 4.136950 
# 
# 
# High freq. dielectric constant tensor:
#      x y z
#    x 1.869090 -0.000470 -0.001780 
#    y -0.000470 1.889320 -0.006030 
#    z -0.001780 -0.006030 1.884990 
# 
# From -- ./inp_files/299717.got.cif
#   From: 2010.06.25/outbox.cif.g09.slc.cpg/sg2_150_cif.got.tgz:299717.got - 2010.06.27 13:26:56.
