data_PCOD8018951
_publ_section_title
;
Structure prediction by ZEFSAII (Michael W. Deem and Ramdas Pophale) SiO2 
 PCOD8018951
Probable space group: P -1
;
_chemical_formula_sum "Si O2"
_cell_formula_units_Z 16
_cell_length_a 25.877749
_cell_length_b 9.631821
_cell_length_c 9.889142
_cell_angle_alpha 43.488816
_cell_angle_beta 153.002351
_cell_angle_gamma 133.379642
_cell_volume 763.606151
_symmetry_space_group_name_H-M "P -1"
_symmetry_group_IT_number 2
_symmetry_cell_setting 'triclinic'
loop_
_space_group_symop_operation_xyz
x,y,z
-x,-y,-z
loop_
_atom_site_type_symbol
_atom_site_label
_atom_site_fract_x
_atom_site_fract_y
_atom_site_fract_z
Si Si1 0.782473 0.819104 0.757828
Si Si2 0.162810 0.064907 0.899582
Si Si3 0.008703 0.642267 0.788672
Si Si4 0.005545 0.357351 0.737887
Si Si5 0.514210 0.324231 0.262899
Si Si6 0.242510 0.863526 0.725400
Si Si7 0.319726 0.976525 0.104434
Si Si8 0.589697 0.453750 0.629608
O O1 0.697513 0.622563 0.737863
O O2 0.715902 0.946557 0.408336
O O3 0.814684 0.940565 0.885127
O O4 0.897962 0.784634 0.970702
O O5 0.107246 0.267142 0.586779
O O6 0.098210 0.843812 0.869179
O O7 0.275235 0.084816 0.054887
O O8 0.045845 0.495400 0.863037
O O9 0.000000 0.500000 0.000000
O O10 0.000000 0.500000 0.500000
O O11 0.878989 0.236342 0.549347
O O12 0.633907 0.230481 0.590672
O O13 0.512247 0.417658 0.341458
O O14 0.415221 0.137409 0.143103
O O15 0.500000 0.500000 0.000000
O O16 0.226005 0.920688 0.805147
O O17 0.349937 0.738852 0.049821
O O18 0.500000 0.500000 0.500000
#
# Coordination Sequence:
#
# PCOD8018951 Si02
#       8
#     2   2   2   2   2   2   2   2
#     4  12  25  41  67  97 128 174 214 258 322 379
#     4  11  24  40  60  90 128 163 208 256 310 366
#     4  11  25  40  60  92 128 167 208 254 311 370
#     4  12  22  43  67  92 136 170 211 262 313 385
#     4  10  22  41  63  90 121 162 209 258 319 369
#     4  11  24  41  66  96 127 170 215 258 324 382
#     4  10  23  40  62  91 125 160 208 262 310 375
#     4  11  24  42  66  93 129 166 216 269 316 376
#
# _framework density 20.953208
#
# number of rings (size 3 to 8) (size 9 to 14) (size 15 to 20)
#    0.000    1.000    2.500    3.375    5.250    2.500 
#    0.000    0.000    0.000    0.000    0.000    0.000 
#    0.000    0.000    0.000    0.000    0.000    0.000 
#
# Total GULP energy -198346.534887 kJ/mol
# GULP energy per Si atom -12396.658430 kJ/mol
# Density = 2.090552 g / cm^3
# Si number density = 20.953208 Si / 1000 Ang^3
#
#
#
# Elastic Constant Matrix: (Units=GPa)
#
#
# Indices 1 2 3 4 5 6 
#
# 1 136.3309 34.2712 63.9299 -19.4799 -8.2232 -30.3967
# 2 34.2712 70.8855 42.2763 -3.4772 -14.8881 -18.3032
# 3 63.9299 42.2763 120.7489 -22.7560 -21.3711 -3.5123
# 4 -19.4799 -3.4772 -22.7560 37.6743 8.7166 -7.8760
# 5 -8.2232 -14.8881 -21.3711 8.7166 35.9078 -1.4804
# 6 -30.3967 -18.3032 -3.5123 -7.8760 -1.4804 40.2077
#
#
#
# Elastic Compliance Matrix: (Units=1/GPa)
#
#
# Indices 1 2 3 4 5 6 
#
# 1 0.013157 -0.000288 -0.005728 0.005839 -0.001504 0.010403
# 2 -0.000288 0.021493 -0.006369 -0.001483 0.005783 0.008933
# 3 -0.005728 -0.006369 0.014698 0.003382 0.003762 -0.005145
# 4 0.005839 -0.001483 0.003382 0.034929 -0.005303 0.010682
# 5 -0.001504 0.005783 0.003762 -0.005303 0.033512 0.002019
# 6 0.010403 0.008933 -0.005145 0.010682 0.002019 0.038519
#
#
# Mechanical properties :
#
#
# Convention : Reuss Voigt Hill
#
# Bulk Modulus (GPa) = 40.68638 67.65778 54.17208
# Shear Modulus (GPa) = 26.41729 35.25716 30.83723
#
# Velocity S-wave (km/s) = 3.55459 4.10648 3.84046
# Velocity P-wave (km/s) = 6.02551 7.40569 6.75096
#
# Compressibility (1/GPa) = 0.02457825
#
# Stress axis : x y z
#
# Youngs Moduli (GPa) = 76.00655 46.52637 68.03753
#
# Poissons Ratio (x) = 0.01339 0.38973
# Poissons Ratio (y) = 0.02188 0.43331
# Poissons Ratio (z) = 0.43538 0.29631
#
# Static dielectric constant tensor:
#      x y z
#    x 3.750490 -0.170200 -0.165370 
#    y -0.170200 3.892110 -0.055890 
#    z -0.165370 -0.055890 3.845220 
# 
# 
# High freq. dielectric constant tensor:
#      x y z
#    x 1.821150 -0.006800 -0.009810 
#    y -0.006800 1.835230 -0.002410 
#    z -0.009810 -0.002410 1.825780 
# 
# From -- ./inp_files/352078.got.cif
#   From: 2010.06.25/outbox.cif.g09.slc.cpg/sg2_177_cif.got.tgz:352078.got - 2010.06.27 13:26:56.
