data_PCOD8018146
_publ_section_title
;
Structure prediction by ZEFSAII (Michael W. Deem and Ramdas Pophale) SiO2 
 PCOD8018146
Probable space group: P -1
;
_chemical_formula_sum "Si O2"
_cell_formula_units_Z 14
_cell_length_a 12.765562
_cell_length_b 11.536252
_cell_length_c 14.591118
_cell_angle_alpha 29.771018
_cell_angle_beta 37.937891
_cell_angle_gamma 48.258111
_cell_volume 654.720382
_symmetry_space_group_name_H-M "P -1"
_symmetry_group_IT_number 2
_symmetry_cell_setting 'triclinic'
loop_
_space_group_symop_operation_xyz
x,y,z
-x,-y,-z
loop_
_atom_site_type_symbol
_atom_site_label
_atom_site_fract_x
_atom_site_fract_y
_atom_site_fract_z
Si Si1 0.133676 0.809479 0.562921
Si Si2 0.895256 0.930269 0.427275
Si Si3 0.761920 0.799426 0.245860
Si Si4 0.074361 0.536141 0.162796
Si Si5 0.725356 0.978105 0.955162
Si Si6 0.413059 0.691038 0.311221
Si Si7 0.696385 0.037803 0.317628
O O1 0.299404 0.820952 0.375682
O O2 0.030663 0.557703 0.791009
O O3 0.190108 0.873861 0.584087
O O4 0.000000 0.000000 0.500000
O O5 0.879496 0.673850 0.659064
O O6 0.799706 0.905458 0.414044
O O7 0.090353 0.022312 0.217485
O O8 0.619825 0.586460 0.476893
O O9 0.951082 0.706061 0.184331
O O10 0.732841 0.933525 0.266173
O O11 0.743277 0.980919 0.050693
O O12 0.245291 0.685638 0.911998
O O13 0.631231 0.205903 0.829200
O O14 0.612238 0.745804 0.159890
O O15 0.500000 0.000000 0.500000
#
# Coordination Sequence:
#
# PCOD8018146 Si02
#       7
#     2   2   2   2   2   2   2
#     4   9  18  39  64  95 130 156 202 260 313 377
#     4  11  23  43  67  94 128 169 205 259 323 369
#     4  11  23  44  63  93 130 166 215 259 298 383
#     4  10  22  44  67  93 123 166 214 257 316 373
#     4  11  21  38  68  97 127 163 205 258 321 369
#     4  10  22  40  63 103 127 161 209 256 319 371
#     4  12  29  45  60  93 126 171 220 257 312 373
#
# _framework density 21.383172999999999
#
# number of rings (size 3 to 8) (size 9 to 14) (size 15 to 20)
#    0.000    1.429    5.714    0.857    2.000    4.000 
#    2.571    0.000    0.000    0.000    0.000    0.000 
#    0.000    0.000    0.000    0.000    0.000    0.000 
#
# Total GULP energy -173566.954210 kJ/mol
# GULP energy per Si atom -12397.639586 kJ/mol
# Density = 2.133450 g / cm^3
# Si number density = 21.383173 Si / 1000 Ang^3
#
#
#
# Elastic Constant Matrix: (Units=GPa)
#
#
# Indices 1 2 3 4 5 6 
#
# 1 129.5362 45.5124 58.9124 7.8110 18.4637 7.4923
# 2 45.5124 77.0872 39.8874 -0.8412 2.1445 15.0194
# 3 58.9124 39.8874 152.5447 6.9385 -5.4891 -6.1132
# 4 7.8110 -0.8412 6.9385 16.0152 -8.0946 -2.9114
# 5 18.4637 2.1445 -5.4891 -8.0946 42.8049 13.9085
# 6 7.4923 15.0194 -6.1132 -2.9114 13.9085 30.0070
#
#
#
# Elastic Compliance Matrix: (Units=1/GPa)
#
#
# Indices 1 2 3 4 5 6 
#
# 1 0.012925 -0.006298 -0.003141 -0.008954 -0.008054 0.002150
# 2 -0.006298 0.020717 -0.003537 0.006749 0.006335 -0.011799
# 3 -0.003141 -0.003537 0.008942 -0.001226 0.001252 0.003677
# 4 -0.008954 0.006749 -0.001226 0.076677 0.018721 -0.002630
# 5 -0.008054 0.006335 0.001252 0.018721 0.035229 -0.015417
# 6 0.002150 -0.011799 0.003677 -0.002630 -0.015417 0.046334
#
#
# Mechanical properties :
#
#
# Convention : Reuss Voigt Hill
#
# Bulk Modulus (GPa) = 60.12626 71.97695 66.05161
# Shear Modulus (GPa) = 21.52213 32.08916 26.80565
#
# Velocity S-wave (km/s) = 3.17598 3.87806 3.54444
# Velocity P-wave (km/s) = 6.45203 7.33390 6.90705
#
# Compressibility (1/GPa) = 0.01663167
#
# Stress axis : x y z
#
# Youngs Moduli (GPa) = 77.37111 48.26984 111.83803
#
# Poissons Ratio (x) = 0.30400 0.35130
# Poissons Ratio (y) = 0.48728 0.39553
# Poissons Ratio (z) = 0.24303 0.17071
#
# Static dielectric constant tensor:
#      x y z
#    x 4.237050 0.220590 0.245540 
#    y 0.220590 3.862550 0.139370 
#    z 0.245540 0.139370 4.584660 
# 
# 
# High freq. dielectric constant tensor:
#      x y z
#    x 1.842740 0.001700 0.000680 
#    y 0.001700 1.815290 0.006110 
#    z 0.000680 0.006110 1.850950 
# 
# From -- ./inp_files/518513.got.cif
#   From: 2010.06.25/outbox.cif.g09.slc.cpg/sg2_260_cif.got.tgz:518513.got - 2010.06.27 13:26:56.
