data_PCOD8018537
_publ_section_title
;
Structure prediction by ZEFSAII (Michael W. Deem and Ramdas Pophale) SiO2 
 PCOD8018537
Probable space group: P -1
;
_chemical_formula_sum "Si O2"
_cell_formula_units_Z 16
_cell_length_a 9.141231
_cell_length_b 20.486917
_cell_length_c 8.705655
_cell_angle_alpha 57.182266
_cell_angle_beta 124.567409
_cell_angle_gamma 78.245416
_cell_volume 760.463101
_symmetry_space_group_name_H-M "P -1"
_symmetry_group_IT_number 2
_symmetry_cell_setting 'triclinic'
loop_
_space_group_symop_operation_xyz
x,y,z
-x,-y,-z
loop_
_atom_site_type_symbol
_atom_site_label
_atom_site_fract_x
_atom_site_fract_y
_atom_site_fract_z
Si Si1 0.497014 0.926116 0.696459
Si Si2 0.362936 0.077144 0.673096
Si Si3 0.527901 0.323536 0.238152
Si Si4 0.375481 0.459672 0.693230
Si Si5 0.062821 0.672329 0.808256
Si Si6 0.986379 0.548481 0.087075
Si Si7 0.064926 0.678253 0.444764
Si Si8 0.696819 0.096830 0.659932
O O1 0.340145 0.910135 0.533679
O O2 0.500000 0.000000 0.500000
O O3 0.335904 0.007369 0.644978
O O4 0.789886 0.800491 0.065228
O O5 0.076126 0.201184 0.393472
O O6 0.540541 0.086721 0.687281
O O7 0.500000 0.000000 0.000000
O O8 0.719773 0.323016 0.434144
O O9 0.604311 0.213928 0.477558
O O10 0.510150 0.346182 0.016501
O O11 0.231513 0.429448 0.981699
O O12 0.242316 0.465951 0.455448
O O13 0.166948 0.576319 0.523785
O O14 0.627644 0.429603 0.832330
O O15 0.028819 0.661755 0.620782
O O16 0.921101 0.657563 0.857617
O O17 0.000000 0.500000 0.000000
O O18 0.000000 0.000000 0.000000
#
# Coordination Sequence:
#
# PCOD8018537 Si02
#       8
#     2   2   2   2   2   2   2   2
#     4  10  22  40  67  92 123 173 216 258 314 389
#     4  11  22  44  68  95 128 168 215 262 323 382
#     4  11  22  41  65  96 127 163 213 271 317 376
#     4  11  25  42  65  94 127 181 215 252 319 400
#     4  11  23  42  66  95 129 166 216 266 319 385
#     4  12  24  42  60  95 133 161 211 272 325 364
#     4  11  22  43  71  91 124 176 224 253 315 398
#     4  11  24  43  66  97 128 166 217 264 319 378
#
# _framework density 21.039811
#
# number of rings (size 3 to 8) (size 9 to 14) (size 15 to 20)
#    0.000    1.000    2.500    6.000    3.500    1.000 
#    2.250    0.625    0.000    0.000    0.000    0.000 
#    0.000    0.000    0.000    0.000    0.000    0.000 
#
# Total GULP energy -198243.086009 kJ/mol
# GULP energy per Si atom -12390.192876 kJ/mol
# Density = 2.099192 g / cm^3
# Si number density = 21.039811 Si / 1000 Ang^3
#
#
#
# Elastic Constant Matrix: (Units=GPa)
#
#
# Indices 1 2 3 4 5 6 
#
# 1 76.4592 16.2170 23.0230 9.0228 -1.3203 3.5708
# 2 16.2170 90.3551 55.2696 11.5312 0.5345 -14.5972
# 3 23.0230 55.2696 152.6959 16.4289 2.3835 -3.5327
# 4 9.0228 11.5312 16.4289 45.9495 -0.5097 -0.5943
# 5 -1.3203 0.5345 2.3835 -0.5097 30.8184 -4.9060
# 6 3.5708 -14.5972 -3.5327 -0.5943 -4.9060 28.4145
#
#
#
# Elastic Compliance Matrix: (Units=1/GPa)
#
#
# Indices 1 2 3 4 5 6 
#
# 1 0.014259 -0.002014 -0.001293 -0.001868 0.000240 -0.002985
# 2 -0.002014 0.016108 -0.005180 -0.001676 0.001292 0.008072
# 3 -0.001293 -0.005180 0.008770 -0.001613 -0.000925 -0.001602
# 4 -0.001868 -0.001676 -0.001613 0.023128 0.000413 -0.000272
# 5 0.000240 0.001292 -0.000925 0.000413 0.033520 0.006315
# 6 -0.002985 0.008072 -0.001602 -0.000272 0.006315 0.040601
#
#
# Mechanical properties :
#
#
# Convention : Reuss Voigt Hill
#
# Bulk Modulus (GPa) = 45.11812 56.50324 50.81068
# Shear Modulus (GPa) = 31.10505 36.03652 33.57078
#
# Velocity S-wave (km/s) = 3.84916 4.14306 3.99881
# Velocity P-wave (km/s) = 6.42226 7.05693 6.74706
#
# Compressibility (1/GPa) = 0.02216404
#
# Stress axis : x y z
#
# Youngs Moduli (GPa) = 70.12976 62.08257 114.02936
#
# Poissons Ratio (x) = 0.12501 0.14743
# Poissons Ratio (y) = 0.14121 0.59064
# Poissons Ratio (z) = 0.09067 0.32157
#
# Static dielectric constant tensor:
#      x y z
#    x 3.228460 0.202800 0.102980 
#    y 0.202800 3.868950 -0.066100 
#    z 0.102980 -0.066100 3.753130 
# 
# 
# High freq. dielectric constant tensor:
#      x y z
#    x 1.826260 -0.001160 -0.011910 
#    y -0.001160 1.826080 -0.001120 
#    z -0.011910 -0.001120 1.835100 
# 
# From -- ./inp_files/216409.got.cif
#   From: 2010.06.25/outbox.cif.g09.slc.cpg/sg2_109_cif.got.tgz:216409.got - 2010.06.27 13:26:56.
