data_PCOD8018226
_publ_section_title
;
Structure prediction by ZEFSAII (Michael W. Deem and Ramdas Pophale) SiO2 
 PCOD8018226
Probable space group: P -1
;
_chemical_formula_sum "Si O2"
_cell_formula_units_Z 16
_cell_length_a 12.426200
_cell_length_b 8.552348
_cell_length_c 15.666438
_cell_angle_alpha 71.081028
_cell_angle_beta 129.788962
_cell_angle_gamma 141.940881
_cell_volume 729.754851
_symmetry_space_group_name_H-M "P -1"
_symmetry_group_IT_number 2
_symmetry_cell_setting 'triclinic'
loop_
_space_group_symop_operation_xyz
x,y,z
-x,-y,-z
loop_
_atom_site_type_symbol
_atom_site_label
_atom_site_fract_x
_atom_site_fract_y
_atom_site_fract_z
Si Si1 0.469748 0.126151 0.642952
Si Si2 0.355713 0.701437 0.958036
Si Si3 0.791447 0.946350 0.172753
Si Si4 0.019287 0.472140 0.112250
Si Si5 0.390559 0.078256 0.431526
Si Si6 0.277243 0.598807 0.595104
Si Si7 0.856640 0.638145 0.249303
Si Si8 0.101403 0.926215 0.600669
O O1 0.715804 0.287199 0.767142
O O2 0.476705 0.238447 0.537609
O O3 0.299523 0.810985 0.594020
O O4 0.361950 0.140037 0.659496
O O5 0.317600 0.632960 0.849971
O O6 0.102067 0.487099 0.908443
O O7 0.500000 0.000000 0.000000
O O8 0.509382 0.696558 0.075889
O O9 0.899150 0.075647 0.297618
O O10 0.895799 0.181192 0.119976
O O11 0.858199 0.831659 0.188854
O O12 0.000000 0.500000 0.000000
O O13 0.500125 0.266729 0.368833
O O14 0.500000 0.000000 0.500000
O O15 0.113970 0.811578 0.335782
O O16 0.236682 0.453421 0.685150
O O17 0.057463 0.373987 0.460079
O O18 0.000000 0.000000 0.500000
#
# Coordination Sequence:
#
# PCOD8018226 Si02
#       8
#     2   2   2   2   2   2   2   2
#     4  11  23  40  68  98 138 180 231 288 339 407
#     4  10  24  44  71  96 129 181 231 285 336 410
#     4  11  25  45  70  97 140 185 225 289 348 409
#     4  11  25  46  68 100 134 178 239 288 342 411
#     4  10  22  40  64 105 137 181 226 280 340 405
#     4  11  24  39  71  98 139 179 227 278 341 407
#     4  12  24  46  68 106 141 179 231 285 350 409
#     4  12  23  42  65 104 140 179 225 275 354 411
#
# _framework density 21.925173000000001
#
# number of rings (size 3 to 8) (size 9 to 14) (size 15 to 20)
#    0.000    1.000    2.500    3.750    8.750    1.000 
#    2.250    3.125    0.000    0.000    0.000    0.000 
#    0.000    0.000    0.000    0.000    0.000    0.000 
#
# Total GULP energy -198322.450901 kJ/mol
# GULP energy per Si atom -12395.153181 kJ/mol
# Density = 2.187527 g / cm^3
# Si number density = 21.925173 Si / 1000 Ang^3
#
#
#
# Elastic Constant Matrix: (Units=GPa)
#
#
# Indices 1 2 3 4 5 6 
#
# 1 116.6235 58.3943 63.4960 4.4568 5.0046 7.8095
# 2 58.3943 83.7885 52.7726 -3.5881 -0.0971 16.3518
# 3 63.4960 52.7726 158.4228 14.1571 -4.7733 8.2079
# 4 4.4568 -3.5881 14.1571 40.5309 5.6764 -4.5447
# 5 5.0046 -0.0971 -4.7733 5.6764 54.8924 -1.9195
# 6 7.8095 16.3518 8.2079 -4.5447 -1.9195 32.0281
#
#
#
# Elastic Compliance Matrix: (Units=1/GPa)
#
#
# Indices 1 2 3 4 5 6 
#
# 1 0.014473 -0.008506 -0.002997 -0.000942 -0.001450 0.001362
# 2 -0.008506 0.021888 -0.003789 0.003356 -0.000130 -0.007661
# 3 -0.002997 -0.003789 0.009125 -0.003399 0.001409 -0.000071
# 4 -0.000942 0.003356 -0.003399 0.027007 -0.002890 0.003046
# 5 -0.001450 -0.000130 0.001409 -0.002890 0.018798 0.000775
# 6 0.001362 -0.007661 -0.000071 0.003046 0.000775 0.035299
#
#
# Mechanical properties :
#
#
# Convention : Reuss Voigt Hill
#
# Bulk Modulus (GPa) = 67.10628 78.68450 72.89539
# Shear Modulus (GPa) = 30.83725 37.76838 34.30282
#
# Velocity S-wave (km/s) = 3.75437 4.15493 3.95972
# Velocity P-wave (km/s) = 7.03329 7.68008 7.36379
#
# Compressibility (1/GPa) = 0.01490174
#
# Stress axis : x y z
#
# Youngs Moduli (GPa) = 69.09576 45.68695 109.58433
#
# Poissons Ratio (x) = 0.38863 0.32844
# Poissons Ratio (y) = 0.58776 0.41518
# Poissons Ratio (z) = 0.20709 0.17309
#
# Static dielectric constant tensor:
#      x y z
#    x 4.433820 0.398250 -0.001460 
#    y 0.398250 4.099090 -0.022170 
#    z -0.001460 -0.022170 4.324090 
# 
# 
# High freq. dielectric constant tensor:
#      x y z
#    x 1.878000 0.013390 -0.002010 
#    y 0.013390 1.837830 0.009040 
#    z -0.002010 0.009040 1.870710 
# 
# From -- ./inp_files/515427.got.cif
#   From: 2010.06.25/outbox.cif.g09.slc.cpg/sg2_258_cif.got.tgz:515427.got - 2010.06.27 13:26:56.
