data_PCOD8018140
_publ_section_title
;
Structure prediction by ZEFSAII (Michael W. Deem and Ramdas Pophale) SiO2 
 PCOD8018140
Probable space group: P -1
;
_chemical_formula_sum "Si O2"
_cell_formula_units_Z 14
_cell_length_a 11.803923
_cell_length_b 17.654620
_cell_length_c 11.928535
_cell_angle_alpha 55.848011
_cell_angle_beta 113.550179
_cell_angle_gamma 159.350411
_cell_volume 654.631577
_symmetry_space_group_name_H-M "P -1"
_symmetry_group_IT_number 2
_symmetry_cell_setting 'triclinic'
loop_
_space_group_symop_operation_xyz
x,y,z
-x,-y,-z
loop_
_atom_site_type_symbol
_atom_site_label
_atom_site_fract_x
_atom_site_fract_y
_atom_site_fract_z
Si Si1 0.374657 0.630284 0.145797
Si Si2 0.565409 0.885653 0.454403
Si Si3 0.771488 0.083870 0.946161
Si Si4 0.654192 0.580904 0.611289
Si Si5 0.694024 0.489203 0.385805
Si Si6 0.169456 0.802062 0.890839
Si Si7 0.882792 0.303164 0.428629
O O1 0.535979 0.644125 0.234497
O O2 0.179443 0.480872 0.073254
O O3 0.099235 0.477874 0.257243
O O4 0.701300 0.928186 0.019059
O O5 0.545062 0.766155 0.512963
O O6 0.203881 0.664987 0.560040
O O7 0.602395 0.973830 0.285794
O O8 0.922848 0.146564 0.453511
O O9 0.040756 0.314947 0.774172
O O10 0.393505 0.870998 0.962341
O O11 0.933961 0.209858 0.030509
O O12 0.500000 0.500000 0.500000
O O13 0.565852 0.603554 0.640139
O O14 0.904956 0.624379 0.474110
O O15 0.500000 0.000000 0.500000
#
# Coordination Sequence:
#
# PCOD8018140 Si02
#       7
#     2   2   2   2   2   2   2
#     4  11  23  42  66  93 135 169 212 272 324 379
#     4  11  23  41  67  97 126 166 219 276 318 376
#     4  11  24  40  62  96 136 171 209 261 330 389
#     4  11  23  44  66  94 126 171 218 266 327 380
#     4  12  24  41  65  98 129 170 218 265 322 392
#     4  10  22  40  62  96 132 168 210 265 329 379
#     4  12  20  39  68  98 123 164 223 272 319 370
#
# _framework density 21.386075999999999
#
# number of rings (size 3 to 8) (size 9 to 14) (size 15 to 20)
#    0.000    0.857    5.714    2.143    4.000    0.571 
#    2.571    2.857    0.000    0.000    0.000    0.000 
#    0.000    0.000    0.000    0.000    0.000    0.000 
#
# Total GULP energy -173620.900106 kJ/mol
# GULP energy per Si atom -12401.492865 kJ/mol
# Density = 2.133740 g / cm^3
# Si number density = 21.386076 Si / 1000 Ang^3
#
#
#
# Elastic Constant Matrix: (Units=GPa)
#
#
# Indices 1 2 3 4 5 6 
#
# 1 97.6671 20.4193 19.3520 4.8916 24.0165 -8.4668
# 2 20.4193 81.8131 44.1284 22.6140 -0.6559 -15.3723
# 3 19.3520 44.1284 77.1395 9.6795 13.0098 -19.3935
# 4 4.8916 22.6140 9.6795 32.9823 -5.5325 1.2935
# 5 24.0165 -0.6559 13.0098 -5.5325 37.3402 1.0857
# 6 -8.4668 -15.3723 -19.3935 1.2935 1.0857 42.0412
#
#
#
# Elastic Compliance Matrix: (Units=1/GPa)
#
#
# Indices 1 2 3 4 5 6 
#
# 1 0.013221 -0.002760 0.000586 -0.001853 -0.009095 0.002215
# 2 -0.002760 0.022329 -0.010631 -0.011204 0.004126 0.002943
# 3 0.000586 -0.010631 0.022169 -0.001015 -0.008633 0.006711
# 4 -0.001853 -0.011204 -0.001015 0.040076 0.007471 -0.006364
# 5 -0.009095 0.004126 -0.008633 0.007471 0.036977 -0.005490
# 6 0.002215 0.002943 0.006711 -0.006364 -0.005490 0.028742
#
#
# Mechanical properties :
#
#
# Convention : Reuss Voigt Hill
#
# Bulk Modulus (GPa) = 31.14563 47.15765 39.15164
# Shear Modulus (GPa) = 25.02137 33.98740 29.50439
#
# Velocity S-wave (km/s) = 3.42421 3.99084 3.71834
# Velocity P-wave (km/s) = 5.49807 6.58288 6.06478
#
# Compressibility (1/GPa) = 0.03210724
#
# Stress axis : x y z
#
# Youngs Moduli (GPa) = 75.63575 44.78481 45.10816
#
# Poissons Ratio (x) = 0.12362 -0.02641
# Poissons Ratio (y) = 0.20877 0.47956
# Poissons Ratio (z) = -0.04429 0.47612
#
# Static dielectric constant tensor:
#      x y z
#    x 5.023920 0.085000 -0.072620 
#    y 0.085000 3.828410 0.190390 
#    z -0.072620 0.190390 3.783630 
# 
# 
# High freq. dielectric constant tensor:
#      x y z
#    x 1.851690 -0.016750 0.009980 
#    y -0.016750 1.832800 0.012970 
#    z 0.009980 0.012970 1.829840 
# 
# From -- ./inp_files/154811.got.cif
#   From: 2010.06.25/outbox.cif.g09.slc.cpg/sg2_78_cif.got.tgz:154811.got - 2010.06.27 13:26:56.
