data_PCOD8018358
_publ_section_title
;
Structure prediction by ZEFSAII (Michael W. Deem and Ramdas Pophale) SiO2 
 PCOD8018358
Probable space group: P -1
;
_chemical_formula_sum "Si O2"
_cell_formula_units_Z 16
_cell_length_a 13.307474
_cell_length_b 10.941007
_cell_length_c 24.817736
_cell_angle_alpha 31.860738
_cell_angle_beta 23.536506
_cell_angle_gamma 40.870105
_cell_volume 757.325892
_symmetry_space_group_name_H-M "P -1"
_symmetry_group_IT_number 2
_symmetry_cell_setting 'triclinic'
loop_
_space_group_symop_operation_xyz
x,y,z
-x,-y,-z
loop_
_atom_site_type_symbol
_atom_site_label
_atom_site_fract_x
_atom_site_fract_y
_atom_site_fract_z
Si Si1 0.318375 0.387427 0.341310
Si Si2 0.189085 0.805558 0.985062
Si Si3 0.437591 0.814880 0.053672
Si Si4 0.394128 0.078228 0.180501
Si Si5 0.257226 0.570691 0.414793
Si Si6 0.474848 0.012589 0.667988
Si Si7 0.082967 0.285896 0.702602
Si Si8 0.038550 0.637864 0.684459
O O1 0.449269 0.561102 0.167474
O O2 0.397330 0.479711 0.327628
O O3 0.018169 0.364728 0.490864
O O4 0.416240 0.138010 0.376590
O O5 0.341603 0.816472 0.962529
O O6 0.397668 0.846992 0.819459
O O7 0.029364 0.548611 0.163131
O O8 0.000000 0.000000 0.000000
O O9 0.166334 0.853723 0.147503
O O10 0.634793 0.845174 0.896251
O O11 0.500000 0.000000 0.000000
O O12 0.157456 0.167778 0.294370
O O13 0.402444 0.801829 0.282282
O O14 0.258489 0.373260 0.533218
O O15 0.219125 0.109417 0.738114
O O16 0.678969 0.232098 0.498116
O O17 0.020132 0.508330 0.684707
#
# Coordination Sequence:
#
# PCOD8018358 Si02
#       8
#     2   2   2   2   2   2   2   2
#     4  10  22  42  65  95 129 169 224 270 325 393
#     4  12  26  43  68  98 140 174 219 272 336 403
#     4  11  22  43  70  93 133 174 219 282 332 388
#     4  12  23  41  68  98 130 171 224 274 331 401
#     4  10  22  40  65  94 125 173 221 272 323 388
#     4  12  25  45  68  99 139 178 217 278 333 399
#     4  11  25  42  65  95 139 173 221 272 334 393
#     4  12  25  42  67 102 134 178 219 272 336 397
#
# _framework density 21.126968999999999
#
# number of rings (size 3 to 8) (size 9 to 14) (size 15 to 20)
#    0.000    0.750    5.000    2.250    5.250    1.500 
#    0.000    0.625    0.000    0.000    0.000    0.000 
#    0.000    0.000    0.000    0.000    0.000    0.000 
#
# Total GULP energy -198422.582901 kJ/mol
# GULP energy per Si atom -12401.411431 kJ/mol
# Density = 2.107888 g / cm^3
# Si number density = 21.126969 Si / 1000 Ang^3
#
#
#
# Elastic Constant Matrix: (Units=GPa)
#
#
# Indices 1 2 3 4 5 6 
#
# 1 100.6895 40.9656 30.9454 1.7067 2.1420 14.8194
# 2 40.9656 99.4189 17.4333 0.7277 -6.4018 24.3314
# 3 30.9454 17.4333 106.9025 -9.6402 5.8714 8.7406
# 4 1.7067 0.7277 -9.6402 27.0494 6.9023 3.4869
# 5 2.1420 -6.4018 5.8714 6.9023 37.6224 -0.7066
# 6 14.8194 24.3314 8.7406 3.4869 -0.7066 21.3360
#
#
#
# Elastic Compliance Matrix: (Units=1/GPa)
#
#
# Indices 1 2 3 4 5 6 
#
# 1 0.012987 -0.004177 -0.002898 -0.001150 -0.000842 -0.002910
# 2 -0.004177 0.015610 -0.000150 0.001094 0.002436 -0.014937
# 3 -0.002898 -0.000150 0.011104 0.005238 -0.002617 -0.003307
# 4 -0.001150 0.001094 0.005238 0.042314 -0.008513 -0.009792
# 5 -0.000842 0.002436 -0.002617 -0.008513 0.029036 0.001231
# 6 -0.002910 -0.014937 -0.003307 -0.009792 0.001231 0.068921
#
#
# Mechanical properties :
#
#
# Convention : Reuss Voigt Hill
#
# Bulk Modulus (GPa) = 39.60133 53.96659 46.78396
# Shear Modulus (GPa) = 24.64999 31.71266 28.18132
#
# Velocity S-wave (km/s) = 3.41948 3.87854 3.65623
# Velocity P-wave (km/s) = 5.86307 6.75699 6.32584
#
# Compressibility (1/GPa) = 0.02525168
#
# Stress axis : x y z
#
# Youngs Moduli (GPa) = 76.99911 64.05953 90.05581
#
# Poissons Ratio (x) = 0.26756 0.26097
# Poissons Ratio (y) = 0.32161 0.01355
# Poissons Ratio (z) = 0.22313 0.00964
#
# Static dielectric constant tensor:
#      x y z
#    x 3.772050 0.214410 0.174200 
#    y 0.214410 3.679980 -0.046400 
#    z 0.174200 -0.046400 4.062530 
# 
# 
# High freq. dielectric constant tensor:
#      x y z
#    x 1.818900 0.014460 0.012750 
#    y 0.014460 1.820550 -0.003040 
#    z 0.012750 -0.003040 1.842670 
# 
# From -- ./inp_files/187706.got.cif
#   From: 2010.06.25/outbox.cif.g09.slc.cpg/sg2_94_cif.got.tgz:187706.got - 2010.06.27 13:26:56.
