data_PCOD8018983
_publ_section_title
;
Structure prediction by ZEFSAII (Michael W. Deem and Ramdas Pophale) SiO2 
 PCOD8018983
Probable space group: P -1
;
_chemical_formula_sum "Si O2"
_cell_formula_units_Z 16
_cell_length_a 22.718457
_cell_length_b 8.940337
_cell_length_c 8.706039
_cell_angle_alpha 50.333327
_cell_angle_beta 129.291065
_cell_angle_gamma 145.949093
_cell_volume 739.473684
_symmetry_space_group_name_H-M "P -1"
_symmetry_group_IT_number 2
_symmetry_cell_setting 'triclinic'
loop_
_space_group_symop_operation_xyz
x,y,z
-x,-y,-z
loop_
_atom_site_type_symbol
_atom_site_label
_atom_site_fract_x
_atom_site_fract_y
_atom_site_fract_z
Si Si1 0.319849 0.560598 0.072281
Si Si2 0.107011 0.705596 0.642734
Si Si3 0.328856 0.012197 0.676349
Si Si4 0.892847 0.712784 0.939463
Si Si5 0.532096 0.880594 0.410360
Si Si6 0.561950 0.515391 0.227493
Si Si7 0.687959 0.509700 0.230726
Si Si8 0.896200 0.871646 0.505717
O O1 0.209256 0.350456 0.124053
O O2 0.419618 0.665750 0.269143
O O3 0.338515 0.812652 0.883834
O O4 0.306833 0.411456 0.990487
O O5 0.208683 0.883530 0.575229
O O6 0.000000 0.500000 0.500000
O O7 0.105973 0.900731 0.612665
O O8 0.114943 0.531574 0.879831
O O9 0.375807 0.095803 0.525400
O O10 0.414411 0.288375 0.731819
O O11 0.892486 0.737909 0.740621
O O12 0.000000 0.000000 0.000000
O O13 0.508552 0.781283 0.612587
O O14 0.581327 0.184699 0.292161
O O15 0.673004 0.651351 0.239896
O O16 0.500000 0.500000 0.000000
O O17 0.801265 0.624050 0.396693
O O18 0.000000 0.000000 0.500000
#
# Coordination Sequence:
#
# PCOD8018983 Si02
#       8
#     2   2   2   2   2   2   2   2
#     4  10  22  42  70  91 126 176 225 259 327 405
#     4  11  24  44  72  98 130 177 227 273 330 408
#     4  10  22  41  63  93 127 166 224 267 321 399
#     4  11  23  44  73 100 131 181 226 272 333 401
#     4  11  23  40  65  92 127 183 217 257 329 405
#     4  12  23  38  59  94 135 163 210 271 323 377
#     4  11  23  42  63  96 129 164 216 276 332 381
#     4  12  26  45  70 101 136 170 221 287 340 387
#
# _framework density 21.637008999999999
#
# number of rings (size 3 to 8) (size 9 to 14) (size 15 to 20)
#    0.000    1.000    2.500    5.250    3.500    2.500 
#    0.000    0.000    0.000    0.000    0.000    0.000 
#    0.000    0.000    0.000    0.000    0.000    0.000 
#
# Total GULP energy -198319.634331 kJ/mol
# GULP energy per Si atom -12394.977146 kJ/mol
# Density = 2.158776 g / cm^3
# Si number density = 21.637009 Si / 1000 Ang^3
#
#
#
# Elastic Constant Matrix: (Units=GPa)
#
#
# Indices 1 2 3 4 5 6 
#
# 1 157.6927 29.7426 47.6158 -3.7937 -9.7974 26.1622
# 2 29.7426 85.7512 35.3553 19.8824 0.0061 22.7610
# 3 47.6158 35.3553 128.7470 14.5637 -21.0565 17.9609
# 4 -3.7937 19.8824 14.5637 30.1180 1.5610 5.1465
# 5 -9.7974 0.0061 -21.0565 1.5610 32.4173 -2.7618
# 6 26.1622 22.7610 17.9609 5.1465 -2.7618 42.6285
#
#
#
# Elastic Compliance Matrix: (Units=1/GPa)
#
#
# Indices 1 2 3 4 5 6 
#
# 1 0.008100 -0.001825 -0.002394 0.003949 0.000410 -0.003438
# 2 -0.001825 0.017024 -0.002505 -0.009123 -0.002250 -0.005959
# 3 -0.002394 -0.002505 0.011008 -0.004156 0.006550 -0.000905
# 4 0.003949 -0.009123 -0.004156 0.042112 -0.003628 -0.001121
# 5 0.000410 -0.002250 0.006550 -0.003628 0.035480 0.000927
# 6 -0.003438 -0.005959 -0.000905 -0.001121 0.000927 0.029327
#
#
# Mechanical properties :
#
#
# Convention : Reuss Voigt Hill
#
# Bulk Modulus (GPa) = 44.08562 66.40203 55.24383
# Shear Modulus (GPa) = 30.47648 38.33125 34.40386
#
# Velocity S-wave (km/s) = 3.75712 4.21356 3.99187
# Velocity P-wave (km/s) = 6.26423 7.37752 6.84355
#
# Compressibility (1/GPa) = 0.02268313
#
# Stress axis : x y z
#
# Youngs Moduli (GPa) = 123.46396 58.73896 90.84108
#
# Poissons Ratio (x) = 0.10722 0.21751
# Poissons Ratio (y) = 0.22536 0.22754
# Poissons Ratio (z) = 0.29562 0.14713
#
# Static dielectric constant tensor:
#      x y z
#    x 4.006620 -1.120190 -0.339110 
#    y -1.120190 -0.092400 -0.879520 
#    z -0.339110 -0.879520 3.665330 
# 
# 
# High freq. dielectric constant tensor:
#      x y z
#    x 1.871180 0.008860 -0.004580 
#    y 0.008860 1.855160 0.004530 
#    z -0.004580 0.004530 1.842230 
# 
# From -- ./inp_files/226721.got.cif
#   From: 2010.06.25/outbox.cif.g09.slc.cpg/sg2_114_cif.got.tgz:226721.got - 2010.06.27 13:26:56.
