data_PCOD8018777
_publ_section_title
;
Structure prediction by ZEFSAII (Michael W. Deem and Ramdas Pophale) SiO2 
 PCOD8018777
Probable space group: P -1
;
_chemical_formula_sum "Si O2"
_cell_formula_units_Z 16
_cell_length_a 17.750688
_cell_length_b 12.186317
_cell_length_c 11.095157
_cell_angle_alpha 128.493654
_cell_angle_beta 142.992261
_cell_angle_gamma 28.610161
_cell_volume 665.533140
_symmetry_space_group_name_H-M "P -1"
_symmetry_group_IT_number 2
_symmetry_cell_setting 'triclinic'
loop_
_space_group_symop_operation_xyz
x,y,z
-x,-y,-z
loop_
_atom_site_type_symbol
_atom_site_label
_atom_site_fract_x
_atom_site_fract_y
_atom_site_fract_z
Si Si1 0.762986 0.673665 0.855722
Si Si2 0.461109 0.189666 0.828399
Si Si3 0.137917 0.668110 0.633622
Si Si4 0.700816 0.201716 0.477831
Si Si5 0.317660 0.788749 0.022313
Si Si6 0.664797 0.659385 0.963779
Si Si7 0.909870 0.182323 0.911607
Si Si8 0.325002 0.519889 0.534404
O O1 0.758187 0.686066 0.005300
O O2 0.695070 0.580348 0.662106
O O3 0.579881 0.945632 0.758958
O O4 0.000000 0.500000 0.000000
O O5 0.229356 0.435783 0.641963
O O6 0.616835 0.177914 0.987159
O O7 0.425500 0.194067 0.928589
O O8 0.128872 0.671002 0.478970
O O9 0.314265 0.627583 0.869184
O O10 0.910667 0.914378 0.561583
O O11 0.517076 0.256208 0.283657
O O12 0.697804 0.301880 0.663365
O O13 0.696494 0.304346 0.425239
O O14 0.458441 0.689727 0.254029
O O15 0.077257 0.055117 0.930454
O O16 0.849845 0.379275 0.038240
O O17 0.000000 0.000000 0.000000
#
# Coordination Sequence:
#
# PCOD8018777 Si02
#       8
#     2   2   2   2   2   2   2   2
#     4  12  29  46  68  94 134 188 232 271 329 400
#     4  11  24  46  66  94 135 182 231 267 331 398
#     4  10  22  40  71 108 135 173 212 285 347 396
#     4  11  22  38  69 107 134 164 223 281 350 394
#     4  10  22  42  71 103 138 175 216 283 348 399
#     4  12  24  44  70 100 134 177 226 287 333 396
#     4  11  22  37  65 105 142 170 207 276 355 402
#     4  11  22  42  71 102 137 170 228 277 334 402
#
# _framework density 24.040876000000001
#
# number of rings (size 3 to 8) (size 9 to 14) (size 15 to 20)
#    0.000    1.000    1.250    7.125    5.250    2.000 
#    0.000    0.625    0.000    0.000    0.000    0.000 
#    0.000    0.000    0.000    0.000    0.000    0.000 
#
# Total GULP energy -198343.360036 kJ/mol
# GULP energy per Si atom -12396.460002 kJ/mol
# Density = 2.398616 g / cm^3
# Si number density = 24.040876 Si / 1000 Ang^3
#
#
#
# Elastic Constant Matrix: (Units=GPa)
#
#
# Indices 1 2 3 4 5 6 
#
# 1 125.5420 22.5382 22.5943 -7.2019 -6.5047 -6.1295
# 2 22.5382 136.3891 8.3982 5.5266 6.5163 7.7787
# 3 22.5943 8.3982 49.0575 -5.1337 -7.8411 0.3954
# 4 -7.2019 5.5266 -5.1337 22.5975 -1.6455 -9.5464
# 5 -6.5047 6.5163 -7.8411 -1.6455 28.5104 4.1697
# 6 -6.1295 7.7787 0.3954 -9.5464 4.1697 31.0986
#
#
#
# Elastic Compliance Matrix: (Units=1/GPa)
#
#
# Indices 1 2 3 4 5 6 
#
# 1 0.009372 -0.001772 -0.003385 0.004204 0.001351 0.003443
# 2 -0.001772 0.008209 -0.001424 -0.004530 -0.002429 -0.003449
# 3 -0.003385 -0.001424 0.023745 0.005180 0.006365 0.000124
# 4 0.004204 -0.004530 0.005180 0.056004 0.003937 0.018560
# 5 0.001351 -0.002429 0.006365 0.003937 0.038376 -0.003144
# 6 0.003443 -0.003449 0.000124 0.018560 -0.003144 0.039814
#
#
# Mechanical properties :
#
#
# Convention : Reuss Voigt Hill
#
# Bulk Modulus (GPa) = 35.50461 46.44999 40.97730
# Shear Modulus (GPa) = 25.24368 33.60516 29.42442
#
# Velocity S-wave (km/s) = 3.24393 3.74282 3.50227
# Velocity P-wave (km/s) = 5.36948 6.16777 5.78242
#
# Compressibility (1/GPa) = 0.02816535
#
# Stress axis : x y z
#
# Youngs Moduli (GPa) = 106.70107 121.82224 42.11364
#
# Poissons Ratio (x) = 0.21581 0.14255
# Poissons Ratio (y) = 0.18902 0.05996
# Poissons Ratio (z) = 0.36118 0.17345
#
# Static dielectric constant tensor:
#      x y z
#    x 4.526620 -0.401980 -0.030940 
#    y -0.401980 4.771290 -0.143630 
#    z -0.030940 -0.143630 4.029370 
# 
# 
# High freq. dielectric constant tensor:
#      x y z
#    x 1.959400 -0.012700 -0.010380 
#    y -0.012700 1.980110 -0.011130 
#    z -0.010380 -0.011130 1.918900 
# 
# From -- ./inp_files/464828.got.cif
#   From: 2010.06.25/outbox.cif.g09.slc.cpg/sg2_233_cif.got.tgz:464828.got - 2010.06.27 13:26:56.
