data_PCOD8018668
_publ_section_title
;
Structure prediction by ZEFSAII (Michael W. Deem and Ramdas Pophale) SiO2 
 PCOD8018668
Probable space group: P -1
;
_chemical_formula_sum "Si O2"
_cell_formula_units_Z 14
_cell_length_a 12.759107
_cell_length_b 6.820485
_cell_length_c 11.093089
_cell_angle_alpha 103.637576
_cell_angle_beta 66.211058
_cell_angle_gamma 136.063218
_cell_volume 610.638743
_symmetry_space_group_name_H-M "P -1"
_symmetry_group_IT_number 2
_symmetry_cell_setting 'triclinic'
loop_
_space_group_symop_operation_xyz
x,y,z
-x,-y,-z
loop_
_atom_site_type_symbol
_atom_site_label
_atom_site_fract_x
_atom_site_fract_y
_atom_site_fract_z
Si Si1 0.622933 0.792494 0.050655
Si Si2 0.588573 0.179765 0.695760
Si Si3 0.383995 0.562512 0.667181
Si Si4 0.177362 0.292660 0.937920
Si Si5 0.109991 0.699554 0.364259
Si Si6 0.890884 0.374331 0.909257
Si Si7 0.322059 0.321434 0.409985
O O1 0.532799 0.869763 0.161173
O O2 0.710104 0.758409 0.100294
O O3 0.500000 0.500000 0.000000
O O4 0.753882 0.035117 0.930361
O O5 0.729728 0.236859 0.706602
O O6 0.677663 0.456184 0.614132
O O7 0.477858 0.883648 0.628694
O O8 0.225310 0.418962 0.798416
O O9 0.318128 0.345653 0.558478
O O10 0.513851 0.592654 0.688957
O O11 0.195428 0.513916 0.043842
O O12 0.000000 0.000000 0.000000
O O13 0.022451 0.560512 0.252565
O O14 0.000000 0.500000 0.500000
O O15 0.163189 0.999604 0.398578
O O16 0.000000 0.500000 0.000000
#
# Coordination Sequence:
#
# PCOD8018668 Si02
#       7
#     2   2   2   2   2   2   2
#     4  12  25  43  73 102 142 188 242 299 360 434
#     4  11  22  44  71 103 137 192 238 297 358 427
#     4  10  22  40  69 104 141 186 243 291 352 442
#     4  12  25  43  70 108 143 186 241 301 361 427
#     4  11  28  47  70 106 146 186 243 298 363 437
#     4  12  27  48  72 106 147 192 240 302 369 432
#     4  10  22  43  69 100 142 191 238 292 360 427
#
# _framework density 22.926812999999999
#
# number of rings (size 3 to 8) (size 9 to 14) (size 15 to 20)
#    0.000    0.857    4.286    2.143    4.000    2.857 
#    2.571    0.000    0.000    0.000    0.000    0.000 
#    0.000    0.000    0.000    0.000    0.000    0.000 
#
# Total GULP energy -173468.669980 kJ/mol
# GULP energy per Si atom -12390.619284 kJ/mol
# Density = 2.287463 g / cm^3
# Si number density = 22.926813 Si / 1000 Ang^3
#
#
#
# Elastic Constant Matrix: (Units=GPa)
#
#
# Indices 1 2 3 4 5 6 
#
# 1 74.5296 35.7258 30.1718 3.9322 -1.3911 -4.5757
# 2 35.7258 166.7941 61.0797 -4.3325 4.3417 -5.0545
# 3 30.1718 61.0797 145.1129 -1.2739 2.2881 14.5923
# 4 3.9322 -4.3325 -1.2739 42.9719 -3.0630 -1.0533
# 5 -1.3911 4.3417 2.2881 -3.0630 29.6052 3.5664
# 6 -4.5757 -5.0545 14.5923 -1.0533 3.5664 37.6383
#
#
#
# Elastic Compliance Matrix: (Units=1/GPa)
#
#
# Indices 1 2 3 4 5 6 
#
# 1 0.015880 -0.002461 -0.002541 -0.001657 0.000836 0.002460
# 2 -0.002461 0.007700 -0.002904 0.000881 -0.001170 0.001996
# 3 -0.002541 -0.002904 0.009065 0.000114 0.000126 -0.004222
# 4 -0.001657 0.000881 0.000114 0.023679 0.002195 0.000327
# 5 0.000836 -0.001170 0.000126 0.002195 0.034606 -0.003322
# 6 0.002460 0.001996 -0.004222 0.000327 -0.003322 0.029097
#
#
# Mechanical properties :
#
#
# Convention : Reuss Voigt Hill
#
# Bulk Modulus (GPa) = 59.40558 71.15455 65.28006
# Shear Modulus (GPa) = 35.34829 39.34036 37.34433
#
# Velocity S-wave (km/s) = 3.93082 4.14685 4.04028
# Velocity P-wave (km/s) = 6.82415 7.35060 7.09226
#
# Compressibility (1/GPa) = 0.01683344
#
# Stress axis : x y z
#
# Youngs Moduli (GPa) = 62.97286 129.87474 110.31098
#
# Poissons Ratio (x) = 0.31964 0.28029
# Poissons Ratio (y) = 0.15498 0.32031
# Poissons Ratio (z) = 0.16001 0.37712
#
# Static dielectric constant tensor:
#      x y z
#    x 4.033770 -0.407080 -0.138270 
#    y -0.407080 4.541430 -0.058640 
#    z -0.138270 -0.058640 3.852500 
# 
# 
# High freq. dielectric constant tensor:
#      x y z
#    x 1.890240 -0.017790 -0.010720 
#    y -0.017790 1.924140 -0.000240 
#    z -0.010720 -0.000240 1.905030 
# 
# From -- ./inp_files/355030.got.cif
#   From: 2010.06.25/outbox.cif.g09.slc.cpg/sg2_178_cif.got.tgz:355030.got - 2010.06.27 13:26:56.
