data_PCOD8018171
_publ_section_title
;
Structure prediction by ZEFSAII (Michael W. Deem and Ramdas Pophale) SiO2 
 PCOD8018171
Probable space group: P -1
;
_chemical_formula_sum "Si O2"
_cell_formula_units_Z 16
_cell_length_a 24.188621
_cell_length_b 15.014180
_cell_length_c 8.579392
_cell_angle_alpha 46.437674
_cell_angle_beta 46.762638
_cell_angle_gamma 20.084788
_cell_volume 766.354585
_symmetry_space_group_name_H-M "P -1"
_symmetry_group_IT_number 2
_symmetry_cell_setting 'triclinic'
loop_
_space_group_symop_operation_xyz
x,y,z
-x,-y,-z
loop_
_atom_site_type_symbol
_atom_site_label
_atom_site_fract_x
_atom_site_fract_y
_atom_site_fract_z
Si Si1 0.531016 0.968276 0.230551
Si Si2 0.062798 0.176128 0.935553
Si Si3 0.349803 0.758909 0.076742
Si Si4 0.720158 0.571280 0.075059
Si Si5 0.006231 0.516575 0.653320
Si Si6 0.344065 0.059221 0.693699
Si Si7 0.374233 0.562012 0.563132
Si Si8 0.737972 0.075672 0.453459
O O1 0.476297 0.922440 0.480602
O O2 0.655171 0.754738 0.112218
O O3 0.628620 0.916164 0.222136
O O4 0.375530 0.264030 0.099969
O O5 0.989838 0.402309 0.889823
O O6 0.193087 0.023603 0.733964
O O7 0.914365 0.310266 0.991858
O O8 0.178905 0.946366 0.116562
O O9 0.363106 0.686825 0.309432
O O10 0.500000 0.500000 0.000000
O O11 0.357206 0.895545 0.892153
O O12 0.708534 0.447810 0.304113
O O13 0.000000 0.500000 0.500000
O O14 0.171231 0.342283 0.608623
O O15 0.862027 0.813423 0.631208
O O16 0.564055 0.258241 0.586284
O O17 0.282502 0.753391 0.658129
#
# Coordination Sequence:
#
# PCOD8018171 Si02
#       8
#     2   2   2   2   2   2   2   2
#     4  10  23  40  64  92 137 164 216 267 326 376
#     4  10  22  40  64  94 122 170 215 261 322 371
#     4  11  22  41  65  90 130 166 213 259 318 391
#     4  11  25  40  63  95 131 172 212 266 322 383
#     4   9  19  36  67  91 121 159 216 264 308 369
#     4  10  22  41  66  99 122 174 214 271 320 372
#     4  11  25  39  63  95 127 173 211 258 322 384
#     4  10  22  40  63  91 126 165 221 258 310 390
#
# _framework density 20.878064999999999
#
# number of rings (size 3 to 8) (size 9 to 14) (size 15 to 20)
#    0.000    1.750    1.250    2.250   10.500    2.000 
#    0.000    5.000    0.000    0.000    0.000    0.000 
#    0.000    0.000    0.000    0.000    0.000    0.000 
#
# Total GULP energy -198261.302419 kJ/mol
# GULP energy per Si atom -12391.331401 kJ/mol
# Density = 2.083055 g / cm^3
# Si number density = 20.878065 Si / 1000 Ang^3
#
#
#
# Elastic Constant Matrix: (Units=GPa)
#
#
# Indices 1 2 3 4 5 6 
#
# 1 124.1151 59.8043 29.8114 -6.0058 -3.2511 -23.1454
# 2 59.8043 136.3377 25.1427 -13.9054 -9.9457 -14.1508
# 3 29.8114 25.1427 74.4769 -13.0676 -8.2257 -2.8437
# 4 -6.0058 -13.9054 -13.0676 26.0452 -1.8255 3.7220
# 5 -3.2511 -9.9457 -8.2257 -1.8255 32.8118 -3.9056
# 6 -23.1454 -14.1508 -2.8437 3.7220 -3.9056 36.5806
#
#
#
# Elastic Compliance Matrix: (Units=1/GPa)
#
#
# Indices 1 2 3 4 5 6 
#
# 1 0.011907 -0.004216 -0.003543 -0.002141 -0.000415 0.005801
# 2 -0.004216 0.010034 -0.000626 0.004119 0.002821 0.001047
# 3 -0.003543 -0.000626 0.016793 0.007771 0.003917 -0.001551
# 4 -0.002141 0.004119 0.007771 0.044810 0.005100 -0.003172
# 5 -0.000415 0.002821 0.003917 0.005100 0.033050 0.004143
# 6 0.005801 0.001047 -0.001551 -0.003172 0.004143 0.032057
#
#
# Mechanical properties :
#
#
# Convention : Reuss Voigt Hill
#
# Bulk Modulus (GPa) = 45.52628 62.71626 54.12127
# Shear Modulus (GPa) = 28.94512 33.76560 31.35536
#
# Velocity S-wave (km/s) = 3.72746 4.02590 3.87955
# Velocity P-wave (km/s) = 6.35440 7.19132 6.78577
#
# Compressibility (1/GPa) = 0.02196534
#
# Stress axis : x y z
#
# Youngs Moduli (GPa) = 83.98588 99.66053 59.54824
#
# Poissons Ratio (x) = 0.42018 0.21096
# Poissons Ratio (y) = 0.35409 0.03725
# Poissons Ratio (z) = 0.29754 0.06234
#
# Static dielectric constant tensor:
#      x y z
#    x 3.730470 -0.076320 -0.083100 
#    y -0.076320 4.408940 -0.415620 
#    z -0.083100 -0.415620 3.300420 
# 
# 
# High freq. dielectric constant tensor:
#      x y z
#    x 1.816650 -0.007050 0.002880 
#    y -0.007050 1.826210 -0.011640 
#    z 0.002880 -0.011640 1.806820 
# 
# From -- ./inp_files/185984.got.cif
#   From: 2010.06.25/outbox.cif.g09.slc.cpg/sg2_93_cif.got.tgz:185984.got - 2010.06.27 13:26:56.
