data_PCOD8018570
_publ_section_title
;
Structure prediction by ZEFSAII (Michael W. Deem and Ramdas Pophale) SiO2 
 PCOD8018570
Probable space group: P -1
;
_chemical_formula_sum "Si O2"
_cell_formula_units_Z 14
_cell_length_a 9.044443
_cell_length_b 21.839768
_cell_length_c 9.232853
_cell_angle_alpha 152.941007
_cell_angle_beta 132.257567
_cell_angle_gamma 48.126650
_cell_volume 601.147838
_symmetry_space_group_name_H-M "P -1"
_symmetry_group_IT_number 2
_symmetry_cell_setting 'triclinic'
loop_
_space_group_symop_operation_xyz
x,y,z
-x,-y,-z
loop_
_atom_site_type_symbol
_atom_site_label
_atom_site_fract_x
_atom_site_fract_y
_atom_site_fract_z
Si Si1 0.203507 0.680258 0.259314
Si Si2 0.113375 0.287467 0.646765
Si Si3 0.080378 0.394836 0.529976
Si Si4 0.186893 0.931575 0.585198
Si Si5 0.595388 0.949673 0.770870
Si Si6 0.596896 0.741886 0.755179
Si Si7 0.313565 0.447295 0.328777
O O1 0.120130 0.801230 0.343343
O O2 0.444748 0.663901 0.405017
O O3 0.096437 0.726078 0.441330
O O4 0.164116 0.535724 0.873748
O O5 0.104677 0.318102 0.536482
O O6 0.275908 0.142865 0.464477
O O7 0.186113 0.414647 0.038275
O O8 0.188685 0.290455 0.258437
O O9 0.835198 0.436442 0.427654
O O10 0.404942 0.878158 0.535914
O O11 0.000000 0.000000 0.500000
O O12 0.247040 0.039062 0.969168
O O13 0.495356 0.098070 0.955367
O O14 0.622451 0.690618 0.827892
O O15 0.500000 0.500000 0.500000
#
# Coordination Sequence:
#
# PCOD8018570 Si02
#       7
#     2   2   2   2   2   2   2
#     4  10  22  40  67  96 129 172 218 270 339 388
#     4  11  23  44  65  94 137 174 212 276 337 392
#     4  11  22  41  69  91 131 172 218 275 328 394
#     4  10  22  42  66  95 135 177 224 270 322 399
#     4  10  24  45  64  95 140 175 221 273 330 396
#     4  11  23  42  67  94 132 172 219 275 324 396
#     4  11  24  42  64 100 131 169 223 273 334 393
#
# _framework density 23.288779999999999
#
# number of rings (size 3 to 8) (size 9 to 14) (size 15 to 20)
#    0.000    1.429    0.000    6.857    4.000    4.000 
#   10.286    0.000    0.000    0.000    0.000    0.000 
#    0.000    0.000    0.000    0.000    0.000    0.000 
#
# Total GULP energy -173533.808138 kJ/mol
# GULP energy per Si atom -12395.272010 kJ/mol
# Density = 2.323577 g / cm^3
# Si number density = 23.288780 Si / 1000 Ang^3
#
#
#
# Elastic Constant Matrix: (Units=GPa)
#
#
# Indices 1 2 3 4 5 6 
#
# 1 126.8263 46.4265 28.4655 17.1554 7.9810 -4.5011
# 2 46.4265 113.3396 20.6349 10.5876 6.3542 11.1566
# 3 28.4655 20.6349 40.1489 14.2778 7.1083 -7.3982
# 4 17.1554 10.5876 14.2778 34.8592 -4.7089 0.9883
# 5 7.9810 6.3542 7.1083 -4.7089 34.4161 7.4973
# 6 -4.5011 11.1566 -7.3982 0.9883 7.4973 51.5427
#
#
#
# Elastic Compliance Matrix: (Units=1/GPa)
#
#
# Indices 1 2 3 4 5 6 
#
# 1 0.010585 -0.003340 -0.004308 -0.002684 -0.001601 0.001313
# 2 -0.003340 0.011248 -0.004094 0.000037 0.000279 -0.003355
# 3 -0.004308 -0.004094 0.038074 -0.013752 -0.009656 0.007643
# 4 -0.002684 0.000037 -0.013752 0.037029 0.009460 -0.004302
# 5 -0.001601 0.000279 -0.009656 0.009460 0.034131 -0.006732
# 6 0.001313 -0.003355 0.007643 -0.004302 -0.006732 0.022401
#
#
# Mechanical properties :
#
#
# Convention : Reuss Voigt Hill
#
# Bulk Modulus (GPa) = 27.45520 52.37429 39.91475
# Shear Modulus (GPa) = 26.44213 36.48279 31.46246
#
# Velocity S-wave (km/s) = 3.37323 3.96225 3.67954
# Velocity P-wave (km/s) = 5.19482 6.59321 5.93534
#
# Compressibility (1/GPa) = 0.03642297
#
# Stress axis : x y z
#
# Youngs Moduli (GPa) = 94.47448 88.90690 26.26468
#
# Poissons Ratio (x) = 0.29698 0.11315
# Poissons Ratio (y) = 0.31557 0.10752
# Poissons Ratio (z) = 0.40699 0.36395
#
# Static dielectric constant tensor:
#      x y z
#    x 4.719990 -0.274310 0.079160 
#    y -0.274310 4.395970 0.118160 
#    z 0.079160 0.118160 3.926260 
# 
# 
# High freq. dielectric constant tensor:
#      x y z
#    x 1.934310 -0.003730 0.007560 
#    y -0.003730 1.933670 0.015370 
#    z 0.007560 0.015370 1.897400 
# 
# From -- ./inp_files/224410.got.cif
#   From: 2010.06.25/outbox.cif.g09.slc.cpg/sg2_113_cif.got.tgz:224410.got - 2010.06.27 13:26:56.
