data_PCOD8018779
_publ_section_title
;
Structure prediction by ZEFSAII (Michael W. Deem and Ramdas Pophale) SiO2 
 PCOD8018779
Probable space group: P -1
;
_chemical_formula_sum "Si O2"
_cell_formula_units_Z 16
_cell_length_a 8.802898
_cell_length_b 15.567440
_cell_length_c 8.604592
_cell_angle_alpha 57.920676
_cell_angle_beta 62.108117
_cell_angle_gamma 99.484796
_cell_volume 736.445842
_symmetry_space_group_name_H-M "P -1"
_symmetry_group_IT_number 2
_symmetry_cell_setting 'triclinic'
loop_
_space_group_symop_operation_xyz
x,y,z
-x,-y,-z
loop_
_atom_site_type_symbol
_atom_site_label
_atom_site_fract_x
_atom_site_fract_y
_atom_site_fract_z
Si Si1 0.161731 0.428815 0.043126
Si Si2 0.777716 0.955749 0.716675
Si Si3 0.756523 0.317263 0.182777
Si Si4 0.874679 0.038937 0.922075
Si Si5 0.528457 0.303870 0.029310
Si Si6 0.477540 0.952521 0.382046
Si Si7 0.560029 0.496703 0.649036
Si Si8 0.210820 0.308674 0.405393
O O1 0.119175 0.377084 0.289995
O O2 0.978665 0.343248 0.093156
O O3 0.239258 0.569532 0.851874
O O4 0.344460 0.416580 0.916871
O O5 0.610713 0.823410 0.863689
O O6 0.777908 0.948130 0.909930
O O7 0.705201 0.044346 0.616015
O O8 0.000000 0.000000 0.500000
O O9 0.719638 0.312169 0.019659
O O10 0.582122 0.186203 0.462676
O O11 0.025653 0.171840 0.651559
O O12 0.695823 0.034771 0.111395
O O13 0.000000 0.000000 0.000000
O O14 0.402105 0.319010 0.214270
O O15 0.637000 0.408709 0.742627
O O16 0.500000 0.000000 0.500000
O O17 0.500000 0.500000 0.500000
O O18 0.710460 0.629963 0.521324
#
# Coordination Sequence:
#
# PCOD8018779 Si02
#       8
#     2   2   2   2   2   2   2   2
#     4  10  22  40  71  92 125 179 222 274 343 398
#     4  12  25  45  69 101 134 181 229 282 345 409
#     4  11  21  41  69  96 127 172 227 276 341 402
#     4  12  27  44  70 102 140 186 228 282 344 409
#     4  11  21  43  70  93 133 177 226 280 342 408
#     4  12  26  44  69 101 139 180 227 280 342 412
#     4  11  24  39  64  99 131 176 225 281 328 403
#     4  11  21  45  67  96 136 176 230 272 338 411
#
# _framework density 21.725968000000002
#
# number of rings (size 3 to 8) (size 9 to 14) (size 15 to 20)
#    0.000    0.750    5.000    3.375    3.500    1.000 
#    0.000    1.875    0.000    0.000    0.000    0.000 
#    0.000    0.000    0.000    0.000    0.000    0.000 
#
# Total GULP energy -198295.313605 kJ/mol
# GULP energy per Si atom -12393.457100 kJ/mol
# Density = 2.167652 g / cm^3
# Si number density = 21.725968 Si / 1000 Ang^3
#
#
#
# Elastic Constant Matrix: (Units=GPa)
#
#
# Indices 1 2 3 4 5 6 
#
# 1 154.1022 47.1529 38.8286 4.9532 18.4275 25.3874
# 2 47.1529 112.2971 35.3302 -4.4048 14.3585 33.1384
# 3 38.8286 35.3302 85.6516 -4.7226 15.1844 2.6745
# 4 4.9532 -4.4048 -4.7226 39.6714 -3.7447 0.9708
# 5 18.4275 14.3585 15.1844 -3.7447 40.8980 0.6035
# 6 25.3874 33.1384 2.6745 0.9708 0.6035 49.2241
#
#
#
# Elastic Compliance Matrix: (Units=1/GPa)
#
#
# Indices 1 2 3 4 5 6 
#
# 1 0.008522 -0.001529 -0.002809 -0.001715 -0.002371 -0.003150
# 2 -0.001529 0.013609 -0.004192 0.001185 -0.002304 -0.008141
# 3 -0.002809 -0.004192 0.015142 0.001338 -0.002813 0.003456
# 4 -0.001715 0.001185 0.001338 0.025936 0.002243 -0.000525
# 5 -0.002371 -0.002304 -0.002813 0.002243 0.027540 0.002545
# 6 -0.003150 -0.008141 0.003456 -0.000525 0.002545 0.027212
#
#
# Mechanical properties :
#
#
# Convention : Reuss Voigt Hill
#
# Bulk Modulus (GPa) = 49.47218 66.07493 57.77355
# Shear Modulus (GPa) = 35.27055 41.34132 38.30594
#
# Velocity S-wave (km/s) = 4.03355 4.36690 4.20353
# Velocity P-wave (km/s) = 6.67182 7.47699 7.08585
#
# Compressibility (1/GPa) = 0.02021338
#
# Stress axis : x y z
#
# Youngs Moduli (GPa) = 117.33712 73.47848 66.04026
#
# Poissons Ratio (x) = 0.11238 0.18548
# Poissons Ratio (y) = 0.17946 0.27687
# Poissons Ratio (z) = 0.32954 0.30806
#
# Static dielectric constant tensor:
#      x y z
#    x 4.686790 0.213430 0.405840 
#    y 0.213430 3.865250 -0.083160 
#    z 0.405840 -0.083160 4.051340 
# 
# 
# High freq. dielectric constant tensor:
#      x y z
#    x 1.882000 0.016030 0.016240 
#    y 0.016030 1.847700 -0.024810 
#    z 0.016240 -0.024810 1.836970 
# 
# From -- ./inp_files/205848.got.cif
#   From: 2010.06.25/outbox.cif.g09.slc.cpg/sg2_103_cif.got.tgz:205848.got - 2010.06.27 13:26:56.
