data_PCOD8018900
_publ_section_title
;
Structure prediction by ZEFSAII (Michael W. Deem and Ramdas Pophale) SiO2 
 PCOD8018900
Probable space group: P -1
;
_chemical_formula_sum "Si O2"
_cell_formula_units_Z 14
_cell_length_a 4.756069
_cell_length_b 5.808939
_cell_length_c 24.823376
_cell_angle_alpha 52.812607
_cell_angle_beta 89.911129
_cell_angle_gamma 88.898158
_cell_volume 546.217216
_symmetry_space_group_name_H-M "P -1"
_symmetry_group_IT_number 2
_symmetry_cell_setting 'triclinic'
loop_
_space_group_symop_operation_xyz
x,y,z
-x,-y,-z
loop_
_atom_site_type_symbol
_atom_site_label
_atom_site_fract_x
_atom_site_fract_y
_atom_site_fract_z
Si Si1 0.005753 0.329939 0.393797
Si Si2 0.800961 0.478656 0.951504
Si Si3 0.920634 0.359471 0.855377
Si Si4 0.442656 0.220282 0.630894
Si Si5 0.945240 0.831909 0.697526
Si Si6 0.240501 0.295422 0.508005
Si Si7 0.420615 0.972491 0.916457
O O1 0.746906 0.557829 0.365610
O O2 0.149355 0.330618 0.334718
O O3 0.269820 0.380992 0.430890
O O4 0.866416 0.026936 0.449593
O O5 0.998911 0.469813 0.899794
O O6 0.574447 0.742862 0.909197
O O7 0.000000 0.500000 0.000000
O O8 0.632285 0.180762 0.003874
O O9 0.931324 0.617456 0.777255
O O10 0.603588 0.258300 0.878961
O O11 0.122451 0.090549 0.875301
O O12 0.485701 0.314804 0.552882
O O13 0.744517 0.115724 0.669922
O O14 0.261642 0.927820 0.672684
O O15 0.000000 0.500000 0.500000
#
# Coordination Sequence:
#
# PCOD8018900 Si02
#       7
#     2   2   2   2   2   2   2
#     4   9  19  38  65  90 129 167 211 260 323 371
#     4  11  25  43  69 100 130 163 217 268 323 385
#     4  12  26  42  67  93 133 170 214 266 325 381
#     4  10  22  41  62  90 129 164 216 262 312 373
#     4  11  25  42  61  92 126 171 213 258 313 384
#     4   8  16  36  64  97 123 164 211 268 313 370
#     4  11  25  43  68  98 127 168 212 267 324 385
#
# _framework density 25.630832000000002
#
# number of rings (size 3 to 8) (size 9 to 14) (size 15 to 20)
#    0.000    1.714    1.429    1.714    4.000    5.143 
#    0.000   24.286    0.000    0.000    0.000    0.000 
#    0.000    0.000    0.000    0.000    0.000    0.000 
#
# Total GULP energy -173490.457734 kJ/mol
# GULP energy per Si atom -12392.175552 kJ/mol
# Density = 2.557249 g / cm^3
# Si number density = 25.630832 Si / 1000 Ang^3
#
#
#
# Elastic Constant Matrix: (Units=GPa)
#
#
# Indices 1 2 3 4 5 6 
#
# 1 101.0287 18.5489 40.0241 -1.5440 4.7290 -23.7523
# 2 18.5489 100.0267 54.6406 -1.1152 8.5409 -20.6228
# 3 40.0241 54.6406 194.7251 -10.5701 -14.0016 -22.0025
# 4 -1.5440 -1.1152 -10.5701 38.5345 -7.3909 11.1392
# 5 4.7290 8.5409 -14.0016 -7.3909 37.3244 -2.2272
# 6 -23.7523 -20.6228 -22.0025 11.1392 -2.2272 28.6561
#
#
#
# Elastic Compliance Matrix: (Units=1/GPa)
#
#
# Indices 1 2 3 4 5 6 
#
# 1 0.013346 0.001349 -0.002233 -0.003963 -0.002928 0.011631
# 2 0.001349 0.014202 -0.003766 -0.004367 -0.005117 0.009747
# 3 -0.002233 -0.003766 0.007130 0.002509 0.004333 0.000275
# 4 -0.003963 -0.004367 0.002509 0.032667 0.007922 -0.016583
# 5 -0.002928 -0.005117 0.004333 0.007922 0.031323 -0.003427
# 6 0.011631 0.009747 0.000275 -0.016583 -0.003427 0.057943
#
#
# Mechanical properties :
#
#
# Convention : Reuss Voigt Hill
#
# Bulk Modulus (GPa) = 39.40454 69.13420 54.26937
# Shear Modulus (GPa) = 28.67442 39.74081 34.20761
#
# Velocity S-wave (km/s) = 3.34840 3.94192 3.65722
# Velocity P-wave (km/s) = 5.50965 6.91013 6.24925
#
# Compressibility (1/GPa) = 0.02537779
#
# Stress axis : x y z
#
# Youngs Moduli (GPa) = 74.92751 70.41137 140.25316
#
# Poissons Ratio (x) = -0.09497 0.31319
# Poissons Ratio (y) = -0.10106 0.52820
# Poissons Ratio (z) = 0.16732 0.26517
#
# Static dielectric constant tensor:
#      x y z
#    x 4.874710 0.183850 -0.228260 
#    y 0.183850 4.571480 -0.104720 
#    z -0.228260 -0.104720 4.809590 
# 
# 
# High freq. dielectric constant tensor:
#      x y z
#    x 2.039030 0.009870 -0.011280 
#    y 0.009870 2.037310 -0.023530 
#    z -0.011280 -0.023530 2.013190 
# 
# From -- ./inp_files/127851.got.cif
#   From: 2010.06.25/outbox.cif.g09.slc.cpg/sg2_64_cif.got.tgz:127851.got - 2010.06.27 13:26:56.
