data_PCOD8018743
_publ_section_title
;
Structure prediction by ZEFSAII (Michael W. Deem and Ramdas Pophale) SiO2 
 PCOD8018743
Probable space group: P -1
;
_chemical_formula_sum "Si O2"
_cell_formula_units_Z 16
_cell_length_a 11.135906
_cell_length_b 13.334984
_cell_length_c 13.620192
_cell_angle_alpha 135.589802
_cell_angle_beta 31.886710
_cell_angle_gamma 136.206934
_cell_volume 710.359909
_symmetry_space_group_name_H-M "P -1"
_symmetry_group_IT_number 2
_symmetry_cell_setting 'triclinic'
loop_
_space_group_symop_operation_xyz
x,y,z
-x,-y,-z
loop_
_atom_site_type_symbol
_atom_site_label
_atom_site_fract_x
_atom_site_fract_y
_atom_site_fract_z
Si Si1 0.216370 0.963726 0.875451
Si Si2 0.971385 0.990257 0.628594
Si Si3 0.519864 0.206784 0.095367
Si Si4 0.920112 0.321517 0.330426
Si Si5 0.717381 0.573124 0.689432
Si Si6 0.066336 0.775642 0.044153
Si Si7 0.694728 0.192770 0.756457
Si Si8 0.753067 0.532078 0.958734
O O1 0.269145 0.838903 0.679436
O O2 0.437836 0.116661 0.830567
O O3 0.155008 0.897388 0.980639
O O4 0.000000 0.000000 0.000000
O O5 0.695333 0.933399 0.814358
O O6 0.117500 0.875624 0.475406
O O7 0.070859 0.150756 0.728269
O O8 0.000000 0.000000 0.500000
O O9 0.407770 0.336841 0.231319
O O10 0.707980 0.263630 0.092391
O O11 0.657675 0.157590 0.874467
O O12 0.779912 0.442022 0.495743
O O13 0.035260 0.321839 0.358824
O O14 0.144224 0.357223 0.125171
O O15 0.529211 0.493788 0.850584
O O16 0.888898 0.614791 0.020271
O O17 0.795683 0.371883 0.797162
#
# Coordination Sequence:
#
# PCOD8018743 Si02
#       8
#     2   2   2   2   2   2   2   2
#     4  11  23  43  68  96 131 175 214 268 327 384
#     4  12  23  40  67  96 130 173 216 268 322 386
#     4  11  22  44  65  95 128 175 210 272 324 386
#     4  10  22  42  65  97 127 171 218 265 321 388
#     4  10  22  40  70  91 131 170 216 267 325 381
#     4  11  24  43  67  94 135 167 220 267 324 389
#     4  11  23  41  68  94 132 170 218 263 329 384
#     4  10  23  42  64  94 130 171 210 269 322 384
#
# _framework density 22.523792
#
# number of rings (size 3 to 8) (size 9 to 14) (size 15 to 20)
#    0.000    1.250    2.500    3.750    1.750    3.000 
#    0.000    3.750    0.000    0.000    0.000    0.000 
#    0.000    0.000    0.000    0.000    0.000    0.000 
#
# Total GULP energy -198339.792104 kJ/mol
# GULP energy per Si atom -12396.237007 kJ/mol
# Density = 2.247253 g / cm^3
# Si number density = 22.523792 Si / 1000 Ang^3
#
#
#
# Elastic Constant Matrix: (Units=GPa)
#
#
# Indices 1 2 3 4 5 6 
#
# 1 115.3388 28.2258 34.0538 28.2625 -12.4938 13.6575
# 2 28.2258 100.3259 25.6978 31.5786 1.3478 24.6647
# 3 34.0538 25.6978 97.8530 25.6338 -2.8932 12.0409
# 4 28.2625 31.5786 25.6338 41.4942 8.6551 11.3635
# 5 -12.4938 1.3478 -2.8932 8.6551 23.4380 0.5605
# 6 13.6575 24.6647 12.0409 11.3635 0.5605 37.8587
#
#
#
# Elastic Compliance Matrix: (Units=1/GPa)
#
#
# Indices 1 2 3 4 5 6 
#
# 1 0.012681 -0.000006 -0.001463 -0.009447 0.010102 -0.001419
# 2 -0.000006 0.014718 -0.000421 -0.009730 0.002849 -0.006574
# 3 -0.001463 -0.000421 0.012946 -0.007066 0.003481 -0.001246
# 4 -0.009447 -0.009730 -0.007066 0.047614 -0.022884 -0.001958
# 5 0.010102 0.002849 0.003481 -0.022884 0.056781 -0.000579
# 6 -0.001419 -0.006574 -0.001246 -0.001958 -0.000579 0.032202
#
#
# Mechanical properties :
#
#
# Convention : Reuss Voigt Hill
#
# Bulk Modulus (GPa) = 27.34911 54.38583 40.86747
# Shear Modulus (GPa) = 25.91882 35.59423 30.75653
#
# Velocity S-wave (km/s) = 3.39592 3.97960 3.69929
# Velocity P-wave (km/s) = 5.24834 6.73162 6.03572
#
# Compressibility (1/GPa) = 0.03656427
#
# Stress axis : x y z
#
# Youngs Moduli (GPa) = 78.85921 67.94551 77.24139
#
# Poissons Ratio (x) = 0.00041 0.11304
# Poissons Ratio (y) = 0.00048 0.03250
# Poissons Ratio (z) = 0.11540 0.02859
#
# Static dielectric constant tensor:
#      x y z
#    x 3.999480 0.214250 0.081150 
#    y 0.214250 4.167850 0.154710 
#    z 0.081150 0.154710 4.304350 
# 
# 
# High freq. dielectric constant tensor:
#      x y z
#    x 1.889890 0.005710 -0.001130 
#    y 0.005710 1.884580 0.013960 
#    z -0.001130 0.013960 1.890210 
# 
# From -- ./inp_files/521717.got.cif
#   From: 2010.06.25/outbox.cif.g09.slc.cpg/sg2_261_cif.got.tgz:521717.got - 2010.06.27 13:26:56.
