data_PCOD8018069
_publ_section_title
;
Structure prediction by ZEFSAII (Michael W. Deem and Ramdas Pophale) SiO2 
 PCOD8018069
Probable space group: P -1
;
_chemical_formula_sum "Si O2"
_cell_formula_units_Z 16
_cell_length_a 13.417686
_cell_length_b 5.248542
_cell_length_c 15.595747
_cell_angle_alpha 80.946853
_cell_angle_beta 39.626338
_cell_angle_gamma 90.379654
_cell_volume 677.353170
_symmetry_space_group_name_H-M "P -1"
_symmetry_group_IT_number 2
_symmetry_cell_setting 'triclinic'
loop_
_space_group_symop_operation_xyz
x,y,z
-x,-y,-z
loop_
_atom_site_type_symbol
_atom_site_label
_atom_site_fract_x
_atom_site_fract_y
_atom_site_fract_z
Si Si1 0.723683 0.988566 0.025133
Si Si2 0.106035 0.784430 0.935375
Si Si3 0.577817 0.059524 0.354560
Si Si4 0.140950 0.822677 0.332315
Si Si5 0.090483 0.230340 0.220118
Si Si6 0.857747 0.381675 0.480296
Si Si7 0.501432 0.414561 0.692853
Si Si8 0.359515 0.655039 0.069784
O O1 0.602119 0.086907 0.031865
O O2 0.885027 0.938084 0.871632
O O3 0.788795 0.195629 0.047551
O O4 0.619292 0.713518 0.144708
O O5 0.229755 0.853234 0.770764
O O6 0.000000 0.500000 0.000000
O O7 0.000000 0.000000 0.000000
O O8 0.517752 0.291100 0.331327
O O9 0.500000 0.000000 0.500000
O O10 0.534582 0.779174 0.352666
O O11 0.139383 0.834745 0.435521
O O12 0.297238 0.720512 0.200791
O O13 0.980668 0.646309 0.408886
O O14 0.150631 0.113382 0.274185
O O15 0.213974 0.504002 0.115711
O O16 0.910093 0.270836 0.359155
O O17 0.685847 0.449140 0.590686
O O18 0.500000 0.500000 0.000000
#
# Coordination Sequence:
#
# PCOD8018069 Si02
#       8
#     2   2   2   2   2   2   2   2
#     4  10  25  43  66 102 139 175 239 297 338 442
#     4  11  25  47  76 106 138 189 231 291 374 423
#     4  11  26  52  70 107 139 174 231 296 350 446
#     4   9  21  40  58  91 140 177 244 282 335 416
#     4  10  22  40  61  94 139 178 242 288 340 415
#     4  10  22  40  63  95 132 190 229 288 345 410
#     4  11  26  43  76  99 138 180 228 284 361 409
#     4  10  23  38  64  98 138 191 231 292 356 405
#
# _framework density 23.621352999999999
#
# number of rings (size 3 to 8) (size 9 to 14) (size 15 to 20)
#    0.000    1.750    0.000    2.250   10.500    2.000 
#    9.000    0.000    0.000    0.000    0.000    0.000 
#    0.000    0.000    0.000    0.000    0.000    0.000 
#
# Total GULP energy -198238.644251 kJ/mol
# GULP energy per Si atom -12389.915266 kJ/mol
# Density = 2.356759 g / cm^3
# Si number density = 23.621353 Si / 1000 Ang^3
#
#
#
# Elastic Constant Matrix: (Units=GPa)
#
#
# Indices 1 2 3 4 5 6 
#
# 1 50.9621 7.7584 62.2383 9.9942 -2.0972 -8.3796
# 2 7.7584 66.6649 37.9111 11.8652 -3.3490 -5.1483
# 3 62.2383 37.9111 174.9047 18.8919 10.4092 -9.5256
# 4 9.9942 11.8652 18.8919 35.6890 -3.1486 1.8831
# 5 -2.0972 -3.3490 10.4092 -3.1486 39.9912 3.9593
# 6 -8.3796 -5.1483 -9.5256 1.8831 3.9593 31.7982
#
#
#
# Elastic Compliance Matrix: (Units=1/GPa)
#
#
# Indices 1 2 3 4 5 6 
#
# 1 0.038434 0.005243 -0.014250 -0.004843 0.005154 0.006353
# 2 0.005243 0.018645 -0.005402 -0.004722 0.002600 0.002738
# 3 -0.014250 -0.005402 0.012329 -0.001117 -0.004465 -0.000315
# 4 -0.004843 -0.004722 -0.001117 0.032011 0.002617 -0.004597
# 5 0.005154 0.002600 -0.004465 0.002617 0.027168 -0.003097
# 6 0.006353 0.002738 -0.000315 -0.004597 -0.003097 0.034129
#
#
# Mechanical properties :
#
#
# Convention : Reuss Voigt Hill
#
# Bulk Modulus (GPa) = 24.63825 56.48306 40.56066
# Shear Modulus (GPa) = 24.38237 33.80394 29.09316
#
# Velocity S-wave (km/s) = 3.21630 3.78706 3.51329
# Velocity P-wave (km/s) = 4.92401 6.56401 5.80225
#
# Compressibility (1/GPa) = 0.04058730
#
# Stress axis : x y z
#
# Youngs Moduli (GPa) = 26.01829 53.63359 81.11263
#
# Poissons Ratio (x) = -0.28118 1.15589
# Poissons Ratio (y) = -0.13640 0.43821
# Poissons Ratio (z) = 0.37077 0.28975
#
# Static dielectric constant tensor:
#      x y z
#    x 4.498460 -0.776030 0.757730 
#    y -0.776030 5.230300 -0.772060 
#    z 0.757730 -0.772060 5.498720 
# 
# 
# High freq. dielectric constant tensor:
#      x y z
#    x 1.902300 -0.001970 0.009340 
#    y -0.001970 1.944460 0.004440 
#    z 0.009340 0.004440 1.961110 
# 
# From -- ./inp_files/571636.got.cif
#   From: 2010.06.25/outbox.cif.g09.slc.cpg/sg2_286_cif.got.tgz:571636.got - 2010.06.27 13:26:56.
