data_PCOD8018761
_publ_section_title
;
Structure prediction by ZEFSAII (Michael W. Deem and Ramdas Pophale) SiO2 
 PCOD8018761
Probable space group: P -1
;
_chemical_formula_sum "Si O2"
_cell_formula_units_Z 14
_cell_length_a 9.467387
_cell_length_b 22.191414
_cell_length_c 5.210575
_cell_angle_alpha 78.186126
_cell_angle_beta 98.302872
_cell_angle_gamma 39.790626
_cell_volume 600.973772
_symmetry_space_group_name_H-M "P -1"
_symmetry_group_IT_number 2
_symmetry_cell_setting 'triclinic'
loop_
_space_group_symop_operation_xyz
x,y,z
-x,-y,-z
loop_
_atom_site_type_symbol
_atom_site_label
_atom_site_fract_x
_atom_site_fract_y
_atom_site_fract_z
Si Si1 0.422822 0.354933 0.698113
Si Si2 0.357502 0.031121 0.183079
Si Si3 0.795298 0.384428 0.139817
Si Si4 0.855726 0.283245 0.737380
Si Si5 0.713674 0.143381 0.075978
Si Si6 0.711795 0.077594 0.614739
Si Si7 0.005801 0.554818 0.761663
O O1 0.593008 0.339014 0.577643
O O2 0.264690 0.355872 0.521608
O O3 0.237866 0.465301 0.705958
O O4 0.612754 0.248138 0.018798
O O5 0.500000 0.000000 0.500000
O O6 0.395229 0.945021 0.267913
O O7 0.073774 0.156945 0.972311
O O8 0.500000 0.000000 0.000000
O O9 0.905772 0.303963 0.472515
O O10 0.955451 0.391363 0.153874
O O11 0.500000 0.500000 0.000000
O O12 0.835334 0.336895 0.922534
O O13 0.580592 0.146291 0.253014
O O14 0.673644 0.142225 0.767078
O O15 0.007339 0.038505 0.296955
O O16 0.000000 0.500000 0.000000
#
# Coordination Sequence:
#
# PCOD8018761 Si02
#       7
#     2   2   2   2   2   2   2
#     4  11  25  45  72 103 143 186 240 290 354 425
#     4  12  26  47  69 102 146 182 237 298 347 426
#     4  12  26  47  76 106 148 187 243 294 354 438
#     4  12  27  48  76 106 139 203 237 286 373 429
#     4  10  22  40  70  97 129 179 222 284 336 411
#     4  10  22  42  65 100 133 170 231 278 340 402
#     4  11  27  46  69 107 144 183 234 304 348 417
#
# _framework density 23.295528000000001
#
# number of rings (size 3 to 8) (size 9 to 14) (size 15 to 20)
#    0.000    0.857    2.857    3.000    6.000    3.429 
#    0.000    0.000    0.000    0.000    0.000    0.000 
#    0.000    0.000    0.000    0.000    0.000    0.000 
#
# Total GULP energy -173477.624197 kJ/mol
# GULP energy per Si atom -12391.258871 kJ/mol
# Density = 2.324251 g / cm^3
# Si number density = 23.295528 Si / 1000 Ang^3
#
#
#
# Elastic Constant Matrix: (Units=GPa)
#
#
# Indices 1 2 3 4 5 6 
#
# 1 148.9823 24.5112 28.4001 2.2719 -13.8211 1.9453
# 2 24.5112 23.9951 17.0330 -19.7514 14.9965 -10.4037
# 3 28.4001 17.0330 107.8033 10.7074 -19.2452 -4.4760
# 4 2.2719 -19.7514 10.7074 24.9491 4.6457 -7.8994
# 5 -13.8211 14.9965 -19.2452 4.6457 45.1787 2.6144
# 6 1.9453 -10.4037 -4.4760 -7.8994 2.6144 32.3147
#
#
#
# Elastic Compliance Matrix: (Units=1/GPa)
#
#
# Indices 1 2 3 4 5 6 
#
# 1 0.005899 0.006614 -0.003788 0.007978 -0.003024 0.003444
# 2 0.006614 -0.033974 0.011331 -0.043925 0.023943 -0.022441
# 3 -0.003788 0.011331 0.007322 0.009095 -0.003163 0.007369
# 4 0.007978 -0.043925 0.009095 -0.009095 0.022839 -0.017433
# 5 -0.003024 0.023943 -0.003163 0.022839 0.008853 0.012319
# 6 0.003444 -0.022441 0.007369 -0.017433 0.012319 0.019276
#
#
# Mechanical properties :
#
#
# Convention : Reuss Voigt Hill
#
# Bulk Modulus (GPa) = 132.28900 46.74103 89.51502
# Shear Modulus (GPa) = -181.74017 34.54428 -73.59795
#
# Velocity S-wave (km/s) = -8.84220 3.85498 -5.62688
# Velocity P-wave (km/s) = 6.88007 6.31842 1.92520
#
# Compressibility (1/GPa) = 0.00755921
#
# Stress axis : x y z
#
# Youngs Moduli (GPa) = 169.51796 -29.43415 136.57748
#
# Poissons Ratio (x) = 0.19467 0.51739
# Poissons Ratio (y) = -1.12113 -1.54754
# Poissons Ratio (z) = 0.64218 0.33352
#
# Static dielectric constant tensor:
#      x y z
#    x 2.883570 -0.812230 -0.127940 
#    y -0.812230 3.833310 -0.410070 
#    z -0.127940 -0.410070 4.941780 
# 
# 
# High freq. dielectric constant tensor:
#      x y z
#    x 1.926660 -0.000570 -0.013350 
#    y -0.000570 1.928290 -0.008950 
#    z -0.013350 -0.008950 1.929010 
# 
# From -- ./inp_files/27211.got.cif
#   From: 2010.06.25/outbox.cif.g09.slc.cpg/sg2_14_cif.got.tgz:27211.got - 2010.06.27 13:26:56.
