data_PCOD8018064
_publ_section_title
;
Structure prediction by ZEFSAII (Michael W. Deem and Ramdas Pophale) SiO2 
 PCOD8018064
Probable space group: P -1
;
_chemical_formula_sum "Si O2"
_cell_formula_units_Z 16
_cell_length_a 6.964247
_cell_length_b 11.564447
_cell_length_c 21.387527
_cell_angle_alpha 31.772337
_cell_angle_beta 109.759841
_cell_angle_gamma 122.467177
_cell_volume 737.586370
_symmetry_space_group_name_H-M "P -1"
_symmetry_group_IT_number 2
_symmetry_cell_setting 'triclinic'
loop_
_space_group_symop_operation_xyz
x,y,z
-x,-y,-z
loop_
_atom_site_type_symbol
_atom_site_label
_atom_site_fract_x
_atom_site_fract_y
_atom_site_fract_z
Si Si1 0.965327 0.226392 0.692043
Si Si2 0.229458 0.410544 0.509069
Si Si3 0.770989 0.652646 0.944014
Si Si4 0.586440 0.131336 0.881289
Si Si5 0.810012 0.376834 0.957716
Si Si6 0.919575 0.098586 0.503740
Si Si7 0.585588 0.547234 0.752183
Si Si8 0.906460 0.588490 0.245499
O O1 0.127204 0.289046 0.620547
O O2 0.115595 0.330011 0.724134
O O3 0.792136 0.340898 0.616794
O O4 0.807348 0.928521 0.815320
O O5 0.500000 0.500000 0.500000
O O6 0.103023 0.211805 0.529682
O O7 0.835634 0.568793 0.925792
O O8 0.500000 0.500000 0.000000
O O9 0.946787 0.629443 0.024099
O O10 0.571087 0.390365 0.758691
O O11 0.853133 0.206662 0.856747
O O12 0.500000 0.000000 0.000000
O O13 0.400116 0.911697 0.915233
O O14 0.758629 0.491500 0.838162
O O15 0.865823 0.306650 0.374175
O O16 0.684338 0.846176 0.617428
O O17 0.000000 0.000000 0.500000
O O18 0.321909 0.431016 0.805921
#
# Coordination Sequence:
#
# PCOD8018064 Si02
#       8
#     2   2   2   2   2   2   2   2
#     4  10  23  42  66  99 129 174 230 272 331 410
#     4  10  24  44  69  98 137 176 221 278 341 402
#     4  11  23  41  64  91 127 176 223 273 334 397
#     4  10  22  40  61  93 131 171 220 273 334 399
#     4  10  24  40  61  91 131 167 227 277 326 395
#     4  11  23  42  66 101 135 173 226 280 344 405
#     4  11  23  41  64  95 133 172 221 280 338 403
#     4  11  23  40  68  95 133 179 223 277 346 410
#
# _framework density 21.692373
#
# number of rings (size 3 to 8) (size 9 to 14) (size 15 to 20)
#    0.000    1.500    1.250    2.625    1.750    9.000 
#    4.500    0.000    0.000    0.000    0.000    0.000 
#    0.000    0.000    0.000    0.000    0.000    0.000 
#
# Total GULP energy -198252.858362 kJ/mol
# GULP energy per Si atom -12390.803648 kJ/mol
# Density = 2.164300 g / cm^3
# Si number density = 21.692373 Si / 1000 Ang^3
#
#
#
# Elastic Constant Matrix: (Units=GPa)
#
#
# Indices 1 2 3 4 5 6 
#
# 1 163.9859 60.5693 50.1372 0.7475 -7.4084 24.7471
# 2 60.5693 78.4459 40.6676 -2.4623 11.7837 -10.4839
# 3 50.1372 40.6676 117.8157 -16.4221 4.1660 5.7654
# 4 0.7475 -2.4623 -16.4221 34.9961 -10.7927 6.4660
# 5 -7.4084 11.7837 4.1660 -10.7927 16.6372 -0.6561
# 6 24.7471 -10.4839 5.7654 6.4660 -0.6561 45.3047
#
#
#
# Elastic Compliance Matrix: (Units=1/GPa)
#
#
# Indices 1 2 3 4 5 6 
#
# 1 0.015350 -0.017122 0.000359 0.008430 0.023818 -0.013251
# 2 -0.017122 0.039249 -0.008313 -0.018457 -0.044468 0.021483
# 3 0.000359 -0.008313 0.012353 0.008683 0.008398 -0.004810
# 4 0.008430 -0.018457 0.008683 0.048108 0.045222 -0.016192
# 5 0.023818 -0.044468 0.008398 0.045222 0.128299 -0.028965
# 6 -0.013251 0.021483 -0.004810 -0.016192 -0.028965 0.036786
#
#
# Mechanical properties :
#
#
# Convention : Reuss Voigt Hill
#
# Bulk Modulus (GPa) = 59.52406 73.66618 66.59512
# Shear Modulus (GPa) = 14.88555 33.31248 24.09901
#
# Velocity S-wave (km/s) = 2.62241 3.92302 3.33670
# Velocity P-wave (km/s) = 6.05549 7.38602 6.75360
#
# Compressibility (1/GPa) = 0.01679993
#
# Stress axis : x y z
#
# Youngs Moduli (GPa) = 65.14806 25.47836 80.95095
#
# Poissons Ratio (x) = 0.43624 -0.02908
# Poissons Ratio (y) = 1.11547 0.67296
# Poissons Ratio (z) = -0.02341 0.21181
#
# Static dielectric constant tensor:
#      x y z
#    x 16.898690 -6.520700 14.396340 
#    y -6.520700 7.848310 -7.481820 
#    z 14.396340 -7.481820 19.839610 
# 
# 
# High freq. dielectric constant tensor:
#      x y z
#    x 1.855750 -0.002160 0.011030 
#    y -0.002160 1.858520 -0.021590 
#    z 0.011030 -0.021590 1.854860 
# 
# From -- ./inp_files/84293.got.cif
#   From: 2010.06.25/outbox.cif.g09.slc.cpg/sg2_43_cif.got.tgz:84293.got - 2010.06.27 13:26:56.
