data_PCOD8018381
_publ_section_title
;
Structure prediction by ZEFSAII (Michael W. Deem and Ramdas Pophale) SiO2 
 PCOD8018381
Probable space group: P -1
;
_chemical_formula_sum "Si O2"
_cell_formula_units_Z 14
_cell_length_a 12.884531
_cell_length_b 15.008674
_cell_length_c 6.952208
_cell_angle_alpha 67.909501
_cell_angle_beta 97.525848
_cell_angle_gamma 42.604552
_cell_volume 640.750836
_symmetry_space_group_name_H-M "P -1"
_symmetry_group_IT_number 2
_symmetry_cell_setting 'triclinic'
loop_
_space_group_symop_operation_xyz
x,y,z
-x,-y,-z
loop_
_atom_site_type_symbol
_atom_site_label
_atom_site_fract_x
_atom_site_fract_y
_atom_site_fract_z
Si Si1 0.102452 0.143569 0.042274
Si Si2 0.239419 0.307922 0.189455
Si Si3 0.778836 0.464515 0.961882
Si Si4 0.552098 0.987068 0.808906
Si Si5 0.973553 0.045854 0.177026
Si Si6 0.144639 0.718954 0.498913
Si Si7 0.439781 0.542898 0.171174
O O1 0.997868 0.212587 0.753761
O O2 0.326258 0.007725 0.173499
O O3 0.100696 0.044439 0.242795
O O4 0.982884 0.314916 0.005845
O O5 0.311051 0.205972 0.088302
O O6 0.341742 0.165366 0.499947
O O7 0.320873 0.353471 0.179136
O O8 0.000000 0.500000 0.000000
O O9 0.829828 0.380005 0.250759
O O10 0.629516 0.512792 0.762443
O O11 0.500000 0.000000 0.000000
O O12 0.056210 0.887156 0.441094
O O13 0.738802 0.242544 0.006024
O O14 0.000000 0.000000 0.000000
O O15 0.359851 0.581079 0.562321
O O16 0.500000 0.500000 0.000000
#
# Coordination Sequence:
#
# PCOD8018381 Si02
#       7
#     2   2   2   2   2   2   2
#     4  10  22  41  65  98 128 173 218 266 331 386
#     4  11  25  48  70  96 131 171 223 283 332 394
#     4  10  22  41  67  96 131 175 214 265 330 389
#     4  11  27  47  70  99 129 171 226 279 335 397
#     4   9  20  38  58  91 131 170 207 255 313 383
#     4  10  22  40  65  95 139 169 214 270 315 395
#     4   9  20  38  58  95 128 171 215 251 315 384
#
# _framework density 21.849367999999998
#
# number of rings (size 3 to 8) (size 9 to 14) (size 15 to 20)
#    0.000    2.000    1.429    0.000    4.000   12.000 
#   15.429    0.000    0.000    0.000    0.000    0.000 
#    0.000    0.000    0.000    0.000    0.000    0.000 
#
# Total GULP energy -173543.312834 kJ/mol
# GULP energy per Si atom -12395.950917 kJ/mol
# Density = 2.179964 g / cm^3
# Si number density = 21.849368 Si / 1000 Ang^3
#
#
#
# Elastic Constant Matrix: (Units=GPa)
#
#
# Indices 1 2 3 4 5 6 
#
# 1 87.7766 47.8683 37.7773 -15.4822 2.6047 -2.4988
# 2 47.8683 131.7442 52.5860 -23.9231 -3.7801 -0.6241
# 3 37.7773 52.5860 92.3028 -14.8360 6.1913 -1.4410
# 4 -15.4822 -23.9231 -14.8360 40.8417 -0.5868 -1.3155
# 5 2.6047 -3.7801 6.1913 -0.5868 43.2992 -10.0417
# 6 -2.4988 -0.6241 -1.4410 -1.3155 -10.0417 36.6706
#
#
#
# Elastic Compliance Matrix: (Units=1/GPa)
#
#
# Indices 1 2 3 4 5 6 
#
# 1 0.015500 -0.003693 -0.003818 0.002344 -0.000493 0.000792
# 2 -0.003693 0.011490 -0.004567 0.003716 0.002034 0.000455
# 3 -0.003818 -0.004567 0.015384 0.001420 -0.002430 -0.000348
# 4 0.002344 0.003716 0.001420 0.028123 0.000705 0.001481
# 5 -0.000493 0.002034 -0.002430 0.000705 0.025247 0.006844
# 6 0.000792 0.000455 -0.000348 0.001481 0.006844 0.029245
#
#
# Mechanical properties :
#
#
# Convention : Reuss Voigt Hill
#
# Bulk Modulus (GPa) = 54.88579 65.36520 60.12549
# Shear Modulus (GPa) = 32.21277 35.73509 33.97393
#
# Velocity S-wave (km/s) = 3.84384 4.04854 3.94752
# Velocity P-wave (km/s) = 6.69886 7.19969 6.95379
#
# Compressibility (1/GPa) = 0.01821965
#
# Stress axis : x y z
#
# Youngs Moduli (GPa) = 64.51562 87.02991 65.00221
#
# Poissons Ratio (x) = 0.32137 0.24817
# Poissons Ratio (y) = 0.23823 0.29686
# Poissons Ratio (z) = 0.24631 0.39746
#
# Static dielectric constant tensor:
#      x y z
#    x 4.305150 0.173650 0.122410 
#    y 0.173650 4.130270 -0.229210 
#    z 0.122410 -0.229210 3.987370 
# 
# 
# High freq. dielectric constant tensor:
#      x y z
#    x 1.858960 0.003380 0.004830 
#    y 0.003380 1.872370 -0.003650 
#    z 0.004830 -0.003650 1.846970 
# 
# From -- ./inp_files/269799.got.cif
#   From: 2010.06.25/outbox.cif.g09.slc.cpg/sg2_135_cif.got.tgz:269799.got - 2010.06.27 13:26:56.
