data_PCOD8018320
_publ_section_title
;
Structure prediction by ZEFSAII (Michael W. Deem and Ramdas Pophale) SiO2 
 PCOD8018320
Probable space group: P -1
;
_chemical_formula_sum "Si O2"
_cell_formula_units_Z 16
_cell_length_a 14.399722
_cell_length_b 14.137732
_cell_length_c 10.643257
_cell_angle_alpha 49.141917
_cell_angle_beta 30.470591
_cell_angle_gamma 40.052781
_cell_volume 706.935335
_symmetry_space_group_name_H-M "P -1"
_symmetry_group_IT_number 2
_symmetry_cell_setting 'triclinic'
loop_
_space_group_symop_operation_xyz
x,y,z
-x,-y,-z
loop_
_atom_site_type_symbol
_atom_site_label
_atom_site_fract_x
_atom_site_fract_y
_atom_site_fract_z
Si Si1 0.781346 0.424565 0.565902
Si Si2 0.819880 0.866113 0.667758
Si Si3 0.507814 0.799990 0.969307
Si Si4 0.355855 0.582352 0.774352
Si Si5 0.989350 0.434854 0.937760
Si Si6 0.726529 0.174020 0.527272
Si Si7 0.819952 0.880097 0.932543
Si Si8 0.223054 0.494171 0.230991
O O1 0.601553 0.475195 0.623842
O O2 0.928484 0.495893 0.318990
O O3 0.692823 0.471671 0.769023
O O4 0.923090 0.248767 0.537556
O O5 0.724423 0.876087 0.910921
O O6 0.760532 0.026068 0.555352
O O7 0.720634 0.804298 0.740362
O O8 0.431229 0.769081 0.218377
O O9 0.333798 0.957157 0.970863
O O10 0.577224 0.664763 0.911286
O O11 0.350528 0.718950 0.596392
O O12 0.201365 0.615246 0.048284
O O13 0.259658 0.516079 0.842826
O O14 0.146845 0.255936 0.903885
O O15 0.000000 0.500000 0.000000
O O16 0.951171 0.142071 0.346374
O O17 0.000000 0.500000 0.500000
#
# Coordination Sequence:
#
# PCOD8018320 Si02
#       8
#     2   2   2   2   2   2   2   2
#     4  12  26  44  73  98 137 187 237 280 337 415
#     4  11  21  40  65 103 139 177 222 281 351 417
#     4  11  23  40  74  96 137 186 223 284 350 410
#     4  11  27  45  72 102 138 181 232 288 348 400
#     4  11  23  43  70 108 140 171 225 300 346 406
#     4  10  24  43  68 105 138 166 227 295 353 409
#     4  10  22  40  65 105 137 175 220 283 364 405
#     4  12  25  49  68  96 140 191 239 275 335 417
#
# _framework density 22.632905000000001
#
# number of rings (size 3 to 8) (size 9 to 14) (size 15 to 20)
#    0.000    1.000    3.750    3.375    7.000    1.000 
#    0.000    1.250    2.750    0.000    0.000    0.000 
#    0.000    0.000    0.000    0.000    0.000    0.000 
#
# Total GULP energy -198284.053718 kJ/mol
# GULP energy per Si atom -12392.753357 kJ/mol
# Density = 2.258139 g / cm^3
# Si number density = 22.632905 Si / 1000 Ang^3
#
#
#
# Elastic Constant Matrix: (Units=GPa)
#
#
# Indices 1 2 3 4 5 6 
#
# 1 112.0095 56.0623 20.4401 5.1208 -1.6050 1.5823
# 2 56.0623 160.7720 60.0294 5.6935 14.9103 -5.0308
# 3 20.4401 60.0294 85.5958 -0.8081 2.5813 -5.2642
# 4 5.1208 5.6935 -0.8081 35.8588 -1.9746 -1.9713
# 5 -1.6050 14.9103 2.5813 -1.9746 39.6622 5.4098
# 6 1.5823 -5.0308 -5.2642 -1.9713 5.4098 32.2863
#
#
#
# Elastic Compliance Matrix: (Units=1/GPa)
#
#
# Indices 1 2 3 4 5 6 
#
# 1 0.011062 -0.004098 0.000061 -0.000896 0.002156 -0.001587
# 2 -0.004098 0.010388 -0.006115 -0.001341 -0.003931 0.001399
# 3 0.000061 -0.006115 0.016033 0.001471 0.001118 0.001561
# 4 -0.000896 -0.001341 0.001471 0.028433 0.001577 0.001546
# 5 0.002156 -0.003931 0.001118 0.001577 0.027471 -0.005043
# 6 -0.001587 0.001399 0.001561 0.001546 -0.005043 0.032463
#
#
# Mechanical properties :
#
#
# Convention : Reuss Voigt Hill
#
# Bulk Modulus (GPa) = 58.20780 70.16011 64.18395
# Shear Modulus (GPa) = 32.92089 36.35115 34.63602
#
# Velocity S-wave (km/s) = 3.81801 4.01199 3.91620
# Velocity P-wave (km/s) = 6.72386 7.24761 6.99064
#
# Compressibility (1/GPa) = 0.01717983
#
# Stress axis : x y z
#
# Youngs Moduli (GPa) = 90.39858 96.26472 62.37303
#
# Poissons Ratio (x) = 0.39452 -0.00384
# Poissons Ratio (y) = 0.37048 0.38139
# Poissons Ratio (z) = -0.00556 0.58863
#
# Static dielectric constant tensor:
#      x y z
#    x 4.035820 -0.151690 -0.009760 
#    y -0.151690 4.435840 -0.353820 
#    z -0.009760 -0.353820 4.710700 
# 
# 
# High freq. dielectric constant tensor:
#      x y z
#    x 1.883610 -0.007420 -0.029500 
#    y -0.007420 1.896460 -0.010150 
#    z -0.029500 -0.010150 1.892610 
# 
# From -- ./inp_files/455520.got.cif
#   From: 2010.06.25/outbox.cif.g09.slc.cpg/sg2_228_cif.got.tgz:455520.got - 2010.06.27 13:26:56.
