data_PCOD8018196
_publ_section_title
;
Structure prediction by ZEFSAII (Michael W. Deem and Ramdas Pophale) SiO2 
 PCOD8018196
Probable space group: P -1
;
_chemical_formula_sum "Si O2"
_cell_formula_units_Z 16
_cell_length_a 11.999931
_cell_length_b 14.766972
_cell_length_c 9.102778
_cell_angle_alpha 123.861724
_cell_angle_beta 143.852043
_cell_angle_gamma 71.201169
_cell_volume 762.783247
_symmetry_space_group_name_H-M "P -1"
_symmetry_group_IT_number 2
_symmetry_cell_setting 'triclinic'
loop_
_space_group_symop_operation_xyz
x,y,z
-x,-y,-z
loop_
_atom_site_type_symbol
_atom_site_label
_atom_site_fract_x
_atom_site_fract_y
_atom_site_fract_z
Si Si1 0.858223 0.239063 0.405550
Si Si2 0.326402 0.635776 0.181992
Si Si3 0.607088 0.171707 0.792592
Si Si4 0.138087 0.084852 0.614709
Si Si5 0.950093 0.494961 0.771553
Si Si6 0.475663 0.534925 0.670658
Si Si7 0.791545 0.991064 0.695024
Si Si8 0.526530 0.241218 0.254768
O O1 0.952756 0.372156 0.601225
O O2 0.728502 0.214072 0.394238
O O3 0.038618 0.183860 0.555607
O O4 0.712941 0.182587 0.070471
O O5 0.369931 0.704763 0.140410
O O6 0.387156 0.517006 0.125205
O O7 0.447013 0.710215 0.509166
O O8 0.095505 0.597182 0.932781
O O9 0.375655 0.113823 0.511975
O O10 0.715201 0.102536 0.737908
O O11 0.182103 0.020162 0.460058
O O12 0.342699 0.133110 0.961026
O O13 0.000000 0.000000 0.500000
O O14 0.741384 0.519217 0.549930
O O15 0.000000 0.500000 0.000000
O O16 0.500000 0.500000 0.500000
O O17 0.518452 0.670885 0.836001
O O18 0.000000 0.000000 0.000000
#
# Coordination Sequence:
#
# PCOD8018196 Si02
#       8
#     2   2   2   2   2   2   2   2
#     4  11  23  44  64  92 133 172 204 263 331 372
#     4  11  23  38  66  98 124 170 220 256 311 395
#     4  11  26  45  67  90 133 176 212 262 324 389
#     4  12  27  40  70  98 122 162 225 273 314 384
#     4  11  20  37  65  94 134 169 205 266 319 372
#     4   9  18  36  60  91 127 163 204 256 318 367
#     4  11  25  48  65  90 131 174 211 267 333 376
#     4  10  22  40  63  94 131 165 207 270 323 363
#
# _framework density 20.975815000000001
#
# number of rings (size 3 to 8) (size 9 to 14) (size 15 to 20)
#    0.000    1.250    6.250    0.750    5.250    2.000 
#    0.000    2.500    0.000    0.000    0.000    0.000 
#    0.000    0.000    0.000    0.000    0.000    0.000 
#
# Total GULP energy -198390.068041 kJ/mol
# GULP energy per Si atom -12399.379253 kJ/mol
# Density = 2.092807 g / cm^3
# Si number density = 20.975815 Si / 1000 Ang^3
#
#
#
# Elastic Constant Matrix: (Units=GPa)
#
#
# Indices 1 2 3 4 5 6 
#
# 1 97.0397 26.7965 27.4573 5.7496 13.5192 -2.3157
# 2 26.7965 58.7539 0.6769 3.9727 11.9208 3.6261
# 3 27.4573 0.6769 103.2603 12.8433 18.3733 4.2424
# 4 5.7496 3.9727 12.8433 28.3127 1.1241 5.2645
# 5 13.5192 11.9208 18.3733 1.1241 35.7881 11.0370
# 6 -2.3157 3.6261 4.2424 5.2645 11.0370 34.3497
#
#
#
# Elastic Compliance Matrix: (Units=1/GPa)
#
#
# Indices 1 2 3 4 5 6 
#
# 1 0.013160 -0.005594 -0.003039 -0.000927 -0.002369 0.002756
# 2 -0.005594 0.020986 0.002788 -0.002726 -0.006045 -0.000577
# 3 -0.003039 0.002788 0.012175 -0.005195 -0.006100 0.000753
# 4 -0.000927 -0.002726 -0.005195 0.039301 0.004752 -0.006683
# 5 -0.002369 -0.006045 -0.006100 0.004752 0.037382 -0.011508
# 6 0.002756 -0.000577 0.000753 -0.006683 -0.011508 0.033988
#
#
# Mechanical properties :
#
#
# Convention : Reuss Voigt Hill
#
# Bulk Modulus (GPa) = 28.87575 40.99060 34.93318
# Shear Modulus (GPa) = 27.74302 33.29832 30.52067
#
# Velocity S-wave (km/s) = 3.64073 3.98862 3.81864
# Velocity P-wave (km/s) = 5.60975 6.38720 6.01106
#
# Compressibility (1/GPa) = 0.03463113
#
# Stress axis : x y z
#
# Youngs Moduli (GPa) = 75.98531 47.65139 82.13762
#
# Poissons Ratio (x) = 0.26656 0.24963
# Poissons Ratio (y) = 0.42506 -0.22902
# Poissons Ratio (z) = 0.23093 -0.13286
#
# Static dielectric constant tensor:
#      x y z
#    x 4.039650 -0.465060 0.274610 
#    y -0.465060 4.035130 0.047920 
#    z 0.274610 0.047920 3.971620 
# 
# 
# High freq. dielectric constant tensor:
#      x y z
#    x 1.825740 -0.016060 0.015420 
#    y -0.016060 1.806650 0.009170 
#    z 0.015420 0.009170 1.825560 
# 
# From -- ./inp_files/274188.got.cif
#   From: 2010.06.25/outbox.cif.g09.slc.cpg/sg2_138_cif.got.tgz:274188.got - 2010.06.27 13:26:56.
