data_PCOD8018586
_publ_section_title
;
Structure prediction by ZEFSAII (Michael W. Deem and Ramdas Pophale) SiO2 
 PCOD8018586
Probable space group: P -1
;
_chemical_formula_sum "Si O2"
_cell_formula_units_Z 14
_cell_length_a 10.271881
_cell_length_b 7.101956
_cell_length_c 8.670977
_cell_angle_alpha 78.246672
_cell_angle_beta 87.365740
_cell_angle_gamma 73.384336
_cell_volume 593.379665
_symmetry_space_group_name_H-M "P -1"
_symmetry_group_IT_number 2
_symmetry_cell_setting 'triclinic'
loop_
_space_group_symop_operation_xyz
x,y,z
-x,-y,-z
loop_
_atom_site_type_symbol
_atom_site_label
_atom_site_fract_x
_atom_site_fract_y
_atom_site_fract_z
Si Si1 0.712610 0.857438 0.881532
Si Si2 0.040738 0.011030 0.673729
Si Si3 0.245302 0.751586 0.284124
Si Si4 0.007334 0.379541 0.175881
Si Si5 0.634751 0.445827 0.404601
Si Si6 0.543497 0.596600 0.835332
Si Si7 0.203041 0.267977 0.752698
O O1 0.577352 0.797875 0.854451
O O2 0.835185 0.735953 0.781545
O O3 0.676820 0.091502 0.805954
O O4 0.755578 0.814499 0.064140
O O5 0.915540 0.159591 0.753451
O O6 0.171438 0.095076 0.676771
O O7 0.000000 0.000000 0.500000
O O8 0.074465 0.790497 0.788145
O O9 0.254554 0.718645 0.475527
O O10 0.318660 0.545480 0.226846
O O11 0.934346 0.544475 0.277648
O O12 0.000000 0.500000 0.000000
O O13 0.500000 0.500000 0.500000
O O14 0.593118 0.348063 0.269308
O O15 0.677773 0.649047 0.337067
O O16 0.500000 0.500000 0.000000
#
# Coordination Sequence:
#
# PCOD8018586 Si02
#       7
#     2   2   2   2   2   2   2
#     4  10  22  40  67  99 127 168 216 272 328 384
#     4  11  24  41  65 100 131 172 217 262 333 397
#     4  10  24  43  64  97 135 165 218 277 322 385
#     4   9  21  39  66  96 128 164 207 264 333 387
#     4  10  23  43  64  91 130 175 216 267 322 378
#     4  11  22  43  68  94 127 173 225 263 321 385
#     4  11  22  42  65  94 134 171 215 271 323 389
#
# _framework density 23.593665999999999
#
# number of rings (size 3 to 8) (size 9 to 14) (size 15 to 20)
#    0.000    1.714    1.429    1.714    0.000   15.429 
#    2.571    0.000    0.000    0.000    0.000    0.000 
#    0.000    0.000    0.000    0.000    0.000    0.000 
#
# Total GULP energy -173481.830096 kJ/mol
# GULP energy per Si atom -12391.559293 kJ/mol
# Density = 2.353997 g / cm^3
# Si number density = 23.593666 Si / 1000 Ang^3
#
#
#
# Elastic Constant Matrix: (Units=GPa)
#
#
# Indices 1 2 3 4 5 6 
#
# 1 74.3350 40.8428 35.4993 -0.4167 -2.0623 50.4581
# 2 40.8428 103.6420 44.9143 -18.3363 10.3284 41.2641
# 3 35.4993 44.9143 123.9109 -14.0931 4.4299 29.2302
# 4 -0.4167 -18.3363 -14.0931 40.8694 7.0983 -3.8080
# 5 -2.0623 10.3284 4.4299 7.0983 35.5759 3.1360
# 6 50.4581 41.2641 29.2302 -3.8080 3.1360 59.5049
#
#
#
# Elastic Compliance Matrix: (Units=1/GPa)
#
#
# Indices 1 2 3 4 5 6 
#
# 1 0.035173 -0.003658 -0.003492 -0.006173 0.007089 -0.026342
# 2 -0.003658 0.016445 -0.002431 0.006861 -0.005490 -0.006379
# 3 -0.003492 -0.002431 0.010346 0.002648 -0.001296 -0.000197
# 4 -0.006173 0.006861 0.002648 0.030074 -0.008818 0.001565
# 5 0.007089 -0.005490 -0.001296 -0.008818 0.032373 -0.003838
# 6 -0.026342 -0.006379 -0.000197 0.001565 -0.003838 0.043965
#
#
# Mechanical properties :
#
#
# Convention : Reuss Voigt Hill
#
# Bulk Modulus (GPa) = 23.36428 60.48895 41.92661
# Shear Modulus (GPa) = 24.77621 39.23214 32.00417
#
# Velocity S-wave (km/s) = 3.24407 4.08220 3.68703
# Velocity P-wave (km/s) = 4.89452 6.92189 5.99453
#
# Compressibility (1/GPa) = 0.04280038
#
# Stress axis : x y z
#
# Youngs Moduli (GPa) = 28.43069 60.81047 96.65480
#
# Poissons Ratio (x) = 0.22246 0.33755
# Poissons Ratio (y) = 0.10401 0.23499
# Poissons Ratio (z) = 0.09929 0.14784
#
# Static dielectric constant tensor:
#      x y z
#    x 4.124070 -0.366800 -0.343880 
#    y -0.366800 4.514230 -0.557780 
#    z -0.343880 -0.557780 4.225960 
# 
# 
# High freq. dielectric constant tensor:
#      x y z
#    x 1.935460 0.007250 -0.015930 
#    y 0.007250 1.929970 -0.015200 
#    z -0.015930 -0.015200 1.932590 
# 
# From -- ./inp_files/49474.got.cif
#   From: 2010.06.25/outbox.cif.g09.slc.cpg/sg2_25_cif.got.tgz:49474.got - 2010.06.27 13:26:56.
