data_PCOD8018504
_publ_section_title
;
Structure prediction by ZEFSAII (Michael W. Deem and Ramdas Pophale) SiO2 
 PCOD8018504
Probable space group: P -1
;
_chemical_formula_sum "Si O2"
_cell_formula_units_Z 14
_cell_length_a 15.378450
_cell_length_b 11.346541
_cell_length_c 11.841846
_cell_angle_alpha 115.884611
_cell_angle_beta 151.255592
_cell_angle_gamma 44.501222
_cell_volume 577.017349
_symmetry_space_group_name_H-M "P -1"
_symmetry_group_IT_number 2
_symmetry_cell_setting 'triclinic'
loop_
_space_group_symop_operation_xyz
x,y,z
-x,-y,-z
loop_
_atom_site_type_symbol
_atom_site_label
_atom_site_fract_x
_atom_site_fract_y
_atom_site_fract_z
Si Si1 0.931321 0.177003 0.311035
Si Si2 0.152698 0.615223 0.061790
Si Si3 0.883024 0.462782 0.253586
Si Si4 0.295086 0.806898 0.397216
Si Si5 0.609275 0.796780 0.561132
Si Si6 0.459353 0.252185 0.785738
Si Si7 0.614101 0.066402 0.099377
O O1 0.913419 0.340320 0.336147
O O2 0.613008 0.302637 0.011367
O O3 0.093561 0.004892 0.327340
O O4 0.082472 0.072155 0.560152
O O5 0.116370 0.788906 0.127139
O O6 0.470375 0.393103 0.343852
O O7 0.062457 0.652589 0.844825
O O8 0.941292 0.634955 0.898189
O O9 0.139616 0.427144 0.544129
O O10 0.586979 0.698782 0.005580
O O11 0.451512 0.811117 0.486934
O O12 0.545828 0.754572 0.356433
O O13 0.500000 0.000000 0.500000
O O14 0.625609 0.048200 0.966151
O O15 0.500000 0.000000 0.000000
#
# Coordination Sequence:
#
# PCOD8018504 Si02
#       7
#     2   2   2   2   2   2   2
#     4  12  25  45  73 101 138 181 227 282 338 404
#     4  10  22  40  67 100 137 175 225 276 336 406
#     4  11  24  47  70 101 137 180 228 280 342 400
#     4  11  22  42  67 102 137 176 223 277 339 401
#     4  11  23  39  66  98 135 180 221 275 340 403
#     4  11  25  44  68 103 136 177 230 280 337 402
#     4  12  26  49  72  98 138 183 227 286 340 400
#
# _framework density 24.262701
#
# number of rings (size 3 to 8) (size 9 to 14) (size 15 to 20)
#    0.000    0.857    2.857    4.714    0.000    2.286 
#    2.571    1.429    0.000    0.000    0.000    0.000 
#    0.000    0.000    0.000    0.000    0.000    0.000 
#
# Total GULP energy -173522.738142 kJ/mol
# GULP energy per Si atom -12394.481296 kJ/mol
# Density = 2.420748 g / cm^3
# Si number density = 24.262701 Si / 1000 Ang^3
#
#
#
# Elastic Constant Matrix: (Units=GPa)
#
#
# Indices 1 2 3 4 5 6 
#
# 1 97.6135 18.4649 18.6165 9.7691 14.4239 14.2002
# 2 18.4649 103.1081 28.8829 4.7549 2.3037 16.1817
# 3 18.6165 28.8829 139.5055 19.2754 12.7756 5.6304
# 4 9.7691 4.7549 19.2754 36.8024 5.0501 2.1637
# 5 14.4239 2.3037 12.7756 5.0501 27.8385 -2.5489
# 6 14.2002 16.1817 5.6304 2.1637 -2.5489 32.8911
#
#
#
# Elastic Compliance Matrix: (Units=1/GPa)
#
#
# Indices 1 2 3 4 5 6 
#
# 1 0.012375 -0.001079 -0.000401 -0.001772 -0.006285 -0.005114
# 2 -0.001079 0.011183 -0.002013 0.000158 0.000099 -0.004694
# 3 -0.000401 -0.002013 0.008412 -0.003633 -0.002851 -0.000258
# 4 -0.001772 0.000158 -0.003633 0.029982 -0.002948 -0.000892
# 5 -0.006285 0.000099 -0.002851 -0.002948 0.041615 0.006572
# 6 -0.005114 -0.004694 -0.000258 -0.000892 0.006572 0.035533
#
#
# Mechanical properties :
#
#
# Convention : Reuss Voigt Hill
#
# Bulk Modulus (GPa) = 40.02594 52.46175 46.24384
# Shear Modulus (GPa) = 32.38074 37.79056 35.08565
#
# Velocity S-wave (km/s) = 3.65717 3.95087 3.80685
# Velocity P-wave (km/s) = 5.86224 6.51781 6.19870
#
# Compressibility (1/GPa) = 0.02498380
#
# Stress axis : x y z
#
# Youngs Moduli (GPa) = 80.80724 89.42312 118.87986
#
# Poissons Ratio (x) = 0.09650 0.04769
# Poissons Ratio (y) = 0.08720 0.23927
# Poissons Ratio (z) = 0.03242 0.17998
#
# Static dielectric constant tensor:
#      x y z
#    x 4.657640 -0.014710 0.088780 
#    y -0.014710 4.212100 0.240780 
#    z 0.088780 0.240780 5.044580 
# 
# 
# High freq. dielectric constant tensor:
#      x y z
#    x 1.972080 0.000970 -0.001200 
#    y 0.000970 1.955880 0.011900 
#    z -0.001200 0.011900 1.991640 
# 
# From -- ./inp_files/450461.got.cif
#   From: 2010.06.25/outbox.cif.g09.slc.cpg/sg2_226_cif.got.tgz:450461.got - 2010.06.27 13:26:56.
