data_PCOD8018045
_publ_section_title
;
Structure prediction by ZEFSAII (Michael W. Deem and Ramdas Pophale) SiO2 
 PCOD8018045
Probable space group: P -1
;
_chemical_formula_sum "Si O2"
_cell_formula_units_Z 12
_cell_length_a 8.430877
_cell_length_b 12.094113
_cell_length_c 13.009462
_cell_angle_alpha 145.193787
_cell_angle_beta 83.645507
_cell_angle_gamma 119.065637
_cell_volume 540.214476
_symmetry_space_group_name_H-M "P -1"
_symmetry_group_IT_number 2
_symmetry_cell_setting 'triclinic'
loop_
_space_group_symop_operation_xyz
x,y,z
-x,-y,-z
loop_
_atom_site_type_symbol
_atom_site_label
_atom_site_fract_x
_atom_site_fract_y
_atom_site_fract_z
Si Si1 0.868902 0.382018 0.673772
Si Si2 0.113062 0.804599 0.813583
Si Si3 0.886643 0.564222 0.125724
Si Si4 0.388405 0.061146 0.800690
Si Si5 0.122997 0.220356 0.902634
Si Si6 0.749702 0.757727 0.712099
O O1 0.055652 0.584100 0.727991
O O2 0.966885 0.295738 0.674638
O O3 0.655254 0.106681 0.424954
O O4 0.800286 0.519085 0.844326
O O5 0.880440 0.680855 0.686137
O O6 0.273975 0.862621 0.756233
O O7 0.249161 0.088477 0.077687
O O8 0.876443 0.749184 0.197993
O O9 0.649118 0.290195 0.972047
O O10 0.000000 0.500000 0.000000
O O11 0.297220 0.201875 0.903343
O O12 0.876593 0.952878 0.752730
O O13 0.500000 0.500000 0.500000
#
# Coordination Sequence:
#
# PCOD8018045 Si02
#       6
#     2   2   2   2   2   2
#     4  10  22  40  61  88 123 155 192 245 298 348
#     4   9  20  36  56  92 122 146 200 246 284 355
#     4  10  23  41  59  88 121 154 203 246 287 354
#     4  11  22  39  64  86 118 162 195 242 300 345
#     4   9  21  41  60  88 121 152 202 246 283 354
#     4   9  18  36  63  88 118 157 191 241 301 344
#
# _framework density 22.2134
#
# number of rings (size 3 to 8) (size 9 to 14) (size 15 to 20)
#    0.000    2.333    0.000    2.000    0.000   10.667 
#    0.000    8.333    0.000    0.000    0.000    0.000 
#    0.000    0.000    0.000    0.000    0.000    0.000 
#
# Total GULP energy -148760.796138 kJ/mol
# GULP energy per Si atom -12396.733011 kJ/mol
# Density = 2.216284 g / cm^3
# Si number density = 22.213400 Si / 1000 Ang^3
#
#
#
# Elastic Constant Matrix: (Units=GPa)
#
#
# Indices 1 2 3 4 5 6 
#
# 1 52.3431 18.6112 18.7593 0.7552 3.7138 9.2937
# 2 18.6112 101.1062 4.1008 -19.0040 4.3297 -13.6946
# 3 18.7593 4.1008 91.7881 -5.6549 10.2480 6.0627
# 4 0.7552 -19.0040 -5.6549 21.3519 -0.2181 9.4347
# 5 3.7138 4.3297 10.2480 -0.2181 31.3415 5.3666
# 6 9.2937 -13.6946 6.0627 9.4347 5.3666 31.7766
#
#
#
# Elastic Compliance Matrix: (Units=1/GPa)
#
#
# Indices 1 2 3 4 5 6 
#
# 1 0.024298 -0.006144 -0.004510 -0.004061 0.000754 -0.007816
# 2 -0.006144 0.013707 0.001247 0.010650 -0.002303 0.004693
# 3 -0.004510 0.001247 0.012568 0.005230 -0.003452 -0.001512
# 4 -0.004061 0.010650 0.005230 0.064165 0.000196 -0.014304
# 5 0.000754 -0.002303 -0.003452 0.000196 0.034364 -0.006416
# 6 -0.007816 0.004693 -0.001512 -0.014304 -0.006416 0.041397
#
#
# Mechanical properties :
#
#
# Convention : Reuss Voigt Hill
#
# Bulk Modulus (GPa) = 31.48698 36.46444 33.97571
# Shear Modulus (GPa) = 22.73759 30.47839 26.60799
#
# Velocity S-wave (km/s) = 3.20284 3.70817 3.46473
# Velocity P-wave (km/s) = 5.28045 5.89790 5.59769
#
# Compressibility (1/GPa) = 0.03175916
#
# Stress axis : x y z
#
# Youngs Moduli (GPa) = 41.15520 72.95505 79.56638
#
# Poissons Ratio (x) = 0.44824 0.35882
# Poissons Ratio (y) = 0.25286 -0.09918
# Poissons Ratio (z) = 0.18560 -0.09094
#
# Static dielectric constant tensor:
#      x y z
#    x 3.876880 -0.291360 0.023540 
#    y -0.291360 4.873070 -0.333320 
#    z 0.023540 -0.333320 3.842690 
# 
# 
# High freq. dielectric constant tensor:
#      x y z
#    x 1.856150 -0.008790 -0.000970 
#    y -0.008790 1.891740 -0.010520 
#    z -0.000970 -0.010520 1.861400 
# 
# From -- ./inp_files/21302.got.cif
#   From: 2010.06.25/outbox.cif.g09.slc.cpg/sg2_11_cif.got.tgz:21302.got - 2010.06.27 13:26:56.
