data_PCOD8018313
_publ_section_title
;
Structure prediction by ZEFSAII (Michael W. Deem and Ramdas Pophale) SiO2 
 PCOD8018313
Probable space group: P -1
;
_chemical_formula_sum "Si O2"
_cell_formula_units_Z 16
_cell_length_a 8.680232
_cell_length_b 15.074486
_cell_length_c 11.639972
_cell_angle_alpha 28.097599
_cell_angle_beta 90.050997
_cell_angle_gamma 85.009424
_cell_volume 704.768807
_symmetry_space_group_name_H-M "P -1"
_symmetry_group_IT_number 2
_symmetry_cell_setting 'triclinic'
loop_
_space_group_symop_operation_xyz
x,y,z
-x,-y,-z
loop_
_atom_site_type_symbol
_atom_site_label
_atom_site_fract_x
_atom_site_fract_y
_atom_site_fract_z
Si Si1 0.494885 0.514336 0.849092
Si Si2 0.460295 0.108282 0.256563
Si Si3 0.342908 0.171376 0.591650
Si Si4 0.682160 0.298957 0.736155
Si Si5 0.200359 0.660628 0.549199
Si Si6 0.152328 0.258806 0.971062
Si Si7 0.932504 0.006820 0.195671
Si Si8 0.343800 0.278969 0.724082
O O1 0.633211 0.618886 0.685700
O O2 0.318889 0.632495 0.688936
O O3 0.500000 0.500000 0.000000
O O4 0.529273 0.304459 0.030762
O O5 0.500000 0.000000 0.500000
O O6 0.520626 0.981882 0.290788
O O7 0.273602 0.163468 0.177341
O O8 0.342185 0.152781 0.752424
O O9 0.180331 0.121404 0.596404
O O10 0.679109 0.343036 0.550799
O O11 0.514926 0.239628 0.831044
O O12 0.699782 0.497926 0.570617
O O13 0.826380 0.130020 0.958065
O O14 0.104553 0.486265 0.736172
O O15 0.081644 0.860473 0.316233
O O16 0.220701 0.225676 0.878290
O O17 0.999920 0.160302 0.099251
#
# Coordination Sequence:
#
# PCOD8018313 Si02
#       8
#     2   2   2   2   2   2   2   2
#     4  11  23  47  76  93 128 173 231 291 327 383
#     4  11  24  46  76 100 122 174 240 279 331 389
#     4  12  26  41  69 104 132 175 223 279 335 400
#     4  10  22  40  65 100 137 181 221 275 327 396
#     4  10  23  43  64  97 135 181 224 265 341 394
#     4  10  25  43  65  98 143 180 214 280 329 406
#     4  12  27  38  65 100 145 182 214 261 346 415
#     4  10  23  42  67 100 139 174 231 276 328 392
#
# _framework density 22.702480999999999
#
# number of rings (size 3 to 8) (size 9 to 14) (size 15 to 20)
#    0.000    1.250    2.500    1.875    8.750    2.000 
#    0.000    1.250    0.000    0.000    0.000    0.000 
#    0.000    0.000    0.000    0.000    0.000    0.000 
#
# Total GULP energy -198319.011905 kJ/mol
# GULP energy per Si atom -12394.938244 kJ/mol
# Density = 2.265081 g / cm^3
# Si number density = 22.702481 Si / 1000 Ang^3
#
#
#
# Elastic Constant Matrix: (Units=GPa)
#
#
# Indices 1 2 3 4 5 6 
#
# 1 111.5106 13.8500 52.3558 -5.9080 -18.2581 35.6206
# 2 13.8500 84.0372 43.3544 -0.6926 5.6825 16.6977
# 3 52.3558 43.3544 133.6963 -9.3181 4.0292 15.4934
# 4 -5.9080 -0.6926 -9.3181 35.8827 2.9364 -0.8914
# 5 -18.2581 5.6825 4.0292 2.9364 41.3119 -16.1858
# 6 35.6206 16.6977 15.4934 -0.8914 -16.1858 30.1204
#
#
#
# Elastic Compliance Matrix: (Units=1/GPa)
#
#
# Indices 1 2 3 4 5 6 
#
# 1 0.017709 0.004161 -0.005855 0.000988 -0.000206 -0.020320
# 2 0.004161 0.017341 -0.005365 -0.000265 -0.005853 -0.014928
# 3 -0.005855 -0.005365 0.011357 0.002114 -0.001892 0.003102
# 4 0.000988 -0.000265 0.002114 0.028741 -0.002874 -0.002802
# 5 -0.000206 -0.005853 -0.001892 -0.002874 0.034230 0.022771
# 6 -0.020320 -0.014928 0.003102 -0.002802 0.022771 0.076064
#
#
# Mechanical properties :
#
#
# Convention : Reuss Voigt Hill
#
# Bulk Modulus (GPa) = 30.96882 60.92941 45.94911
# Shear Modulus (GPa) = 23.77306 36.10859 29.94083
#
# Velocity S-wave (km/s) = 3.23949 3.99245 3.63552
# Velocity P-wave (km/s) = 5.25958 6.93897 6.15681
#
# Compressibility (1/GPa) = 0.03229054
#
# Stress axis : x y z
#
# Youngs Moduli (GPa) = 56.46779 57.66642 88.05204
#
# Poissons Ratio (x) = -0.23996 0.51550
# Poissons Ratio (y) = -0.23498 0.47241
# Poissons Ratio (z) = 0.33059 0.30938
#
# Static dielectric constant tensor:
#      x y z
#    x 4.069960 0.279470 -0.240760 
#    y 0.279470 4.031630 -0.343820 
#    z -0.240760 -0.343820 4.282520 
# 
# 
# High freq. dielectric constant tensor:
#      x y z
#    x 1.882630 0.020830 -0.007450 
#    y 0.020830 1.882390 -0.025610 
#    z -0.007450 -0.025610 1.907670 
# 
# From -- ./inp_files/307533.got.cif
#   From: 2010.06.25/outbox.cif.g09.slc.cpg/sg2_154_cif.got.tgz:307533.got - 2010.06.27 13:26:56.
