data_PCOD8018434
_publ_section_title
;
Structure prediction by ZEFSAII (Michael W. Deem and Ramdas Pophale) SiO2 
 PCOD8018434
Probable space group: P -1
;
_chemical_formula_sum "Si O2"
_cell_formula_units_Z 16
_cell_length_a 17.206557
_cell_length_b 15.497792
_cell_length_c 9.024197
_cell_angle_alpha 106.557680
_cell_angle_beta 124.729810
_cell_angle_gamma 27.267696
_cell_volume 732.863887
_symmetry_space_group_name_H-M "P -1"
_symmetry_group_IT_number 2
_symmetry_cell_setting 'triclinic'
loop_
_space_group_symop_operation_xyz
x,y,z
-x,-y,-z
loop_
_atom_site_type_symbol
_atom_site_label
_atom_site_fract_x
_atom_site_fract_y
_atom_site_fract_z
Si Si1 0.107112 0.067707 0.285701
Si Si2 0.135008 0.437355 0.739226
Si Si3 0.700730 0.271068 0.518123
Si Si4 0.670339 0.953709 0.556785
Si Si5 0.417230 0.907778 0.142411
Si Si6 0.231883 0.254521 0.048827
Si Si7 0.381330 0.580230 0.059134
Si Si8 0.840196 0.040633 0.025323
O O1 0.260961 0.022217 0.461538
O O2 0.269208 0.851144 0.434646
O O3 0.827337 0.309860 0.155336
O O4 0.055704 0.104605 0.071858
O O5 0.342751 0.307270 0.806883
O O6 0.000000 0.500000 0.500000
O O7 0.933510 0.673770 0.724481
O O8 0.256728 0.267907 0.914434
O O9 0.500000 0.500000 0.500000
O O10 0.595262 0.350293 0.278343
O O11 0.950262 0.109604 0.708415
O O12 0.545621 0.094417 0.645475
O O13 0.477187 0.062230 0.313318
O O14 0.225338 0.150501 0.986323
O O15 0.325074 0.884906 0.025554
O O16 0.000000 0.500000 0.000000
O O17 0.500000 0.500000 0.000000
O O18 0.279614 0.766939 0.093627
#
# Coordination Sequence:
#
# PCOD8018434 Si02
#       8
#     2   2   2   2   2   2   2   2
#     4  10  22  40  66  92 126 164 215 262 309 388
#     4  12  25  45  70  92 133 178 216 271 326 382
#     4  11  19  40  68  87 124 174 211 253 320 383
#     4  11  25  45  66 100 132 171 220 267 328 386
#     4  11  24  45  67  97 135 169 217 274 323 388
#     4  12  24  45  69  98 133 174 216 267 328 391
#     4  11  23  40  61  93 129 164 207 266 317 365
#     4  10  22  41  62  96 123 163 219 257 313 387
#
# _framework density 21.832156999999999
#
# number of rings (size 3 to 8) (size 9 to 14) (size 15 to 20)
#    0.000    1.000    5.000    2.250    1.750    4.000 
#    4.500    0.000    0.000    0.000    0.000    0.000 
#    0.000    0.000    0.000    0.000    0.000    0.000 
#
# Total GULP energy -198212.196959 kJ/mol
# GULP energy per Si atom -12388.262310 kJ/mol
# Density = 2.178247 g / cm^3
# Si number density = 21.832157 Si / 1000 Ang^3
#
#
#
# Elastic Constant Matrix: (Units=GPa)
#
#
# Indices 1 2 3 4 5 6 
#
# 1 141.4035 5.1206 44.4420 -13.6997 0.5689 -3.4198
# 2 5.1206 48.4717 12.4760 -14.2512 1.4370 -14.1076
# 3 44.4420 12.4760 98.0115 -19.3163 -20.3145 1.6427
# 4 -13.6997 -14.2512 -19.3163 28.0931 -4.5789 -2.1824
# 5 0.5689 1.4370 -20.3145 -4.5789 33.5406 1.0763
# 6 -3.4198 -14.1076 1.6427 -2.1824 1.0763 40.8975
#
#
#
# Elastic Compliance Matrix: (Units=1/GPa)
#
#
# Indices 1 2 3 4 5 6 
#
# 1 0.008575 0.001131 -0.004318 0.001465 -0.002655 0.001428
# 2 0.001131 0.028342 -0.001519 0.014636 -0.000500 0.010726
# 3 -0.004318 -0.001519 0.016927 0.010596 0.011879 -0.001312
# 4 0.001465 0.014636 0.010596 0.053682 0.012861 0.007272
# 5 -0.002655 -0.000500 0.011879 0.012861 0.038870 -0.001208
# 6 0.001428 0.010726 -0.001312 0.007272 -0.001208 0.028743
#
#
# Mechanical properties :
#
#
# Convention : Reuss Voigt Hill
#
# Bulk Modulus (GPa) = 22.50682 45.77378 34.14030
# Shear Modulus (GPa) = 25.07994 35.56278 30.32136
#
# Velocity S-wave (km/s) = 3.39302 4.04036 3.73076
# Velocity P-wave (km/s) = 5.06769 6.54047 5.85061
#
# Compressibility (1/GPa) = 0.04443097
#
# Stress axis : x y z
#
# Youngs Moduli (GPa) = 116.61551 35.28330 59.07877
#
# Poissons Ratio (x) = -0.03989 0.25509
# Poissons Ratio (y) = -0.13184 0.08975
# Poissons Ratio (z) = 0.50352 0.05360
#
# Static dielectric constant tensor:
#      x y z
#    x 4.450220 -0.119760 -0.194900 
#    y -0.119760 3.950750 -0.322830 
#    z -0.194900 -0.322830 3.759300 
# 
# 
# High freq. dielectric constant tensor:
#      x y z
#    x 1.878640 -0.009400 -0.005850 
#    y -0.009400 1.856340 -0.008220 
#    z -0.005850 -0.008220 1.844130 
# 
# From -- ./inp_files/315247.got.cif
#   From: 2010.06.25/outbox.cif.g09.slc.cpg/sg2_158_cif.got.tgz:315247.got - 2010.06.27 13:26:56.
