data_PCOD8018265
_publ_section_title
;
Structure prediction by ZEFSAII (Michael W. Deem and Ramdas Pophale) SiO2 
 PCOD8018265
Probable space group: P -1
;
_chemical_formula_sum "Si O2"
_cell_formula_units_Z 16
_cell_length_a 9.742550
_cell_length_b 8.662735
_cell_length_c 16.546486
_cell_angle_alpha 133.132557
_cell_angle_beta 96.517162
_cell_angle_gamma 57.308613
_cell_volume 779.765682
_symmetry_space_group_name_H-M "P -1"
_symmetry_group_IT_number 2
_symmetry_cell_setting 'triclinic'
loop_
_space_group_symop_operation_xyz
x,y,z
-x,-y,-z
loop_
_atom_site_type_symbol
_atom_site_label
_atom_site_fract_x
_atom_site_fract_y
_atom_site_fract_z
Si Si1 0.126841 0.357394 0.272348
Si Si2 0.499851 0.917558 0.882083
Si Si3 0.219675 0.376702 0.761495
Si Si4 0.172033 0.465322 0.976768
Si Si5 0.876407 0.435024 0.494162
Si Si6 0.352398 0.612177 0.744382
Si Si7 0.485737 0.162955 0.478892
Si Si8 0.025605 0.025899 0.226619
O O1 0.307354 0.212274 0.184539
O O2 0.119861 0.565788 0.408176
O O3 0.126979 0.134555 0.239842
O O4 0.961262 0.513453 0.256162
O O5 0.461853 0.706789 0.814212
O O6 0.352079 0.170627 0.907078
O O7 0.500000 0.000000 0.000000
O O8 0.175425 0.491767 0.890089
O O9 0.332874 0.457846 0.758745
O O10 0.344849 0.044185 0.642884
O O11 0.000000 0.500000 0.000000
O O12 0.162439 0.696817 0.108126
O O13 0.687184 0.693438 0.537360
O O14 0.000000 0.500000 0.500000
O O15 0.956282 0.138718 0.354696
O O16 0.469986 0.413016 0.604834
O O17 0.149168 0.867570 0.798282
O O18 0.500000 0.000000 0.500000
#
# Coordination Sequence:
#
# PCOD8018265 Si02
#       8
#     2   2   2   2   2   2   2   2
#     4  10  22  40  64  93 127 158 201 259 316 350
#     4  12  26  43  58  92 131 158 198 266 317 347
#     4  10  22  41  70  90 119 167 212 244 294 384
#     4  12  24  42  64  90 122 161 217 249 295 375
#     4   9  17  36  61  94 127 151 200 261 305 351
#     4   9  20  41  65  89 123 165 202 247 308 365
#     4   9  17  36  63  93 117 162 213 243 292 372
#     4   9  20  39  66  90 118 172 203 242 303 374
#
# _framework density 20.518986000000002
#
# number of rings (size 3 to 8) (size 9 to 14) (size 15 to 20)
#    0.000    2.000    1.250    3.750    1.750    1.500 
#   13.500    2.500    0.000    0.000    0.000    0.000 
#    0.000    0.000    0.000    0.000    0.000    0.000 
#
# Total GULP energy -198234.657640 kJ/mol
# GULP energy per Si atom -12389.666103 kJ/mol
# Density = 2.047228 g / cm^3
# Si number density = 20.518986 Si / 1000 Ang^3
#
#
#
# Elastic Constant Matrix: (Units=GPa)
#
#
# Indices 1 2 3 4 5 6 
#
# 1 133.7043 35.5033 72.2728 3.6109 -2.8027 -11.5898
# 2 35.5033 82.3251 56.1746 -9.2155 2.0118 -16.2973
# 3 72.2728 56.1746 172.9812 -12.5870 -7.3832 -6.1560
# 4 3.6109 -9.2155 -12.5870 26.8467 -6.9059 0.2559
# 5 -2.8027 2.0118 -7.3832 -6.9059 34.4867 -1.8770
# 6 -11.5898 -16.2973 -6.1560 0.2559 -1.8770 23.1973
#
#
#
# Elastic Compliance Matrix: (Units=1/GPa)
#
#
# Indices 1 2 3 4 5 6 
#
# 1 0.010455 -0.001568 -0.004068 -0.004028 -0.000571 0.003041
# 2 -0.001568 0.018738 -0.004776 0.004086 -0.000826 0.011001
# 3 -0.004068 -0.004776 0.009334 0.003977 0.002593 -0.002745
# 4 -0.004028 0.004086 0.003977 0.043375 0.009090 0.002171
# 5 -0.000571 -0.000826 0.002593 0.009090 0.031498 0.002271
# 6 0.003041 0.011001 -0.002745 0.002171 0.002271 0.051788
#
#
# Mechanical properties :
#
#
# Convention : Reuss Voigt Hill
#
# Bulk Modulus (GPa) = 56.49035 79.65687 68.07361
# Shear Modulus (GPa) = 26.05349 31.91012 28.98180
#
# Velocity S-wave (km/s) = 3.56719 3.94782 3.76232
# Velocity P-wave (km/s) = 6.67510 7.72565 7.21951
#
# Compressibility (1/GPa) = 0.01770214
#
# Stress axis : x y z
#
# Youngs Moduli (GPa) = 95.64869 53.36840 107.13280
#
# Poissons Ratio (x) = 0.08367 0.43584
# Poissons Ratio (y) = 0.14995 0.51170
# Poissons Ratio (z) = 0.38912 0.25491
#
# Static dielectric constant tensor:
#      x y z
#    x 3.574890 -0.130310 -0.039030 
#    y -0.130310 3.652600 0.021700 
#    z -0.039030 0.021700 4.472370 
# 
# 
# High freq. dielectric constant tensor:
#      x y z
#    x 1.795300 -0.015600 -0.005360 
#    y -0.015600 1.784060 -0.008150 
#    z -0.005360 -0.008150 1.826760 
# 
# From -- ./inp_files/271372.got.cif
#   From: 2010.06.25/outbox.cif.g09.slc.cpg/sg2_136_cif.got.tgz:271372.got - 2010.06.27 13:26:56.
