data_PCOD8018905
_publ_section_title
;
Structure prediction by ZEFSAII (Michael W. Deem and Ramdas Pophale) SiO2 
 PCOD8018905
Probable space group: P -1
;
_chemical_formula_sum "Si O2"
_cell_formula_units_Z 12
_cell_length_a 9.619835
_cell_length_b 9.342965
_cell_length_c 13.719289
_cell_angle_alpha 77.489025
_cell_angle_beta 150.969935
_cell_angle_gamma 103.070351
_cell_volume 582.397389
_symmetry_space_group_name_H-M "P -1"
_symmetry_group_IT_number 2
_symmetry_cell_setting 'triclinic'
loop_
_space_group_symop_operation_xyz
x,y,z
-x,-y,-z
loop_
_atom_site_type_symbol
_atom_site_label
_atom_site_fract_x
_atom_site_fract_y
_atom_site_fract_z
Si Si1 0.359338 0.052397 0.504467
Si Si2 0.087334 0.515361 0.662298
Si Si3 0.192752 0.831179 0.899737
Si Si4 0.294239 0.368598 0.433588
Si Si5 0.609575 0.726966 0.016396
Si Si6 0.273648 0.022296 0.096114
O O1 0.472101 0.223473 0.569967
O O2 0.012068 0.042358 0.283129
O O3 0.500000 0.000000 0.500000
O O4 0.448378 0.957253 0.665759
O O5 0.139483 0.358232 0.766607
O O6 0.000000 0.500000 0.500000
O O7 0.819479 0.585916 0.537721
O O8 0.380661 0.617052 0.836787
O O9 0.993030 0.675029 0.803115
O O10 0.458952 0.822473 0.991637
O O11 0.301144 0.878123 0.066657
O O12 0.500000 0.500000 0.500000
O O13 0.751771 0.834100 0.005870
O O14 0.000000 0.000000 0.000000
#
# Coordination Sequence:
#
# PCOD8018905 Si02
#       6
#     2   2   2   2   2   2
#     4  10  22  41  62  91 131 159 216 257 314 374
#     4  10  23  43  64  90 129 167 211 262 319 373
#     4   9  22  40  59  92 125 163 212 259 311 375
#     4   9  21  41  64  90 125 167 211 260 312 376
#     4  10  24  41  61  95 126 164 219 257 310 387
#     4  12  23  38  65  93 127 171 208 262 320 371
#
# _framework density 20.604486999999999
#
# number of rings (size 3 to 8) (size 9 to 14) (size 15 to 20)
#    1.000    1.000    1.667    0.500    4.667    4.667 
#    0.000    0.833    0.000    0.000    0.000    0.000 
#    0.000    0.000    0.000    0.000    0.000    0.000 
#
# Total GULP energy -148711.900906 kJ/mol
# GULP energy per Si atom -12392.658409 kJ/mol
# Density = 2.055759 g / cm^3
# Si number density = 20.604487 Si / 1000 Ang^3
#
#
#
# Elastic Constant Matrix: (Units=GPa)
#
#
# Indices 1 2 3 4 5 6 
#
# 1 148.0912 68.9036 56.4399 -7.0741 -16.4955 -15.9941
# 2 68.9036 94.7609 34.7127 -19.5956 -15.2581 0.0399
# 3 56.4399 34.7127 107.9738 -8.0038 -26.5118 -10.9523
# 4 -7.0741 -19.5956 -8.0038 27.0814 -6.6099 1.4314
# 5 -16.4955 -15.2581 -26.5118 -6.6099 38.5758 1.4994
# 6 -15.9941 0.0399 -10.9523 1.4314 1.4994 45.0294
#
#
#
# Elastic Compliance Matrix: (Units=1/GPa)
#
#
# Indices 1 2 3 4 5 6 
#
# 1 0.012375 -0.008877 -0.004136 -0.005112 -0.002079 0.003629
# 2 -0.008877 0.021236 0.000440 0.015249 0.007667 -0.003805
# 3 -0.004136 0.000440 0.014031 0.005487 0.008931 0.001471
# 4 -0.005112 0.015249 0.005487 0.052469 0.016713 -0.002719
# 5 -0.002079 0.007667 0.008931 0.016713 0.037082 -0.000339
# 6 0.003629 -0.003805 0.001471 -0.002719 -0.000339 0.023956
#
#
# Mechanical properties :
#
#
# Convention : Reuss Voigt Hill
#
# Bulk Modulus (GPa) = 44.45229 74.54870 59.50049
# Shear Modulus (GPa) = 25.80064 34.85531 30.32797
#
# Velocity S-wave (km/s) = 3.54246 4.11741 3.84071
# Velocity P-wave (km/s) = 6.19298 7.67225 6.97196
#
# Compressibility (1/GPa) = 0.02249603
#
# Stress axis : x y z
#
# Youngs Moduli (GPa) = 80.80602 47.09031 71.26982
#
# Poissons Ratio (x) = 0.41800 0.29479
# Poissons Ratio (y) = 0.71729 -0.03135
# Poissons Ratio (z) = 0.33424 -0.02071
#
# Static dielectric constant tensor:
#      x y z
#    x 3.740540 -0.287250 0.038560 
#    y -0.287250 3.742490 -0.000050 
#    z 0.038560 -0.000050 3.824030 
# 
# 
# High freq. dielectric constant tensor:
#      x y z
#    x 1.809950 -0.021690 0.001520 
#    y -0.021690 1.799520 0.009320 
#    z 0.001520 0.009320 1.796660 
# 
# From -- ./inp_files/378511.got.cif
#   From: 2010.06.25/outbox.cif.g09.slc.cpg/sg2_190_cif.got.tgz:378511.got - 2010.06.27 13:26:56.
