data_PCOD8018083
_publ_section_title
;
Structure prediction by ZEFSAII (Michael W. Deem and Ramdas Pophale) SiO2 
 PCOD8018083
Probable space group: P -1
;
_chemical_formula_sum "Si O2"
_cell_formula_units_Z 14
_cell_length_a 9.375372
_cell_length_b 16.602211
_cell_length_c 17.212226
_cell_angle_alpha 157.034538
_cell_angle_beta 49.997747
_cell_angle_gamma 117.386289
_cell_volume 718.573379
_symmetry_space_group_name_H-M "P -1"
_symmetry_group_IT_number 2
_symmetry_cell_setting 'triclinic'
loop_
_space_group_symop_operation_xyz
x,y,z
-x,-y,-z
loop_
_atom_site_type_symbol
_atom_site_label
_atom_site_fract_x
_atom_site_fract_y
_atom_site_fract_z
Si Si1 0.384767 0.847906 0.206619
Si Si2 0.675614 0.076402 0.528096
Si Si3 0.714355 0.366113 0.635753
Si Si4 0.143223 0.781915 0.098409
Si Si5 0.191152 0.094414 0.229845
Si Si6 0.473192 0.746910 0.703922
Si Si7 0.540402 0.726423 0.486503
O O1 0.348695 0.825735 0.290061
O O2 0.201874 0.821604 0.200488
O O3 0.382197 0.089647 0.404336
O O4 0.604847 0.642876 0.921176
O O5 0.659462 0.280073 0.658745
O O6 0.500000 0.000000 0.500000
O O7 0.898612 0.857175 0.245231
O O8 0.634300 0.268882 0.506182
O O9 0.957288 0.281641 0.464447
O O10 0.215397 0.927529 0.145039
O O11 0.256546 0.516461 0.799023
O O12 0.319061 0.237165 0.329345
O O13 0.272750 0.943697 0.989844
O O14 0.500000 0.500000 0.500000
O O15 0.435994 0.785183 0.659409
#
# Coordination Sequence:
#
# PCOD8018083 Si02
#       7
#     2   2   2   2   2   2   2
#     4  11  22  41  60  88 124 160 199 244 297 351
#     4  11  22  41  61  91 121 162 200 243 294 353
#     4  10  24  41  61  88 128 155 197 247 297 352
#     4  10  22  40  62  87 123 156 203 244 293 355
#     4  10  22  40  62  92 117 158 199 247 298 353
#     4  11  22  39  66  89 119 155 203 244 300 361
#     4  11  22  40  63  92 118 157 200 250 295 354
#
# _framework density 19.483049000000001
#
# number of rings (size 3 to 8) (size 9 to 14) (size 15 to 20)
#    0.000    1.429    4.286    0.857    0.000    3.429 
#    2.571    1.429    0.000    0.000    0.000    0.000 
#    0.000    0.000    0.000    0.000    0.000    0.000 
#
# Total GULP energy -173679.579562 kJ/mol
# GULP energy per Si atom -12405.684254 kJ/mol
# Density = 1.943870 g / cm^3
# Si number density = 19.483049 Si / 1000 Ang^3
#
#
#
# Elastic Constant Matrix: (Units=GPa)
#
#
# Indices 1 2 3 4 5 6 
#
# 1 102.1972 49.0490 58.8897 -11.6074 -1.6950 -4.9128
# 2 49.0490 87.4254 49.1590 -8.7982 5.2464 3.6522
# 3 58.8897 49.1590 114.7593 4.2998 -1.2824 9.6743
# 4 -11.6074 -8.7982 4.2998 36.0982 -5.9024 7.7938
# 5 -1.6950 5.2464 -1.2824 -5.9024 36.8323 -11.4135
# 6 -4.9128 3.6522 9.6743 7.7938 -11.4135 39.6748
#
#
#
# Elastic Compliance Matrix: (Units=1/GPa)
#
#
# Indices 1 2 3 4 5 6 
#
# 1 0.017349 -0.005761 -0.006946 0.004608 0.003502 0.004474
# 2 -0.005761 0.017908 -0.004632 0.003123 -0.003347 -0.002809
# 3 -0.006946 -0.004632 0.014708 -0.004533 -0.000926 -0.003396
# 4 0.004608 0.003123 -0.004533 0.031895 0.003523 -0.003864
# 5 0.003502 -0.003347 -0.000926 0.003523 0.031186 0.009247
# 6 0.004474 -0.002809 -0.003396 -0.003864 0.009247 0.030265
#
#
# Mechanical properties :
#
#
# Convention : Reuss Voigt Hill
#
# Bulk Modulus (GPa) = 65.41647 68.73082 67.07365
# Shear Modulus (GPa) = 27.30975 32.33999 29.82487
#
# Velocity S-wave (km/s) = 3.74801 4.07861 3.91680
# Velocity P-wave (km/s) = 7.23734 7.58511 7.41327
#
# Compressibility (1/GPa) = 0.01528667
#
# Stress axis : x y z
#
# Youngs Moduli (GPa) = 57.64032 55.84144 67.98955
#
# Poissons Ratio (x) = 0.32172 0.47222
# Poissons Ratio (y) = 0.33208 0.31495
# Poissons Ratio (z) = 0.40034 0.25867
#
# Static dielectric constant tensor:
#      x y z
#    x 3.669140 -0.230540 0.066760 
#    y -0.230540 3.639570 -0.089070 
#    z 0.066760 -0.089070 3.632040 
# 
# 
# High freq. dielectric constant tensor:
#      x y z
#    x 1.766050 -0.009420 0.004990 
#    y -0.009420 1.762490 -0.001620 
#    z 0.004990 -0.001620 1.768130 
# 
# From -- ./inp_files/31520.got.cif
#   From: 2010.06.25/outbox.cif.g09.slc.cpg/sg2_16_cif.got.tgz:31520.got - 2010.06.27 13:26:56.
