data_PCOD8018239
_publ_section_title
;
Structure prediction by ZEFSAII (Michael W. Deem and Ramdas Pophale) SiO2 
 PCOD8018239
Probable space group: P -1
;
_chemical_formula_sum "Si O2"
_cell_formula_units_Z 14
_cell_length_a 11.339508
_cell_length_b 10.486384
_cell_length_c 12.592506
_cell_angle_alpha 37.240200
_cell_angle_beta 54.628387
_cell_angle_gamma 42.262135
_cell_volume 609.212971
_symmetry_space_group_name_H-M "P -1"
_symmetry_group_IT_number 2
_symmetry_cell_setting 'triclinic'
loop_
_space_group_symop_operation_xyz
x,y,z
-x,-y,-z
loop_
_atom_site_type_symbol
_atom_site_label
_atom_site_fract_x
_atom_site_fract_y
_atom_site_fract_z
Si Si1 0.258898 0.718716 0.400844
Si Si2 0.140016 0.248292 0.155449
Si Si3 0.972243 0.359003 0.705335
Si Si4 0.375380 0.652576 0.621459
Si Si5 0.086639 0.204302 0.430696
Si Si6 0.639834 0.565763 0.015631
Si Si7 0.745803 0.196722 0.014111
O O1 0.306842 0.636304 0.553393
O O2 0.412872 0.491283 0.399194
O O3 0.072910 0.764273 0.437836
O O4 0.237268 0.988025 0.207850
O O5 0.034516 0.215269 0.326381
O O6 0.284048 0.261132 0.139115
O O7 0.000000 0.500000 0.000000
O O8 0.896751 0.563747 0.703901
O O9 0.000000 0.500000 0.500000
O O10 0.834323 0.275198 0.824881
O O11 0.153529 0.103772 0.816107
O O12 0.330745 0.514764 0.823148
O O13 0.276659 0.941511 0.525733
O O14 0.739821 0.325784 0.043350
O O15 0.437744 0.732106 0.980120
#
# Coordination Sequence:
#
# PCOD8018239 Si02
#       7
#     2   2   2   2   2   2   2
#     4  10  23  40  62  99 129 167 232 273 321 420
#     4  11  22  39  68  95 131 180 215 269 349 398
#     4  11  24  44  71  98 130 180 225 277 345 395
#     4  10  22  40  64  89 133 171 217 273 335 396
#     4  11  22  42  64  94 130 171 222 278 334 403
#     4  11  22  44  64  94 136 175 214 288 338 388
#     4  10  25  45  65 103 135 166 235 279 326 416
#
# _framework density 22.980471000000001
#
# number of rings (size 3 to 8) (size 9 to 14) (size 15 to 20)
#    0.000    1.429    1.429    4.286    2.000    5.143 
#    0.000    2.143    0.000    0.000    0.000    0.000 
#    0.000    0.000    0.000    0.000    0.000    0.000 
#
# Total GULP energy -173469.349125 kJ/mol
# GULP energy per Si atom -12390.667795 kJ/mol
# Density = 2.292817 g / cm^3
# Si number density = 22.980471 Si / 1000 Ang^3
#
#
#
# Elastic Constant Matrix: (Units=GPa)
#
#
# Indices 1 2 3 4 5 6 
#
# 1 70.5384 30.3461 32.0223 -16.4760 -16.5293 -18.2187
# 2 30.3461 152.2256 59.8875 -29.7519 -7.4421 -28.0543
# 3 32.0223 59.8875 130.0097 -12.8606 3.5072 -12.2872
# 4 -16.4760 -29.7519 -12.8606 47.0116 5.0304 2.1017
# 5 -16.5293 -7.4421 3.5072 5.0304 31.5576 1.9893
# 6 -18.2187 -28.0543 -12.2872 2.1017 1.9893 26.4989
#
#
#
# Elastic Compliance Matrix: (Units=1/GPa)
#
#
# Indices 1 2 3 4 5 6 
#
# 1 0.023444 0.001602 -0.004876 0.006047 0.011339 0.014223
# 2 0.001602 0.010907 -0.003956 0.005680 0.002303 0.010191
# 3 -0.004876 -0.003956 0.010545 -0.000756 -0.004396 -0.002261
# 4 0.006047 0.005680 -0.000756 0.026445 -0.000112 0.007731
# 5 0.011339 0.002303 -0.004396 -0.000112 0.038341 0.005326
# 6 0.014223 0.010191 -0.002261 0.007731 0.005326 0.056244
#
#
# Mechanical properties :
#
#
# Convention : Reuss Voigt Hill
#
# Bulk Modulus (GPa) = 32.85526 66.36506 49.61016
# Shear Modulus (GPa) = 26.24260 36.38148 31.31204
#
# Velocity S-wave (km/s) = 3.38294 3.98320 3.69528
# Velocity P-wave (km/s) = 5.43941 7.07786 6.31202
#
# Compressibility (1/GPa) = 0.03043653
#
# Stress axis : x y z
#
# Youngs Moduli (GPa) = 42.65508 91.68456 94.83128
#
# Poissons Ratio (x) = -0.14689 0.46238
# Poissons Ratio (y) = -0.06834 0.37514
# Poissons Ratio (z) = 0.20798 0.36270
#
# Static dielectric constant tensor:
#      x y z
#    x 3.809930 -0.016620 -0.049820 
#    y -0.016620 4.491130 0.015300 
#    z -0.049820 0.015300 4.185250 
# 
# 
# High freq. dielectric constant tensor:
#      x y z
#    x 1.886590 -0.004280 -0.000580 
#    y -0.004280 1.923610 0.001980 
#    z -0.000580 0.001980 1.914770 
# 
# From -- ./inp_files/427390.got.cif
#   From: 2010.06.25/outbox.cif.g09.slc.cpg/sg2_214_cif.got.tgz:427390.got - 2010.06.27 13:26:56.
