data_PCOD8018131
_publ_section_title
;
Structure prediction by ZEFSAII (Michael W. Deem and Ramdas Pophale) SiO2 
 PCOD8018131
Probable space group: P -1
;
_chemical_formula_sum "Si O2"
_cell_formula_units_Z 16
_cell_length_a 21.258831
_cell_length_b 6.776208
_cell_length_c 8.437903
_cell_angle_alpha 102.034818
_cell_angle_beta 124.878186
_cell_angle_gamma 46.411653
_cell_volume 686.063924
_symmetry_space_group_name_H-M "P -1"
_symmetry_group_IT_number 2
_symmetry_cell_setting 'triclinic'
loop_
_space_group_symop_operation_xyz
x,y,z
-x,-y,-z
loop_
_atom_site_type_symbol
_atom_site_label
_atom_site_fract_x
_atom_site_fract_y
_atom_site_fract_z
Si Si1 0.137822 0.481907 0.728447
Si Si2 0.305765 0.883497 0.029647
Si Si3 0.839442 0.425942 0.788986
Si Si4 0.466441 0.937726 0.286899
Si Si5 0.786797 0.839171 0.537601
Si Si6 0.039881 0.158002 0.248867
Si Si7 0.731647 0.443847 0.927674
Si Si8 0.394815 0.587753 0.796610
O O1 0.164754 0.383815 0.572185
O O2 0.009042 0.696464 0.622404
O O3 0.206508 0.219181 0.909394
O O4 0.170661 0.654118 0.838287
O O5 0.320316 0.708859 0.866822
O O6 0.410336 0.823357 0.221874
O O7 0.276595 0.783661 0.112736
O O8 0.772557 0.725472 0.652139
O O9 0.753646 0.463102 0.779615
O O10 0.893486 0.174854 0.696893
O O11 0.937281 0.338069 0.015032
O O12 0.570923 0.689721 0.282774
O O13 0.500000 0.000000 0.500000
O O14 0.381209 0.240326 0.122446
O O15 0.877889 0.834298 0.703121
O O16 0.669584 0.154227 0.380654
O O17 0.500000 0.500000 0.000000
#
# Coordination Sequence:
#
# PCOD8018131 Si02
#       8
#     2   2   2   2   2   2   2   2
#     4   9  21  40  63  97 125 166 222 266 315 394
#     4   9  20  42  69  87 129 177 213 262 332 392
#     4  10  24  41  61  96 135 170 214 268 325 394
#     4  10  22  41  60  97 130 159 219 274 328 385
#     4  11  22  40  69  95 128 170 223 272 324 387
#     4  10  22  40  62  94 135 170 213 266 333 391
#     4  10  22  42  62  88 131 176 210 262 331 390
#     4   9  21  44  67  96 129 170 220 272 330 384
#
# _framework density 23.321442000000001
#
# number of rings (size 3 to 8) (size 9 to 14) (size 15 to 20)
#    0.000    2.250    0.000    1.500    1.750    9.500 
#    4.500    0.000    0.000    0.000    0.000    0.000 
#    0.000    0.000    0.000    0.000    0.000    0.000 
#
# Total GULP energy -198296.419922 kJ/mol
# GULP energy per Si atom -12393.526245 kJ/mol
# Density = 2.326836 g / cm^3
# Si number density = 23.321442 Si / 1000 Ang^3
#
#
#
# Elastic Constant Matrix: (Units=GPa)
#
#
# Indices 1 2 3 4 5 6 
#
# 1 79.3393 35.8521 25.2117 -2.6396 11.2219 16.9074
# 2 35.8521 106.8440 37.1830 8.0739 8.6600 -8.1577
# 3 25.2117 37.1830 64.8348 2.3420 0.9898 12.2254
# 4 -2.6396 8.0739 2.3420 40.2043 -0.9521 -5.1734
# 5 11.2219 8.6600 0.9898 -0.9521 14.5314 1.3671
# 6 16.9074 -8.1577 12.2254 -5.1734 1.3671 50.6086
#
#
#
# Elastic Compliance Matrix: (Units=1/GPa)
#
#
# Indices 1 2 3 4 5 6 
#
# 1 0.018585 -0.004770 -0.003294 0.001377 -0.010654 -0.005754
# 2 -0.004770 0.014548 -0.007394 -0.002201 -0.005157 0.005639
# 3 -0.003294 -0.007394 0.021933 -0.000590 0.005945 -0.005611
# 4 0.001377 -0.002201 -0.000590 0.025728 0.001794 0.001909
# 5 -0.010654 -0.005157 0.005945 0.001794 0.079894 -0.000683
# 6 -0.005754 0.005639 -0.005611 0.001909 -0.000683 0.024160
#
#
# Mechanical properties :
#
#
# Convention : Reuss Voigt Hill
#
# Bulk Modulus (GPa) = 41.40424 49.72351 45.56388
# Shear Modulus (GPa) = 22.34011 31.25360 26.79685
#
# Velocity S-wave (km/s) = 3.09839 3.66474 3.39340
# Velocity P-wave (km/s) = 5.53103 6.26692 5.91044
#
# Compressibility (1/GPa) = 0.02415211
#
# Stress axis : x y z
#
# Youngs Moduli (GPa) = 53.80694 68.73843 45.59271
#
# Poissons Ratio (x) = 0.32788 0.15016
# Poissons Ratio (y) = 0.25666 0.33709
# Poissons Ratio (z) = 0.17722 0.50822
#
# Static dielectric constant tensor:
#      x y z
#    x 4.207980 -0.520530 0.036630 
#    y -0.520530 4.612770 0.255110 
#    z 0.036630 0.255110 4.083930 
# 
# 
# High freq. dielectric constant tensor:
#      x y z
#    x 1.904370 -0.022070 0.008520 
#    y -0.022070 1.933930 0.013850 
#    z 0.008520 0.013850 1.911050 
# 
# From -- ./inp_files/340507.got.cif
#   From: 2010.06.25/outbox.cif.g09.slc.cpg/sg2_171_cif.got.tgz:340507.got - 2010.06.27 13:26:56.
