data_PCOD8018441
_publ_section_title
;
Structure prediction by ZEFSAII (Michael W. Deem and Ramdas Pophale) SiO2 
 PCOD8018441
Probable space group: P -1
;
_chemical_formula_sum "Si O2"
_cell_formula_units_Z 14
_cell_length_a 8.428295
_cell_length_b 15.598064
_cell_length_c 8.723577
_cell_angle_alpha 83.992274
_cell_angle_beta 71.827515
_cell_angle_gamma 139.405977
_cell_volume 591.052648
_symmetry_space_group_name_H-M "P -1"
_symmetry_group_IT_number 2
_symmetry_cell_setting 'triclinic'
loop_
_space_group_symop_operation_xyz
x,y,z
-x,-y,-z
loop_
_atom_site_type_symbol
_atom_site_label
_atom_site_fract_x
_atom_site_fract_y
_atom_site_fract_z
Si Si1 0.872213 0.214642 0.991445
Si Si2 0.313832 0.503690 0.592410
Si Si3 0.549160 0.782180 0.564919
Si Si4 0.371550 0.056247 0.965492
Si Si5 0.795884 0.871238 0.794213
Si Si6 0.178947 0.319820 0.176667
Si Si7 0.135094 0.706428 0.486395
O O1 0.528478 0.088543 0.068040
O O2 0.093564 0.380525 0.819202
O O3 0.916070 0.238569 0.155094
O O4 0.918826 0.133224 0.941304
O O5 0.500000 0.500000 0.500000
O O6 0.536192 0.675111 0.550672
O O7 0.114398 0.449944 0.516166
O O8 0.564713 0.801662 0.740771
O O9 0.251786 0.697655 0.593164
O O10 0.854008 0.954337 0.373122
O O11 0.585031 0.142871 0.733895
O O12 0.282855 0.116348 0.022276
O O13 0.766471 0.757353 0.840561
O O14 0.049157 0.291247 0.387331
O O15 0.500000 0.500000 0.000000
#
# Coordination Sequence:
#
# PCOD8018441 Si02
#       7
#     2   2   2   2   2   2   2
#     4  10  22  40  66  93 129 169 212 265 320 382
#     4  11  22  41  66  96 131 169 214 267 322 380
#     4  11  24  42  66  97 133 173 218 264 321 384
#     4  10  23  43  67  97 128 169 218 266 323 381
#     4  11  25  43  67  96 132 173 217 269 319 381
#     4  12  26  44  66  95 129 170 216 267 326 386
#     4  11  25  43  68  96 130 171 216 268 324 386
#
# _framework density 23.686554000000001
#
# number of rings (size 3 to 8) (size 9 to 14) (size 15 to 20)
#    0.000    1.143    0.000    5.571    0.000   14.857 
#    0.000    5.000    0.000    0.000    0.000    0.000 
#    0.000    0.000    0.000    0.000    0.000    0.000 
#
# Total GULP energy -173509.942475 kJ/mol
# GULP energy per Si atom -12393.567320 kJ/mol
# Density = 2.363264 g / cm^3
# Si number density = 23.686554 Si / 1000 Ang^3
#
#
#
# Elastic Constant Matrix: (Units=GPa)
#
#
# Indices 1 2 3 4 5 6 
#
# 1 81.5601 33.8120 30.1226 6.3077 8.2296 -4.6798
# 2 33.8120 139.6397 37.0662 -1.6221 9.4927 -23.5653
# 3 30.1226 37.0662 104.3142 18.3209 5.1654 -15.0616
# 4 6.3077 -1.6221 18.3209 36.0036 -3.2599 3.6359
# 5 8.2296 9.4927 5.1654 -3.2599 25.3320 12.4392
# 6 -4.6798 -23.5653 -15.0616 3.6359 12.4392 58.0402
#
#
#
# Elastic Compliance Matrix: (Units=1/GPa)
#
#
# Indices 1 2 3 4 5 6 
#
# 1 0.014898 -0.002563 -0.002884 -0.001618 -0.003644 0.000294
# 2 -0.002563 0.009234 -0.001998 0.001142 -0.003937 0.003796
# 3 -0.002884 -0.001998 0.013030 -0.006899 -0.003597 0.003541
# 4 -0.001618 0.001142 -0.006899 0.032912 0.008346 -0.005307
# 5 -0.003644 -0.003937 -0.003597 0.008346 0.050949 -0.014268
# 6 0.000294 0.003796 0.003541 -0.005307 -0.014268 0.023104
#
#
# Mechanical properties :
#
#
# Convention : Reuss Voigt Hill
#
# Bulk Modulus (GPa) = 44.90191 58.61285 51.75738
# Shear Modulus (GPa) = 30.04029 38.84272 34.44150
#
# Velocity S-wave (km/s) = 3.56510 4.05392 3.81734
# Velocity P-wave (km/s) = 5.99537 6.83456 6.42867
#
# Compressibility (1/GPa) = 0.02227077
#
# Stress axis : x y z
#
# Youngs Moduli (GPa) = 67.12087 108.29586 76.74332
#
# Poissons Ratio (x) = 0.27759 0.22135
# Poissons Ratio (y) = 0.17205 0.15337
# Poissons Ratio (z) = 0.19360 0.21643
#
# Static dielectric constant tensor:
#      x y z
#    x 4.363040 0.222090 0.160550 
#    y 0.222090 4.460950 0.338040 
#    z 0.160550 0.338040 3.962520 
# 
# 
# High freq. dielectric constant tensor:
#      x y z
#    x 1.942920 0.007260 0.010740 
#    y 0.007260 1.959550 0.014660 
#    z 0.010740 0.014660 1.918810 
# 
# From -- ./inp_files/207615.got.cif
#   From: 2010.06.25/outbox.cif.g09.slc.cpg/sg2_104_cif.got.tgz:207615.got - 2010.06.27 13:26:56.
