data_PCOD8018955
_publ_section_title
;
Structure prediction by ZEFSAII (Michael W. Deem and Ramdas Pophale) SiO2 
 PCOD8018955
Probable space group: P -1
;
_chemical_formula_sum "Si O2"
_cell_formula_units_Z 16
_cell_length_a 26.246296
_cell_length_b 14.480633
_cell_length_c 8.783398
_cell_angle_alpha 54.699533
_cell_angle_beta 43.987814
_cell_angle_gamma 20.536648
_cell_volume 747.665877
_symmetry_space_group_name_H-M "P -1"
_symmetry_group_IT_number 2
_symmetry_cell_setting 'triclinic'
loop_
_space_group_symop_operation_xyz
x,y,z
-x,-y,-z
loop_
_atom_site_type_symbol
_atom_site_label
_atom_site_fract_x
_atom_site_fract_y
_atom_site_fract_z
Si Si1 0.225661 0.267057 0.066966
Si Si2 0.789797 0.199361 0.934630
Si Si3 0.672271 0.960167 0.256596
Si Si4 0.620643 0.438278 0.759041
Si Si5 0.599450 0.752036 0.212103
Si Si6 0.544186 0.201743 0.766004
Si Si7 0.836571 0.874562 0.225948
Si Si8 0.111982 0.834535 0.760794
O O1 0.004226 0.599324 0.240054
O O2 0.302185 0.048345 0.198407
O O3 0.338755 0.206124 0.964929
O O4 0.253122 0.220157 0.871105
O O5 0.601345 0.503898 0.133274
O O6 0.845205 0.993891 0.055709
O O7 0.768123 0.245469 0.758550
O O8 0.959055 0.041054 0.762386
O O9 0.517112 0.262080 0.234816
O O10 0.587711 0.992016 0.529583
O O11 0.832715 0.806952 0.141412
O O12 0.748210 0.258678 0.499366
O O13 0.500000 0.500000 0.000000
O O14 0.562973 0.755184 0.117167
O O15 0.764366 0.452262 0.226371
O O16 0.643175 0.126035 0.487147
O O17 0.000000 0.000000 0.000000
#
# Coordination Sequence:
#
# PCOD8018955 Si02
#       8
#     2   2   2   2   2   2   2   2
#     4  12  22  42  64  90 124 168 224 262 326 376
#     4  12  22  42  66  94 129 170 215 260 327 384
#     4  10  22  41  63  90 126 168 215 265 324 387
#     4  11  23  42  67  99 132 168 216 271 320 382
#     4  10  22  41  63  90 126 168 215 265 324 387
#     4  11  24  40  63  94 131 168 214 270 324 385
#     4  11  24  40  63  94 131 168 214 270 324 385
#     4  11  23  42  67  99 132 168 216 271 320 382
#
# _framework density 21.399933000000001
#
# number of rings (size 3 to 8) (size 9 to 14) (size 15 to 20)
#    0.000    1.000    5.000    2.250    0.000    1.000 
#    0.000    0.000    0.000    0.000    0.000    0.000 
#    0.000    0.000    0.000    0.000    0.000    0.000 
#
# Total GULP energy -198306.664204 kJ/mol
# GULP energy per Si atom -12394.166513 kJ/mol
# Density = 2.135123 g / cm^3
# Si number density = 21.399933 Si / 1000 Ang^3
#
#
#
# Elastic Constant Matrix: (Units=GPa)
#
#
# Indices 1 2 3 4 5 6 
#
# 1 87.3196 18.0411 28.2053 7.4063 -0.9475 -12.3913
# 2 18.0411 89.9498 4.9271 6.4347 -8.8606 -23.6917
# 3 28.2053 4.9271 101.9514 13.5275 -3.1843 1.2309
# 4 7.4063 6.4347 13.5275 22.5115 -0.3871 6.3124
# 5 -0.9475 -8.8606 -3.1843 -0.3871 32.1151 2.4498
# 6 -12.3913 -23.6917 1.2309 6.3124 2.4498 38.3095
#
#
#
# Elastic Compliance Matrix: (Units=1/GPa)
#
#
# Indices 1 2 3 4 5 6 
#
# 1 0.013689 -0.001233 -0.003353 -0.003373 -0.000643 0.004370
# 2 -0.001233 0.014650 0.000509 -0.006708 0.003247 0.009542
# 3 -0.003353 0.000509 0.011531 -0.005884 0.001133 -0.000243
# 4 -0.003373 -0.006708 -0.005884 0.054909 -0.000800 -0.014047
# 5 -0.000643 0.003247 0.001133 -0.000800 0.032130 -0.000159
# 6 0.004370 0.009542 -0.000243 -0.014047 -0.000159 0.035750
#
#
# Mechanical properties :
#
#
# Convention : Reuss Voigt Hill
#
# Bulk Modulus (GPa) = 31.52936 42.39643 36.96289
# Shear Modulus (GPa) = 27.56579 33.79038 30.67809
#
# Velocity S-wave (km/s) = 3.59294 3.97797 3.79035
# Velocity P-wave (km/s) = 5.65488 6.39949 6.03867
#
# Compressibility (1/GPa) = 0.03171647
#
# Stress axis : x y z
#
# Youngs Moduli (GPa) = 73.05044 68.26047 86.72588
#
# Poissons Ratio (x) = 0.08417 0.29078
# Poissons Ratio (y) = 0.09007 -0.04418
# Poissons Ratio (z) = 0.24493 -0.03477
#
# Static dielectric constant tensor:
#      x y z
#    x 3.093940 0.276670 -0.353090 
#    y 0.276670 3.502150 0.356840 
#    z -0.353090 0.356840 3.785010 
# 
# 
# High freq. dielectric constant tensor:
#      x y z
#    x 1.836960 -0.020140 0.002200 
#    y -0.020140 1.844940 0.005700 
#    z 0.002200 0.005700 1.835700 
# 
# From -- ./inp_files/175303.got.cif
#   From: 2010.06.25/outbox.cif.g09.slc.cpg/sg2_88_cif.got.tgz:175303.got - 2010.06.27 13:26:56.
