data_PCOD8018417
_publ_section_title
;
Structure prediction by ZEFSAII (Michael W. Deem and Ramdas Pophale) SiO2 
 PCOD8018417
Probable space group: P -1
;
_chemical_formula_sum "Si O2"
_cell_formula_units_Z 14
_cell_length_a 7.367921
_cell_length_b 15.044010
_cell_length_c 13.192790
_cell_angle_alpha 128.111445
_cell_angle_beta 133.022540
_cell_angle_gamma 39.685367
_cell_volume 669.262790
_symmetry_space_group_name_H-M "P -1"
_symmetry_group_IT_number 2
_symmetry_cell_setting 'triclinic'
loop_
_space_group_symop_operation_xyz
x,y,z
-x,-y,-z
loop_
_atom_site_type_symbol
_atom_site_label
_atom_site_fract_x
_atom_site_fract_y
_atom_site_fract_z
Si Si1 0.654949 0.077960 0.605814
Si Si2 0.705626 0.473234 0.309021
Si Si3 0.586002 0.726916 0.535343
Si Si4 0.651408 0.621295 0.981172
Si Si5 0.743350 0.817758 0.056478
Si Si6 0.361992 0.901338 0.769953
Si Si7 0.539530 0.337758 0.835426
O O1 0.620085 0.136397 0.519788
O O2 0.507401 0.211363 0.719475
O O3 0.500000 0.000000 0.500000
O O4 0.009149 0.958920 0.689687
O O5 0.511193 0.614480 0.406564
O O6 0.551346 0.392389 0.187659
O O7 0.708017 0.530231 0.238005
O O8 0.046111 0.359100 0.405141
O O9 0.517542 0.779233 0.660155
O O10 0.624598 0.763272 0.058301
O O11 0.547436 0.609808 0.045240
O O12 0.000000 0.500000 0.000000
O O13 0.113011 0.715047 0.100117
O O14 0.633905 0.967408 0.165194
O O15 0.560089 0.830807 0.896227
#
# Coordination Sequence:
#
# PCOD8018417 Si02
#       7
#     2   2   2   2   2   2   2
#     4  10  23  39  60  90 120 159 207 248 304 364
#     4  10  22  41  60  94 123 161 206 244 311 358
#     4  10  22  40  66  82 123 169 195 254 306 353
#     4  12  24  36  68  92 123 162 205 246 306 370
#     4  10  23  42  62  98 118 160 207 248 309 361
#     4  10  22  42  64  85 127 157 203 258 299 360
#     4  10  22  43  61  89 131 156 196 265 299 352
#
# _framework density 20.918538999999999
#
# number of rings (size 3 to 8) (size 9 to 14) (size 15 to 20)
#    0.000    1.714    1.429    1.714    6.000    1.143 
#    0.000    3.571    0.000    0.000    0.000    0.000 
#    0.000    0.000    0.000    0.000    0.000    0.000 
#
# Total GULP energy -173539.748447 kJ/mol
# GULP energy per Si atom -12395.696318 kJ/mol
# Density = 2.087093 g / cm^3
# Si number density = 20.918539 Si / 1000 Ang^3
#
#
#
# Elastic Constant Matrix: (Units=GPa)
#
#
# Indices 1 2 3 4 5 6 
#
# 1 61.8853 9.7562 27.9689 13.8993 2.3841 5.2648
# 2 9.7562 42.7071 17.2847 2.8179 -4.4543 0.7259
# 3 27.9689 17.2847 123.0036 11.7758 5.1883 -1.7090
# 4 13.8993 2.8179 11.7758 46.0788 -0.5536 1.9126
# 5 2.3841 -4.4543 5.1883 -0.5536 35.1970 10.0351
# 6 5.2648 0.7259 -1.7090 1.9126 10.0351 23.8649
#
#
#
# Elastic Compliance Matrix: (Units=1/GPa)
#
#
# Indices 1 2 3 4 5 6 
#
# 1 0.019644 -0.002608 -0.003713 -0.004645 -0.000004 -0.004146
# 2 -0.002608 0.025851 -0.003287 0.000201 0.004622 -0.002406
# 3 -0.003713 -0.003287 0.009699 -0.001299 -0.002391 0.002723
# 4 -0.004645 0.000201 -0.001299 0.023502 0.001334 -0.001519
# 5 -0.000004 0.004622 -0.002391 0.001334 0.033506 -0.014507
# 6 -0.004146 -0.002406 0.002723 -0.001519 -0.014507 0.049307
#
#
# Mechanical properties :
#
#
# Convention : Reuss Voigt Hill
#
# Bulk Modulus (GPa) = 27.79510 37.51287 32.65398
# Shear Modulus (GPa) = 25.94439 32.53389 29.23914
#
# Velocity S-wave (km/s) = 3.52555 3.94796 3.74272
# Velocity P-wave (km/s) = 5.46707 6.22524 5.85843
#
# Compressibility (1/GPa) = 0.03597757
#
# Stress axis : x y z
#
# Youngs Moduli (GPa) = 50.90516 38.68283 103.10195
#
# Poissons Ratio (x) = 0.10090 0.38282
# Poissons Ratio (y) = 0.13278 0.33892
# Poissons Ratio (z) = 0.18901 0.12716
#
# Static dielectric constant tensor:
#      x y z
#    x 4.138850 0.667660 0.485270 
#    y 0.667660 4.411510 0.356530 
#    z 0.485270 0.356530 4.331430 
# 
# 
# High freq. dielectric constant tensor:
#      x y z
#    x 1.778240 0.005290 0.009540 
#    y 0.005290 1.831350 0.004940 
#    z 0.009540 0.004940 1.848310 
# 
# From -- ./inp_files/95694.got.cif
#   From: 2010.06.25/outbox.cif.g09.slc.cpg/sg2_48_cif.got.tgz:95694.got - 2010.06.27 13:26:56.
