data_PCOD8018662
_publ_section_title
;
Structure prediction by ZEFSAII (Michael W. Deem and Ramdas Pophale) SiO2 
 PCOD8018662
Probable space group: P -1
;
_chemical_formula_sum "Si O2"
_cell_formula_units_Z 16
_cell_length_a 8.814498
_cell_length_b 11.849171
_cell_length_c 13.270313
_cell_angle_alpha 52.529481
_cell_angle_beta 74.000674
_cell_angle_gamma 114.442773
_cell_volume 684.575054
_symmetry_space_group_name_H-M "P -1"
_symmetry_group_IT_number 2
_symmetry_cell_setting 'triclinic'
loop_
_space_group_symop_operation_xyz
x,y,z
-x,-y,-z
loop_
_atom_site_type_symbol
_atom_site_label
_atom_site_fract_x
_atom_site_fract_y
_atom_site_fract_z
Si Si1 0.334974 0.759467 0.201674
Si Si2 0.978491 0.817738 0.909021
Si Si3 0.599498 0.676171 0.468032
Si Si4 0.879181 0.681306 0.773663
Si Si5 0.539314 0.460003 0.782513
Si Si6 0.812019 0.338132 0.038355
Si Si7 0.362185 0.972251 0.444759
Si Si8 0.219550 0.631504 0.517885
O O1 0.421291 0.678969 0.170620
O O2 0.361565 0.755645 0.318872
O O3 0.054677 0.611291 0.314741
O O4 0.500000 0.000000 0.000000
O O5 0.867490 0.719096 0.871172
O O6 0.128036 0.782105 0.943600
O O7 0.746034 0.696020 0.085514
O O8 0.159081 0.074730 0.745546
O O9 0.500000 0.500000 0.500000
O O10 0.673753 0.641980 0.572750
O O11 0.377521 0.630374 0.555518
O O12 0.660869 0.594055 0.793308
O O13 0.144057 0.919731 0.556892
O O14 0.851095 0.488741 0.867449
O O15 0.546964 0.177839 0.224702
O O16 0.000000 0.500000 0.000000
O O17 0.210651 0.763726 0.515066
O O18 0.500000 0.000000 0.500000
#
# Coordination Sequence:
#
# PCOD8018662 Si02
#       8
#     2   2   2   2   2   2   2   2
#     4  11  27  48  74 102 135 183 240 293 350 399
#     4  11  26  44  72 104 143 185 225 287 358 410
#     4  12  27  48  69  99 145 184 238 280 344 424
#     4  11  25  46  69 109 141 178 236 287 348 423
#     4  12  28  44  70 103 141 188 228 286 355 415
#     4  10  22  40  69 102 139 175 234 281 338 416
#     4  12  21  40  73 104 135 178 227 281 350 400
#     4  11  25  46  73 103 136 181 236 287 338 422
#
# _framework density 23.372166
#
# number of rings (size 3 to 8) (size 9 to 14) (size 15 to 20)
#    0.000    0.750    6.250    0.375    5.250    5.000 
#    0.000    0.000    0.000    0.000    0.000    0.000 
#    0.000    0.000    0.000    0.000    0.000    0.000 
#
# Total GULP energy -198302.033270 kJ/mol
# GULP energy per Si atom -12393.877079 kJ/mol
# Density = 2.331897 g / cm^3
# Si number density = 23.372166 Si / 1000 Ang^3
#
#
#
# Elastic Constant Matrix: (Units=GPa)
#
#
# Indices 1 2 3 4 5 6 
#
# 1 67.1098 2.3902 35.4421 -6.3610 -4.7355 8.2590
# 2 2.3902 82.0475 16.8768 -5.7780 9.7725 12.4613
# 3 35.4421 16.8768 141.7239 -15.8566 -15.5924 -5.1932
# 4 -6.3610 -5.7780 -15.8566 35.9247 -5.4341 -3.9021
# 5 -4.7355 9.7725 -15.5924 -5.4341 35.7447 3.2231
# 6 8.2590 12.4613 -5.1932 -3.9021 3.2231 35.9576
#
#
#
# Elastic Compliance Matrix: (Units=1/GPa)
#
#
# Indices 1 2 3 4 5 6 
#
# 1 0.018108 0.001220 -0.004702 0.000853 0.000615 -0.005224
# 2 0.001220 0.013991 -0.002624 0.000098 -0.004333 -0.005109
# 3 -0.004702 -0.002624 0.009631 0.004063 0.004606 0.003408
# 4 0.000853 0.000098 0.004063 0.031093 0.006300 0.003167
# 5 0.000615 -0.004333 0.004606 0.006300 0.032225 -0.000179
# 6 -0.005224 -0.005109 0.003408 0.003167 -0.000179 0.031633
#
#
# Mechanical properties :
#
#
# Convention : Reuss Voigt Hill
#
# Bulk Modulus (GPa) = 33.87883 44.47770 39.17826
# Shear Modulus (GPa) = 31.49963 37.27020 34.38492
#
# Velocity S-wave (km/s) = 3.67514 3.99763 3.83977
# Velocity P-wave (km/s) = 5.70401 6.35449 6.03802
#
# Compressibility (1/GPa) = 0.02951696
#
# Stress axis : x y z
#
# Youngs Moduli (GPa) = 55.22491 71.47376 103.83647
#
# Poissons Ratio (x) = -0.08718 0.48823
# Poissons Ratio (y) = -0.06736 0.27248
# Poissons Ratio (z) = 0.25966 0.18755
#
# Static dielectric constant tensor:
#      x y z
#    x 34.583560 -5.256210 14.638220 
#    y -5.256210 5.149180 -2.593300 
#    z 14.638220 -2.593300 11.388890 
# 
# 
# High freq. dielectric constant tensor:
#      x y z
#    x 1.917010 0.010130 -0.009590 
#    y 0.010130 1.925800 -0.001870 
#    z -0.009590 -0.001870 1.934910 
# 
# From -- ./inp_files/500031.got.cif
#   From: 2010.06.25/outbox.cif.g09.slc.cpg/sg2_251_cif.got.tgz:500031.got - 2010.06.27 13:26:56.
