data_PCOD8018073
_publ_section_title
;
Structure prediction by ZEFSAII (Michael W. Deem and Ramdas Pophale) SiO2 
 PCOD8018073
Probable space group: P -1
;
_chemical_formula_sum "Si O2"
_cell_formula_units_Z 12
_cell_length_a 18.458003
_cell_length_b 8.095929
_cell_length_c 14.720369
_cell_angle_alpha 52.435293
_cell_angle_beta 160.017634
_cell_angle_gamma 118.253311
_cell_volume 554.132504
_symmetry_space_group_name_H-M "P -1"
_symmetry_group_IT_number 2
_symmetry_cell_setting 'triclinic'
loop_
_space_group_symop_operation_xyz
x,y,z
-x,-y,-z
loop_
_atom_site_type_symbol
_atom_site_label
_atom_site_fract_x
_atom_site_fract_y
_atom_site_fract_z
Si Si1 0.426652 0.672734 0.237204
Si Si2 0.734055 0.485838 0.516812
Si Si3 0.185504 0.171856 0.849730
Si Si4 0.209597 0.393397 0.167924
Si Si5 0.422776 0.911009 0.527981
Si Si6 0.247840 0.512852 0.676402
O O1 0.502526 0.678710 0.219025
O O2 0.303531 0.493179 0.159183
O O3 0.665577 0.563769 0.610235
O O4 0.259278 0.911235 0.997933
O O5 0.717362 0.247499 0.601485
O O6 0.773328 0.504261 0.450636
O O7 0.938142 0.516679 0.804536
O O8 0.189865 0.308044 0.718133
O O9 0.936004 0.257615 0.574809
O O10 0.359727 0.215864 0.110160
O O11 0.254786 0.131110 0.305755
O O12 0.500000 0.000000 0.500000
O O13 0.500000 0.500000 0.000000
#
# Coordination Sequence:
#
# PCOD8018073 Si02
#       6
#     2   2   2   2   2   2
#     4  10  23  42  63  95 136 165 203 264 325 377
#     4  12  23  39  69  97 127 167 222 257 308 381
#     4  10  24  44  65  90 131 170 206 265 324 369
#     4  10  22  40  61  97 137 168 201 258 326 381
#     4  11  20  39  66  95 130 166 212 260 320 376
#     4  11  24  44  67  92 123 169 222 263 307 378
#
# _framework density 21.655472
#
# number of rings (size 3 to 8) (size 9 to 14) (size 15 to 20)
#    0.000    1.333    3.333    2.000    0.000    2.000 
#    0.000    1.667    0.000    0.000    0.000    0.000 
#    0.000    0.000    0.000    0.000    0.000    0.000 
#
# Total GULP energy -148731.520150 kJ/mol
# GULP energy per Si atom -12394.293346 kJ/mol
# Density = 2.160618 g / cm^3
# Si number density = 21.655472 Si / 1000 Ang^3
#
#
#
# Elastic Constant Matrix: (Units=GPa)
#
#
# Indices 1 2 3 4 5 6 
#
# 1 143.5029 33.5818 48.1003 -10.7987 22.0614 14.8917
# 2 33.5818 90.5169 46.0312 7.9184 5.7031 0.9649
# 3 48.1003 46.0312 116.2548 -1.8339 25.5884 -1.0073
# 4 -10.7987 7.9184 -1.8339 27.6589 4.8904 4.3935
# 5 22.0614 5.7031 25.5884 4.8904 31.8182 -8.3830
# 6 14.8917 0.9649 -1.0073 4.3935 -8.3830 26.5919
#
#
#
# Elastic Compliance Matrix: (Units=1/GPa)
#
#
# Indices 1 2 3 4 5 6 
#
# 1 0.011865 -0.004019 -0.000740 0.009629 -0.011484 -0.011738
# 2 -0.004019 0.016088 -0.006552 -0.008873 0.007957 0.005393
# 3 -0.000740 -0.006552 0.014016 0.004998 -0.011188 -0.003170
# 4 0.009629 -0.008873 0.004998 0.049875 -0.022060 -0.020076
# 5 -0.011484 0.007957 -0.011188 -0.022060 0.057604 0.027523
# 6 -0.011738 0.005393 -0.003170 -0.020076 0.027523 0.055857
#
#
# Mechanical properties :
#
#
# Convention : Reuss Voigt Hill
#
# Bulk Modulus (GPa) = 51.68671 67.30012 59.49342
# Shear Modulus (GPa) = 21.33322 32.05122 26.69222
#
# Velocity S-wave (km/s) = 3.14207 3.85132 3.51463
# Velocity P-wave (km/s) = 6.08958 7.13596 6.63344
#
# Compressibility (1/GPa) = 0.01934733
#
# Stress axis : x y z
#
# Youngs Moduli (GPa) = 84.27928 62.15796 71.34767
#
# Poissons Ratio (x) = 0.24984 0.05278
# Poissons Ratio (y) = 0.33876 0.46744
# Poissons Ratio (z) = 0.06235 0.40724
#
# Static dielectric constant tensor:
#      x y z
#    x 4.059930 0.126990 0.073880 
#    y 0.126990 4.582030 -0.061370 
#    z 0.073880 -0.061370 3.978480 
# 
# 
# High freq. dielectric constant tensor:
#      x y z
#    x 1.861400 0.002880 0.013660 
#    y 0.002880 1.843380 0.007410 
#    z 0.013660 0.007410 1.845160 
# 
# From -- ./inp_files/23092.got.cif
#   From: 2010.06.25/outbox.cif.g09.slc.cpg/sg2_12_cif.got.tgz:23092.got - 2010.06.27 13:26:56.
