data_PCOD8018279
_publ_section_title
;
Structure prediction by ZEFSAII (Michael W. Deem and Ramdas Pophale) SiO2 
 PCOD8018279
Probable space group: P -1
;
_chemical_formula_sum "Si O2"
_cell_formula_units_Z 14
_cell_length_a 5.496439
_cell_length_b 12.127710
_cell_length_c 12.315073
_cell_angle_alpha 120.670586
_cell_angle_beta 64.519380
_cell_angle_gamma 124.248090
_cell_volume 571.701346
_symmetry_space_group_name_H-M "P -1"
_symmetry_group_IT_number 2
_symmetry_cell_setting 'triclinic'
loop_
_space_group_symop_operation_xyz
x,y,z
-x,-y,-z
loop_
_atom_site_type_symbol
_atom_site_label
_atom_site_fract_x
_atom_site_fract_y
_atom_site_fract_z
Si Si1 0.475029 0.671566 0.989317
Si Si2 0.196027 0.498933 0.362298
Si Si3 0.583886 0.800994 0.466211
Si Si4 0.931686 0.190544 0.293717
Si Si5 0.069795 0.468301 0.137710
Si Si6 0.531089 0.970116 0.103464
Si Si7 0.963856 0.003096 0.675523
O O1 0.740002 0.623512 0.926907
O O2 0.257221 0.614948 0.896526
O O3 0.262395 0.612039 0.105324
O O4 0.635285 0.844676 0.037474
O O5 0.523782 0.635203 0.378039
O O6 0.031751 0.512435 0.290146
O O7 0.000000 0.500000 0.500000
O O8 0.205297 0.344902 0.289383
O O9 0.274444 0.801465 0.563166
O O10 0.705458 0.881576 0.368158
O O11 0.836339 0.880310 0.546682
O O12 0.754402 0.126056 0.184578
O O13 0.048502 0.078195 0.251660
O O14 0.233762 0.916001 0.210893
O O15 0.500000 0.000000 0.000000
#
# Coordination Sequence:
#
# PCOD8018279 Si02
#       7
#     2   2   2   2   2   2   2
#     4  10  24  44  70  97 138 181 235 288 345 408
#     4  10  22  43  66  98 136 177 226 282 356 409
#     4   9  21  42  62  94 131 168 225 280 340 412
#     4  10  22  40  64  95 129 173 222 280 342 418
#     4  10  23  45  68 101 136 180 233 290 342 421
#     4  11  25  40  66  95 135 178 228 282 349 409
#     4  10  22  40  65  96 130 170 226 277 345 411
#
# _framework density 24.488312000000001
#
# number of rings (size 3 to 8) (size 9 to 14) (size 15 to 20)
#    0.000    2.000    0.000    1.286    6.000    3.429 
#   10.286    0.000    0.000    0.000    0.000    0.000 
#    0.000    0.000    0.000    0.000    0.000    0.000 
#
# Total GULP energy -173439.380218 kJ/mol
# GULP energy per Si atom -12388.527158 kJ/mol
# Density = 2.443258 g / cm^3
# Si number density = 24.488312 Si / 1000 Ang^3
#
#
#
# Elastic Constant Matrix: (Units=GPa)
#
#
# Indices 1 2 3 4 5 6 
#
# 1 76.9402 33.9838 23.8043 2.5220 8.5147 -8.0454
# 2 33.9838 187.6177 56.7252 10.1939 10.4085 -4.2135
# 3 23.8043 56.7252 118.8238 -8.0470 27.6988 -3.2831
# 4 2.5220 10.1939 -8.0470 37.9896 -8.6297 5.0257
# 5 8.5147 10.4085 27.6988 -8.6297 18.4888 -3.6612
# 6 -8.0454 -4.2135 -3.2831 5.0257 -3.6612 34.9352
#
#
#
# Elastic Compliance Matrix: (Units=1/GPa)
#
#
# Indices 1 2 3 4 5 6 
#
# 1 0.015092 -0.001972 -0.001056 -0.002150 -0.004676 0.002958
# 2 -0.001972 0.006723 -0.003169 -0.002193 0.000941 0.000473
# 3 -0.001056 -0.003169 0.014831 -0.000397 -0.020394 -0.001312
# 4 -0.002150 -0.002193 -0.000397 0.031231 0.016696 -0.003540
# 5 -0.004676 0.000941 -0.020394 0.016696 0.094981 0.004672
# 6 0.002958 0.000473 -0.001312 -0.003540 0.004672 0.030238
#
#
# Mechanical properties :
#
#
# Convention : Reuss Voigt Hill
#
# Bulk Modulus (GPa) = 41.23378 68.04537 54.63958
# Shear Modulus (GPa) = 23.41108 36.20728 29.80918
#
# Velocity S-wave (km/s) = 3.09530 3.84937 3.49274
# Velocity P-wave (km/s) = 5.44511 6.89957 6.21503
#
# Compressibility (1/GPa) = 0.02425196
#
# Stress axis : x y z
#
# Youngs Moduli (GPa) = 66.26043 148.74457 67.42546
#
# Poissons Ratio (x) = 0.29328 0.07120
# Poissons Ratio (y) = 0.13065 0.21370
# Poissons Ratio (z) = 0.06997 0.47143
#
# Static dielectric constant tensor:
#      x y z
#    x 4.313150 0.040550 0.012610 
#    y 0.040550 4.913060 0.029480 
#    z 0.012610 0.029480 4.749340 
# 
# 
# High freq. dielectric constant tensor:
#      x y z
#    x 1.940700 0.001710 0.007990 
#    y 0.001710 1.990390 -0.011320 
#    z 0.007990 -0.011320 1.988140 
# 
# From -- ./inp_files/363862.got.cif
#   From: 2010.06.25/outbox.cif.g09.slc.cpg/sg2_182_cif.got.tgz:363862.got - 2010.06.27 13:26:56.
