data_PCOD8018720
_publ_section_title
;
Structure prediction by ZEFSAII (Michael W. Deem and Ramdas Pophale) SiO2 
 PCOD8018720
Probable space group: P -1
;
_chemical_formula_sum "Si O2"
_cell_formula_units_Z 12
_cell_length_a 9.641152
_cell_length_b 12.076949
_cell_length_c 9.237490
_cell_angle_alpha 102.881435
_cell_angle_beta 150.901402
_cell_angle_gamma 89.677681
_cell_volume 467.548809
_symmetry_space_group_name_H-M "P -1"
_symmetry_group_IT_number 2
_symmetry_cell_setting 'triclinic'
loop_
_space_group_symop_operation_xyz
x,y,z
-x,-y,-z
loop_
_atom_site_type_symbol
_atom_site_label
_atom_site_fract_x
_atom_site_fract_y
_atom_site_fract_z
Si Si1 0.456372 0.988349 0.628870
Si Si2 0.723470 0.635934 0.300563
Si Si3 0.221880 0.133111 0.936905
Si Si4 0.162257 0.382834 0.011269
Si Si5 0.621738 0.201187 0.048636
Si Si6 0.137602 0.451881 0.307804
O O1 0.500000 0.000000 0.500000
O O2 0.679266 0.110150 0.956876
O O3 0.112340 0.972780 0.359691
O O4 0.540745 0.873201 0.723559
O O5 0.886930 0.632248 0.601181
O O6 0.052422 0.718501 0.544043
O O7 0.500000 0.500000 0.000000
O O8 0.503302 0.709626 0.127774
O O9 0.172282 0.259351 0.922408
O O10 0.366413 0.119555 0.910536
O O11 0.986534 0.366507 0.002386
O O12 0.507717 0.474541 0.379315
O O13 0.020034 0.448953 0.783369
#
# Coordination Sequence:
#
# PCOD8018720 Si02
#       6
#     2   2   2   2   2   2
#     4  12  28  47  76 109 142 189 253 305 365 430
#     4  12  26  44  74 106 150 192 247 294 366 434
#     4  12  25  47  74 103 149 187 248 295 374 433
#     4  10  22  40  69  99 140 191 230 294 361 425
#     4  12  27  47  74 107 151 196 239 303 370 430
#     4  10  22  41  64 103 143 182 242 288 353 425
#
# _framework density 25.665769999999998
#
# number of rings (size 3 to 8) (size 9 to 14) (size 15 to 20)
#    0.000    0.667    0.000    7.000    4.667    2.667 
#    0.000    0.000    0.000    0.000    0.000    0.000 
#    0.000    0.000    0.000    0.000    0.000    0.000 
#
# Total GULP energy -148681.291617 kJ/mol
# GULP energy per Si atom -12390.107635 kJ/mol
# Density = 2.560735 g / cm^3
# Si number density = 25.665770 Si / 1000 Ang^3
#
#
#
# Elastic Constant Matrix: (Units=GPa)
#
#
# Indices 1 2 3 4 5 6 
#
# 1 129.2497 40.8021 44.1627 6.6153 -8.5833 -2.5015
# 2 40.8021 95.5036 26.9079 -26.9695 -5.5799 -10.8535
# 3 44.1627 26.9079 126.0342 -9.4999 18.2732 -3.0237
# 4 6.6153 -26.9695 -9.4999 59.6591 5.6693 0.1389
# 5 -8.5833 -5.5799 18.2732 5.6693 43.4176 -5.0798
# 6 -2.5015 -10.8535 -3.0237 0.1389 -5.0798 36.6151
#
#
#
# Elastic Compliance Matrix: (Units=1/GPa)
#
#
# Indices 1 2 3 4 5 6 
#
# 1 0.010917 -0.004662 -0.003684 -0.004247 0.003615 -0.000423
# 2 -0.004662 0.015362 -0.001165 0.007161 0.001107 0.004265
# 3 -0.003684 -0.001165 0.010430 0.002076 -0.005600 -0.000520
# 4 -0.004247 0.007161 0.002076 0.021119 -0.003381 0.001455
# 5 0.003615 0.001107 -0.005600 -0.003381 0.027142 0.003891
# 6 -0.000423 0.004265 -0.000520 0.001455 0.003891 0.029038
#
#
# Mechanical properties :
#
#
# Convention : Reuss Voigt Hill
#
# Bulk Modulus (GPa) = 56.53867 63.83702 60.18784
# Shear Modulus (GPa) = 35.99036 43.86600 39.92818
#
# Velocity S-wave (km/s) = 3.74875 4.13864 3.94851
# Velocity P-wave (km/s) = 6.38860 6.91117 6.65501
#
# Compressibility (1/GPa) = 0.01768701
#
# Stress axis : x y z
#
# Youngs Moduli (GPa) = 91.60103 65.09380 95.87861
#
# Poissons Ratio (x) = 0.30348 0.35325
# Poissons Ratio (y) = 0.42707 0.11165
# Poissons Ratio (z) = 0.33749 0.07580
#
# Static dielectric constant tensor:
#      x y z
#    x 4.813630 0.204490 0.164590 
#    y 0.204490 4.572750 -0.174940 
#    z 0.164590 -0.174940 4.968810 
# 
# 
# High freq. dielectric constant tensor:
#      x y z
#    x 2.027640 0.004840 0.008310 
#    y 0.004840 2.027060 -0.018340 
#    z 0.008310 -0.018340 2.038770 
# 
# From -- ./inp_files/180959.got.cif
#   From: 2010.06.25/outbox.cif.g09.slc.cpg/sg2_91_cif.got.tgz:180959.got - 2010.06.27 13:26:56.
