data_PCOD8018887
_publ_section_title
;
Structure prediction by ZEFSAII (Michael W. Deem and Ramdas Pophale) SiO2 
 PCOD8018887
Probable space group: P -1
;
_chemical_formula_sum "Si O2"
_cell_formula_units_Z 14
_cell_length_a 12.830573
_cell_length_b 9.789200
_cell_length_c 10.045977
_cell_angle_alpha 135.589917
_cell_angle_beta 53.470318
_cell_angle_gamma 102.550288
_cell_volume 659.239078
_symmetry_space_group_name_H-M "P -1"
_symmetry_group_IT_number 2
_symmetry_cell_setting 'triclinic'
loop_
_space_group_symop_operation_xyz
x,y,z
-x,-y,-z
loop_
_atom_site_type_symbol
_atom_site_label
_atom_site_fract_x
_atom_site_fract_y
_atom_site_fract_z
Si Si1 0.013326 0.437151 0.720742
Si Si2 0.410948 0.617803 0.523515
Si Si3 0.885403 0.238703 0.257814
Si Si4 0.162792 0.244177 0.714994
Si Si5 0.519288 0.961243 0.613709
Si Si6 0.456948 0.653251 0.018603
Si Si7 0.847296 0.185330 0.545071
O O1 0.037125 0.597247 0.707912
O O2 0.150147 0.303243 0.608769
O O3 0.962338 0.271282 0.569846
O O4 0.903937 0.558598 0.001110
O O5 0.500000 0.500000 0.500000
O O6 0.241262 0.690870 0.706031
O O7 0.423512 0.841285 0.652978
O O8 0.480322 0.457184 0.241585
O O9 0.811060 0.269618 0.480082
O O10 0.000000 0.000000 0.000000
O O11 0.321790 0.174602 0.580005
O O12 0.094291 0.069378 0.676540
O O13 0.500000 0.000000 0.500000
O O14 0.478080 0.170578 0.878981
O O15 0.288370 0.744059 0.207673
O O16 0.500000 0.500000 0.000000
#
# Coordination Sequence:
#
# PCOD8018887 Si02
#       7
#     2   2   2   2   2   2   2
#     4  11  23  39  65  90 132 174 203 265 337 378
#     4  12  26  46  68  99 137 173 218 280 335 378
#     4  12  25  44  63  98 138 169 218 269 322 403
#     4  10  22  41  61  98 128 159 221 270 315 397
#     4  11  22  40  71  95 126 175 221 272 326 382
#     4  11  22  42  71  98 125 170 233 271 312 404
#     4  11  22  42  68  92 126 172 222 266 323 390
#
# _framework density 21.236605000000001
#
# number of rings (size 3 to 8) (size 9 to 14) (size 15 to 20)
#    0.000    0.857    4.286    3.429    0.000    1.714 
#    7.714    0.000    0.000    0.000    0.000    0.000 
#    0.000    0.000    0.000    0.000    0.000    0.000 
#
# Total GULP energy -173532.367561 kJ/mol
# GULP energy per Si atom -12395.169112 kJ/mol
# Density = 2.118827 g / cm^3
# Si number density = 21.236605 Si / 1000 Ang^3
#
#
#
# Elastic Constant Matrix: (Units=GPa)
#
#
# Indices 1 2 3 4 5 6 
#
# 1 112.9902 12.0515 36.6242 11.4030 0.4085 -9.5925
# 2 12.0515 73.9359 6.2431 5.1055 12.1056 -2.8472
# 3 36.6242 6.2431 77.1437 -1.7240 8.1688 -5.0213
# 4 11.4030 5.1055 -1.7240 23.6384 -1.9676 2.6669
# 5 0.4085 12.1056 8.1688 -1.9676 31.2657 4.8793
# 6 -9.5925 -2.8472 -5.0213 2.6669 4.8793 48.3549
#
#
#
# Elastic Compliance Matrix: (Units=1/GPa)
#
#
# Indices 1 2 3 4 5 6 
#
# 1 0.011488 -0.001108 -0.005485 -0.005824 0.001056 0.001859
# 2 -0.001108 0.015021 -0.000008 -0.003397 -0.006244 0.001481
# 3 -0.005485 -0.000008 0.016125 0.003396 -0.004051 0.000807
# 4 -0.005824 -0.003397 0.003396 0.046886 0.004079 -0.004000
# 5 0.001056 -0.006244 -0.004051 0.004079 0.036402 -0.004477
# 6 0.001859 0.001481 0.000807 -0.004000 -0.004477 0.021893
#
#
# Mechanical properties :
#
#
# Convention : Reuss Voigt Hill
#
# Bulk Modulus (GPa) = 33.97791 41.54529 37.76160
# Shear Modulus (GPa) = 29.26933 34.59517 31.93225
#
# Velocity S-wave (km/s) = 3.71651 4.04051 3.88189
# Velocity P-wave (km/s) = 5.86949 6.43220 6.15728
#
# Compressibility (1/GPa) = 0.02943089
#
# Stress axis : x y z
#
# Youngs Moduli (GPa) = 87.04462 66.57556 62.01548
#
# Poissons Ratio (x) = 0.07380 0.34018
# Poissons Ratio (y) = 0.09649 0.00047
# Poissons Ratio (z) = 0.47747 0.00051
#
# Static dielectric constant tensor:
#      x y z
#    x 3.994730 -0.044870 0.001210 
#    y -0.044870 4.294460 0.171020 
#    z 0.001210 0.171020 3.654240 
# 
# 
# High freq. dielectric constant tensor:
#      x y z
#    x 1.843590 -0.002870 0.003470 
#    y -0.002870 1.844470 0.015320 
#    z 0.003470 0.015320 1.824870 
# 
# From -- ./inp_files/185466.got.cif
#   From: 2010.06.25/outbox.cif.g09.slc.cpg/sg2_93_cif.got.tgz:185466.got - 2010.06.27 13:26:56.
