data_PCOD8018346
_publ_section_title
;
Structure prediction by ZEFSAII (Michael W. Deem and Ramdas Pophale) SiO2 
 PCOD8018346
Probable space group: P -1
;
_chemical_formula_sum "Si O2"
_cell_formula_units_Z 12
_cell_length_a 9.674980
_cell_length_b 11.890296
_cell_length_c 8.891419
_cell_angle_alpha 37.081013
_cell_angle_beta 100.492032
_cell_angle_gamma 85.924161
_cell_volume 564.591282
_symmetry_space_group_name_H-M "P -1"
_symmetry_group_IT_number 2
_symmetry_cell_setting 'triclinic'
loop_
_space_group_symop_operation_xyz
x,y,z
-x,-y,-z
loop_
_atom_site_type_symbol
_atom_site_label
_atom_site_fract_x
_atom_site_fract_y
_atom_site_fract_z
Si Si1 0.695775 0.237536 0.754645
Si Si2 0.846070 0.854203 0.379354
Si Si3 0.703913 0.062992 0.418834
Si Si4 0.360019 0.325129 0.635058
Si Si5 0.372275 0.235270 0.071164
Si Si6 0.192676 0.674998 0.630809
O O1 0.534290 0.211822 0.745022
O O2 0.682633 0.436394 0.632096
O O3 0.749669 0.244049 0.589939
O O4 0.815400 0.050501 0.062594
O O5 0.818983 0.912974 0.485779
O O6 0.741238 0.730997 0.446553
O O7 0.017514 0.709587 0.543116
O O8 0.670120 0.942365 0.678987
O O9 0.550359 0.190888 0.165355
O O10 0.779858 0.212629 0.337351
O O11 0.325911 0.254814 0.866767
O O12 0.283517 0.439853 0.923285
#
# Coordination Sequence:
#
# PCOD8018346 Si02
#       6
#     2   2   2   2   2   2
#     4  10  22  40  65  92 120 161 204 252 299 364
#     4  12  24  39  65  94 125 157 199 260 305 356
#     4  11  24  40  63  90 124 165 204 245 302 364
#     4  10  22  41  65  93 119 159 209 249 302 357
#     4  10  23  42  64  89 119 167 206 249 294 367
#     4  11  25  41  62  92 127 160 200 252 308 358
#
# _framework density 21.254314999999998
#
# number of rings (size 3 to 8) (size 9 to 14) (size 15 to 20)
#    0.000    1.333    1.667    3.000    4.667    6.000 
#    0.000    0.000    0.000    0.000    0.000    0.000 
#    0.000    0.000    0.000    0.000    0.000    0.000 
#
# Total GULP energy -148908.669245 kJ/mol
# GULP energy per Si atom -12409.055770 kJ/mol
# Density = 2.120594 g / cm^3
# Si number density = 21.254315 Si / 1000 Ang^3
#
#
#
# Elastic Constant Matrix: (Units=GPa)
#
#
# Indices 1 2 3 4 5 6 
#
# 1 86.4244 41.7745 23.9530 -5.7575 17.8000 -2.8825
# 2 41.7745 107.9373 -7.4622 -0.6956 9.1323 0.0350
# 3 23.9530 -7.4622 40.9911 -15.3267 6.7205 -1.4849
# 4 -5.7575 -0.6956 -15.3267 22.9721 -3.6189 1.5824
# 5 17.8000 9.1323 6.7205 -3.6189 16.9832 -0.8746
# 6 -2.8825 0.0350 -1.4849 1.5824 -0.8746 30.2917
#
#
#
# Elastic Compliance Matrix: (Units=1/GPa)
#
#
# Indices 1 2 3 4 5 6 
#
# 1 0.022301 -0.008478 -0.014732 -0.006854 -0.014376 0.001353
# 2 -0.008478 0.013286 0.009094 0.004233 -0.000987 -0.000626
# 3 -0.014732 0.009094 0.044691 0.026194 -0.001586 -0.000636
# 4 -0.006854 0.004233 0.026194 0.060739 0.007365 -0.002333
# 5 -0.014376 -0.000987 -0.001586 0.007365 0.076697 0.000385
# 6 0.001353 -0.000626 -0.000636 -0.002333 0.000385 0.033244
#
#
# Mechanical properties :
#
#
# Convention : Reuss Voigt Hill
#
# Bulk Modulus (GPa) = 19.21341 39.09815 29.15578
# Shear Modulus (GPa) = 16.86135 25.85523 21.35829
#
# Velocity S-wave (km/s) = 2.81964 3.49158 3.17344
# Velocity P-wave (km/s) = 4.43395 5.88983 5.21297
#
# Compressibility (1/GPa) = 0.05204698
#
# Stress axis : x y z
#
# Youngs Moduli (GPa) = 44.84076 75.26977 22.37605
#
# Poissons Ratio (x) = 0.63813 0.32964
# Poissons Ratio (y) = 0.38015 -0.20350
# Poissons Ratio (z) = 0.66058 -0.68453
#
# Static dielectric constant tensor:
#      x y z
#    x 3.730170 -0.067780 0.001570 
#    y -0.067780 3.807040 -0.128380 
#    z 0.001570 -0.128380 3.821100 
# 
# 
# High freq. dielectric constant tensor:
#      x y z
#    x 1.832870 -0.005050 -0.003680 
#    y -0.005050 1.843490 -0.007200 
#    z -0.003680 -0.007200 1.832900 
# 
# From -- ./inp_files/148795.got.cif
#   From: 2010.06.25/outbox.cif.g09.slc.cpg/sg2_75_cif.got.tgz:148795.got - 2010.06.27 13:26:56.
