data_PCOD8018162
_publ_section_title
;
Structure prediction by ZEFSAII (Michael W. Deem and Ramdas Pophale) SiO2 
 PCOD8018162
Probable space group: P -1
;
_chemical_formula_sum "Si O2"
_cell_formula_units_Z 14
_cell_length_a 15.565124
_cell_length_b 9.201884
_cell_length_c 12.145464
_cell_angle_alpha 129.833662
_cell_angle_beta 28.055771
_cell_angle_gamma 125.078832
_cell_volume 628.070048
_symmetry_space_group_name_H-M "P -1"
_symmetry_group_IT_number 2
_symmetry_cell_setting 'triclinic'
loop_
_space_group_symop_operation_xyz
x,y,z
-x,-y,-z
loop_
_atom_site_type_symbol
_atom_site_label
_atom_site_fract_x
_atom_site_fract_y
_atom_site_fract_z
Si Si1 0.226852 0.721625 0.337012
Si Si2 0.527733 0.008836 0.182723
Si Si3 0.764241 0.698105 0.399496
Si Si4 0.092613 0.381386 0.183801
Si Si5 0.914803 0.340735 0.141476
Si Si6 0.310401 0.012688 0.778929
Si Si7 0.805512 0.977802 0.660679
O O1 0.421646 0.800263 0.204985
O O2 0.223656 0.543718 0.170121
O O3 0.175967 0.902743 0.413271
O O4 0.084304 0.672851 0.570151
O O5 0.405559 0.199181 0.418727
O O6 0.668752 0.008149 0.123288
O O7 0.642417 0.031534 0.951672
O O8 0.766853 0.470814 0.307497
O O9 0.774064 0.767097 0.548625
O O10 0.943198 0.742240 0.146542
O O11 0.021534 0.444348 0.173645
O O12 0.219713 0.205003 0.940178
O O13 0.809636 0.158104 0.219319
O O14 0.500000 0.000000 0.500000
O O15 0.000000 0.000000 0.500000
#
# Coordination Sequence:
#
# PCOD8018162 Si02
#       7
#     2   2   2   2   2   2   2
#     4  10  22  40  63  90 119 158 206 254 303 354
#     4  11  23  41  65  93 123 157 202 258 308 357
#     4  10  22  40  63  90 119 158 206 254 303 354
#     4  11  23  41  63  88 123 164 205 249 300 362
#     4  11  23  41  63  88 123 164 205 249 300 362
#     4  12  25  38  59  90 127 166 198 242 302 368
#     4  11  21  39  65  91 123 159 204 256 306 359
#
# _framework density 22.290506000000001
#
# number of rings (size 3 to 8) (size 9 to 14) (size 15 to 20)
#    0.000    1.143    0.000    8.143    0.000    5.714 
#    0.000    0.000    0.000    0.000    0.000    0.000 
#    0.000    0.000    0.000    0.000    0.000    0.000 
#
# Total GULP energy -173436.351997 kJ/mol
# GULP energy per Si atom -12388.310857 kJ/mol
# Density = 2.223977 g / cm^3
# Si number density = 22.290506 Si / 1000 Ang^3
#
#
#
# Elastic Constant Matrix: (Units=GPa)
#
#
# Indices 1 2 3 4 5 6 
#
# 1 80.1765 9.3241 9.7503 -0.0682 5.0258 -1.4249
# 2 9.3241 78.1104 39.3232 11.7794 -5.8676 4.4180
# 3 9.7503 39.3232 103.1499 4.3970 4.3229 -3.6718
# 4 -0.0682 11.7794 4.3970 22.1528 -1.6708 4.4535
# 5 5.0258 -5.8676 4.3229 -1.6708 31.8355 -2.8920
# 6 -1.4249 4.4180 -3.6718 4.4535 -2.8920 29.9919
#
#
#
# Elastic Compliance Matrix: (Units=1/GPa)
#
#
# Indices 1 2 3 4 5 6 
#
# 1 0.012864 -0.001558 -0.000546 0.000721 -0.002165 0.000458
# 2 -0.001558 0.017823 -0.006561 -0.007483 0.003846 -0.002021
# 3 -0.000546 -0.006561 0.012416 0.000395 -0.002593 0.002152
# 4 0.000721 -0.007483 0.000395 0.050338 0.000528 -0.006239
# 5 -0.002165 0.003846 -0.002593 0.000528 0.033034 0.002120
# 6 0.000458 -0.002021 0.002152 -0.006239 0.002120 0.035056
#
#
# Mechanical properties :
#
#
# Convention : Reuss Voigt Hill
#
# Bulk Modulus (GPa) = 38.80011 42.02577 40.41294
# Shear Modulus (GPa) = 26.67315 30.33199 28.50257
#
# Velocity S-wave (km/s) = 3.46297 3.69285 3.57975
# Velocity P-wave (km/s) = 5.78220 6.08912 5.93765
#
# Compressibility (1/GPa) = 0.02577312
#
# Stress axis : x y z
#
# Youngs Moduli (GPa) = 77.73331 56.10617 80.54086
#
# Poissons Ratio (x) = 0.08742 0.04395
# Poissons Ratio (y) = 0.12112 0.52847
# Poissons Ratio (z) = 0.04242 0.36814
#
# Static dielectric constant tensor:
#      x y z
#    x 4.331710 0.221510 0.145170 
#    y 0.221510 4.363990 0.144150 
#    z 0.145170 0.144150 3.845570 
# 
# 
# High freq. dielectric constant tensor:
#      x y z
#    x 1.887700 -0.001180 0.009180 
#    y -0.001180 1.875320 0.003350 
#    z 0.009180 0.003350 1.882620 
# 
# From -- ./inp_files/181495.got.cif
#   From: 2010.06.25/outbox.cif.g09.slc.cpg/sg2_91_cif.got.tgz:181495.got - 2010.06.27 13:26:56.
