data_PCOD8018367
_publ_section_title
;
Structure prediction by ZEFSAII (Michael W. Deem and Ramdas Pophale) SiO2 
 PCOD8018367
Probable space group: P -1
;
_chemical_formula_sum "Si O2"
_cell_formula_units_Z 12
_cell_length_a 18.048673
_cell_length_b 8.546347
_cell_length_c 8.836281
_cell_angle_alpha 79.082614
_cell_angle_beta 32.008184
_cell_angle_gamma 59.768962
_cell_volume 533.650779
_symmetry_space_group_name_H-M "P -1"
_symmetry_group_IT_number 2
_symmetry_cell_setting 'triclinic'
loop_
_space_group_symop_operation_xyz
x,y,z
-x,-y,-z
loop_
_atom_site_type_symbol
_atom_site_label
_atom_site_fract_x
_atom_site_fract_y
_atom_site_fract_z
Si Si1 0.675489 0.009551 0.493739
Si Si2 0.289551 0.909995 0.255235
Si Si3 0.386665 0.427195 0.739980
Si Si4 0.059741 0.766132 0.742697
Si Si5 0.984396 0.199121 0.518375
Si Si6 0.341026 0.341956 0.502793
O O1 0.673854 0.832747 0.469144
O O2 0.666157 0.015260 0.690372
O O3 0.495741 0.235822 0.703801
O O4 0.861388 0.959708 0.123773
O O5 0.183128 0.831523 0.506002
O O6 0.479170 0.716953 0.879151
O O7 0.167290 0.109586 0.314218
O O8 0.500000 0.500000 0.500000
O O9 0.353183 0.356397 0.657708
O O10 0.192149 0.620906 0.112476
O O11 0.024386 0.713123 0.647953
O O12 0.157878 0.564232 0.716226
O O13 0.000000 0.000000 0.500000
#
# Coordination Sequence:
#
# PCOD8018367 Si02
#       6
#     2   2   2   2   2   2
#     4  12  25  42  64  98 134 168 210 266 323 377
#     4  11  22  42  66  93 127 172 218 261 310 381
#     4  12  23  42  68  95 127 172 216 263 318 384
#     4  11  22  42  66  93 127 172 218 261 310 381
#     4  10  22  40  65  95 122 160 217 269 309 366
#     4  12  25  42  64  98 134 168 210 266 323 377
#
# _framework density 22.486616000000001
#
# number of rings (size 3 to 8) (size 9 to 14) (size 15 to 20)
#    0.000    0.667    0.000   10.500    0.000    0.000 
#    0.000    2.500    0.000    0.000    0.000    0.000 
#    0.000    0.000    0.000    0.000    0.000    0.000 
#
# Total GULP energy -148862.134948 kJ/mol
# GULP energy per Si atom -12405.177912 kJ/mol
# Density = 2.243544 g / cm^3
# Si number density = 22.486616 Si / 1000 Ang^3
#
#
#
# Elastic Constant Matrix: (Units=GPa)
#
#
# Indices 1 2 3 4 5 6 
#
# 1 191.3576 37.4790 37.2309 23.2833 11.0603 -21.3006
# 2 37.4790 60.6606 10.8312 15.6277 -20.9092 5.2231
# 3 37.2309 10.8312 120.6044 26.2866 16.4475 -3.3993
# 4 23.2833 15.6277 26.2866 33.2536 2.2403 -2.1612
# 5 11.0603 -20.9092 16.4475 2.2403 34.0227 7.5104
# 6 -21.3006 5.2231 -3.3993 -2.1612 7.5104 37.0006
#
#
#
# Elastic Compliance Matrix: (Units=1/GPa)
#
#
# Indices 1 2 3 4 5 6 
#
# 1 0.008746 -0.009754 -0.000084 -0.000198 -0.010673 0.008559
# 2 -0.009754 0.039852 -0.002902 -0.013156 0.034173 -0.019212
# 3 -0.000084 -0.002902 0.011092 -0.006699 -0.007219 0.002454
# 4 -0.000198 -0.013156 -0.006699 0.042632 -0.008781 0.005400
# 5 -0.010673 0.034173 -0.007219 -0.008781 0.063456 -0.025025
# 6 0.008559 -0.019212 0.002454 0.005400 -0.025025 0.040286
#
#
# Mechanical properties :
#
#
# Convention : Reuss Voigt Hill
#
# Bulk Modulus (GPa) = 29.23085 60.41162 44.82123
# Shear Modulus (GPa) = 20.58045 39.99415 30.28730
#
# Velocity S-wave (km/s) = 3.02856 4.22189 3.67400
# Velocity P-wave (km/s) = 5.02564 7.11967 6.16225
#
# Compressibility (1/GPa) = 0.03421044
#
# Stress axis : x y z
#
# Youngs Moduli (GPa) = 114.33400 25.09253 90.15450
#
# Poissons Ratio (x) = 0.24475 0.00757
# Poissons Ratio (y) = 1.11518 0.26167
# Poissons Ratio (z) = 0.00960 0.07283
#
# Static dielectric constant tensor:
#      x y z
#    x 4.712670 -0.385570 -0.033710 
#    y -0.385570 4.022700 0.217660 
#    z -0.033710 0.217660 4.260470 
# 
# 
# High freq. dielectric constant tensor:
#      x y z
#    x 1.910830 -0.015090 0.002790 
#    y -0.015090 1.875170 0.013130 
#    z 0.002790 0.013130 1.899220 
# 
# From -- ./inp_files/145080.got.cif
#   From: 2010.06.25/outbox.cif.g09.slc.cpg/sg2_73_cif.got.tgz:145080.got - 2010.06.27 13:26:56.
