data_PCOD8018752
_publ_section_title
;
Structure prediction by ZEFSAII (Michael W. Deem and Ramdas Pophale) SiO2 
 PCOD8018752
Probable space group: P -1
;
_chemical_formula_sum "Si O2"
_cell_formula_units_Z 14
_cell_length_a 11.588082
_cell_length_b 11.768666
_cell_length_c 7.939008
_cell_angle_alpha 86.718252
_cell_angle_beta 34.320989
_cell_angle_gamma 73.238256
_cell_volume 550.711814
_symmetry_space_group_name_H-M "P -1"
_symmetry_group_IT_number 2
_symmetry_cell_setting 'triclinic'
loop_
_space_group_symop_operation_xyz
x,y,z
-x,-y,-z
loop_
_atom_site_type_symbol
_atom_site_label
_atom_site_fract_x
_atom_site_fract_y
_atom_site_fract_z
Si Si1 0.617774 0.191394 0.744260
Si Si2 0.463147 0.134853 0.464364
Si Si3 0.131944 0.709875 0.335780
Si Si4 0.869440 0.172360 0.120364
Si Si5 0.183121 0.333766 0.038268
Si Si6 0.254145 0.081022 0.430961
Si Si7 0.743294 0.435106 0.128978
O O1 0.684089 0.241974 0.828350
O O2 0.829187 0.155809 0.364880
O O3 0.598385 0.058976 0.812885
O O4 0.387224 0.292537 0.932949
O O5 0.670578 0.171069 0.239700
O O6 0.415017 0.138399 0.319584
O O7 0.500000 0.000000 0.500000
O O8 0.246344 0.234443 0.818634
O O9 0.046524 0.653297 0.598206
O O10 0.910970 0.825312 0.515273
O O11 0.264971 0.598559 0.054679
O O12 0.884265 0.305975 0.068992
O O13 0.106924 0.066405 0.771572
O O14 0.136525 0.470895 0.010437
O O15 0.500000 0.500000 0.500000
#
# Coordination Sequence:
#
# PCOD8018752 Si02
#       7
#     2   2   2   2   2   2   2
#     4  11  22  41  66  99 137 177 206 273 334 390
#     4  11  21  39  68 100 128 175 216 271 317 389
#     4  11  27  41  66  99 135 175 217 271 333 388
#     4  10  22  40  70  95 131 173 224 265 324 384
#     4  11  24  45  68  99 135 171 223 273 328 382
#     4  11  23  40  63 101 137 171 218 261 326 400
#     4  11  22  49  68  94 129 174 229 273 322 393
#
# _framework density 25.421643
#
# number of rings (size 3 to 8) (size 9 to 14) (size 15 to 20)
#    0.000    1.143    5.714    2.143    2.000    3.429 
#    0.000    9.286    0.000    0.000    0.000    0.000 
#    0.000    0.000    0.000    0.000    0.000    0.000 
#
# Total GULP energy -173609.374426 kJ/mol
# GULP energy per Si atom -12400.669602 kJ/mol
# Density = 2.536378 g / cm^3
# Si number density = 25.421643 Si / 1000 Ang^3
#
#
#
# Elastic Constant Matrix: (Units=GPa)
#
#
# Indices 1 2 3 4 5 6 
#
# 1 108.9728 27.8226 7.4444 16.9906 7.2638 16.1576
# 2 27.8226 147.7796 28.1697 10.4822 12.5151 23.2849
# 3 7.4444 28.1697 73.8302 16.9705 14.7178 19.9283
# 4 16.9906 10.4822 16.9705 39.8585 8.0671 5.8414
# 5 7.2638 12.5151 14.7178 8.0671 37.4049 11.9227
# 6 16.1576 23.2849 19.9283 5.8414 11.9227 26.3368
#
#
#
# Elastic Compliance Matrix: (Units=1/GPa)
#
#
# Indices 1 2 3 4 5 6 
#
# 1 0.010938 -0.001154 0.001982 -0.004355 0.000474 -0.006438
# 2 -0.001154 0.008120 -0.001489 -0.000206 -0.000203 -0.005208
# 3 0.001982 -0.001489 0.019024 -0.006364 -0.002212 -0.011881
# 4 -0.004355 -0.000206 -0.006364 0.030102 -0.003962 0.002786
# 5 0.000474 -0.000203 -0.002212 -0.003962 0.032321 -0.012190
# 6 -0.006438 -0.005208 -0.011881 0.002786 -0.012190 0.060415
#
#
# Mechanical properties :
#
#
# Convention : Reuss Voigt Hill
#
# Bulk Modulus (GPa) = 27.20301 50.82844 39.01573
# Shear Modulus (GPa) = 28.65426 38.52975 33.59200
#
# Velocity S-wave (km/s) = 3.36096 3.89733 3.63904
# Velocity P-wave (km/s) = 5.07793 6.34743 5.74783
#
# Compressibility (1/GPa) = 0.03676064
#
# Stress axis : x y z
#
# Youngs Moduli (GPa) = 91.42518 123.15117 52.56629
#
# Poissons Ratio (x) = 0.14209 -0.10418
# Poissons Ratio (y) = 0.10549 0.07825
# Poissons Ratio (z) = -0.18119 0.18332
#
# Static dielectric constant tensor:
#      x y z
#    x 4.544540 0.215970 0.227560 
#    y 0.215970 4.891950 -0.013800 
#    z 0.227560 -0.013800 4.699030 
# 
# 
# High freq. dielectric constant tensor:
#      x y z
#    x 2.008330 0.013640 0.013830 
#    y 0.013640 2.024580 -0.009360 
#    z 0.013830 -0.009360 2.021620 
# 
# From -- ./inp_files/258771.got.cif
#   From: 2010.06.25/outbox.cif.g09.slc.cpg/sg2_130_cif.got.tgz:258771.got - 2010.06.27 13:26:56.
