data_PCOD8018764
_publ_section_title
;
Structure prediction by ZEFSAII (Michael W. Deem and Ramdas Pophale) SiO2 
 PCOD8018764
Probable space group: P -1
;
_chemical_formula_sum "Si O2"
_cell_formula_units_Z 16
_cell_length_a 13.370539
_cell_length_b 20.583415
_cell_length_c 6.414093
_cell_angle_alpha 90.069962
_cell_angle_beta 90.769441
_cell_angle_gamma 22.025322
_cell_volume 661.634049
_symmetry_space_group_name_H-M "P -1"
_symmetry_group_IT_number 2
_symmetry_cell_setting 'triclinic'
loop_
_space_group_symop_operation_xyz
x,y,z
-x,-y,-z
loop_
_atom_site_type_symbol
_atom_site_label
_atom_site_fract_x
_atom_site_fract_y
_atom_site_fract_z
Si Si1 0.930210 0.146279 0.545844
Si Si2 0.401951 0.015398 0.810453
Si Si3 0.227822 0.415901 0.469919
Si Si4 0.596723 0.342185 0.158300
Si Si5 0.662248 0.160099 0.147478
Si Si6 0.258275 0.217288 0.543822
Si Si7 0.399074 0.879269 0.257669
Si Si8 0.859076 0.286573 0.883495
O O1 0.682729 0.270102 0.397921
O O2 0.793428 0.285827 0.674591
O O3 0.074348 0.005242 0.696048
O O4 0.148793 0.045624 0.397505
O O5 0.281386 0.129900 0.618677
O O6 0.177542 0.104677 0.904934
O O7 0.631238 0.837155 0.691302
O O8 0.500000 0.000000 0.000000
O O9 0.383575 0.313840 0.256375
O O10 0.443307 0.279975 0.659404
O O11 0.000000 0.500000 0.500000
O O12 0.063368 0.581634 0.469606
O O13 0.645084 0.243315 0.045013
O O14 0.294532 0.551337 0.128831
O O15 0.780948 0.289941 0.080078
O O16 0.693439 0.084524 0.976320
O O17 0.404568 0.176560 0.717100
#
# Coordination Sequence:
#
# PCOD8018764 Si02
#       8
#     2   2   2   2   2   2   2   2
#     4  11  23  43  70  95 138 180 228 285 343 398
#     4  11  25  40  70  98 133 181 222 281 335 410
#     4   9  21  39  62  95 133 173 218 271 337 399
#     4  11  26  44  69 101 136 183 230 287 339 410
#     4  11  24  42  69 103 136 177 231 282 343 406
#     4  10  22  41  63  99 132 177 228 268 343 402
#     4  10  22  40  70  97 137 174 219 284 337 409
#     4  11  25  46  68 100 138 180 232 279 351 404
#
# _framework density 24.182552000000001
#
# number of rings (size 3 to 8) (size 9 to 14) (size 15 to 20)
#    0.000    1.500    1.250    2.250    3.500    8.000 
#    0.000    2.500    0.000    0.000    0.000    0.000 
#    0.000    0.000    0.000    0.000    0.000    0.000 
#
# Total GULP energy -198256.118126 kJ/mol
# GULP energy per Si atom -12391.007383 kJ/mol
# Density = 2.412751 g / cm^3
# Si number density = 24.182552 Si / 1000 Ang^3
#
#
#
# Elastic Constant Matrix: (Units=GPa)
#
#
# Indices 1 2 3 4 5 6 
#
# 1 72.0408 5.9910 16.0310 -3.0572 -4.2897 20.3547
# 2 5.9910 85.1179 27.5652 0.0622 -6.0459 21.8541
# 3 16.0310 27.5652 92.6308 1.9126 9.0760 8.3976
# 4 -3.0572 0.0622 1.9126 30.6034 -1.2607 1.5782
# 5 -4.2897 -6.0459 9.0760 -1.2607 39.9449 1.2226
# 6 20.3547 21.8541 8.3976 1.5782 1.2226 35.6662
#
#
#
# Elastic Compliance Matrix: (Units=1/GPa)
#
#
# Indices 1 2 3 4 5 6 
#
# 1 0.017984 0.003058 -0.003382 0.002748 0.003604 -0.011586
# 2 0.003058 0.016136 -0.004802 0.001299 0.004230 -0.010704
# 3 -0.003382 -0.004802 0.013066 -0.001419 -0.004165 0.002002
# 4 0.002748 0.001299 -0.001419 0.033302 0.001975 -0.003571
# 5 0.003604 0.004230 -0.004165 0.001975 0.027214 -0.004689
# 6 -0.011586 -0.010704 0.002002 -0.003571 -0.004689 0.041056
#
#
# Mechanical properties :
#
#
# Convention : Reuss Voigt Hill
#
# Bulk Modulus (GPa) = 27.07493 38.77376 32.92434
# Shear Modulus (GPa) = 29.18490 34.58973 31.88732
#
# Velocity S-wave (km/s) = 3.47775 3.78611 3.63520
# Velocity P-wave (km/s) = 5.22941 5.93139 5.59143
#
# Compressibility (1/GPa) = 0.03693453
#
# Stress axis : x y z
#
# Youngs Moduli (GPa) = 55.60473 61.97258 76.53621
#
# Poissons Ratio (x) = -0.18952 0.25884
# Poissons Ratio (y) = -0.17005 0.36752
# Poissons Ratio (z) = 0.18805 0.29759
#
# Static dielectric constant tensor:
#      x y z
#    x 4.380190 0.422240 -0.232500 
#    y 0.422240 5.289460 0.068260 
#    z -0.232500 0.068260 4.350790 
# 
# 
# High freq. dielectric constant tensor:
#      x y z
#    x 1.949330 0.014380 -0.013400 
#    y 0.014380 1.974470 0.005290 
#    z -0.013400 0.005290 1.950740 
# 
# From -- ./inp_files/77984.got.cif
#   From: 2010.06.25/outbox.cif.g09.slc.cpg/sg2_39_cif.got.tgz:77984.got - 2010.06.27 13:26:56.
