data_PCOD8018028
_publ_section_title
;
Structure prediction by ZEFSAII (Michael W. Deem and Ramdas Pophale) SiO2 
 PCOD8018028
Probable space group: P -1
;
_chemical_formula_sum "Si O2"
_cell_formula_units_Z 16
_cell_length_a 20.989442
_cell_length_b 6.892600
_cell_length_c 10.788185
_cell_angle_alpha 121.721713
_cell_angle_beta 41.506523
_cell_angle_gamma 132.749288
_cell_volume 759.040448
_symmetry_space_group_name_H-M "P -1"
_symmetry_group_IT_number 2
_symmetry_cell_setting 'triclinic'
loop_
_space_group_symop_operation_xyz
x,y,z
-x,-y,-z
loop_
_atom_site_type_symbol
_atom_site_label
_atom_site_fract_x
_atom_site_fract_y
_atom_site_fract_z
Si Si1 0.946662 0.332344 0.145583
Si Si2 0.808209 0.584056 0.476323
Si Si3 0.975718 0.935118 0.660361
Si Si4 0.218276 0.094066 0.170599
Si Si5 0.765075 0.766164 0.169682
Si Si6 0.883802 0.486968 0.815937
Si Si7 0.387420 0.141066 0.758636
Si Si8 0.361906 0.593515 0.549054
O O1 0.849159 0.373562 0.361806
O O2 0.042533 0.415064 0.134625
O O3 0.887609 0.022832 0.095142
O O4 0.000000 0.500000 0.000000
O O5 0.772865 0.662014 0.682513
O O6 0.700285 0.464109 0.509519
O O7 0.917444 0.843240 0.346003
O O8 0.863377 0.955494 0.847066
O O9 0.951714 0.649779 0.648227
O O10 0.000000 0.000000 0.500000
O O11 0.164571 0.824885 0.241260
O O12 0.339106 0.170693 0.970371
O O13 0.679558 0.825949 0.243738
O O14 0.707865 0.659917 0.349853
O O15 0.782410 0.542884 0.002557
O O16 0.516212 0.365952 0.638640
O O17 0.371978 0.851873 0.683752
#
# Coordination Sequence:
#
# PCOD8018028 Si02
#       8
#     2   2   2   2   2   2   2   2
#     4  12  23  39  65  99 141 173 214 269 323 394
#     4  11  23  42  63  94 135 168 212 264 328 384
#     4  10  22  40  60  91 131 173 209 257 317 398
#     4  11  23  43  64  94 134 172 213 270 325 395
#     4  12  22  40  67  96 129 167 224 271 320 390
#     4  12  22  38  66  95 132 177 210 257 338 388
#     4  11  23  44  68  90 130 168 224 278 320 386
#     4  11  24  43  67  95 122 177 222 271 331 376
#
# _framework density 21.079246000000001
#
# number of rings (size 3 to 8) (size 9 to 14) (size 15 to 20)
#    0.000    0.750    5.000    3.750    0.000    2.500 
#    4.500    0.000    0.000    1.500    0.000    0.000 
#    0.000    0.000    0.000    0.000    0.000    0.000 
#
# Total GULP energy -198331.220770 kJ/mol
# GULP energy per Si atom -12395.701298 kJ/mol
# Density = 2.103127 g / cm^3
# Si number density = 21.079246 Si / 1000 Ang^3
#
#
#
# Elastic Constant Matrix: (Units=GPa)
#
#
# Indices 1 2 3 4 5 6 
#
# 1 56.4465 17.7368 36.7326 -16.8933 -6.0525 -10.0267
# 2 17.7368 73.4163 18.5816 -7.4883 5.2182 -8.3303
# 3 36.7326 18.5816 100.7974 -3.1569 -7.6157 4.8446
# 4 -16.8933 -7.4883 -3.1569 37.8594 -0.9977 0.0298
# 5 -6.0525 5.2182 -7.6157 -0.9977 33.3522 -4.5483
# 6 -10.0267 -8.3303 4.8446 0.0298 -4.5483 36.1706
#
#
#
# Elastic Compliance Matrix: (Units=1/GPa)
#
#
# Indices 1 2 3 4 5 6 
#
# 1 0.031934 -0.002897 -0.010773 0.012917 0.005582 0.010319
# 2 -0.002897 0.015531 -0.002117 0.001521 -0.003029 0.002675
# 3 -0.010773 -0.002117 0.014429 -0.003997 0.000829 -0.005299
# 4 0.012917 0.001521 -0.003997 0.032215 0.002811 0.004793
# 5 0.005582 -0.003029 0.000829 0.002811 0.032399 0.004811
# 6 0.010319 0.002675 -0.005299 0.004793 0.004811 0.032434
#
#
# Mechanical properties :
#
#
# Convention : Reuss Voigt Hill
#
# Bulk Modulus (GPa) = 32.98150 41.86245 37.42197
# Shear Modulus (GPa) = 24.92234 31.98372 28.45303
#
# Velocity S-wave (km/s) = 3.44221 3.89949 3.67797
# Velocity P-wave (km/s) = 5.61060 6.33856 5.98566
#
# Compressibility (1/GPa) = 0.03032003
#
# Stress axis : x y z
#
# Youngs Moduli (GPa) = 31.31445 64.38920 69.30363
#
# Poissons Ratio (x) = 0.18652 0.74662
# Poissons Ratio (y) = 0.09071 0.14673
# Poissons Ratio (z) = 0.33735 0.13632
#
# Static dielectric constant tensor:
#      x y z
#    x 3.769870 -0.104710 -0.253300 
#    y -0.104710 3.941060 -0.066900 
#    z -0.253300 -0.066900 4.011890 
# 
# 
# High freq. dielectric constant tensor:
#      x y z
#    x 1.816260 -0.015900 -0.008410 
#    y -0.015900 1.820640 0.003470 
#    z -0.008410 0.003470 1.835110 
# 
# From -- ./inp_files/468462.got.cif
#   From: 2010.06.25/outbox.cif.g09.slc.cpg/sg2_235_cif.got.tgz:468462.got - 2010.06.27 13:26:56.
