data_PCOD8018775
_publ_section_title
;
Structure prediction by ZEFSAII (Michael W. Deem and Ramdas Pophale) SiO2 
 PCOD8018775
Probable space group: P -1
;
_chemical_formula_sum "Si O2"
_cell_formula_units_Z 16
_cell_length_a 6.809064
_cell_length_b 11.832944
_cell_length_c 23.941430
_cell_angle_alpha 29.646078
_cell_angle_beta 128.373102
_cell_angle_gamma 117.433141
_cell_volume 732.437120
_symmetry_space_group_name_H-M "P -1"
_symmetry_group_IT_number 2
_symmetry_cell_setting 'triclinic'
loop_
_space_group_symop_operation_xyz
x,y,z
-x,-y,-z
loop_
_atom_site_type_symbol
_atom_site_label
_atom_site_fract_x
_atom_site_fract_y
_atom_site_fract_z
Si Si1 0.449093 0.645285 0.102289
Si Si2 0.810690 0.657436 0.339945
Si Si3 0.640773 0.072696 0.787348
Si Si4 0.165163 0.147614 0.856448
Si Si5 0.420644 0.770728 0.521989
Si Si6 0.635162 0.273589 0.589356
Si Si7 0.353789 0.423493 0.953914
Si Si8 0.781763 0.698815 0.716651
O O1 0.725800 0.698655 0.144271
O O2 0.457159 0.601810 0.055547
O O3 0.379374 0.419730 0.216256
O O4 0.248036 0.867062 0.995629
O O5 0.623281 0.770613 0.307301
O O6 0.734042 0.798793 0.209247
O O7 0.784512 0.394051 0.436093
O O8 0.088915 0.680077 0.400410
O O9 0.646837 0.054623 0.728060
O O10 0.860732 0.214390 0.781945
O O11 0.706858 0.824120 0.934769
O O12 0.514677 0.770133 0.474291
O O13 0.670536 0.674761 0.645257
O O14 0.265813 0.027162 0.398245
O O15 0.500000 0.500000 0.500000
O O16 0.085852 0.598826 0.817856
O O17 0.500000 0.500000 0.000000
#
# Coordination Sequence:
#
# PCOD8018775 Si02
#       8
#     2   2   2   2   2   2   2   2
#     4  11  23  43  69 103 132 181 226 286 352 400
#     4  11  22  42  70 103 140 175 230 291 345 399
#     4  11  24  42  68 108 138 178 226 293 353 399
#     4  10  22  40  71 102 136 168 231 294 343 408
#     4  11  25  48  69  96 143 190 232 276 339 420
#     4  11  25  41  71 106 135 182 232 290 343 402
#     4  12  29  44  70 103 140 185 231 281 355 424
#     4  11  27  49  68  97 144 191 228 282 339 421
#
# _framework density 21.844878000000001
#
# number of rings (size 3 to 8) (size 9 to 14) (size 15 to 20)
#    0.000    1.000    5.000    0.375    5.250    1.000 
#    0.000    1.250    0.000    0.000    0.000    0.000 
#    0.000    0.000    0.000    0.000    0.000    0.000 
#
# Total GULP energy -198350.618987 kJ/mol
# GULP energy per Si atom -12396.913687 kJ/mol
# Density = 2.179516 g / cm^3
# Si number density = 21.844878 Si / 1000 Ang^3
#
#
#
# Elastic Constant Matrix: (Units=GPa)
#
#
# Indices 1 2 3 4 5 6 
#
# 1 117.8781 47.1288 38.8957 10.7413 2.3042 4.3442
# 2 47.1288 115.7669 44.0282 23.4165 -4.6884 -16.2440
# 3 38.8957 44.0282 113.4647 9.6683 -5.1342 12.5687
# 4 10.7413 23.4165 9.6683 40.2356 3.5731 -6.2228
# 5 2.3042 -4.6884 -5.1342 3.5731 38.6748 0.4710
# 6 4.3442 -16.2440 12.5687 -6.2228 0.4710 17.3399
#
#
#
# Elastic Compliance Matrix: (Units=1/GPa)
#
#
# Indices 1 2 3 4 5 6 
#
# 1 0.011203 -0.004998 -0.001127 -0.000768 -0.001268 -0.006913
# 2 -0.004998 0.016988 -0.006763 -0.003875 0.001566 0.020636
# 3 -0.001127 -0.006763 0.013913 -0.001841 0.001469 -0.016838
# 4 -0.000768 -0.003875 -0.001841 0.029386 -0.003487 0.008537
# 5 -0.001268 0.001566 0.001469 -0.003487 0.026655 -0.001256
# 6 -0.006913 0.020636 -0.016838 0.008537 -0.001256 0.094037
#
#
# Mechanical properties :
#
#
# Convention : Reuss Voigt Hill
#
# Bulk Modulus (GPa) = 61.25105 67.46835 64.35970
# Shear Modulus (GPa) = 22.38136 33.72053 28.05094
#
# Velocity S-wave (km/s) = 3.20435 3.93318 3.58732
# Velocity P-wave (km/s) = 6.46455 7.18183 6.83261
#
# Compressibility (1/GPa) = 0.01632625
#
# Stress axis : x y z
#
# Youngs Moduli (GPa) = 89.26100 58.86607 71.87708
#
# Poissons Ratio (x) = 0.29423 0.08101
# Poissons Ratio (y) = 0.44615 0.48612
# Poissons Ratio (z) = 0.10061 0.39813
#
# Static dielectric constant tensor:
#      x y z
#    x 3.923410 -0.023550 -0.370130 
#    y -0.023550 4.104900 0.231570 
#    z -0.370130 0.231570 4.307640 
# 
# 
# High freq. dielectric constant tensor:
#      x y z
#    x 1.856160 -0.001980 -0.014990 
#    y -0.001980 1.854660 0.013390 
#    z -0.014990 0.013390 1.877630 
# 
# From -- ./inp_files/604422.got.cif
#   From: 2010.06.25/outbox.cif.g09.slc.cpg/sg2_303_cif.got.tgz:604422.got - 2010.06.27 13:26:56.
