data_PCOD8018648
_publ_section_title
;
Structure prediction by ZEFSAII (Michael W. Deem and Ramdas Pophale) SiO2 
 PCOD8018648
Probable space group: P -1
;
_chemical_formula_sum "Si O2"
_cell_formula_units_Z 10
_cell_length_a 6.917458
_cell_length_b 6.153082
_cell_length_c 16.881709
_cell_angle_alpha 142.256732
_cell_angle_beta 59.322717
_cell_angle_gamma 114.478903
_cell_volume 378.205705
_symmetry_space_group_name_H-M "P -1"
_symmetry_group_IT_number 2
_symmetry_cell_setting 'triclinic'
loop_
_space_group_symop_operation_xyz
x,y,z
-x,-y,-z
loop_
_atom_site_type_symbol
_atom_site_label
_atom_site_fract_x
_atom_site_fract_y
_atom_site_fract_z
Si Si1 0.752214 0.551356 0.035147
Si Si2 0.614785 0.277815 0.237717
Si Si3 0.305920 0.196441 0.044559
Si Si4 0.290457 0.290285 0.519443
Si Si5 0.185854 0.496705 0.314781
O O1 0.578185 0.250999 0.022676
O O2 0.660198 0.942159 0.189962
O O3 0.746037 0.508942 0.927928
O O4 0.000000 0.500000 0.000000
O O5 0.706879 0.635756 0.364201
O O6 0.345284 0.298351 0.285947
O O7 0.738155 0.191342 0.101980
O O8 0.153761 0.267489 0.173778
O O9 0.500000 0.500000 0.500000
O O10 0.056960 0.443009 0.578056
O O11 0.305665 0.875551 0.378461
#
# Coordination Sequence:
#
# PCOD8018648 Si02
#       5
#     2   2   2   2   2
#     4   9  20  37  64 101 137 170 216 271 332 397
#     4  10  22  40  68  99 134 176 219 277 337 390
#     4   9  21  39  66 100 135 169 221 277 336 390
#     4  11  26  44  68  95 136 185 221 269 336 400
#     4  11  24  45  67 101 138 170 227 278 326 405
#
# _framework density 26.440639000000001
#
# number of rings (size 3 to 8) (size 9 to 14) (size 15 to 20)
#    1.200    0.800    0.000    2.400    2.800    3.200 
#    0.000    6.000    0.000    0.000    0.000    0.000 
#    0.000    0.000    0.000    0.000    0.000    0.000 
#
# Total GULP energy -123897.470862 kJ/mol
# GULP energy per Si atom -12389.747086 kJ/mol
# Density = 2.638046 g / cm^3
# Si number density = 26.440639 Si / 1000 Ang^3
#
#
#
# Elastic Constant Matrix: (Units=GPa)
#
#
# Indices 1 2 3 4 5 6 
#
# 1 139.9292 36.0875 35.3770 -2.5111 -21.3759 -1.1775
# 2 36.0875 75.1153 18.0441 4.8574 -16.6186 24.7396
# 3 35.3770 18.0441 143.0197 15.8024 4.4075 -3.2331
# 4 -2.5111 4.8574 15.8024 24.3402 -0.1547 -0.0662
# 5 -21.3759 -16.6186 4.4075 -0.1547 47.6212 0.7592
# 6 -1.1775 24.7396 -3.2331 -0.0662 0.7592 36.1630
#
#
#
# Elastic Compliance Matrix: (Units=1/GPa)
#
#
# Indices 1 2 3 4 5 6 
#
# 1 0.009394 -0.004697 -0.002106 0.003300 0.002731 0.003279
# 2 -0.004697 0.023008 -0.001876 -0.003862 0.006341 -0.016201
# 3 -0.002106 -0.001876 0.008461 -0.005346 -0.002432 0.002013
# 4 0.003300 -0.003862 -0.005346 0.045677 0.000739 0.002340
# 5 0.002731 0.006341 -0.002432 0.000739 0.024745 -0.004984
# 6 0.003279 -0.016201 0.002013 0.002340 -0.004984 0.039132
#
#
# Mechanical properties :
#
#
# Convention : Reuss Voigt Hill
#
# Bulk Modulus (GPa) = 42.54163 59.67571 51.10867
# Shear Modulus (GPa) = 28.47237 39.52859 34.00048
#
# Velocity S-wave (km/s) = 3.28509 3.87071 3.58986
# Velocity P-wave (km/s) = 5.52390 6.52650 6.04602
#
# Compressibility (1/GPa) = 0.02350639
#
# Stress axis : x y z
#
# Youngs Moduli (GPa) = 106.44965 43.46251 118.19291
#
# Poissons Ratio (x) = 0.20412 0.24889
# Poissons Ratio (y) = 0.49994 0.22174
# Poissons Ratio (z) = 0.22416 0.08154
#
# Static dielectric constant tensor:
#      x y z
#    x 4.983240 -0.151350 0.154170 
#    y -0.151350 4.238060 0.198930 
#    z 0.154170 0.198930 5.136940 
# 
# 
# High freq. dielectric constant tensor:
#      x y z
#    x 2.087640 -0.008220 -0.000300 
#    y -0.008220 2.018790 0.014130 
#    z -0.000300 0.014130 2.065870 
# 
# From -- ./inp_files/157549.got.cif
#   From: 2010.06.25/outbox.cif.g09.slc.cpg/sg2_79_cif.got.tgz:157549.got - 2010.06.27 13:26:56.
