data_PCOD8018235
_publ_section_title
;
Structure prediction by ZEFSAII (Michael W. Deem and Ramdas Pophale) SiO2 
 PCOD8018235
Probable space group: P -1
;
_chemical_formula_sum "Si O2"
_cell_formula_units_Z 14
_cell_length_a 19.749832
_cell_length_b 5.037422
_cell_length_c 16.213449
_cell_angle_alpha 90.645467
_cell_angle_beta 23.661805
_cell_angle_gamma 90.322032
_cell_volume 647.290655
_symmetry_space_group_name_H-M "P -1"
_symmetry_group_IT_number 2
_symmetry_cell_setting 'triclinic'
loop_
_space_group_symop_operation_xyz
x,y,z
-x,-y,-z
loop_
_atom_site_type_symbol
_atom_site_label
_atom_site_fract_x
_atom_site_fract_y
_atom_site_fract_z
Si Si1 0.948681 0.236753 0.391845
Si Si2 0.699478 0.495807 0.789344
Si Si3 0.974765 0.541858 0.124032
Si Si4 0.219047 0.006936 0.201198
Si Si5 0.812834 0.049649 0.377643
Si Si6 0.233442 0.474070 0.970339
Si Si7 0.577717 0.006470 0.184515
O O1 0.791448 0.409962 0.601790
O O2 0.883974 0.042091 0.391519
O O3 0.033015 0.055566 0.369411
O O4 0.087074 0.436985 0.201776
O O5 0.755435 0.791685 0.750798
O O6 0.759809 0.295205 0.793310
O O7 0.500000 0.500000 0.000000
O O8 0.835614 0.340691 0.314271
O O9 0.915770 0.841734 0.206888
O O10 0.000000 0.500000 0.000000
O O11 0.154244 0.496884 0.968045
O O12 0.364530 0.064887 0.972620
O O13 0.621049 0.963475 0.591444
O O14 0.338138 0.727663 0.878015
O O15 0.361119 0.225322 0.823435
#
# Coordination Sequence:
#
# PCOD8018235 Si02
#       7
#     2   2   2   2   2   2   2
#     4  10  23  42  64  90 121 166 214 250 305 374
#     4  12  25  39  58  90 125 161 206 264 310 348
#     4  11  23  43  66  95 126 161 202 247 304 373
#     4  11  23  39  60  86 122 165 204 257 306 357
#     4  11  24  41  67  93 122 163 204 254 304 363
#     4  10  22  40  64  89 123 165 203 253 306 370
#     4  11  22  42  63  93 125 161 210 253 304 363
#
# _framework density 21.628613999999999
#
# number of rings (size 3 to 8) (size 9 to 14) (size 15 to 20)
#    0.000    1.143    0.000    7.714    0.000    8.000 
#    0.000    4.286    0.000    0.000    0.000    0.000 
#    0.000    0.000    0.000    0.000    0.000    0.000 
#
# Total GULP energy -173686.138688 kJ/mol
# GULP energy per Si atom -12406.152763 kJ/mol
# Density = 2.157939 g / cm^3
# Si number density = 21.628614 Si / 1000 Ang^3
#
#
#
# Elastic Constant Matrix: (Units=GPa)
#
#
# Indices 1 2 3 4 5 6 
#
# 1 109.0779 39.2396 51.1177 8.0809 -5.8761 20.3377
# 2 39.2396 122.8563 34.6269 1.0587 -13.2173 13.3689
# 3 51.1177 34.6269 105.0510 -8.3086 -28.7939 15.6406
# 4 8.0809 1.0587 -8.3086 41.3839 10.3060 -0.6635
# 5 -5.8761 -13.2173 -28.7939 10.3060 30.2394 5.2591
# 6 20.3377 13.3689 15.6406 -0.6635 5.2591 37.3910
#
#
#
# Elastic Compliance Matrix: (Units=1/GPa)
#
#
# Indices 1 2 3 4 5 6 
#
# 1 0.013824 -0.002487 -0.006367 -0.003299 -0.002705 -0.003645
# 2 -0.002487 0.009815 -0.000660 -0.000912 0.003915 -0.002448
# 3 -0.006367 -0.000660 0.018495 0.000641 0.016983 -0.006415
# 4 -0.003299 -0.000912 0.000641 0.027640 -0.010514 0.003822
# 5 -0.002705 0.003915 0.016983 -0.010514 0.056651 -0.015187
# 6 -0.003645 -0.002448 -0.006415 0.003822 -0.015187 0.034489
#
#
# Mechanical properties :
#
#
# Convention : Reuss Voigt Hill
#
# Bulk Modulus (GPa) = 43.27478 65.21708 54.24593
# Shear Modulus (GPa) = 26.64609 35.93626 31.29118
#
# Velocity S-wave (km/s) = 3.51377 4.08059 3.80774
# Velocity P-wave (km/s) = 6.04265 7.24018 6.66835
#
# Compressibility (1/GPa) = 0.02310815
#
# Stress axis : x y z
#
# Youngs Moduli (GPa) = 72.33571 101.88224 54.06722
#
# Poissons Ratio (x) = 0.25337 0.34424
# Poissons Ratio (y) = 0.17989 0.03567
# Poissons Ratio (z) = 0.46055 0.06722
#
# Static dielectric constant tensor:
#      x y z
#    x 3.938200 -0.063770 -0.131520 
#    y -0.063770 3.948530 0.065130 
#    z -0.131520 0.065130 3.842480 
# 
# 
# High freq. dielectric constant tensor:
#      x y z
#    x 1.845570 0.001250 -0.013140 
#    y 0.001250 1.864450 0.001500 
#    z -0.013140 0.001500 1.845580 
# 
# From -- ./inp_files/122811.got.cif
#   From: 2010.06.25/outbox.cif.g09.slc.cpg/sg2_62_cif.got.tgz:122811.got - 2010.06.27 13:26:56.
