data_PCOD8018941
_publ_section_title
;
Structure prediction by ZEFSAII (Michael W. Deem and Ramdas Pophale) SiO2 
 PCOD8018941
Probable space group: P -1
;
_chemical_formula_sum "Si O2"
_cell_formula_units_Z 16
_cell_length_a 15.164337
_cell_length_b 16.048134
_cell_length_c 8.893481
_cell_angle_alpha 93.650811
_cell_angle_beta 104.569010
_cell_angle_gamma 152.632502
_cell_volume 735.679181
_symmetry_space_group_name_H-M "P -1"
_symmetry_group_IT_number 2
_symmetry_cell_setting 'triclinic'
loop_
_space_group_symop_operation_xyz
x,y,z
-x,-y,-z
loop_
_atom_site_type_symbol
_atom_site_label
_atom_site_fract_x
_atom_site_fract_y
_atom_site_fract_z
Si Si1 0.239702 0.300003 0.777689
Si Si2 0.553404 0.819371 0.282895
Si Si3 0.173022 0.438265 0.817408
Si Si4 0.473221 0.308137 0.466855
Si Si5 0.547365 0.836508 0.791349
Si Si6 0.416693 0.022854 0.450613
Si Si7 0.042888 0.822018 0.750707
Si Si8 0.178687 0.199102 0.403588
O O1 0.170689 0.337030 0.783734
O O2 0.275992 0.318393 0.617542
O O3 0.500000 0.500000 0.000000
O O4 0.010381 0.043237 0.703170
O O5 0.625519 0.805597 0.424409
O O6 0.457361 0.816150 0.339717
O O7 0.819262 0.069857 0.339205
O O8 0.335277 0.601145 0.052515
O O9 0.293679 0.589243 0.743353
O O10 0.890203 0.231023 0.700161
O O11 0.334069 0.137652 0.254867
O O12 0.426416 0.368571 0.441563
O O13 0.775752 0.542494 0.605666
O O14 0.481532 0.856794 0.653890
O O15 0.773098 0.056811 0.027672
O O16 0.500000 0.000000 0.500000
O O17 0.974759 0.860989 0.759264
#
# Coordination Sequence:
#
# PCOD8018941 Si02
#       8
#     2   2   2   2   2   2   2   2
#     4  11  21  36  60  89 125 169 209 248 295 346
#     4  10  22  41  63  86 117 158 201 244 303 371
#     4  11  22  41  64  87 124 164 199 249 302 355
#     4  11  21  36  58  85 122 163 204 252 296 346
#     4  10  23  40  61  89 117 157 205 242 303 374
#     4  11  24  43  67  93 120 151 195 255 315 370
#     4  11  22  39  59  85 124 165 203 250 300 351
#     4  11  22  33  53  89 124 162 215 253 289 349
#
# _framework density 21.748612000000001
#
# number of rings (size 3 to 8) (size 9 to 14) (size 15 to 20)
#    0.000    1.250    0.000    8.625    0.000    2.500 
#    0.000    2.500    0.000    0.000    0.000    0.000 
#    0.000    0.000    0.000    0.000    0.000    0.000 
#
# Total GULP energy -198383.708946 kJ/mol
# GULP energy per Si atom -12398.981809 kJ/mol
# Density = 2.169911 g / cm^3
# Si number density = 21.748612 Si / 1000 Ang^3
#
#
#
# Elastic Constant Matrix: (Units=GPa)
#
#
# Indices 1 2 3 4 5 6 
#
# 1 124.9821 30.1699 34.3771 -7.0605 8.8824 -20.1066
# 2 30.1699 80.7873 39.0891 -19.8478 -2.3238 1.3056
# 3 34.3771 39.0891 94.3818 -5.0961 -9.7574 -0.6250
# 4 -7.0605 -19.8478 -5.0961 33.2855 2.3308 3.2922
# 5 8.8824 -2.3238 -9.7574 2.3308 26.7517 -0.8339
# 6 -20.1066 1.3056 -0.6250 3.2922 -0.8339 32.8506
#
#
#
# Elastic Compliance Matrix: (Units=1/GPa)
#
#
# Indices 1 2 3 4 5 6 
#
# 1 0.010999 -0.002787 -0.003321 -0.000155 -0.004884 0.006671
# 2 -0.002787 0.019080 -0.006439 0.010213 -0.000769 -0.003630
# 3 -0.003321 -0.006439 0.014966 -0.002580 0.006193 -0.001076
# 4 -0.000155 0.010213 -0.002580 0.036360 -0.003304 -0.004278
# 5 -0.004884 -0.000769 0.006193 -0.003304 0.041437 -0.001458
# 6 0.006671 -0.003630 -0.001076 -0.004278 -0.001458 0.035040
#
#
# Mechanical properties :
#
#
# Convention : Reuss Voigt Hill
#
# Bulk Modulus (GPa) = 50.12459 56.38038 53.25248
# Shear Modulus (GPa) = 26.36773 31.67857 29.02315
#
# Velocity S-wave (km/s) = 3.48571 3.82066 3.65702
# Velocity P-wave (km/s) = 6.26878 6.74115 6.50925
#
# Compressibility (1/GPa) = 0.01995029
#
# Stress axis : x y z
#
# Youngs Moduli (GPa) = 90.91759 52.40985 66.82000
#
# Poissons Ratio (x) = 0.14607 0.22191
# Poissons Ratio (y) = 0.25339 0.43027
# Poissons Ratio (z) = 0.30194 0.33748
#
# Static dielectric constant tensor:
#      x y z
#    x 3.763400 0.068510 -0.090340 
#    y 0.068510 4.257260 -0.007190 
#    z -0.090340 -0.007190 4.081360 
# 
# 
# High freq. dielectric constant tensor:
#      x y z
#    x 1.827790 0.005380 -0.014260 
#    y 0.005380 1.876760 0.005430 
#    z -0.014260 0.005430 1.862980 
# 
# From -- ./inp_files/315337.got.cif
#   From: 2010.06.25/outbox.cif.g09.slc.cpg/sg2_158_cif.got.tgz:315337.got - 2010.06.27 13:26:56.
