data_PCOD8018136
_publ_section_title
;
Structure prediction by ZEFSAII (Michael W. Deem and Ramdas Pophale) SiO2 
 PCOD8018136
Probable space group: P -1
;
_chemical_formula_sum "Si O2"
_cell_formula_units_Z 16
_cell_length_a 19.693285
_cell_length_b 5.561149
_cell_length_c 17.292241
_cell_angle_alpha 93.916590
_cell_angle_beta 27.959446
_cell_angle_gamma 111.641912
_cell_volume 665.895943
_symmetry_space_group_name_H-M "P -1"
_symmetry_group_IT_number 2
_symmetry_cell_setting 'triclinic'
loop_
_space_group_symop_operation_xyz
x,y,z
-x,-y,-z
loop_
_atom_site_type_symbol
_atom_site_label
_atom_site_fract_x
_atom_site_fract_y
_atom_site_fract_z
Si Si1 0.094278 0.701056 0.486528
Si Si2 0.804620 0.258886 0.369998
Si Si3 0.671524 0.645890 0.939697
Si Si4 0.123390 0.234068 0.992822
Si Si5 0.288802 0.429178 0.268771
Si Si6 0.126902 0.436220 0.835837
Si Si7 0.109338 0.721898 0.185279
Si Si8 0.412420 0.708633 0.832415
O O1 0.227900 0.613908 0.374950
O O2 0.000000 0.500000 0.500000
O O3 0.943408 0.552844 0.706617
O O4 0.193123 0.070810 0.385774
O O5 0.723824 0.302338 0.373990
O O6 0.950832 0.212670 0.195425
O O7 0.929524 0.573910 0.305999
O O8 0.625972 0.961829 0.590473
O O9 0.752076 0.585020 0.783357
O O10 0.850584 0.987739 0.803133
O O11 0.516275 0.663675 0.061648
O O12 0.567935 0.371951 0.102767
O O13 0.221800 0.409938 0.813768
O O14 0.291177 0.396987 0.891424
O O15 0.027089 0.874907 0.067807
O O16 0.000000 0.500000 0.000000
O O17 0.300958 0.843034 0.949440
#
# Coordination Sequence:
#
# PCOD8018136 Si02
#       8
#     2   2   2   2   2   2   2   2
#     4  12  24  46  68 100 132 180 234 288 350 409
#     4  10  22  40  62  95 130 174 216 274 332 406
#     4  11  25  42  63  96 131 175 227 289 337 413
#     4   9  20  40  66  94 128 171 215 271 328 403
#     4  11  27  43  72  97 135 182 234 291 353 410
#     4   9  18  39  67  93 129 167 216 267 329 394
#     4  11  25  40  67  92 132 176 228 279 344 406
#     4  11  24  42  62  96 135 172 223 273 340 404
#
# _framework density 24.027778000000001
#
# number of rings (size 3 to 8) (size 9 to 14) (size 15 to 20)
#    0.000    1.500    1.250    2.625    5.250    2.500 
#    0.000    5.625    0.000    0.000    0.000    0.000 
#    0.000    0.000    0.000    0.000    0.000    0.000 
#
# Total GULP energy -198247.946090 kJ/mol
# GULP energy per Si atom -12390.496631 kJ/mol
# Density = 2.397309 g / cm^3
# Si number density = 24.027778 Si / 1000 Ang^3
#
#
#
# Elastic Constant Matrix: (Units=GPa)
#
#
# Indices 1 2 3 4 5 6 
#
# 1 98.6270 20.5864 43.9691 0.2922 28.3823 7.2406
# 2 20.5864 107.5919 31.9278 -3.6778 3.9548 9.5510
# 3 43.9691 31.9278 124.9530 -8.5018 24.5610 2.9166
# 4 0.2922 -3.6778 -8.5018 20.3257 -4.4888 7.3247
# 5 28.3823 3.9548 24.5610 -4.4888 46.6318 -10.4994
# 6 7.2406 9.5510 2.9166 7.3247 -10.4994 36.1020
#
#
#
# Elastic Compliance Matrix: (Units=1/GPa)
#
#
# Indices 1 2 3 4 5 6 
#
# 1 0.014508 -0.001206 -0.003225 -0.002035 -0.008194 -0.004300
# 2 -0.001206 0.010445 -0.002162 0.002070 0.000602 -0.002592
# 3 -0.003225 -0.002162 0.010658 0.003871 -0.003415 -0.001421
# 4 -0.002035 0.002070 0.003871 0.055671 0.001860 -0.011206
# 5 -0.008194 0.000602 -0.003415 0.001860 0.030678 0.010305
# 6 -0.004300 -0.002592 -0.001421 -0.011206 0.010305 0.034633
#
#
# Mechanical properties :
#
#
# Convention : Reuss Voigt Hill
#
# Bulk Modulus (GPa) = 44.58886 58.23760 51.41323
# Shear Modulus (GPa) = 28.20824 36.25781 32.23303
#
# Velocity S-wave (km/s) = 3.43006 3.88879 3.66661
# Velocity P-wave (km/s) = 5.85531 6.66737 6.27449
#
# Compressibility (1/GPa) = 0.02242713
#
# Stress axis : x y z
#
# Youngs Moduli (GPa) = 68.92673 95.73719 93.82759
#
# Poissons Ratio (x) = 0.11543 0.30256
# Poissons Ratio (y) = 0.08311 0.20283
# Poissons Ratio (z) = 0.22226 0.20696
#
# Static dielectric constant tensor:
#      x y z
#    x 4.973680 -0.064490 0.468210 
#    y -0.064490 4.196440 0.062080 
#    z 0.468210 0.062080 4.330870 
# 
# 
# High freq. dielectric constant tensor:
#      x y z
#    x 1.967710 0.010910 0.019970 
#    y 0.010910 1.950120 0.003870 
#    z 0.019970 0.003870 1.941350 
# 
# From -- ./inp_files/350966.got.cif
#   From: 2010.06.25/outbox.cif.g09.slc.cpg/sg2_176_cif.got.tgz:350966.got - 2010.06.27 13:26:56.
