data_PCOD8018655
_publ_section_title
;
Structure prediction by ZEFSAII (Michael W. Deem and Ramdas Pophale) SiO2 
 PCOD8018655
Probable space group: P -1
;
_chemical_formula_sum "Si O2"
_cell_formula_units_Z 10
_cell_length_a 11.286543
_cell_length_b 11.899557
_cell_length_c 5.056396
_cell_angle_alpha 129.708342
_cell_angle_beta 120.781834
_cell_angle_gamma 53.068618
_cell_volume 408.479898
_symmetry_space_group_name_H-M "P -1"
_symmetry_group_IT_number 2
_symmetry_cell_setting 'triclinic'
loop_
_space_group_symop_operation_xyz
x,y,z
-x,-y,-z
loop_
_atom_site_type_symbol
_atom_site_label
_atom_site_fract_x
_atom_site_fract_y
_atom_site_fract_z
Si Si1 0.267047 0.840788 0.339786
Si Si2 0.885316 0.354314 0.302677
Si Si3 0.667394 0.875442 0.079012
Si Si4 0.638236 0.346715 0.325897
Si Si5 0.788358 0.673660 0.392639
O O1 0.328444 0.791776 0.630056
O O2 0.237975 0.026048 0.554869
O O3 0.114390 0.810477 0.072549
O O4 0.392935 0.726956 0.097536
O O5 0.782224 0.392421 0.508871
O O6 0.801175 0.496725 0.207097
O O7 0.049643 0.338489 0.544216
O O8 0.669250 0.756192 0.142344
O O9 0.747503 0.776366 0.766287
O O10 0.500000 0.000000 0.000000
O O11 0.500000 0.500000 0.500000
#
# Coordination Sequence:
#
# PCOD8018655 Si02
#       5
#     2   2   2   2   2
#     4  10  24  42  67 100 134 176 232 270 341 406
#     4   9  26  44  75 103 133 178 238 272 349 393
#     4  12  28  46  67 101 144 182 226 278 351 402
#     4  10  22  40  69 101 134 176 231 280 323 404
#     4  11  26  46  72 100 141 179 223 293 332 409
#
# _framework density 24.481010999999999
#
# number of rings (size 3 to 8) (size 9 to 14) (size 15 to 20)
#    1.200    0.400    0.000    2.400    8.400    3.200 
#    0.000    0.000    0.000    0.000    0.000    0.000 
#    0.000    0.000    0.000    0.000    0.000    0.000 
#
# Total GULP energy -123926.106043 kJ/mol
# GULP energy per Si atom -12392.610604 kJ/mol
# Density = 2.442529 g / cm^3
# Si number density = 24.481011 Si / 1000 Ang^3
#
#
#
# Elastic Constant Matrix: (Units=GPa)
#
#
# Indices 1 2 3 4 5 6 
#
# 1 82.3531 14.9936 31.9419 0.9794 -33.4129 9.2831
# 2 14.9936 98.1678 5.2580 -17.3860 -13.8268 19.9806
# 3 31.9419 5.2580 76.4309 -1.2977 -18.4152 8.1790
# 4 0.9794 -17.3860 -1.2977 36.5302 11.7642 -5.9080
# 5 -33.4129 -13.8268 -18.4152 11.7642 41.1327 -5.5010
# 6 9.2831 19.9806 8.1790 -5.9080 -5.5010 33.9774
#
#
#
# Elastic Compliance Matrix: (Units=1/GPa)
#
#
# Indices 1 2 3 4 5 6 
#
# 1 0.021214 -0.001452 -0.004690 -0.007079 0.016348 -0.002397
# 2 -0.001452 0.012633 0.000783 0.004673 0.001251 -0.006206
# 3 -0.004690 0.000783 0.016087 -0.000455 0.003441 -0.002573
# 4 -0.007079 0.004673 -0.000455 0.034751 -0.013909 0.003086
# 5 0.016348 0.001251 0.003441 -0.013909 0.043339 -0.001433
# 6 -0.002397 -0.006206 -0.002573 0.003086 -0.001433 0.034660
#
#
# Mechanical properties :
#
#
# Convention : Reuss Voigt Hill
#
# Bulk Modulus (GPa) = 25.50094 40.14877 32.82486
# Shear Modulus (GPa) = 26.81323 35.97860 31.39591
#
# Velocity S-wave (km/s) = 3.31307 3.83776 3.58503
# Velocity P-wave (km/s) = 5.00744 6.00612 5.52938
#
# Compressibility (1/GPa) = 0.03921424
#
# Stress axis : x y z
#
# Youngs Moduli (GPa) = 47.13894 79.15529 62.16280
#
# Poissons Ratio (x) = 0.11494 0.29157
# Poissons Ratio (y) = 0.06845 -0.04865
# Poissons Ratio (z) = 0.22110 -0.06195
#
# Static dielectric constant tensor:
#      x y z
#    x 4.458290 0.333140 -0.007830 
#    y 0.333140 4.483690 0.089640 
#    z -0.007830 0.089640 4.297470 
# 
# 
# High freq. dielectric constant tensor:
#      x y z
#    x 1.976410 0.027420 -0.005460 
#    y 0.027420 1.962990 0.006650 
#    z -0.005460 0.006650 1.975210 
# 
# From -- ./inp_files/16055.got.cif
#   From: 2010.06.25/outbox.cif.g09.slc.cpg/sg2_9_cif.got.tgz:16055.got - 2010.06.27 13:26:56.
