data_PCOD8018340
_publ_section_title
;
Structure prediction by ZEFSAII (Michael W. Deem and Ramdas Pophale) SiO2 
 PCOD8018340
Probable space group: P -1
;
_chemical_formula_sum "Si O2"
_cell_formula_units_Z 16
_cell_length_a 6.786767
_cell_length_b 8.833094
_cell_length_c 17.996181
_cell_angle_alpha 57.521806
_cell_angle_beta 106.014244
_cell_angle_gamma 121.605041
_cell_volume 775.094372
_symmetry_space_group_name_H-M "P -1"
_symmetry_group_IT_number 2
_symmetry_cell_setting 'triclinic'
loop_
_space_group_symop_operation_xyz
x,y,z
-x,-y,-z
loop_
_atom_site_type_symbol
_atom_site_label
_atom_site_fract_x
_atom_site_fract_y
_atom_site_fract_z
Si Si1 0.437776 0.671492 0.924493
Si Si2 0.918145 0.554715 0.647111
Si Si3 0.062429 0.987626 0.138743
Si Si4 0.049434 0.426475 0.839686
Si Si5 0.440350 0.497415 0.579231
Si Si6 0.265189 0.819558 0.499610
Si Si7 0.744097 0.181301 0.001756
Si Si8 0.020414 0.796908 0.333945
O O1 0.295262 0.589315 0.855221
O O2 0.276913 0.696595 0.962812
O O3 0.666209 0.886332 0.884660
O O4 0.500000 0.500000 0.000000
O O5 0.673251 0.554853 0.633571
O O6 0.901578 0.359871 0.653176
O O7 0.004224 0.558803 0.738317
O O8 0.081954 0.756946 0.564723
O O9 0.052664 0.968371 0.232260
O O10 0.943019 0.767141 0.146058
O O11 0.926094 0.102116 0.063442
O O12 0.848725 0.341689 0.903256
O O13 0.500000 0.500000 0.500000
O O14 0.316008 0.635339 0.537605
O O15 0.245441 0.286022 0.646439
O O16 0.174539 0.887016 0.399752
O O17 0.500000 0.000000 0.500000
O O18 0.500000 0.000000 0.000000
#
# Coordination Sequence:
#
# PCOD8018340 Si02
#       8
#     2   2   2   2   2   2   2   2
#     4  12  25  45  68  90 132 172 212 267 318 376
#     4  10  22  42  64  93 122 165 213 250 313 378
#     4  11  25  44  65  98 130 170 214 261 322 378
#     4  11  24  44  67  96 130 167 212 269 317 377
#     4  11  19  41  68  83 119 172 210 247 308 377
#     4  11  23  40  60  94 130 160 202 264 312 363
#     4  12  24  44  68  96 129 170 215 260 321 385
#     4  10  22  40  65  91 125 164 209 256 309 375
#
# _framework density 20.642647
#
# number of rings (size 3 to 8) (size 9 to 14) (size 15 to 20)
#    0.000    1.000    5.000    2.250    3.500    0.500 
#    4.500    0.000    0.000    0.000    0.000    0.000 
#    0.000    0.000    0.000    0.000    0.000    0.000 
#
# Total GULP energy -198368.235589 kJ/mol
# GULP energy per Si atom -12398.014724 kJ/mol
# Density = 2.059566 g / cm^3
# Si number density = 20.642647 Si / 1000 Ang^3
#
#
#
# Elastic Constant Matrix: (Units=GPa)
#
#
# Indices 1 2 3 4 5 6 
#
# 1 107.3466 24.3934 38.0999 17.7642 -6.3122 18.9029
# 2 24.3934 83.3210 30.9225 23.4307 0.9052 20.4939
# 3 38.0999 30.9225 144.3552 32.6410 -9.6350 12.5322
# 4 17.7642 23.4307 32.6410 29.3569 10.7199 4.5365
# 5 -6.3122 0.9052 -9.6350 10.7199 32.4529 2.7804
# 6 18.9029 20.4939 12.5322 4.5365 2.7804 35.0352
#
#
#
# Elastic Compliance Matrix: (Units=1/GPa)
#
#
# Indices 1 2 3 4 5 6 
#
# 1 0.012123 0.000293 -0.000609 -0.007913 0.005287 -0.005889
# 2 0.000293 0.018636 0.001040 -0.017004 0.006297 -0.009730
# 3 -0.000609 0.001040 0.011232 -0.015635 0.008605 -0.002956
# 4 -0.007913 -0.017004 -0.015635 0.080060 -0.033187 0.012076
# 5 0.005287 0.006297 0.008605 -0.033187 0.045952 -0.008964
# 6 -0.005889 -0.009730 -0.002956 0.012076 -0.008964 0.037617
#
#
# Mechanical properties :
#
#
# Convention : Reuss Voigt Hill
#
# Bulk Modulus (GPa) = 23.02024 57.98383 40.50203
# Shear Modulus (GPa) = 22.86764 35.47612 29.17188
#
# Velocity S-wave (km/s) = 3.33195 4.15008 3.76331
# Velocity P-wave (km/s) = 5.09691 7.14944 6.20859
#
# Compressibility (1/GPa) = 0.04344004
#
# Stress axis : x y z
#
# Youngs Moduli (GPa) = 82.49070 53.65889 89.03494
#
# Poissons Ratio (x) = -0.01574 0.05421
# Poissons Ratio (y) = -0.02420 -0.09262
# Poissons Ratio (z) = 0.05022 -0.05582
#
# Static dielectric constant tensor:
#      x y z
#    x 3.939830 0.102570 0.108240 
#    y 0.102570 3.669640 0.281120 
#    z 0.108240 0.281120 4.123710 
# 
# 
# High freq. dielectric constant tensor:
#      x y z
#    x 1.813750 0.015740 -0.005540 
#    y 0.015740 1.795940 0.010060 
#    z -0.005540 0.010060 1.822790 
# 
# From -- ./inp_files/47190.got.cif
#   From: 2010.06.25/outbox.cif.g09.slc.cpg/sg2_24_cif.got.tgz:47190.got - 2010.06.27 13:26:56.
