data_PCOD8018494
_publ_section_title
;
Structure prediction by ZEFSAII (Michael W. Deem and Ramdas Pophale) SiO2 
 PCOD8018494
Probable space group: P -1
;
_chemical_formula_sum "Si O2"
_cell_formula_units_Z 14
_cell_length_a 17.255719
_cell_length_b 8.717093
_cell_length_c 16.424067
_cell_angle_alpha 136.765297
_cell_angle_beta 20.634506
_cell_angle_gamma 138.492150
_cell_volume 572.896966
_symmetry_space_group_name_H-M "P -1"
_symmetry_group_IT_number 2
_symmetry_cell_setting 'triclinic'
loop_
_space_group_symop_operation_xyz
x,y,z
-x,-y,-z
loop_
_atom_site_type_symbol
_atom_site_label
_atom_site_fract_x
_atom_site_fract_y
_atom_site_fract_z
Si Si1 0.679020 0.247354 0.936936
Si Si2 0.890017 0.556444 0.321537
Si Si3 0.511077 0.336013 0.303172
Si Si4 0.296347 0.832928 0.531878
Si Si5 0.296827 0.004151 0.919817
Si Si6 0.118599 0.252360 0.871374
Si Si7 0.102333 0.410572 0.286373
O O1 0.731640 0.390006 0.855831
O O2 0.929039 0.243543 0.726543
O O3 0.567062 0.369725 0.164345
O O4 0.500000 0.000000 0.000000
O O5 0.760802 0.682550 0.432949
O O6 0.697463 0.374254 0.493376
O O7 0.021587 0.387310 0.087230
O O8 0.566121 0.102162 0.189566
O O9 0.647182 0.553336 0.310288
O O10 0.125003 0.729877 0.588582
O O11 0.553275 0.934772 0.285816
O O12 0.199656 0.036430 0.745396
O O13 0.056610 0.820678 0.059888
O O14 0.252084 0.233264 0.093308
O O15 0.000000 0.500000 0.500000
#
# Coordination Sequence:
#
# PCOD8018494 Si02
#       7
#     2   2   2   2   2   2   2
#     4  10  24  47  70  99 132 179 231 285 339 403
#     4  10  22  42  67  99 138 178 228 281 341 410
#     4  11  24  42  65 101 140 181 222 280 346 408
#     4  10  22  40  67 100 132 179 227 282 344 401
#     4  11  24  42  68 100 137 181 227 279 344 409
#     4  10  22  40  66  99 139 179 231 278 336 405
#     4  10  24  47  72  98 133 176 235 286 339 405
#
# _framework density 24.437201999999999
#
# number of rings (size 3 to 8) (size 9 to 14) (size 15 to 20)
#    0.000    1.714    0.000    2.571    2.000   12.571 
#    5.143    0.000    0.000    0.000    0.000    0.000 
#    0.000    0.000    0.000    0.000    0.000    0.000 
#
# Total GULP energy -173450.858866 kJ/mol
# GULP energy per Si atom -12389.347062 kJ/mol
# Density = 2.438158 g / cm^3
# Si number density = 24.437202 Si / 1000 Ang^3
#
#
#
# Elastic Constant Matrix: (Units=GPa)
#
#
# Indices 1 2 3 4 5 6 
#
# 1 77.9961 70.3134 54.9818 4.2618 -13.4772 0.8163
# 2 70.3134 154.8674 76.4720 -0.5872 -18.2204 12.2529
# 3 54.9818 76.4720 125.6052 7.4653 -24.1225 5.7292
# 4 4.2618 -0.5872 7.4653 40.1173 -10.6568 0.9439
# 5 -13.4772 -18.2204 -24.1225 -10.6568 42.2651 4.4252
# 6 0.8163 12.2529 5.7292 0.9439 4.4252 29.3774
#
#
#
# Elastic Compliance Matrix: (Units=1/GPa)
#
#
# Indices 1 2 3 4 5 6 
#
# 1 0.024743 -0.008835 -0.005525 -0.001817 0.000038 0.004128
# 2 -0.008835 0.012793 -0.003501 0.002366 0.001794 -0.004754
# 3 -0.005525 -0.003501 0.013478 -0.000764 0.004402 -0.001653
# 4 -0.001817 0.002366 -0.000764 0.027265 0.007166 -0.002743
# 5 0.000038 0.001794 0.004402 0.007166 0.029421 -0.006270
# 6 0.004128 -0.004754 -0.001653 -0.002743 -0.006270 0.037263
#
#
# Mechanical properties :
#
#
# Convention : Reuss Voigt Hill
#
# Bulk Modulus (GPa) = 65.39160 84.66699 75.02930
# Shear Modulus (GPa) = 26.91338 32.79871 29.85605
#
# Velocity S-wave (km/s) = 3.32223 3.66753 3.49914
# Velocity P-wave (km/s) = 6.44464 7.25647 6.86257
#
# Compressibility (1/GPa) = 0.01529248
#
# Stress axis : x y z
#
# Youngs Moduli (GPa) = 40.41544 78.16722 74.19756
#
# Poissons Ratio (x) = 0.69058 0.40995
# Poissons Ratio (y) = 0.35706 0.25975
# Poissons Ratio (z) = 0.22330 0.27364
#
# Static dielectric constant tensor:
#      x y z
#    x 4.200540 0.112890 -0.106570 
#    y 0.112890 4.784580 -0.229320 
#    z -0.106570 -0.229320 4.598070 
# 
# 
# High freq. dielectric constant tensor:
#      x y z
#    x 1.956560 0.002390 -0.008370 
#    y 0.002390 1.970760 -0.010140 
#    z -0.008370 -0.010140 1.987100 
# 
# From -- ./inp_files/336669.got.cif
#   From: 2010.06.25/outbox.cif.g09.slc.cpg/sg2_169_cif.got.tgz:336669.got - 2010.06.27 13:26:56.
