data_PCOD8018823
_publ_section_title
;
Structure prediction by ZEFSAII (Michael W. Deem and Ramdas Pophale) SiO2 
 PCOD8018823
Probable space group: P -1
;
_chemical_formula_sum "Si O2"
_cell_formula_units_Z 16
_cell_length_a 12.445560
_cell_length_b 9.493840
_cell_length_c 21.621505
_cell_angle_alpha 151.770609
_cell_angle_beta 38.513860
_cell_angle_gamma 129.963532
_cell_volume 742.787108
_symmetry_space_group_name_H-M "P -1"
_symmetry_group_IT_number 2
_symmetry_cell_setting 'triclinic'
loop_
_space_group_symop_operation_xyz
x,y,z
-x,-y,-z
loop_
_atom_site_type_symbol
_atom_site_label
_atom_site_fract_x
_atom_site_fract_y
_atom_site_fract_z
Si Si1 0.772990 0.082884 0.420351
Si Si2 0.511202 0.144456 0.360076
Si Si3 0.127387 0.137580 0.948982
Si Si4 0.312078 0.906484 0.050066
Si Si5 0.026470 0.820715 0.754338
Si Si6 0.846200 0.854785 0.540310
Si Si7 0.564249 0.741240 0.299324
Si Si8 0.116074 0.842424 0.234992
O O1 0.864015 0.210481 0.370425
O O2 0.624531 0.321387 0.614143
O O3 0.676356 0.812302 0.335572
O O4 0.912492 0.967666 0.365329
O O5 0.500000 0.500000 0.500000
O O6 0.332435 0.049791 0.379712
O O7 0.671100 0.015052 0.192543
O O8 0.543500 0.015370 0.365156
O O9 0.072103 0.080415 0.880602
O O10 0.126115 0.485837 0.099865
O O11 0.000000 0.000000 0.000000
O O12 0.231781 0.947193 0.169345
O O13 0.328002 0.553853 0.892968
O O14 0.180802 0.103950 0.137384
O O15 0.500000 0.000000 0.000000
O O16 0.083933 0.500019 0.635910
O O17 0.810204 0.988411 0.676166
O O18 0.000000 0.000000 0.500000
#
# Coordination Sequence:
#
# PCOD8018823 Si02
#       8
#     2   2   2   2   2   2   2   2
#     4  10  22  40  74  95 131 171 227 284 346 407
#     4  12  25  47  73 100 143 186 240 284 341 430
#     4  12  25  45  70 100 138 187 236 286 349 417
#     4  11  26  42  69  99 140 179 227 291 351 413
#     4  11  24  47  67  99 139 180 232 283 350 417
#     4  12  27  44  72 102 142 188 231 289 349 417
#     4  11  22  43  69 103 130 175 231 285 345 405
#     4  11  25  44  67 101 138 177 228 289 355 406
#
# _framework density 21.540490999999999
#
# number of rings (size 3 to 8) (size 9 to 14) (size 15 to 20)
#    0.000    0.750    3.750    2.250    7.000    4.500 
#    0.000    0.000    0.000    0.000    0.000    0.000 
#    0.000    0.000    0.000    0.000    0.000    0.000 
#
# Total GULP energy -198377.060632 kJ/mol
# GULP energy per Si atom -12398.566289 kJ/mol
# Density = 2.149146 g / cm^3
# Si number density = 21.540491 Si / 1000 Ang^3
#
#
#
# Elastic Constant Matrix: (Units=GPa)
#
#
# Indices 1 2 3 4 5 6 
#
# 1 110.5683 18.4345 27.4231 -12.2924 -8.2455 18.1170
# 2 18.4345 77.5926 13.7759 -16.2636 -17.4382 13.1110
# 3 27.4231 13.7759 77.8005 -12.6449 -5.9251 5.3666
# 4 -12.2924 -16.2636 -12.6449 42.9856 7.4761 -5.4292
# 5 -8.2455 -17.4382 -5.9251 7.4761 40.1745 -8.2335
# 6 18.1170 13.1110 5.3666 -5.4292 -8.2335 35.9887
#
#
#
# Elastic Compliance Matrix: (Units=1/GPa)
#
#
# Indices 1 2 3 4 5 6 
#
# 1 0.010859 -0.000974 -0.003136 0.001220 0.000212 -0.004411
# 2 -0.000974 0.015892 -0.001190 0.004078 0.005078 -0.003345
# 3 -0.003136 -0.001190 0.014658 0.002921 0.000538 0.000390
# 4 0.001220 0.004078 0.002921 0.026532 -0.002293 0.000943
# 5 0.000212 0.005078 0.000538 -0.002293 0.028493 0.004136
# 6 -0.004411 -0.003345 0.000390 0.000943 0.004136 0.032256
#
#
# Mechanical properties :
#
#
# Convention : Reuss Voigt Hill
#
# Bulk Modulus (GPa) = 32.45968 42.80315 37.63142
# Shear Modulus (GPa) = 33.43131 37.58496 35.50814
#
# Velocity S-wave (km/s) = 3.94384 4.18167 4.06450
# Velocity P-wave (km/s) = 5.98669 6.57490 6.28768
#
# Compressibility (1/GPa) = 0.03080745
#
# Stress axis : x y z
#
# Youngs Moduli (GPa) = 92.09206 62.92537 68.22058
#
# Poissons Ratio (x) = 0.06130 0.21396
# Poissons Ratio (y) = 0.08972 0.08120
# Poissons Ratio (z) = 0.28882 0.07490
#
# Static dielectric constant tensor:
#      x y z
#    x 3.209050 0.522750 -0.731360 
#    y 0.522750 3.829840 0.178900 
#    z -0.731360 0.178900 3.914140 
# 
# 
# High freq. dielectric constant tensor:
#      x y z
#    x 1.851240 0.009630 -0.003960 
#    y 0.009630 1.848420 -0.014470 
#    z -0.003960 -0.014470 1.858480 
# 
# From -- ./inp_files/186175.got.cif
#   From: 2010.06.25/outbox.cif.g09.slc.cpg/sg2_94_cif.got.tgz:186175.got - 2010.06.27 13:26:56.
