data_PCOD8018832
_publ_section_title
;
Structure prediction by ZEFSAII (Michael W. Deem and Ramdas Pophale) SiO2 
 PCOD8018832
Probable space group: P -1
;
_chemical_formula_sum "Si O2"
_cell_formula_units_Z 16
_cell_length_a 18.213598
_cell_length_b 7.894705
_cell_length_c 9.619501
_cell_angle_alpha 77.783837
_cell_angle_beta 43.950876
_cell_angle_gamma 102.452842
_cell_volume 788.204610
_symmetry_space_group_name_H-M "P -1"
_symmetry_group_IT_number 2
_symmetry_cell_setting 'triclinic'
loop_
_space_group_symop_operation_xyz
x,y,z
-x,-y,-z
loop_
_atom_site_type_symbol
_atom_site_label
_atom_site_fract_x
_atom_site_fract_y
_atom_site_fract_z
Si Si1 0.853247 0.519540 0.948312
Si Si2 0.122220 0.776607 0.662230
Si Si3 0.735171 0.685253 0.281056
Si Si4 0.672629 0.800474 0.761674
Si Si5 0.880454 0.152798 0.035171
Si Si6 0.740266 0.515457 0.822914
Si Si7 0.513319 0.563504 0.764260
Si Si8 0.158126 0.438768 0.601180
O O1 0.820486 0.288486 0.060660
O O2 0.836673 0.537884 0.803799
O O3 0.996231 0.695637 0.759486
O O4 0.758866 0.565300 0.149986
O O5 0.139387 0.587989 0.701814
O O6 0.246380 0.952625 0.379147
O O7 0.110814 0.867089 0.807085
O O8 0.583826 0.585924 0.518537
O O9 0.779916 0.655521 0.375382
O O10 0.799876 0.926960 0.115158
O O11 0.770700 0.736205 0.684931
O O12 0.622412 0.733178 0.685788
O O13 0.549343 0.673244 0.052530
O O14 0.020712 0.259532 0.763779
O O15 0.759693 0.424626 0.668698
O O16 0.596565 0.386641 0.102217
#
# Coordination Sequence:
#
# PCOD8018832 Si02
#       8
#     2   2   2   2   2   2   2   2
#     4  11  25  39  57  94 128 148 193 250 298 356
#     4  11  20  37  62  94 120 144 206 250 286 361
#     4  12  20  38  69  83 113 169 195 238 304 337
#     4   9  18  37  62  82 115 150 195 253 278 336
#     4  11  22  38  60  93 121 150 204 244 286 365
#     4  10  22  41  58  84 126 157 191 247 296 345
#     4   9  19  38  63  82 114 156 210 240 275 355
#     4  11  20  37  63  88 119 157 195 243 304 346
#
# _framework density 20.299298
#
# number of rings (size 3 to 8) (size 9 to 14) (size 15 to 20)
#    0.750    0.750    5.000    1.125    1.750    3.000 
#    2.250    4.375    0.000    0.000    0.000    0.000 
#    0.000    0.000    0.000    0.000    0.000    0.000 
#
# Total GULP energy -198217.598728 kJ/mol
# GULP energy per Si atom -12388.599920 kJ/mol
# Density = 2.025310 g / cm^3
# Si number density = 20.299298 Si / 1000 Ang^3
#
#
#
# Elastic Constant Matrix: (Units=GPa)
#
#
# Indices 1 2 3 4 5 6 
#
# 1 73.3078 16.9466 12.8776 -2.4836 13.1136 -2.9001
# 2 16.9466 60.4401 23.7710 1.3506 -2.7145 -8.5135
# 3 12.8776 23.7710 81.3617 4.6878 -20.5303 0.9610
# 4 -2.4836 1.3506 4.6878 32.5252 0.0533 -1.4322
# 5 13.1136 -2.7145 -20.5303 0.0533 29.8610 7.1657
# 6 -2.9001 -8.5135 0.9610 -1.4322 7.1657 11.5584
#
#
#
# Elastic Compliance Matrix: (Units=1/GPa)
#
#
# Indices 1 2 3 4 5 6 
#
# 1 0.019048 -0.001016 -0.007491 0.003303 -0.017420 0.015863
# 2 -0.001016 0.023497 -0.009528 0.001395 -0.009744 0.024058
# 3 -0.007491 -0.009528 0.023085 -0.004721 0.024717 -0.026725
# 4 0.003303 0.001395 -0.004721 0.032102 -0.007191 0.010685
# 5 -0.017420 -0.009744 0.024717 -0.007191 0.071352 -0.058729
# 6 0.015863 0.024058 -0.026725 0.010685 -0.058729 0.148173
#
#
# Mechanical properties :
#
#
# Convention : Reuss Voigt Hill
#
# Bulk Modulus (GPa) = 33.82997 35.81114 34.82056
# Shear Modulus (GPa) = 13.76723 25.55654 19.66189
#
# Velocity S-wave (km/s) = 2.60708 3.55207 3.11561
# Velocity P-wave (km/s) = 5.07585 5.87391 5.48940
#
# Compressibility (1/GPa) = 0.02955958
#
# Stress axis : x y z
#
# Youngs Moduli (GPa) = 52.49991 42.55797 43.31882
#
# Poissons Ratio (x) = 0.04325 0.32452
# Poissons Ratio (y) = 0.05335 0.41272
# Poissons Ratio (z) = 0.39329 0.40547
#
# Static dielectric constant tensor:
#      x y z
#    x 3.383800 -0.161880 -0.148500 
#    y -0.161880 3.469720 0.093530 
#    z -0.148500 0.093530 3.754180 
# 
# 
# High freq. dielectric constant tensor:
#      x y z
#    x 1.769270 -0.012040 -0.010420 
#    y -0.012040 1.769080 0.007640 
#    z -0.010420 0.007640 1.797020 
# 
# From -- ./inp_files/328697.got.cif
#   From: 2010.06.25/outbox.cif.g09.slc.cpg/sg2_165_cif.got.tgz:328697.got - 2010.06.27 13:26:56.
