data_PCOD8018946
_publ_section_title
;
Structure prediction by ZEFSAII (Michael W. Deem and Ramdas Pophale) SiO2 
 PCOD8018946
Probable space group: P -1
;
_chemical_formula_sum "Si O2"
_cell_formula_units_Z 12
_cell_length_a 13.126112
_cell_length_b 10.056406
_cell_length_c 13.141967
_cell_angle_alpha 124.890764
_cell_angle_beta 141.320491
_cell_angle_gamma 31.396818
_cell_volume 540.578635
_symmetry_space_group_name_H-M "P -1"
_symmetry_group_IT_number 2
_symmetry_cell_setting 'triclinic'
loop_
_space_group_symop_operation_xyz
x,y,z
-x,-y,-z
loop_
_atom_site_type_symbol
_atom_site_label
_atom_site_fract_x
_atom_site_fract_y
_atom_site_fract_z
Si Si1 0.741538 0.677086 0.806284
Si Si2 0.100151 0.977115 0.223008
Si Si3 0.926126 0.106720 0.358600
Si Si4 0.304292 0.565124 0.494129
Si Si5 0.516868 0.803241 0.890118
Si Si6 0.931390 0.805522 0.898193
O O1 0.790546 0.502728 0.682873
O O2 0.506187 0.817592 0.763422
O O3 0.696072 0.879350 0.795573
O O4 0.000000 0.500000 0.000000
O O5 0.380832 0.680218 0.347337
O O6 0.930776 0.972871 0.033150
O O7 0.931219 0.166436 0.273071
O O8 0.138918 0.100415 0.233193
O O9 0.845919 0.320894 0.462638
O O10 0.726130 0.111952 0.220169
O O11 0.221462 0.802783 0.483279
O O12 0.787152 0.509359 0.014982
O O13 0.500000 0.000000 0.000000
#
# Coordination Sequence:
#
# PCOD8018946 Si02
#       6
#     2   2   2   2   2   2
#     4  10  22  41  63  88 125 165 207 260 308 365
#     4  11  23  43  65  92 130 166 203 258 314 374
#     4  11  23  37  66  98 122 163 213 258 311 369
#     4  11  24  40  65  92 128 165 209 261 310 367
#     4  11  21  39  65  97 123 162 214 261 305 366
#     4  10  22  43  64  90 130 168 206 253 315 372
#
# _framework density 22.198436000000001
#
# number of rings (size 3 to 8) (size 9 to 14) (size 15 to 20)
#    0.000    1.333    1.667    5.500    4.667    1.333 
#    3.000    0.833    0.000    0.000    0.000    0.000 
#    0.000    0.000    0.000    0.000    0.000    0.000 
#
# Total GULP energy -148715.709020 kJ/mol
# GULP energy per Si atom -12392.975752 kJ/mol
# Density = 2.214791 g / cm^3
# Si number density = 22.198436 Si / 1000 Ang^3
#
#
#
# Elastic Constant Matrix: (Units=GPa)
#
#
# Indices 1 2 3 4 5 6 
#
# 1 186.1201 43.6860 52.9786 4.3368 -37.5021 -2.8278
# 2 43.6860 70.6257 27.7807 18.1199 -15.1139 -9.5062
# 3 52.9786 27.7807 97.0704 26.3350 -22.4006 -11.5399
# 4 4.3368 18.1199 26.3350 40.2817 -11.7577 -6.0976
# 5 -37.5021 -15.1139 -22.4006 -11.7577 36.0593 12.9355
# 6 -2.8278 -9.5062 -11.5399 -6.0976 12.9355 15.4263
#
#
#
# Elastic Compliance Matrix: (Units=1/GPa)
#
#
# Indices 1 2 3 4 5 6 
#
# 1 0.009704 -0.004906 -0.004116 0.005417 0.011482 -0.011810
# 2 -0.004906 0.020068 -0.000511 -0.007494 -0.003383 0.010960
# 3 -0.004116 -0.000511 0.015898 -0.008619 -0.000128 0.007524
# 4 0.005417 -0.007494 -0.008619 0.035575 0.010451 -0.004774
# 5 0.011482 -0.003383 -0.000128 0.010451 0.057393 -0.044071
# 6 -0.011810 0.010960 0.007524 -0.004774 -0.044071 0.110111
#
#
# Mechanical properties :
#
#
# Convention : Reuss Voigt Hill
#
# Bulk Modulus (GPa) = 37.58698 66.96744 52.27721
# Shear Modulus (GPa) = 18.07131 33.64483 25.85807
#
# Velocity S-wave (km/s) = 2.85630 3.89734 3.41671
# Velocity P-wave (km/s) = 5.27702 7.10532 6.25830
#
# Compressibility (1/GPa) = 0.02660496
#
# Stress axis : x y z
#
# Youngs Moduli (GPa) = 103.05260 49.82990 62.90281
#
# Poissons Ratio (x) = 0.24444 0.25891
# Poissons Ratio (y) = 0.50553 0.03213
# Poissons Ratio (z) = 0.42417 0.02545
#
# Static dielectric constant tensor:
#      x y z
#    x 4.807420 -0.110070 -0.206850 
#    y -0.110070 3.912800 0.138860 
#    z -0.206850 0.138860 4.067900 
# 
# 
# High freq. dielectric constant tensor:
#      x y z
#    x 1.886440 -0.011360 -0.009980 
#    y -0.011360 1.850300 0.014360 
#    z -0.009980 0.014360 1.875180 
# 
# From -- ./inp_files/245232.got.cif
#   From: 2010.06.25/outbox.cif.g09.slc.cpg/sg2_123_cif.got.tgz:245232.got - 2010.06.27 13:26:56.
