data_PCOD8018139
_publ_section_title
;
Structure prediction by ZEFSAII (Michael W. Deem and Ramdas Pophale) SiO2 
 PCOD8018139
Probable space group: P -1
;
_chemical_formula_sum "Si O2"
_cell_formula_units_Z 16
_cell_length_a 9.990988
_cell_length_b 13.224930
_cell_length_c 15.672915
_cell_angle_alpha 58.648221
_cell_angle_beta 134.379257
_cell_angle_gamma 146.773580
_cell_volume 799.851410
_symmetry_space_group_name_H-M "P -1"
_symmetry_group_IT_number 2
_symmetry_cell_setting 'triclinic'
loop_
_space_group_symop_operation_xyz
x,y,z
-x,-y,-z
loop_
_atom_site_type_symbol
_atom_site_label
_atom_site_fract_x
_atom_site_fract_y
_atom_site_fract_z
Si Si1 0.712543 0.532547 0.473005
Si Si2 0.194323 0.625948 0.734433
Si Si3 0.219953 0.605265 0.190691
Si Si4 0.797866 0.015286 0.893193
Si Si5 0.726613 0.785024 0.449094
Si Si6 0.778331 0.140911 0.000659
Si Si7 0.371177 0.459706 0.203244
Si Si8 0.292114 0.406981 0.866832
O O1 0.821483 0.716460 0.468150
O O2 0.435713 0.345050 0.483414
O O3 0.588145 0.479486 0.344773
O O4 0.996815 0.588658 0.588384
O O5 0.252528 0.523196 0.772202
O O6 0.044875 0.556657 0.791737
O O7 0.503046 0.845211 0.783605
O O8 0.515163 0.766025 0.307628
O O9 0.153537 0.692734 0.073106
O O10 0.264919 0.521777 0.180739
O O11 0.714908 0.023092 0.945878
O O12 0.971546 0.197789 0.835907
O O13 0.000000 0.000000 0.000000
O O14 0.000000 0.000000 0.500000
O O15 0.074518 0.243788 0.137258
O O16 0.500000 0.000000 0.000000
O O17 0.554819 0.588700 0.144563
O O18 0.500000 0.500000 0.000000
#
# Coordination Sequence:
#
# PCOD8018139 Si02
#       8
#     2   2   2   2   2   2   2   2
#     4   9  22  38  60  92 123 168 201 257 313 360
#     4  11  22  43  67  91 125 160 219 253 307 384
#     4  10  22  40  62  96 125 164 202 268 311 356
#     4  12  25  41  66  91 121 167 208 258 312 375
#     4   9  19  36  63  88 129 165 203 250 313 376
#     4  12  25  36  63  98 123 161 212 257 313 366
#     4  11  23  43  61  88 137 161 202 263 315 368
#     4  12  23  44  64  91 126 172 207 251 322 369
#
# _framework density 20.003715
#
# number of rings (size 3 to 8) (size 9 to 14) (size 15 to 20)
#    0.000    1.250    3.750    1.875    5.250    0.500 
#    0.000    0.625    0.000    0.000    0.000    0.000 
#    0.000    0.000    0.000    0.000    0.000    0.000 
#
# Total GULP energy -198412.945794 kJ/mol
# GULP energy per Si atom -12400.809112 kJ/mol
# Density = 1.995819 g / cm^3
# Si number density = 20.003715 Si / 1000 Ang^3
#
#
#
# Elastic Constant Matrix: (Units=GPa)
#
#
# Indices 1 2 3 4 5 6 
#
# 1 93.6118 22.0824 16.1758 -0.8094 -3.5368 10.5566
# 2 22.0824 125.3590 45.0076 23.3488 3.6702 8.1610
# 3 16.1758 45.0076 132.8082 5.7221 9.7776 5.5086
# 4 -0.8094 23.3488 5.7221 31.6279 1.2428 7.4328
# 5 -3.5368 3.6702 9.7776 1.2428 31.9701 -3.0562
# 6 10.5566 8.1610 5.5086 7.4328 -3.0562 31.1758
#
#
#
# Elastic Compliance Matrix: (Units=1/GPa)
#
#
# Indices 1 2 3 4 5 6 
#
# 1 0.011829 -0.002125 -0.000780 0.002870 0.001310 -0.003867
# 2 -0.002125 0.010860 -0.003088 -0.007551 -0.000225 0.000201
# 3 -0.000780 -0.003088 0.008859 0.000989 -0.002573 -0.000981
# 4 0.002870 -0.007551 0.000989 0.039178 -0.001468 -0.008654
# 5 0.001310 -0.000225 -0.002573 -0.001468 0.032640 0.003620
# 6 -0.003867 0.000201 -0.000981 -0.008654 0.003620 0.035925
#
#
# Mechanical properties :
#
#
# Convention : Reuss Voigt Hill
#
# Bulk Modulus (GPa) = 51.12067 57.59005 54.35536
# Shear Modulus (GPa) = 31.68623 36.85563 34.27093
#
# Velocity S-wave (km/s) = 3.98429 4.29702 4.14361
# Velocity P-wave (km/s) = 6.83938 7.31241 7.07985
#
# Compressibility (1/GPa) = 0.01956156
#
# Stress axis : x y z
#
# Youngs Moduli (GPa) = 84.53910 92.08083 112.88275
#
# Poissons Ratio (x) = 0.19564 0.08809
# Poissons Ratio (y) = 0.17961 0.34858
# Poissons Ratio (z) = 0.06597 0.28435
#
# Static dielectric constant tensor:
#      x y z
#    x 3.651570 0.039700 0.002580 
#    y 0.039700 3.673420 0.076370 
#    z 0.002580 0.076370 3.696270 
# 
# 
# High freq. dielectric constant tensor:
#      x y z
#    x 1.781380 0.000320 0.007080 
#    y 0.000320 1.774990 0.006000 
#    z 0.007080 0.006000 1.789930 
# 
# From -- ./inp_files/306161.got.cif
#   From: 2010.06.25/outbox.cif.g09.slc.cpg/sg2_154_cif.got.tgz:306161.got - 2010.06.27 13:26:56.
