data_PCOD8018232
_publ_section_title
;
Structure prediction by ZEFSAII (Michael W. Deem and Ramdas Pophale) SiO2 
 PCOD8018232
Probable space group: P -1
;
_chemical_formula_sum "Si O2"
_cell_formula_units_Z 16
_cell_length_a 18.414832
_cell_length_b 20.908687
_cell_length_c 8.526965
_cell_angle_alpha 58.283937
_cell_angle_beta 48.558544
_cell_angle_gamma 20.217134
_cell_volume 790.790852
_symmetry_space_group_name_H-M "P -1"
_symmetry_group_IT_number 2
_symmetry_cell_setting 'triclinic'
loop_
_space_group_symop_operation_xyz
x,y,z
-x,-y,-z
loop_
_atom_site_type_symbol
_atom_site_label
_atom_site_fract_x
_atom_site_fract_y
_atom_site_fract_z
Si Si1 0.646235 0.604280 0.331659
Si Si2 0.354753 0.179540 0.716750
Si Si3 0.472201 0.145160 0.927817
Si Si4 0.161373 0.098351 0.748025
Si Si5 0.008099 0.449482 0.395537
Si Si6 0.920563 0.779629 0.960504
Si Si7 0.786392 0.461256 0.642386
Si Si8 0.744421 0.136389 0.198777
O O1 0.635960 0.693815 0.156301
O O2 0.836528 0.458689 0.398206
O O3 0.357059 0.792805 0.565334
O O4 0.779168 0.451155 0.216275
O O5 0.458399 0.105039 0.842654
O O6 0.219815 0.199032 0.838242
O O7 0.156823 0.390603 0.709197
O O8 0.593936 0.023392 0.462353
O O9 0.297720 0.231627 0.199595
O O10 0.763270 0.937473 0.846357
O O11 0.065237 0.178502 0.959548
O O12 0.941473 0.275685 0.706271
O O13 0.226267 0.966314 0.786354
O O14 0.000000 0.500000 0.500000
O O15 0.889466 0.454846 0.611485
O O16 0.482513 0.661853 0.840099
O O17 0.000000 0.000000 0.000000
#
# Coordination Sequence:
#
# PCOD8018232 Si02
#       8
#     2   2   2   2   2   2   2   2
#     4  10  22  41  62  90 122 161 214 256 312 363
#     4  12  20  39  56  90 134 174 215 242 295 379
#     4  12  22  37  61  87 137 173 216 243 299 377
#     4  12  23  41  63  97 127 164 208 262 313 374
#     4  12  21  34  58  94 134 175 203 247 307 371
#     4  12  25  35  61  97 134 169 204 252 311 371
#     4  10  22  40  64  88 129 159 213 254 305 376
#     4  10  24  46  71  90 116 161 218 269 322 373
#
# _framework density 20.232907999999998
#
# number of rings (size 3 to 8) (size 9 to 14) (size 15 to 20)
#    0.750    0.000    5.000    4.875    0.000    0.500 
#    0.000    0.625    0.000    1.500    0.000    0.000 
#    0.000    0.000    0.000    0.000    0.000    0.000 
#
# Total GULP energy -198272.117498 kJ/mol
# GULP energy per Si atom -12392.007344 kJ/mol
# Density = 2.018686 g / cm^3
# Si number density = 20.232908 Si / 1000 Ang^3
#
#
#
# Elastic Constant Matrix: (Units=GPa)
#
#
# Indices 1 2 3 4 5 6 
#
# 1 61.8776 12.4069 48.3401 13.3385 17.1267 9.7730
# 2 12.4069 92.9213 18.7090 6.4069 -3.0595 8.1174
# 3 48.3401 18.7090 96.7127 29.4999 5.5926 0.5140
# 4 13.3385 6.4069 29.4999 32.2248 -1.4463 8.6286
# 5 17.1267 -3.0595 5.5926 -1.4463 26.0701 10.4192
# 6 9.7730 8.1174 0.5140 8.6286 10.4192 17.0813
#
#
#
# Elastic Compliance Matrix: (Units=1/GPa)
#
#
# Indices 1 2 3 4 5 6 
#
# 1 0.035416 -0.000641 -0.018357 0.005368 -0.013576 -0.013837
# 2 -0.000641 0.012822 -0.004362 0.005809 0.008718 -0.013847
# 3 -0.018357 -0.004362 0.028587 -0.025999 -0.007879 0.029655
# 4 0.005368 0.005809 -0.025999 0.068166 0.029481 -0.057466
# 5 -0.013576 0.008718 -0.007879 0.029481 0.074099 -0.056230
# 6 -0.013837 -0.013847 0.029655 -0.057466 -0.056230 0.135477
#
#
# Mechanical properties :
#
#
# Convention : Reuss Voigt Hill
#
# Bulk Modulus (GPa) = 33.21736 45.60262 39.40999
# Shear Modulus (GPa) = 12.15592 26.54561 19.35077
#
# Velocity S-wave (km/s) = 2.45378 3.62609 3.09593
# Velocity P-wave (km/s) = 4.94785 6.33396 5.68332
#
# Compressibility (1/GPa) = 0.03010474
#
# Stress axis : x y z
#
# Youngs Moduli (GPa) = 28.23580 77.99132 34.98040
#
# Poissons Ratio (x) = 0.05000 0.64213
# Poissons Ratio (y) = 0.01810 0.15259
# Poissons Ratio (z) = 0.51832 0.34022
#
# Static dielectric constant tensor:
#      x y z
#    x 3.291730 0.047790 0.189730 
#    y 0.047790 4.102920 0.090490 
#    z 0.189730 0.090490 3.556390 
# 
# 
# High freq. dielectric constant tensor:
#      x y z
#    x 1.757170 0.011370 0.028660 
#    y 0.011370 1.812560 0.006010 
#    z 0.028660 0.006010 1.762740 
# 
# From -- ./inp_files/306273.got.cif
#   From: 2010.06.25/outbox.cif.g09.slc.cpg/sg2_154_cif.got.tgz:306273.got - 2010.06.27 13:26:56.
