data_PCOD8018879
_publ_section_title
;
Structure prediction by ZEFSAII (Michael W. Deem and Ramdas Pophale) SiO2 
 PCOD8018879
Probable space group: P -1
;
_chemical_formula_sum "Si O2"
_cell_formula_units_Z 14
_cell_length_a 14.665277
_cell_length_b 11.705778
_cell_length_c 13.646511
_cell_angle_alpha 119.500585
_cell_angle_beta 159.615797
_cell_angle_gamma 57.398389
_cell_volume 686.780664
_symmetry_space_group_name_H-M "P -1"
_symmetry_group_IT_number 2
_symmetry_cell_setting 'triclinic'
loop_
_space_group_symop_operation_xyz
x,y,z
-x,-y,-z
loop_
_atom_site_type_symbol
_atom_site_label
_atom_site_fract_x
_atom_site_fract_y
_atom_site_fract_z
Si Si1 0.400212 0.380814 0.559113
Si Si2 0.977013 0.092047 0.743679
Si Si3 0.093558 0.627483 0.809620
Si Si4 0.081181 0.787901 0.673110
Si Si5 0.361165 0.325917 0.917664
Si Si6 0.563540 0.791670 0.667585
Si Si7 0.600720 0.324811 0.365715
O O1 0.382768 0.277132 0.412446
O O2 0.318024 0.533616 0.499457
O O3 0.195499 0.367687 0.432726
O O4 0.703738 0.345066 0.891633
O O5 0.732532 0.102591 0.579796
O O6 0.875807 0.203673 0.602373
O O7 0.068138 0.946270 0.723706
O O8 0.223126 0.120950 0.063912
O O9 0.045303 0.743888 0.729146
O O10 0.211378 0.482943 0.815230
O O11 0.838023 0.765428 0.351799
O O12 0.369066 0.704817 0.887879
O O13 0.433778 0.297122 0.092178
O O14 0.584920 0.676304 0.725013
#
# Coordination Sequence:
#
# PCOD8018879 Si02
#       7
#     2   2   2   2   2   2   2
#     4  11  22  40  68  91 118 159 198 255 311 338
#     4  10  24  39  61  88 130 157 203 237 298 371
#     4  11  24  41  63  94 119 152 213 251 290 365
#     4  12  24  43  61  87 126 166 197 249 299 349
#     4  11  23  39  66  89 119 160 202 250 306 344
#     4  10  22  41  61  93 124 157 196 249 306 353
#     4   9  24  38  64  93 126 145 209 246 300 369
#
# _framework density 20.384965000000001
#
# number of rings (size 3 to 8) (size 9 to 14) (size 15 to 20)
#    0.857    0.571    0.000    5.571    6.000    1.714 
#    0.000    4.286    0.000    0.000    0.000    0.000 
#    0.000    0.000    0.000    0.000    0.000    0.000 
#
# Total GULP energy -173616.936187 kJ/mol
# GULP energy per Si atom -12401.209728 kJ/mol
# Density = 2.033857 g / cm^3
# Si number density = 20.384965 Si / 1000 Ang^3
#
#
#
# Elastic Constant Matrix: (Units=GPa)
#
#
# Indices 1 2 3 4 5 6 
#
# 1 71.3743 4.5192 22.0377 -1.9021 3.5743 -14.3696
# 2 4.5192 60.8875 19.2223 13.0005 -16.0811 -19.6527
# 3 22.0377 19.2223 121.4647 25.9343 4.7918 -11.2570
# 4 -1.9021 13.0005 25.9343 30.7379 -13.2642 -9.1557
# 5 3.5743 -16.0811 4.7918 -13.2642 32.2720 3.1935
# 6 -14.3696 -19.6527 -11.2570 -9.1557 3.1935 21.8547
#
#
#
# Elastic Compliance Matrix: (Units=1/GPa)
#
#
# Indices 1 2 3 4 5 6 
#
# 1 0.018859 0.004550 -0.004739 0.009902 0.003197 0.017732
# 2 0.004550 0.028778 -0.004846 0.006520 0.014566 0.026977
# 3 -0.004739 -0.004846 0.012864 -0.014817 -0.009327 -0.005693
# 4 0.009902 0.006520 -0.014817 0.062806 0.027491 0.027036
# 5 0.003197 0.014566 -0.009327 0.027491 0.049117 0.014736
# 6 0.017732 0.026977 -0.005693 0.027036 0.014736 0.087915
#
#
# Mechanical properties :
#
#
# Convention : Reuss Voigt Hill
#
# Bulk Modulus (GPa) = 19.82929 38.36498 29.09713
# Shear Modulus (GPa) = 17.40825 30.83607 24.12216
#
# Velocity S-wave (km/s) = 2.92546 3.89355 3.44369
# Velocity P-wave (km/s) = 4.59995 6.25092 5.48788
#
# Compressibility (1/GPa) = 0.05043046
#
# Stress axis : x y z
#
# Youngs Moduli (GPa) = 53.02389 34.74838 77.73863
#
# Poissons Ratio (x) = -0.15809 0.36839
# Poissons Ratio (y) = -0.24124 0.37675
# Poissons Ratio (z) = 0.25127 0.16840
#
# Static dielectric constant tensor:
#      x y z
#    x 3.582670 -0.088270 -0.007320 
#    y -0.088270 3.557640 0.001170 
#    z -0.007320 0.001170 3.784490 
# 
# 
# High freq. dielectric constant tensor:
#      x y z
#    x 1.793280 -0.005060 0.000740 
#    y -0.005060 1.784030 0.004160 
#    z 0.000740 0.004160 1.813220 
# 
# From -- ./inp_files/66982.got.cif
#   From: 2010.06.25/outbox.cif.g09.slc.cpg/sg2_34_cif.got.tgz:66982.got - 2010.06.27 13:26:56.
