data_PCOD8018607
_publ_section_title
;
Structure prediction by ZEFSAII (Michael W. Deem and Ramdas Pophale) SiO2 
 PCOD8018607
Probable space group: P -1
;
_chemical_formula_sum "Si O2"
_cell_formula_units_Z 16
_cell_length_a 6.694425
_cell_length_b 16.442549
_cell_length_c 8.788794
_cell_angle_alpha 54.443080
_cell_angle_beta 99.764456
_cell_angle_gamma 83.622470
_cell_volume 748.625007
_symmetry_space_group_name_H-M "P -1"
_symmetry_group_IT_number 2
_symmetry_cell_setting 'triclinic'
loop_
_space_group_symop_operation_xyz
x,y,z
-x,-y,-z
loop_
_atom_site_type_symbol
_atom_site_label
_atom_site_fract_x
_atom_site_fract_y
_atom_site_fract_z
Si Si1 0.631223 0.611387 0.378886
Si Si2 0.446365 0.107932 0.681040
Si Si3 0.829180 0.034550 0.229502
Si Si4 0.558426 0.488755 0.778967
Si Si5 0.251821 0.884765 0.534398
Si Si6 0.733199 0.354332 0.217988
Si Si7 0.751277 0.198258 0.804673
Si Si8 0.072374 0.280858 0.561012
O O1 0.674287 0.524691 0.611831
O O2 0.619688 0.561376 0.264929
O O3 0.408087 0.693711 0.288704
O O4 0.827200 0.661998 0.356528
O O5 0.535485 0.099517 0.529890
O O6 0.636788 0.118724 0.799575
O O7 0.254913 0.208936 0.563244
O O8 0.361002 0.008233 0.817599
O O9 0.760024 0.069175 0.351454
O O10 0.859415 0.134975 0.034878
O O11 0.045040 0.944748 0.348781
O O12 0.463666 0.585837 0.770357
O O13 0.723378 0.404541 0.994183
O O14 0.267395 0.763860 0.670557
O O15 0.939847 0.360826 0.332083
O O16 0.927332 0.218429 0.693733
#
# Coordination Sequence:
#
# PCOD8018607 Si02
#       8
#     2   2   2   2   2   2   2   2
#     4  10  22  42  63  95 127 166 207 267 314 373
#     4  11  21  40  64  92 126 169 208 259 311 374
#     4  11  24  39  65  94 123 171 210 255 320 372
#     4  10  22  40  68  91 125 165 214 262 319 371
#     4  11  23  42  62  92 131 160 211 269 308 375
#     4  11  20  42  65  90 126 168 207 266 314 374
#     4  11  22  41  65  91 132 164 210 259 308 381
#     4  11  22  40  69  93 131 169 209 259 321 374
#
# _framework density 21.372516000000001
#
# number of rings (size 3 to 8) (size 9 to 14) (size 15 to 20)
#    0.000    1.250    3.750    2.250    0.000    5.000 
#    0.000    2.500    2.750    0.000    0.000    0.000 
#    0.000    0.000    0.000    0.000    0.000    0.000 
#
# Total GULP energy -198341.905340 kJ/mol
# GULP energy per Si atom -12396.369084 kJ/mol
# Density = 2.132387 g / cm^3
# Si number density = 21.372516 Si / 1000 Ang^3
#
#
#
# Elastic Constant Matrix: (Units=GPa)
#
#
# Indices 1 2 3 4 5 6 
#
# 1 105.3101 28.9235 41.9759 -6.9977 -0.4335 7.7789
# 2 28.9235 70.8767 21.9495 -14.3330 -2.1062 9.7805
# 3 41.9759 21.9495 137.2107 -14.9546 2.0328 -2.7450
# 4 -6.9977 -14.3330 -14.9546 25.1349 1.0439 1.4388
# 5 -0.4335 -2.1062 2.0328 1.0439 14.7174 4.0090
# 6 7.7789 9.7805 -2.7450 1.4388 4.0090 31.4473
#
#
#
# Elastic Compliance Matrix: (Units=1/GPa)
#
#
# Indices 1 2 3 4 5 6 
#
# 1 0.011891 -0.003661 -0.003172 -0.000578 0.000896 -0.002167
# 2 -0.003661 0.018712 -0.001041 0.009217 0.003665 -0.005894
# 3 -0.003172 -0.001041 0.008914 0.003807 -0.002290 0.002004
# 4 -0.000578 0.009217 0.003807 0.047454 -0.001395 -0.004385
# 5 0.000896 0.003665 -0.002290 -0.001395 0.071815 -0.010653
# 6 -0.002167 -0.005894 0.002004 -0.004385 -0.010653 0.035902
#
#
# Mechanical properties :
#
#
# Convention : Reuss Voigt Hill
#
# Bulk Modulus (GPa) = 42.07228 55.45504 48.76366
# Shear Modulus (GPa) = 22.89817 28.96314 25.93066
#
# Velocity S-wave (km/s) = 3.27675 3.68524 3.48698
# Velocity P-wave (km/s) = 5.83473 6.64163 6.25121
#
# Compressibility (1/GPa) = 0.02376862
#
# Stress axis : x y z
#
# Youngs Moduli (GPa) = 84.09764 53.44293 112.18562
#
# Poissons Ratio (x) = 0.19568 0.35580
# Poissons Ratio (y) = 0.30792 0.11677
# Poissons Ratio (z) = 0.26672 0.05563
#
# Static dielectric constant tensor:
#      x y z
#    x 3.891410 0.131590 0.100770 
#    y 0.131590 4.025760 0.034240 
#    z 0.100770 0.034240 3.943810 
# 
# 
# High freq. dielectric constant tensor:
#      x y z
#    x 1.822900 0.002710 0.005280 
#    y 0.002710 1.854360 -0.000830 
#    z 0.005280 -0.000830 1.836600 
# 
# From -- ./inp_files/138544.got.cif
#   From: 2010.06.25/outbox.cif.g09.slc.cpg/sg2_70_cif.got.tgz:138544.got - 2010.06.27 13:26:56.
