data_PCOD8018702
_publ_section_title
;
Structure prediction by ZEFSAII (Michael W. Deem and Ramdas Pophale) SiO2 
 PCOD8018702
Probable space group: P -1
;
_chemical_formula_sum "Si O2"
_cell_formula_units_Z 16
_cell_length_a 15.599778
_cell_length_b 12.208092
_cell_length_c 8.965820
_cell_angle_alpha 105.652153
_cell_angle_beta 132.083411
_cell_angle_gamma 112.981928
_cell_volume 733.189264
_symmetry_space_group_name_H-M "P -1"
_symmetry_group_IT_number 2
_symmetry_cell_setting 'triclinic'
loop_
_space_group_symop_operation_xyz
x,y,z
-x,-y,-z
loop_
_atom_site_type_symbol
_atom_site_label
_atom_site_fract_x
_atom_site_fract_y
_atom_site_fract_z
Si Si1 0.418008 0.631352 0.067062
Si Si2 0.139507 0.219709 0.593332
Si Si3 0.215182 0.208129 0.363077
Si Si4 0.037170 0.484795 0.202155
Si Si5 0.251858 0.081990 0.838327
Si Si6 0.651661 0.456410 0.397209
Si Si7 0.698534 0.126092 0.202407
Si Si8 0.330975 0.818303 0.138103
O O1 0.632364 0.774078 0.434602
O O2 0.361117 0.711969 0.083062
O O3 0.262753 0.420647 0.883132
O O4 0.420170 0.621543 0.886517
O O5 0.200390 0.274084 0.515461
O O6 0.196446 0.140435 0.686845
O O7 0.908936 0.051579 0.269120
O O8 0.302636 0.379332 0.427901
O O9 0.000000 0.000000 0.000000
O O10 0.162592 0.470962 0.324906
O O11 0.140545 0.660767 0.483558
O O12 0.000000 0.500000 0.000000
O O13 0.850429 0.307520 0.013221
O O14 0.243350 0.953137 0.699455
O O15 0.469944 0.273568 0.221247
O O16 0.686137 0.117059 0.004990
O O17 0.500000 0.000000 0.000000
O O18 0.500000 0.000000 0.500000
#
# Coordination Sequence:
#
# PCOD8018702 Si02
#       8
#     2   2   2   2   2   2   2   2
#     4  11  21  46  69  95 134 179 230 275 344 413
#     4  10  22  40  69  96 128 174 229 276 336 413
#     4  11  24  40  66 100 131 177 222 286 340 399
#     4  12  27  46  67 102 138 182 236 289 347 406
#     4  11  21  39  69  97 128 173 231 274 338 410
#     4  11  22  44  71  92 136 179 228 281 342 416
#     4  12  24  43  70  99 138 186 226 281 348 411
#     4  12  28  44  70 102 138 185 234 286 343 415
#
# _framework density 21.822471
#
# number of rings (size 3 to 8) (size 9 to 14) (size 15 to 20)
#    0.000    0.750    5.000    2.625    5.250    1.000 
#    0.000    0.625    0.000    0.000    0.000    0.000 
#    0.000    0.000    0.000    0.000    0.000    0.000 
#
# Total GULP energy -198255.218463 kJ/mol
# GULP energy per Si atom -12390.951154 kJ/mol
# Density = 2.177280 g / cm^3
# Si number density = 21.822471 Si / 1000 Ang^3
#
#
#
# Elastic Constant Matrix: (Units=GPa)
#
#
# Indices 1 2 3 4 5 6 
#
# 1 84.8304 34.1648 35.1719 4.0972 31.1421 -3.0204
# 2 34.1648 101.0013 45.0143 8.4336 9.8751 -10.8701
# 3 35.1719 45.0143 132.9862 14.3191 23.1833 5.6720
# 4 4.0972 8.4336 14.3191 43.1403 4.1736 4.0559
# 5 31.1421 9.8751 23.1833 4.1736 49.9865 3.7028
# 6 -3.0204 -10.8701 5.6720 4.0559 3.7028 51.2057
#
#
#
# Elastic Compliance Matrix: (Units=1/GPa)
#
#
# Indices 1 2 3 4 5 6 
#
# 1 0.017702 -0.004246 -0.001683 0.000537 -0.009526 0.000975
# 2 -0.004246 0.013224 -0.003606 -0.001418 0.001605 0.002952
# 3 -0.001683 -0.003606 0.009917 -0.002028 -0.002549 -0.001618
# 4 0.000537 -0.001418 -0.002028 0.024356 -0.001007 -0.001901
# 5 -0.009526 0.001605 -0.002549 -0.001007 0.027024 -0.001813
# 6 0.000975 0.002952 -0.001618 -0.001901 -0.001813 0.020674
#
#
# Mechanical properties :
#
#
# Convention : Reuss Voigt Hill
#
# Bulk Modulus (GPa) = 45.93125 60.83552 53.38339
# Shear Modulus (GPa) = 35.91302 42.49765 39.20533
#
# Velocity S-wave (km/s) = 4.06111 4.41775 4.24318
# Velocity P-wave (km/s) = 6.56381 7.34575 6.96576
#
# Compressibility (1/GPa) = 0.02177167
#
# Stress axis : x y z
#
# Youngs Moduli (GPa) = 56.48996 75.62271 100.83504
#
# Poissons Ratio (x) = 0.32111 0.16974
# Poissons Ratio (y) = 0.23987 0.36362
# Poissons Ratio (z) = 0.09509 0.27270
#
# Static dielectric constant tensor:
#      x y z
#    x 4.086160 -0.025800 0.353240 
#    y -0.025800 4.310040 0.380180 
#    z 0.353240 0.380180 4.220350 
# 
# 
# High freq. dielectric constant tensor:
#      x y z
#    x 1.854570 -0.013220 0.029210 
#    y -0.013220 1.875440 0.023290 
#    z 0.029210 0.023290 1.855500 
# 
# From -- ./inp_files/226801.got.cif
#   From: 2010.06.25/outbox.cif.g09.slc.cpg/sg2_114_cif.got.tgz:226801.got - 2010.06.27 13:26:56.
