data_PCOD8018124
_publ_section_title
;
Structure prediction by ZEFSAII (Michael W. Deem and Ramdas Pophale) SiO2 
 PCOD8018124
Probable space group: P -1
;
_chemical_formula_sum "Si O2"
_cell_formula_units_Z 14
_cell_length_a 16.043415
_cell_length_b 7.948730
_cell_length_c 18.512131
_cell_angle_alpha 43.492292
_cell_angle_beta 22.767344
_cell_angle_gamma 54.878368
_cell_volume 588.654850
_symmetry_space_group_name_H-M "P -1"
_symmetry_group_IT_number 2
_symmetry_cell_setting 'triclinic'
loop_
_space_group_symop_operation_xyz
x,y,z
-x,-y,-z
loop_
_atom_site_type_symbol
_atom_site_label
_atom_site_fract_x
_atom_site_fract_y
_atom_site_fract_z
Si Si1 0.786602 0.637780 0.594429
Si Si2 0.792493 0.906576 0.115959
Si Si3 0.255263 0.763415 0.133308
Si Si4 0.689333 0.867368 0.372566
Si Si5 0.681010 0.384247 0.027591
Si Si6 0.533017 0.284678 0.697457
Si Si7 0.958202 0.087497 0.427133
O O1 0.684501 0.356379 0.803856
O O2 0.977050 0.652197 0.377300
O O3 0.930539 0.847191 0.472634
O O4 0.576252 0.698513 0.707597
O O5 0.707907 0.785270 0.299809
O O6 0.601806 0.746180 0.261338
O O7 0.808391 0.206362 0.015905
O O8 0.053035 0.928836 0.877096
O O9 0.356812 0.663554 0.013746
O O10 0.356278 0.080873 0.957979
O O11 0.610450 0.588150 0.565181
O O12 0.500000 0.000000 0.500000
O O13 0.814029 0.679431 0.850988
O O14 0.748984 0.190776 0.552192
O O15 0.000000 0.000000 0.500000
#
# Coordination Sequence:
#
# PCOD8018124 Si02
#       7
#     2   2   2   2   2   2   2
#     4  11  22  41  61  93 132 175 220 266 319 380
#     4  10  23  44  68  96 131 169 215 270 333 395
#     4  10  22  40  62  93 131 170 220 267 317 385
#     4  11  25  45  70  99 128 165 220 279 331 393
#     4  11  21  41  65  90 129 175 211 269 325 381
#     4  11  23  45  66  96 137 172 215 274 326 389
#     4  12  22  38  68  96 131 179 217 259 322 384
#
# _framework density 23.783035999999999
#
# number of rings (size 3 to 8) (size 9 to 14) (size 15 to 20)
#    0.000    1.143    5.714    1.714    0.000    4.000 
#    2.571    2.143    0.000    0.000    0.000    0.000 
#    0.000    0.000    0.000    0.000    0.000    0.000 
#
# Total GULP energy -173486.825119 kJ/mol
# GULP energy per Si atom -12391.916080 kJ/mol
# Density = 2.372890 g / cm^3
# Si number density = 23.783036 Si / 1000 Ang^3
#
#
#
# Elastic Constant Matrix: (Units=GPa)
#
#
# Indices 1 2 3 4 5 6 
#
# 1 49.3125 7.5191 8.4222 2.2049 -24.4367 -0.6545
# 2 7.5191 96.0094 46.6067 3.2454 -4.2807 -14.4159
# 3 8.4222 46.6067 128.6614 7.2410 -13.7088 -4.9226
# 4 2.2049 3.2454 7.2410 56.1235 -16.5437 -8.5060
# 5 -24.4367 -4.2807 -13.7088 -16.5437 33.8680 3.2259
# 6 -0.6545 -14.4159 -4.9226 -8.5060 3.2259 20.6911
#
#
#
# Elastic Compliance Matrix: (Units=1/GPa)
#
#
# Indices 1 2 3 4 5 6 
#
# 1 0.034136 -0.002555 0.001248 0.006663 0.028265 -0.002071
# 2 -0.002555 0.014291 -0.004968 0.000542 -0.002673 0.009334
# 3 0.001248 -0.004968 0.009897 0.000006 0.004449 -0.001758
# 4 0.006663 0.000542 0.000006 0.023268 0.015508 0.007737
# 5 0.028265 -0.002673 0.004449 0.015508 0.059222 -0.002767
# 6 -0.002071 0.009334 -0.001758 0.007737 -0.002767 0.057962
#
#
# Mechanical properties :
#
#
# Convention : Reuss Voigt Hill
#
# Bulk Modulus (GPa) = 21.84604 44.34214 33.09409
# Shear Modulus (GPa) = 22.06688 36.23221 29.14954
#
# Velocity S-wave (km/s) = 3.04935 3.90737 3.50472
# Velocity P-wave (km/s) = 4.64796 6.24833 5.50660
#
# Compressibility (1/GPa) = 0.04577488
#
# Stress axis : x y z
#
# Youngs Moduli (GPa) = 29.29416 69.97246 101.04469
#
# Poissons Ratio (x) = 0.17881 -0.12615
# Poissons Ratio (y) = 0.07486 0.50197
# Poissons Ratio (z) = -0.03657 0.34761
#
# Static dielectric constant tensor:
#      x y z
#    x 4.075810 -0.230890 -0.086880 
#    y -0.230890 4.299490 -0.094040 
#    z -0.086880 -0.094040 4.770070 
# 
# 
# High freq. dielectric constant tensor:
#      x y z
#    x 1.922970 -0.020270 -0.007490 
#    y -0.020270 1.934120 0.000090 
#    z -0.007490 0.000090 1.964150 
# 
# From -- ./inp_files/591132.got.cif
#   From: 2010.06.25/outbox.cif.g09.slc.cpg/sg2_296_cif.got.tgz:591132.got - 2010.06.27 13:26:56.
