data_PCOD8018916
_publ_section_title
;
Structure prediction by ZEFSAII (Michael W. Deem and Ramdas Pophale) SiO2 
 PCOD8018916
Probable space group: P -1
;
_chemical_formula_sum "Si O2"
_cell_formula_units_Z 16
_cell_length_a 11.554804
_cell_length_b 9.152212
_cell_length_c 10.892178
_cell_angle_alpha 116.180374
_cell_angle_beta 126.449806
_cell_angle_gamma 53.031256
_cell_volume 733.933867
_symmetry_space_group_name_H-M "P -1"
_symmetry_group_IT_number 2
_symmetry_cell_setting 'triclinic'
loop_
_space_group_symop_operation_xyz
x,y,z
-x,-y,-z
loop_
_atom_site_type_symbol
_atom_site_label
_atom_site_fract_x
_atom_site_fract_y
_atom_site_fract_z
Si Si1 0.078290 0.041778 0.243188
Si Si2 0.497403 0.812021 0.946714
Si Si3 0.427858 0.381391 0.844786
Si Si4 0.226485 0.415110 0.126009
Si Si5 0.213588 0.724271 0.698286
Si Si6 0.659595 0.487427 0.536775
Si Si7 0.550505 0.156793 0.605575
Si Si8 0.031407 0.239776 0.036359
O O1 0.975241 0.150020 0.338618
O O2 0.063573 0.188156 0.181920
O O3 0.265539 0.916863 0.356448
O O4 0.001986 0.913469 0.104565
O O5 0.588854 0.677431 0.840679
O O6 0.319198 0.824501 0.847251
O O7 0.603070 0.730570 0.107726
O O8 0.500000 0.000000 0.000000
O O9 0.267283 0.528255 0.727718
O O10 0.552686 0.227132 0.771709
O O11 0.500000 0.500000 0.000000
O O12 0.213219 0.529858 0.283469
O O13 0.183558 0.249614 0.070189
O O14 0.115867 0.553580 0.000712
O O15 0.240288 0.685925 0.555035
O O16 0.500000 0.500000 0.500000
O O17 0.592659 0.679996 0.497020
O O18 0.500000 0.000000 0.500000
#
# Coordination Sequence:
#
# PCOD8018916 Si02
#       8
#     2   2   2   2   2   2   2   2
#     4  11  23  41  68  91 130 159 222 265 323 375
#     4  11  22  34  64  93 127 160 215 272 310 370
#     4   9  22  39  63  93 128 168 222 256 317 387
#     4  11  22  42  61  93 132 164 216 257 329 378
#     4  10  22  41  62  94 122 172 214 257 323 386
#     4  11  22  42  67  89 129 178 210 253 324 402
#     4  11  25  42  67  96 129 173 217 268 322 387
#     4  10  24  38  65  95 124 168 205 275 319 370
#
# _framework density 21.800329000000001
#
# number of rings (size 3 to 8) (size 9 to 14) (size 15 to 20)
#    0.000    1.500    1.250    3.000   14.000    0.000 
#    0.000   10.625    0.000    0.000    0.000    0.000 
#    0.000    0.000    0.000    0.000    0.000    0.000 
#
# Total GULP energy -198294.041997 kJ/mol
# GULP energy per Si atom -12393.377625 kJ/mol
# Density = 2.175071 g / cm^3
# Si number density = 21.800329 Si / 1000 Ang^3
#
#
#
# Elastic Constant Matrix: (Units=GPa)
#
#
# Indices 1 2 3 4 5 6 
#
# 1 107.4794 40.6930 20.9846 11.9103 -7.1996 -16.6124
# 2 40.6930 75.8635 14.0838 14.4020 -5.8620 3.1388
# 3 20.9846 14.0838 66.2927 9.5551 -4.5782 -9.3953
# 4 11.9103 14.4020 9.5551 29.3431 -2.7049 -2.3916
# 5 -7.1996 -5.8620 -4.5782 -2.7049 31.7762 2.5643
# 6 -16.6124 3.1388 -9.3953 -2.3916 2.5643 54.3370
#
#
#
# Elastic Compliance Matrix: (Units=1/GPa)
#
#
# Indices 1 2 3 4 5 6 
#
# 1 0.012911 -0.006449 -0.001945 -0.001028 0.001054 0.003888
# 2 -0.006449 0.018316 -0.001382 -0.006079 0.001492 -0.003606
# 3 -0.001945 -0.001382 0.016931 -0.003752 0.001248 0.002189
# 4 -0.001028 -0.006079 -0.003752 0.038910 0.001334 0.001038
# 5 0.001054 0.001492 0.001248 0.001334 0.032360 -0.001017
# 6 0.003888 -0.003606 0.002189 0.001038 -0.001017 0.020273
#
#
# Mechanical properties :
#
#
# Convention : Reuss Voigt Hill
#
# Bulk Modulus (GPa) = 34.95638 44.57316 39.76477
# Shear Modulus (GPa) = 29.62337 34.68286 32.15311
#
# Velocity S-wave (km/s) = 3.69026 3.99298 3.84460
# Velocity P-wave (km/s) = 5.85038 6.46134 6.16344
#
# Compressibility (1/GPa) = 0.02860709
#
# Stress axis : x y z
#
# Youngs Moduli (GPa) = 77.45397 54.59832 59.06326
#
# Poissons Ratio (x) = 0.35208 0.11487
# Poissons Ratio (y) = 0.49947 0.08161
# Poissons Ratio (z) = 0.15063 0.07544
#
# Static dielectric constant tensor:
#      x y z
#    x 4.371900 0.177210 -0.369330 
#    y 0.177210 4.011880 0.044520 
#    z -0.369330 0.044520 3.596590 
# 
# 
# High freq. dielectric constant tensor:
#      x y z
#    x 1.858540 0.009820 -0.011380 
#    y 0.009820 1.861670 0.004810 
#    z -0.011380 0.004810 1.838960 
# 
# From -- ./inp_files/358754.got.cif
#   From: 2010.06.25/outbox.cif.g09.slc.cpg/sg2_180_cif.got.tgz:358754.got - 2010.06.27 13:26:56.
