data_PCOD8018150
_publ_section_title
;
Structure prediction by ZEFSAII (Michael W. Deem and Ramdas Pophale) SiO2 
 PCOD8018150
Probable space group: P -1
;
_chemical_formula_sum "Si O2"
_cell_formula_units_Z 12
_cell_length_a 13.198756
_cell_length_b 8.598754
_cell_length_c 7.234991
_cell_angle_alpha 94.413161
_cell_angle_beta 51.126260
_cell_angle_gamma 112.241780
_cell_volume 576.818087
_symmetry_space_group_name_H-M "P -1"
_symmetry_group_IT_number 2
_symmetry_cell_setting 'triclinic'
loop_
_space_group_symop_operation_xyz
x,y,z
-x,-y,-z
loop_
_atom_site_type_symbol
_atom_site_label
_atom_site_fract_x
_atom_site_fract_y
_atom_site_fract_z
Si Si1 0.387515 0.754949 0.760468
Si Si2 0.535176 0.694464 0.928034
Si Si3 0.877396 0.563209 0.124418
Si Si4 0.911667 0.850694 0.832365
Si Si5 0.150066 0.206254 0.519130
Si Si6 0.625200 0.896590 0.201534
O O1 0.416240 0.699540 0.925003
O O2 0.271142 0.589631 0.779167
O O3 0.464968 0.172975 0.515978
O O4 0.328388 0.900339 0.860111
O O5 0.691865 0.787402 0.665020
O O6 0.500000 0.500000 0.000000
O O7 0.528649 0.795349 0.128916
O O8 0.849449 0.630542 0.358903
O O9 0.932330 0.711672 0.922339
O O10 0.000000 0.500000 0.000000
O O11 0.907819 0.790792 0.619961
O O12 0.766506 0.864892 0.056063
O O13 0.047529 0.032170 0.726676
#
# Coordination Sequence:
#
# PCOD8018150 Si02
#       6
#     2   2   2   2   2   2
#     4  11  23  39  60  90 122 154 197 244 292 350
#     4  11  22  39  64  90 119 156 196 242 294 349
#     4  12  25  39  60  89 120 155 198 246 296 350
#     4  10  22  42  63  86 119 157 199 243 291 349
#     4  10  22  40  63  88 117 158 198 238 294 351
#     4  10  22  40  63  88 119 158 196 241 294 347
#
# _framework density 20.803788000000001
#
# number of rings (size 3 to 8) (size 9 to 14) (size 15 to 20)
#    0.000    1.333    0.000    6.000    0.000    5.333 
#    0.000    6.667    0.000    0.000    0.000    0.000 
#    0.000    0.000    0.000    0.000    0.000    0.000 
#
# Total GULP energy -148893.877955 kJ/mol
# GULP energy per Si atom -12407.823163 kJ/mol
# Density = 2.075644 g / cm^3
# Si number density = 20.803788 Si / 1000 Ang^3
#
#
#
# Elastic Constant Matrix: (Units=GPa)
#
#
# Indices 1 2 3 4 5 6 
#
# 1 100.2513 52.0799 18.2321 -5.1545 -0.1315 -11.0424
# 2 52.0799 137.0747 35.8184 0.6450 11.2105 -0.5565
# 3 18.2321 35.8184 55.1090 -0.5120 6.4666 -10.2758
# 4 -5.1545 0.6450 -0.5120 37.3059 8.1938 5.0711
# 5 -0.1315 11.2105 6.4666 8.1938 27.4090 -2.6182
# 6 -11.0424 -0.5565 -10.2758 5.0711 -2.6182 46.4293
#
#
#
# Elastic Compliance Matrix: (Units=1/GPa)
#
#
# Indices 1 2 3 4 5 6 
#
# 1 0.013053 -0.004917 -0.000841 0.000991 0.002250 0.002878
# 2 -0.004917 0.010870 -0.005491 0.000151 -0.003455 -0.002466
# 3 -0.000841 -0.005491 0.023205 0.000293 -0.002874 0.004676
# 4 0.000991 0.000151 0.000293 0.029444 -0.009257 -0.003435
# 5 0.002250 -0.003455 -0.002874 -0.009257 0.041661 0.003218
# 6 0.002878 -0.002466 0.004676 -0.003435 0.003218 0.023785
#
#
# Mechanical properties :
#
#
# Convention : Reuss Voigt Hill
#
# Bulk Modulus (GPa) = 40.60101 56.07731 48.33916
# Shear Modulus (GPa) = 28.94766 34.64914 31.79840
#
# Velocity S-wave (km/s) = 3.73428 4.08551 3.91383
# Velocity P-wave (km/s) = 6.17670 7.01919 6.61138
#
# Compressibility (1/GPa) = 0.02462993
#
# Stress axis : x y z
#
# Youngs Moduli (GPa) = 76.61106 91.99589 43.09393
#
# Poissons Ratio (x) = 0.45230 0.03625
# Poissons Ratio (y) = 0.37666 0.23665
# Poissons Ratio (z) = 0.06444 0.50519
#
# Static dielectric constant tensor:
#      x y z
#    x 4.088680 0.169400 0.101220 
#    y 0.169400 3.923450 0.024970 
#    z 0.101220 0.024970 3.818490 
# 
# 
# High freq. dielectric constant tensor:
#      x y z
#    x 1.820190 0.012680 0.008110 
#    y 0.012680 1.826460 -0.000960 
#    z 0.008110 -0.000960 1.821200 
# 
# From -- ./inp_files/60634.got.cif
#   From: 2010.06.25/outbox.cif.g09.slc.cpg/sg2_31_cif.got.tgz:60634.got - 2010.06.27 13:26:56.
