data_PCOD8018242
_publ_section_title
;
Structure prediction by ZEFSAII (Michael W. Deem and Ramdas Pophale) SiO2 
 PCOD8018242
Probable space group: P -1
;
_chemical_formula_sum "Si O2"
_cell_formula_units_Z 14
_cell_length_a 20.257261
_cell_length_b 5.056512
_cell_length_c 5.347478
_cell_angle_alpha 91.531890
_cell_angle_beta 77.259702
_cell_angle_gamma 68.925771
_cell_volume 495.133653
_symmetry_space_group_name_H-M "P -1"
_symmetry_group_IT_number 2
_symmetry_cell_setting 'triclinic'
loop_
_space_group_symop_operation_xyz
x,y,z
-x,-y,-z
loop_
_atom_site_type_symbol
_atom_site_label
_atom_site_fract_x
_atom_site_fract_y
_atom_site_fract_z
Si Si1 0.425596 0.671297 0.720914
Si Si2 0.678327 0.863041 0.881824
Si Si3 0.948463 0.827628 0.547522
Si Si4 0.220934 0.402331 0.819853
Si Si5 0.710274 0.212771 0.467868
Si Si6 0.915242 0.695784 0.071707
Si Si7 0.443697 0.285152 0.172698
O O1 0.376931 0.614471 0.531404
O O2 0.511745 0.653068 0.612647
O O3 0.426425 0.521482 0.979909
O O4 0.377314 0.000881 0.838525
O O5 0.633937 0.750914 0.707037
O O6 0.709644 0.089549 0.743114
O O7 0.744004 0.585193 0.936121
O O8 0.896850 0.888585 0.345278
O O9 0.000000 0.500000 0.500000
O O10 0.899072 0.897801 0.842950
O O11 0.000000 0.000000 0.500000
O O12 0.245578 0.574557 0.590836
O O13 0.132968 0.503099 0.902395
O O14 0.248883 0.059720 0.745466
O O15 0.000000 0.500000 0.000000
O O16 0.500000 0.000000 0.000000
#
# Coordination Sequence:
#
# PCOD8018242 Si02
#       7
#     2   2   2   2   2   2   2
#     4   9  19  38  59  92 130 169 224 286 336 409
#     4  10  22  40  64  90 131 181 222 283 346 413
#     4  10  22  42  71 103 140 179 226 286 356 422
#     4  11  26  44  65  98 137 175 232 285 348 421
#     4  11  25  42  67  95 134 180 231 277 351 420
#     4  10  24  47  73 108 144 189 237 302 360 431
#     4   9  17  35  63  89 129 168 221 286 339 401
#
# _framework density 28.275196000000001
#
# number of rings (size 3 to 8) (size 9 to 14) (size 15 to 20)
#    0.000    2.000    1.429    0.429    4.000    5.143 
#    0.000    6.429    0.000    0.000    0.000    0.000 
#    0.000    0.000    0.000    0.000    0.000    0.000 
#
# Total GULP energy -173451.138385 kJ/mol
# GULP energy per Si atom -12389.367027 kJ/mol
# Density = 2.821084 g / cm^3
# Si number density = 28.275196 Si / 1000 Ang^3
#
#
#
# Elastic Constant Matrix: (Units=GPa)
#
#
# Indices 1 2 3 4 5 6 
#
# 1 212.4304 50.4401 55.6923 -13.8169 -13.7576 34.9816
# 2 50.4401 79.3682 16.3011 -17.4961 -2.0634 25.4388
# 3 55.6923 16.3011 146.5384 -28.6140 4.0807 25.6881
# 4 -13.8169 -17.4961 -28.6140 36.9203 12.8661 -7.5576
# 5 -13.7576 -2.0634 4.0807 12.8661 52.8804 -1.3596
# 6 34.9816 25.4388 25.6881 -7.5576 -1.3596 50.1438
#
#
#
# Elastic Compliance Matrix: (Units=1/GPa)
#
#
# Indices 1 2 3 4 5 6 
#
# 1 0.006406 -0.003421 -0.002188 -0.002051 0.002153 -0.001864
# 2 -0.003421 0.018343 0.002218 0.008649 -0.002625 -0.006823
# 3 -0.002188 0.002218 0.009704 0.008208 -0.003317 -0.003423
# 4 -0.002051 0.008649 0.008208 0.040204 -0.010647 -0.001391
# 5 0.002153 -0.002625 -0.003317 -0.010647 0.022228 0.000527
# 6 -0.001864 -0.006823 -0.003423 -0.001391 0.000527 0.026262
#
#
# Mechanical properties :
#
#
# Convention : Reuss Voigt Hill
#
# Bulk Modulus (GPa) = 36.13812 75.91156 56.02484
# Shear Modulus (GPa) = 35.93142 49.04912 42.49027
#
# Velocity S-wave (km/s) = 3.56866 4.16950 3.88072
# Velocity P-wave (km/s) = 5.45794 7.07710 6.31959
#
# Compressibility (1/GPa) = 0.02767161
#
# Stress axis : x y z
#
# Youngs Moduli (GPa) = 156.09904 54.51563 103.04869
#
# Poissons Ratio (x) = 0.18648 0.22547
# Poissons Ratio (y) = 0.53398 -0.22853
# Poissons Ratio (z) = 0.34154 -0.12090
#
# Static dielectric constant tensor:
#      x y z
#    x 5.384170 1.052360 -2.846090 
#    y 1.052360 2.616300 7.200090 
#    z -2.846090 7.200090 -14.891320 
# 
# 
# High freq. dielectric constant tensor:
#      x y z
#    x 2.163830 0.002290 0.006090 
#    y 0.002290 2.142740 0.018910 
#    z 0.006090 0.018910 2.150660 
# 
# From -- ./inp_files/7937.got.cif
#   From: 2010.06.25/outbox.cif.g09.slc.cpg/sg2_4_cif.got.tgz:7937.got - 2010.06.27 13:26:56.
