data_PCOD8018818
_publ_section_title
;
Structure prediction by ZEFSAII (Michael W. Deem and Ramdas Pophale) SiO2 
 PCOD8018818
Probable space group: P -1
;
_chemical_formula_sum "Si O2"
_cell_formula_units_Z 14
_cell_length_a 31.684945
_cell_length_b 15.779033
_cell_length_c 15.306249
_cell_angle_alpha 18.239244
_cell_angle_beta 17.258412
_cell_angle_gamma 17.118397
_cell_volume 605.007645
_symmetry_space_group_name_H-M "P -1"
_symmetry_group_IT_number 2
_symmetry_cell_setting 'triclinic'
loop_
_space_group_symop_operation_xyz
x,y,z
-x,-y,-z
loop_
_atom_site_type_symbol
_atom_site_label
_atom_site_fract_x
_atom_site_fract_y
_atom_site_fract_z
Si Si1 0.807142 0.128760 0.553987
Si Si2 0.325389 0.154122 0.576446
Si Si3 0.187728 0.774775 0.139550
Si Si4 0.621116 0.259156 0.368745
Si Si5 0.368810 0.931517 0.285613
Si Si6 0.619714 0.577843 0.631887
Si Si7 0.672078 0.754167 0.105171
O O1 0.764632 0.272440 0.594882
O O2 0.774448 0.389812 0.289837
O O3 0.000344 0.851212 0.440019
O O4 0.694887 0.975330 0.911842
O O5 0.312623 0.428476 0.271731
O O6 0.294243 0.284837 0.609866
O O7 0.511782 0.837291 0.515202
O O8 0.195151 0.050405 0.908183
O O9 0.240002 0.755856 0.954083
O O10 0.463719 0.605844 0.362427
O O11 0.721301 0.091171 0.425876
O O12 0.528073 0.103755 0.652827
O O13 0.500000 0.000000 0.000000
O O14 0.253763 0.210998 0.169998
O O15 0.500000 0.500000 0.000000
#
# Coordination Sequence:
#
# PCOD8018818 Si02
#       7
#     2   2   2   2   2   2   2
#     4  12  28  43  67 100 144 175 221 275 342 397
#     4  11  26  45  70  97 133 177 228 275 330 398
#     4  12  27  45  66 105 138 178 215 280 344 392
#     4  10  22  40  73  97 133 172 233 274 323 396
#     4   9  20  39  69 103 127 170 233 276 319 384
#     4  11  26  45  71 100 129 176 235 276 325 398
#     4  11  23  43  69  97 132 182 225 271 321 403
#
# _framework density 23.140203
#
# number of rings (size 3 to 8) (size 9 to 14) (size 15 to 20)
#    0.000    1.143    2.857    1.714   12.000    1.143 
#    0.000    1.429    0.000    0.000    0.000    0.000 
#    0.000    0.000    0.000    0.000    0.000    0.000 
#
# Total GULP energy -173520.075829 kJ/mol
# GULP energy per Si atom -12394.291131 kJ/mol
# Density = 2.308754 g / cm^3
# Si number density = 23.140203 Si / 1000 Ang^3
#
#
#
# Elastic Constant Matrix: (Units=GPa)
#
#
# Indices 1 2 3 4 5 6 
#
# 1 76.4421 34.6006 30.6443 7.9411 8.4949 9.4500
# 2 34.6006 79.0119 37.8807 4.7840 15.9992 8.3889
# 3 30.6443 37.8807 98.0225 -10.6473 6.2426 9.0150
# 4 7.9411 4.7840 -10.6473 37.9020 5.4304 6.5752
# 5 8.4949 15.9992 6.2426 5.4304 47.8221 -14.8598
# 6 9.4500 8.3889 9.0150 6.5752 -14.8598 27.5250
#
#
#
# Elastic Compliance Matrix: (Units=1/GPa)
#
#
# Indices 1 2 3 4 5 6 
#
# 1 0.017787 -0.005219 -0.003455 -0.003179 -0.001703 -0.003544
# 2 -0.005219 0.019333 -0.004961 -0.000772 -0.006629 -0.005870
# 3 -0.003455 -0.004961 0.014422 0.006431 -0.001738 -0.004500
# 4 -0.003179 -0.000772 0.006431 0.032221 -0.007581 -0.012569
# 5 -0.001703 -0.006629 -0.001738 -0.007581 0.031322 0.021895
# 6 -0.003544 -0.005870 -0.004500 -0.012569 0.021895 0.055633
#
#
# Mechanical properties :
#
#
# Convention : Reuss Voigt Hill
#
# Bulk Modulus (GPa) = 41.20086 51.08085 46.14086
# Shear Modulus (GPa) = 24.26263 32.67320 28.46792
#
# Velocity S-wave (km/s) = 3.24158 3.76169 3.51128
# Velocity P-wave (km/s) = 5.64393 6.40231 6.03504
#
# Compressibility (1/GPa) = 0.02427134
#
# Stress axis : x y z
#
# Youngs Moduli (GPa) = 56.22150 51.72514 69.33823
#
# Poissons Ratio (x) = 0.26997 0.23953
# Poissons Ratio (y) = 0.29344 0.34401
# Poissons Ratio (z) = 0.19422 0.25663
#
# Static dielectric constant tensor:
#      x y z
#    x 5.103620 -0.067080 0.388670 
#    y -0.067080 3.594820 -0.367270 
#    z 0.388670 -0.367270 4.078480 
# 
# 
# High freq. dielectric constant tensor:
#      x y z
#    x 1.942590 0.008750 0.006960 
#    y 0.008750 1.864880 -0.039930 
#    z 0.006960 -0.039930 1.917770 
# 
# From -- ./inp_files/545033.got.cif
#   From: 2010.06.25/outbox.cif.g09.slc.cpg/sg2_273_cif.got.tgz:545033.got - 2010.06.27 13:26:56.
