data_PCOD8018835
_publ_section_title
;
Structure prediction by ZEFSAII (Michael W. Deem and Ramdas Pophale) SiO2 
 PCOD8018835
Probable space group: P -1
;
_chemical_formula_sum "Si O2"
_cell_formula_units_Z 16
_cell_length_a 8.258678
_cell_length_b 14.794041
_cell_length_c 13.689322
_cell_angle_alpha 153.354519
_cell_angle_beta 71.970080
_cell_angle_gamma 102.245104
_cell_volume 705.035646
_symmetry_space_group_name_H-M "P -1"
_symmetry_group_IT_number 2
_symmetry_cell_setting 'triclinic'
loop_
_space_group_symop_operation_xyz
x,y,z
-x,-y,-z
loop_
_atom_site_type_symbol
_atom_site_label
_atom_site_fract_x
_atom_site_fract_y
_atom_site_fract_z
Si Si1 0.282727 0.215657 0.024400
Si Si2 0.410913 0.663972 0.600073
Si Si3 0.087783 0.849573 0.748473
Si Si4 0.076385 0.585541 0.316377
Si Si5 0.712034 0.729710 0.505813
Si Si6 0.431983 0.994298 0.360711
Si Si7 0.700788 0.896569 0.887144
Si Si8 0.615025 0.294398 0.743339
O O1 0.217119 0.002587 0.843715
O O2 0.435883 0.182554 0.886096
O O3 0.136847 0.381354 0.167263
O O4 0.342112 0.261600 0.169991
O O5 0.500000 0.500000 0.500000
O O6 0.209437 0.667597 0.612002
O O7 0.528924 0.640773 0.455249
O O8 0.420627 0.882116 0.867147
O O9 0.039139 0.769954 0.576050
O O10 0.900688 0.935390 0.915233
O O11 0.207452 0.637565 0.259838
O O12 0.884564 0.571102 0.294591
O O13 0.705335 0.911299 0.603978
O O14 0.711420 0.798615 0.685264
O O15 0.517050 0.182535 0.570805
O O16 0.337814 0.874437 0.343505
O O17 0.500000 0.500000 0.000000
#
# Coordination Sequence:
#
# PCOD8018835 Si02
#       8
#     2   2   2   2   2   2   2   2
#     4  11  20  38  66  90 127 170 205 250 292 381
#     4  11  22  34  57  87 129 166 208 251 295 352
#     4  10  22  41  58  89 127 174 210 244 297 376
#     4  11  24  38  67  93 125 160 219 251 315 371
#     4  11  24  41  57 100 130 163 200 259 308 369
#     4  11  23  43  71  88 127 155 210 267 317 363
#     4  10  23  39  62  87 135 173 207 236 308 371
#     4  11  23  46  71  93 110 167 214 263 317 382
#
# _framework density 22.693887
#
# number of rings (size 3 to 8) (size 9 to 14) (size 15 to 20)
#    0.000    1.250    5.000    1.875    5.250    1.500 
#    2.250    0.625    0.000    0.000    0.000    0.000 
#    0.000    0.000    0.000    0.000    0.000    0.000 
#
# Total GULP energy -198214.342789 kJ/mol
# GULP energy per Si atom -12388.396424 kJ/mol
# Density = 2.264223 g / cm^3
# Si number density = 22.693887 Si / 1000 Ang^3
#
#
#
# Elastic Constant Matrix: (Units=GPa)
#
#
# Indices 1 2 3 4 5 6 
#
# 1 80.2959 44.1165 38.4097 -8.0467 -42.4728 -3.5393
# 2 44.1165 143.9860 47.5779 3.5387 -32.6876 -19.6570
# 3 38.4097 47.5779 79.9537 -8.6303 -39.8945 -7.4968
# 4 -8.0467 3.5387 -8.6303 27.1168 -7.9855 -9.5289
# 5 -42.4728 -32.6876 -39.8945 -7.9855 50.3512 -1.8515
# 6 -3.5393 -19.6570 -7.4968 -9.5289 -1.8515 32.1892
#
#
#
# Elastic Compliance Matrix: (Units=1/GPa)
#
#
# Indices 1 2 3 4 5 6 
#
# 1 0.035412 -0.003520 0.011334 0.032875 0.042389 0.016554
# 2 -0.003520 0.010011 -0.004026 -0.002121 0.000157 0.004170
# 3 0.011334 -0.004026 0.035619 0.034286 0.041328 0.019610
# 4 0.032875 -0.002121 0.034286 0.093102 0.069826 0.041882
# 5 0.042389 0.000157 0.041328 0.069826 0.101040 0.040864
# 6 0.016554 0.004170 0.019610 0.041882 0.040864 0.054749
#
#
# Mechanical properties :
#
#
# Convention : Reuss Voigt Hill
#
# Bulk Modulus (GPa) = 11.28433 62.71597 37.00015
# Shear Modulus (GPa) = 14.20878 33.54022 23.87450
#
# Velocity S-wave (km/s) = 2.50493 3.84857 3.24701
# Velocity P-wave (km/s) = 3.65368 6.88798 5.51333
#
# Compressibility (1/GPa) = 0.08861848
#
# Stress axis : x y z
#
# Youngs Moduli (GPa) = 28.23890 99.89039 28.07516
#
# Poissons Ratio (x) = 0.35164 -0.31821
# Poissons Ratio (y) = 0.09941 0.11302
# Poissons Ratio (z) = -0.32007 0.40212
#
# Static dielectric constant tensor:
#      x y z
#    x 5.456970 0.096410 -0.090760 
#    y 0.096410 4.258730 -0.184250 
#    z -0.090760 -0.184250 4.112880 
# 
# 
# High freq. dielectric constant tensor:
#      x y z
#    x 1.906860 -0.004940 -0.017260 
#    y -0.004940 1.899310 -0.006050 
#    z -0.017260 -0.006050 1.896450 
# 
# From -- ./inp_files/504597.got.cif
#   From: 2010.06.25/outbox.cif.g09.slc.cpg/sg2_253_cif.got.tgz:504597.got - 2010.06.27 13:26:56.
