data_PCOD8018534
_publ_section_title
;
Structure prediction by ZEFSAII (Michael W. Deem and Ramdas Pophale) SiO2 
 PCOD8018534
Probable space group: P -1
;
_chemical_formula_sum "Si O2"
_cell_formula_units_Z 16
_cell_length_a 15.181680
_cell_length_b 8.970814
_cell_length_c 12.202578
_cell_angle_alpha 119.753473
_cell_angle_beta 111.412738
_cell_angle_gamma 119.843119
_cell_volume 729.112074
_symmetry_space_group_name_H-M "P -1"
_symmetry_group_IT_number 2
_symmetry_cell_setting 'triclinic'
loop_
_space_group_symop_operation_xyz
x,y,z
-x,-y,-z
loop_
_atom_site_type_symbol
_atom_site_label
_atom_site_fract_x
_atom_site_fract_y
_atom_site_fract_z
Si Si1 0.836682 0.691346 0.173712
Si Si2 0.120069 0.600684 0.000379
Si Si3 0.486620 0.337141 0.842714
Si Si4 0.137779 0.417528 0.623835
Si Si5 0.913611 0.298027 0.208609
Si Si6 0.735155 0.315207 0.440166
Si Si7 0.556219 0.586800 0.743796
Si Si8 0.475164 0.711449 0.566771
O O1 0.777730 0.520366 0.201932
O O2 0.911929 0.652941 0.117885
O O3 0.666070 0.507211 0.972625
O O4 0.978066 0.053608 0.384804
O O5 0.323308 0.943612 0.241106
O O6 0.056897 0.601491 0.865046
O O7 0.000000 0.500000 0.000000
O O8 0.437739 0.342345 0.703004
O O9 0.332375 0.979719 0.681509
O O10 0.500000 0.500000 0.000000
O O11 0.069437 0.508519 0.636297
O O12 0.286254 0.645536 0.679690
O O13 0.057335 0.374280 0.331537
O O14 0.726362 0.924758 0.001632
O O15 0.634049 0.281603 0.466968
O O16 0.452734 0.568263 0.616625
O O17 0.606624 0.509404 0.655646
#
# Coordination Sequence:
#
# PCOD8018534 Si02
#       8
#     2   2   2   2   2   2   2   2
#     4  10  22  42  62 100 127 177 225 265 329 399
#     4  10  22  42  68  91 134 172 220 273 332 391
#     4  12  25  39  66 101 134 172 217 278 336 384
#     4  10  22  40  67  91 140 169 222 270 329 404
#     4  10  22  42  62  97 127 180 213 269 333 391
#     4  12  24  39  69  99 132 171 222 276 334 385
#     4  10  24  45  66  88 145 168 225 269 327 402
#     4  10  24  45  66 100 127 182 222 275 329 390
#
# _framework density 21.944502
#
# number of rings (size 3 to 8) (size 9 to 14) (size 15 to 20)
#    0.000    1.500    1.250    2.625    3.500    5.500 
#    0.000    0.000    0.000    0.000    0.000    0.000 
#    0.000    0.000    0.000    0.000    0.000    0.000 
#
# Total GULP energy -198430.846330 kJ/mol
# GULP energy per Si atom -12401.927896 kJ/mol
# Density = 2.189456 g / cm^3
# Si number density = 21.944502 Si / 1000 Ang^3
#
#
#
# Elastic Constant Matrix: (Units=GPa)
#
#
# Indices 1 2 3 4 5 6 
#
# 1 126.8045 31.6449 35.3182 2.9227 -16.8958 4.1211
# 2 31.6449 123.7000 30.3706 5.8104 -14.3660 6.9703
# 3 35.3182 30.3706 66.6862 5.7822 -21.0932 -6.6449
# 4 2.9227 5.8104 5.7822 26.0847 -5.4034 -2.2347
# 5 -16.8958 -14.3660 -21.0932 -5.4034 31.8839 1.6793
# 6 4.1211 6.9703 -6.6449 -2.2347 1.6793 27.6496
#
#
#
# Elastic Compliance Matrix: (Units=1/GPa)
#
#
# Indices 1 2 3 4 5 6 
#
# 1 0.009675 -0.001085 -0.004253 0.000319 0.001999 -0.002286
# 2 -0.001085 0.009652 -0.003620 -0.001232 0.001345 -0.003323
# 3 -0.004253 -0.003620 0.023052 -0.001035 0.010856 0.006344
# 4 0.000319 -0.001232 -0.001035 0.040213 0.005590 0.002925
# 5 0.001999 0.001345 0.010856 0.005590 0.041163 -0.000076
# 6 -0.002286 -0.003323 0.006344 0.002925 -0.000076 0.039111
#
#
# Mechanical properties :
#
#
# Convention : Reuss Voigt Hill
#
# Bulk Modulus (GPa) = 40.87732 56.87313 48.87522
# Shear Modulus (GPa) = 26.46405 31.78076 29.12241
#
# Velocity S-wave (km/s) = 3.47645 3.80969 3.64688
# Velocity P-wave (km/s) = 5.89765 6.73237 6.32879
#
# Compressibility (1/GPa) = 0.02446344
#
# Stress axis : x y z
#
# Youngs Moduli (GPa) = 103.36186 103.60922 43.37940
#
# Poissons Ratio (x) = 0.11239 0.18450
# Poissons Ratio (y) = 0.11213 0.15702
# Poissons Ratio (z) = 0.43961 0.37504
#
# Static dielectric constant tensor:
#      x y z
#    x 3.881790 -0.169670 -0.205250 
#    y -0.169670 4.250670 -0.048520 
#    z -0.205250 -0.048520 3.931260 
# 
# 
# High freq. dielectric constant tensor:
#      x y z
#    x 1.860570 -0.007320 -0.015790 
#    y -0.007320 1.874070 0.000460 
#    z -0.015790 0.000460 1.857770 
# 
# From -- ./inp_files/223485.got.cif
#   From: 2010.06.25/outbox.cif.g09.slc.cpg/sg2_112_cif.got.tgz:223485.got - 2010.06.27 13:26:56.
