data_PCOD8018621
_publ_section_title
;
Structure prediction by ZEFSAII (Michael W. Deem and Ramdas Pophale) SiO2 
 PCOD8018621
Probable space group: P -1
;
_chemical_formula_sum "Si O2"
_cell_formula_units_Z 14
_cell_length_a 13.259300
_cell_length_b 11.197273
_cell_length_c 20.818886
_cell_angle_alpha 23.035247
_cell_angle_beta 148.691185
_cell_angle_gamma 135.742660
_cell_volume 590.040879
_symmetry_space_group_name_H-M "P -1"
_symmetry_group_IT_number 2
_symmetry_cell_setting 'triclinic'
loop_
_space_group_symop_operation_xyz
x,y,z
-x,-y,-z
loop_
_atom_site_type_symbol
_atom_site_label
_atom_site_fract_x
_atom_site_fract_y
_atom_site_fract_z
Si Si1 0.335439 0.218008 0.678683
Si Si2 0.516192 0.379624 0.356557
Si Si3 0.786470 0.625275 0.690375
Si Si4 0.767755 0.231673 0.753659
Si Si5 0.608215 0.746680 0.961231
Si Si6 0.831790 0.679242 0.872839
Si Si7 0.057813 0.859378 0.530427
O O1 0.419912 0.305299 0.749135
O O2 0.271070 0.553615 0.437239
O O3 0.143367 0.092703 0.646629
O O4 0.508809 0.929132 0.881262
O O5 0.371625 0.323778 0.362504
O O6 0.366163 0.447434 0.178206
O O7 0.726687 0.070693 0.613961
O O8 0.706912 0.461543 0.669641
O O9 0.786935 0.980996 0.495114
O O10 0.031614 0.409466 0.943961
O O11 0.621694 0.006398 0.786058
O O12 0.000000 0.000000 0.000000
O O13 0.500000 0.500000 0.000000
O O14 0.837733 0.527648 0.215302
O O15 0.000000 0.500000 0.000000
O O16 0.000000 0.000000 0.500000
#
# Coordination Sequence:
#
# PCOD8018621 Si02
#       7
#     2   2   2   2   2   2   2
#     4  12  24  39  61  92 132 168 212 255 309 379
#     4  10  22  40  68  95 118 163 218 262 317 377
#     4  11  22  40  63  92 130 166 212 258 315 373
#     4  12  22  38  61  92 128 174 212 253 311 379
#     4  12  24  37  57  86 132 173 208 254 304 374
#     4   9  21  42  69  95 119 154 215 275 318 371
#     4  12  24  40  54  93 136 170 206 255 311 366
#
# _framework density 23.727169
#
# number of rings (size 3 to 8) (size 9 to 14) (size 15 to 20)
#    0.000    0.857    5.714    1.286    2.000    1.143 
#    0.000    0.714    0.000    8.571    0.000    0.000 
#    0.000    0.000    0.000    0.000    0.000    0.000 
#
# Total GULP energy -173491.066626 kJ/mol
# GULP energy per Si atom -12392.219045 kJ/mol
# Density = 2.367316 g / cm^3
# Si number density = 23.727169 Si / 1000 Ang^3
#
#
#
# Elastic Constant Matrix: (Units=GPa)
#
#
# Indices 1 2 3 4 5 6 
#
# 1 35.9134 9.2590 6.2654 -7.2003 10.5982 15.9926
# 2 9.2590 168.9248 9.1639 -19.6030 3.3934 6.2934
# 3 6.2654 9.1639 106.6140 -7.6423 26.5202 0.2375
# 4 -7.2003 -19.6030 -7.6423 34.5827 -2.9995 -3.0188
# 5 10.5982 3.3934 26.5202 -2.9995 40.7888 -3.3596
# 6 15.9926 6.2934 0.2375 -3.0188 -3.3596 34.8693
#
#
#
# Elastic Compliance Matrix: (Units=1/GPa)
#
#
# Indices 1 2 3 4 5 6 
#
# 1 0.041437 -0.000691 0.001238 0.005694 -0.012711 -0.019620
# 2 -0.000691 0.006383 -0.000273 0.003369 0.000029 -0.000539
# 3 0.001238 -0.000273 0.011369 0.001850 -0.007651 -0.001173
# 4 0.005694 0.003369 0.001850 0.032323 -0.000626 -0.000494
# 5 -0.012711 0.000029 -0.007651 -0.000626 0.033491 0.009049
# 6 -0.019620 -0.000539 -0.001173 -0.000494 0.009049 0.038612
#
#
# Mechanical properties :
#
#
# Convention : Reuss Voigt Hill
#
# Bulk Modulus (GPa) = 16.74006 40.09210 28.41608
# Shear Modulus (GPa) = 27.32570 41.16576 34.24573
#
# Velocity S-wave (km/s) = 3.39730 4.16981 3.80322
# Velocity P-wave (km/s) = 4.73913 6.33379 5.59358
#
# Compressibility (1/GPa) = 0.05973693
#
# Stress axis : x y z
#
# Youngs Moduli (GPa) = 24.13316 156.66702 87.96018
#
# Poissons Ratio (x) = 0.10831 -0.10890
# Poissons Ratio (y) = 0.01668 0.02397
# Poissons Ratio (z) = -0.02988 0.04270
#
# Static dielectric constant tensor:
#      x y z
#    x 4.485450 0.148010 0.144440 
#    y 0.148010 5.301060 0.377000 
#    z 0.144440 0.377000 5.096760 
# 
# 
# High freq. dielectric constant tensor:
#      x y z
#    x 1.897460 0.005630 0.030040 
#    y 0.005630 1.963520 0.008080 
#    z 0.030040 0.008080 1.954600 
# 
# From -- ./inp_files/349598.got.cif
#   From: 2010.06.25/outbox.cif.g09.slc.cpg/sg2_175_cif.got.tgz:349598.got - 2010.06.27 13:26:56.
