data_PCOD8018291
_publ_section_title
;
Structure prediction by ZEFSAII (Michael W. Deem and Ramdas Pophale) SiO2 
 PCOD8018291
Probable space group: P -1
;
_chemical_formula_sum "Si O2"
_cell_formula_units_Z 16
_cell_length_a 4.945247
_cell_length_b 9.458225
_cell_length_c 19.512714
_cell_angle_alpha 47.898969
_cell_angle_beta 94.361624
_cell_angle_gamma 88.740793
_cell_volume 671.917545
_symmetry_space_group_name_H-M "P -1"
_symmetry_group_IT_number 2
_symmetry_cell_setting 'triclinic'
loop_
_space_group_symop_operation_xyz
x,y,z
-x,-y,-z
loop_
_atom_site_type_symbol
_atom_site_label
_atom_site_fract_x
_atom_site_fract_y
_atom_site_fract_z
Si Si1 0.248134 0.384295 0.655454
Si Si2 0.758576 0.741178 0.654308
Si Si3 0.723895 0.612644 0.548238
Si Si4 0.464976 0.956329 0.353254
Si Si5 0.097027 0.982026 0.749183
Si Si6 0.284018 0.513096 0.762112
Si Si7 0.451153 0.200408 0.976305
Si Si8 0.026950 0.712170 0.960910
O O1 0.536411 0.449148 0.618250
O O2 0.255629 0.160003 0.718026
O O3 0.181536 0.411467 0.725397
O O4 0.016375 0.508694 0.566260
O O5 0.764534 0.749876 0.569482
O O6 0.575634 0.584149 0.731475
O O7 0.051310 0.688498 0.713479
O O8 0.646950 0.953418 0.606805
O O9 0.602657 0.740272 0.440686
O O10 0.693154 0.089672 0.284985
O O11 0.210034 0.950800 0.299633
O O12 0.100803 0.828201 0.858253
O O13 0.299850 0.362670 0.872694
O O14 0.732751 0.274501 0.983484
O O15 0.250634 0.189449 0.041468
O O16 0.500000 0.000000 0.000000
O O17 0.000000 0.500000 0.000000
#
# Coordination Sequence:
#
# PCOD8018291 Si02
#       8
#     2   2   2   2   2   2   2   2
#     4  10  22  42  64  96 136 169 218 277 340 394
#     4  10  22  40  64  96 131 167 218 281 331 391
#     4  10  22  41  66  96 130 174 220 283 334 380
#     4  12  25  40  66  96 132 179 227 266 329 426
#     4  12  27  43  66  94 137 181 220 274 341 416
#     4  10  22  40  70  95 125 171 224 281 333 401
#     4  12  26  47  78 107 136 187 247 298 350 431
#     4  12  29  49  72 105 152 188 230 303 368 423
#
# _framework density 23.812446999999999
#
# number of rings (size 3 to 8) (size 9 to 14) (size 15 to 20)
#    0.000    1.000    0.000    5.625    5.250    6.000 
#    0.000    5.000    0.000    0.000    0.000    0.000 
#    0.000    0.000    0.000    0.000    0.000    0.000 
#
# Total GULP energy -198400.760362 kJ/mol
# GULP energy per Si atom -12400.047523 kJ/mol
# Density = 2.375825 g / cm^3
# Si number density = 23.812447 Si / 1000 Ang^3
#
#
#
# Elastic Constant Matrix: (Units=GPa)
#
#
# Indices 1 2 3 4 5 6 
#
# 1 115.8731 23.1427 10.5872 9.7160 9.6653 6.9943
# 2 23.1427 102.2218 9.2708 -2.8590 7.6654 7.9663
# 3 10.5872 9.2708 98.4808 1.0147 4.0891 16.9910
# 4 9.7160 -2.8590 1.0147 21.7817 0.4842 -0.7325
# 5 9.6653 7.6654 4.0891 0.4842 43.7662 3.7350
# 6 6.9943 7.9663 16.9910 -0.7325 3.7350 40.3545
#
#
#
# Elastic Compliance Matrix: (Units=1/GPa)
#
#
# Indices 1 2 3 4 5 6 
#
# 1 0.009668 -0.002071 -0.000565 -0.004555 -0.001587 -0.000965
# 2 -0.002071 0.010562 -0.000510 0.002316 -0.001255 -0.001353
# 3 -0.000565 -0.000510 0.011049 -0.000469 -0.000436 -0.004422
# 4 -0.004555 0.002316 -0.000469 0.048315 -0.000011 0.001408
# 5 -0.001587 -0.001255 -0.000436 -0.000011 0.023586 -0.001477
# 6 -0.000965 -0.001353 -0.004422 0.001408 -0.001477 0.027239
#
#
# Mechanical properties :
#
#
# Convention : Reuss Voigt Hill
#
# Bulk Modulus (GPa) = 40.02072 44.73081 42.37576
# Shear Modulus (GPa) = 34.47343 39.41883 36.94613
#
# Velocity S-wave (km/s) = 3.80900 4.07306 3.94324
# Velocity P-wave (km/s) = 6.01563 6.39884 6.21019
#
# Compressibility (1/GPa) = 0.02498706
#
# Stress axis : x y z
#
# Youngs Moduli (GPa) = 103.43521 94.67849 90.50753
#
# Poissons Ratio (x) = 0.19606 0.05115
# Poissons Ratio (y) = 0.21419 0.04616
# Poissons Ratio (z) = 0.05846 0.04828
#
# Static dielectric constant tensor:
#      x y z
#    x 4.855290 -0.147700 -0.064230 
#    y -0.147700 4.518950 0.259940 
#    z -0.064230 0.259940 4.087910 
# 
# 
# High freq. dielectric constant tensor:
#      x y z
#    x 1.964630 -0.003390 0.002110 
#    y -0.003390 1.961130 0.012080 
#    z 0.002110 0.012080 1.934430 
# 
# From -- ./inp_files/547788.got.cif
#   From: 2010.06.25/outbox.cif.g09.slc.cpg/sg2_274_cif.got.tgz:547788.got - 2010.06.27 13:26:56.
