data_PCOD8018260
_publ_section_title
;
Structure prediction by ZEFSAII (Michael W. Deem and Ramdas Pophale) SiO2 
 PCOD8018260
Probable space group: P -1
;
_chemical_formula_sum "Si O2"
_cell_formula_units_Z 16
_cell_length_a 13.475395
_cell_length_b 8.357426
_cell_length_c 14.200660
_cell_angle_alpha 30.001457
_cell_angle_beta 115.625641
_cell_angle_gamma 105.856046
_cell_volume 702.571409
_symmetry_space_group_name_H-M "P -1"
_symmetry_group_IT_number 2
_symmetry_cell_setting 'triclinic'
loop_
_space_group_symop_operation_xyz
x,y,z
-x,-y,-z
loop_
_atom_site_type_symbol
_atom_site_label
_atom_site_fract_x
_atom_site_fract_y
_atom_site_fract_z
Si Si1 0.260460 0.864440 0.556884
Si Si2 0.986562 0.874024 0.195119
Si Si3 0.788402 0.309702 0.184605
Si Si4 0.601634 0.313660 0.574686
Si Si5 0.557384 0.622136 0.213400
Si Si6 0.362670 0.292423 0.232230
Si Si7 0.997991 0.136643 0.579515
Si Si8 0.822910 0.981283 0.915635
O O1 0.268474 0.905874 0.653713
O O2 0.338873 0.499090 0.754152
O O3 0.130491 0.891213 0.464066
O O4 0.300990 0.137292 0.370279
O O5 0.012299 0.492036 0.372557
O O6 0.956505 0.937142 0.258519
O O7 0.878912 0.062758 0.994183
O O8 0.095198 0.013794 0.142375
O O9 0.720083 0.401086 0.011975
O O10 0.793478 0.628368 0.085427
O O11 0.918311 0.127263 0.314764
O O12 0.500000 0.500000 0.500000
O O13 0.614493 0.555396 0.372716
O O14 0.588377 0.971375 0.695239
O O15 0.710268 0.260988 0.712971
O O16 0.464289 0.411505 0.262360
O O17 0.500000 0.000000 0.000000
#
# Coordination Sequence:
#
# PCOD8018260 Si02
#       8
#     2   2   2   2   2   2   2   2
#     4  11  23  45  70  94 142 175 224 287 332 411
#     4  10  22  40  64  92 143 171 222 277 325 400
#     4  11  24  43  70  99 136 178 227 271 341 406
#     4  10  22  42  69  96 134 175 225 283 332 398
#     4  11  26  47  71  99 132 178 227 285 350 405
#     4  10  25  48  67  99 137 177 231 280 344 410
#     4  11  23  41  65 101 133 180 223 274 336 399
#     4  10  22  42  62  97 135 178 221 272 335 399
#
# _framework density 22.773486999999999
#
# number of rings (size 3 to 8) (size 9 to 14) (size 15 to 20)
#    0.000    1.500    1.250    4.125    3.500    6.500 
#    9.000    0.000    0.000    0.000    0.000    0.000 
#    0.000    0.000    0.000    0.000    0.000    0.000 
#
# Total GULP energy -198304.892479 kJ/mol
# GULP energy per Si atom -12394.055780 kJ/mol
# Density = 2.272165 g / cm^3
# Si number density = 22.773487 Si / 1000 Ang^3
#
#
#
# Elastic Constant Matrix: (Units=GPa)
#
#
# Indices 1 2 3 4 5 6 
#
# 1 141.4064 49.6711 70.3620 11.1974 17.7226 -15.5827
# 2 49.6711 50.9245 54.5897 12.9177 5.0219 -6.2056
# 3 70.3620 54.5897 141.6287 24.4314 17.6065 -12.7486
# 4 11.1974 12.9177 24.4314 32.8062 0.0604 0.4516
# 5 17.7226 5.0219 17.6065 0.0604 47.2541 1.3082
# 6 -15.5827 -6.2056 -12.7486 0.4516 1.3082 24.6346
#
#
#
# Elastic Compliance Matrix: (Units=1/GPa)
#
#
# Indices 1 2 3 4 5 6 
#
# 1 0.011972 -0.009107 -0.001798 0.000782 -0.002978 0.004492
# 2 -0.009107 0.041045 -0.010953 -0.004887 0.003173 -0.001168
# 3 -0.001798 -0.010953 0.013858 -0.005437 -0.003417 0.003557
# 4 0.000782 -0.004887 -0.005437 0.036243 0.002325 -0.004338
# 5 -0.002978 0.003173 -0.003417 0.002325 0.023326 -0.004134
# 6 0.004492 -0.001168 0.003557 -0.004338 -0.004134 0.045280
#
#
# Mechanical properties :
#
#
# Convention : Reuss Voigt Hill
#
# Bulk Modulus (GPa) = 43.17839 75.91169 59.54504
# Shear Modulus (GPa) = 22.40540 31.56144 26.98342
#
# Velocity S-wave (km/s) = 3.14002 3.72679 3.44592
# Velocity P-wave (km/s) = 5.66987 7.20585 6.48351
#
# Compressibility (1/GPa) = 0.02315973
#
# Stress axis : x y z
#
# Youngs Moduli (GPa) = 83.53065 24.36327 72.15918
#
# Poissons Ratio (x) = 0.22188 0.12972
# Poissons Ratio (y) = 0.76074 0.79034
# Poissons Ratio (z) = 0.15016 0.26684
#
# Static dielectric constant tensor:
#      x y z
#    x 4.109050 -0.039910 0.009200 
#    y -0.039910 3.896310 0.363200 
#    z 0.009200 0.363200 4.557310 
# 
# 
# High freq. dielectric constant tensor:
#      x y z
#    x 1.897640 -0.006590 0.004670 
#    y -0.006590 1.885460 0.023920 
#    z 0.004670 0.023920 1.918270 
# 
# From -- ./inp_files/514841.got.cif
#   From: 2010.06.25/outbox.cif.g09.slc.cpg/sg2_258_cif.got.tgz:514841.got - 2010.06.27 13:26:56.
