data_PCOD8018529
_publ_section_title
;
Structure prediction by ZEFSAII (Michael W. Deem and Ramdas Pophale) SiO2 
 PCOD8018529
Probable space group: P -1
;
_chemical_formula_sum "Si O2"
_cell_formula_units_Z 16
_cell_length_a 24.099033
_cell_length_b 17.135502
_cell_length_c 9.543436
_cell_angle_alpha 135.970229
_cell_angle_beta 43.585279
_cell_angle_gamma 163.096819
_cell_volume 783.355507
_symmetry_space_group_name_H-M "P -1"
_symmetry_group_IT_number 2
_symmetry_cell_setting 'triclinic'
loop_
_space_group_symop_operation_xyz
x,y,z
-x,-y,-z
loop_
_atom_site_type_symbol
_atom_site_label
_atom_site_fract_x
_atom_site_fract_y
_atom_site_fract_z
Si Si1 0.501639 0.028230 0.194806
Si Si2 0.542200 0.556205 0.835401
Si Si3 0.064746 0.459861 0.868718
Si Si4 0.876384 0.118541 0.034978
Si Si5 0.190748 0.456427 0.113836
Si Si6 0.918509 0.150393 0.469490
Si Si7 0.638083 0.897830 0.444241
Si Si8 0.787282 0.753748 0.133198
O O1 0.704370 0.257848 0.192824
O O2 0.460267 0.106932 0.387474
O O3 0.342740 0.749389 0.199908
O O4 0.500000 0.000000 0.000000
O O5 0.522929 0.403447 0.618725
O O6 0.378282 0.431405 0.915803
O O7 0.500000 0.500000 0.000000
O O8 0.758315 0.881399 0.844842
O O9 0.977338 0.265342 0.662920
O O10 0.000000 0.500000 0.000000
O O11 0.987499 0.341225 0.013522
O O12 0.030867 0.251186 0.019707
O O13 0.737807 0.010803 0.255239
O O14 0.103587 0.359959 0.303920
O O15 0.284756 0.450760 0.919794
O O16 0.791740 0.082626 0.529610
O O17 0.801918 0.885639 0.370176
O O18 0.000000 0.000000 0.000000
#
# Coordination Sequence:
#
# PCOD8018529 Si02
#       8
#     2   2   2   2   2   2   2   2
#     4  12  25  43  62  92 125 166 212 255 310 368
#     4   9  18  37  66  94 121 162 208 253 304 365
#     4  12  27  42  60  92 133 159 205 268 312 361
#     4  10  22  42  65  93 123 169 205 253 315 365
#     4  10  22  40  67  90 125 170 208 249 310 376
#     4   9  21  41  64  93 123 163 204 258 311 363
#     4   9  21  42  69  88 122 167 209 246 306 384
#     4   9  18  37  63  94 125 157 208 257 300 364
#
# _framework density 20.424952999999999
#
# number of rings (size 3 to 8) (size 9 to 14) (size 15 to 20)
#    0.000    2.000    1.250    3.000    3.500    6.500 
#    2.250    2.500    0.000    0.000    0.000    0.000 
#    0.000    0.000    0.000    0.000    0.000    0.000 
#
# Total GULP energy -198275.088634 kJ/mol
# GULP energy per Si atom -12392.193040 kJ/mol
# Density = 2.037846 g / cm^3
# Si number density = 20.424953 Si / 1000 Ang^3
#
#
#
# Elastic Constant Matrix: (Units=GPa)
#
#
# Indices 1 2 3 4 5 6 
#
# 1 127.1258 37.2781 66.8928 7.2637 -31.7550 10.8976
# 2 37.2781 89.0218 31.7760 12.7247 -21.1171 15.8890
# 3 66.8928 31.7760 95.3149 13.1138 -12.6766 10.5220
# 4 7.2637 12.7247 13.1138 23.5524 -3.4158 6.2531
# 5 -31.7550 -21.1171 -12.6766 -3.4158 46.7733 4.4186
# 6 10.8976 15.8890 10.5220 6.2531 4.4186 37.7366
#
#
#
# Elastic Compliance Matrix: (Units=1/GPa)
#
#
# Indices 1 2 3 4 5 6 
#
# 1 0.015056 -0.001115 -0.009285 0.002952 0.007670 -0.002677
# 2 -0.001115 0.015552 -0.002416 -0.004411 0.005807 -0.005502
# 3 -0.009285 -0.002416 0.018315 -0.006450 -0.002902 0.000000
# 4 0.002952 -0.004411 -0.006450 0.049374 0.002405 -0.005660
# 5 0.007670 0.005807 -0.002902 0.002405 0.029324 -0.007683
# 6 -0.002677 -0.005502 0.000000 -0.005660 -0.007683 0.031426
#
#
# Mechanical properties :
#
#
# Convention : Reuss Voigt Hill
#
# Bulk Modulus (GPa) = 42.93497 64.81737 53.87617
# Shear Modulus (GPa) = 25.98186 33.31351 29.64769
#
# Velocity S-wave (km/s) = 3.57047 4.04297 3.81404
# Velocity P-wave (km/s) = 6.16962 7.32103 6.76984
#
# Compressibility (1/GPa) = 0.02329104
#
# Stress axis : x y z
#
# Youngs Moduli (GPa) = 66.42061 64.29836 54.60148
#
# Poissons Ratio (x) = 0.07170 0.50697
# Poissons Ratio (y) = 0.07407 0.13190
# Poissons Ratio (z) = 0.61671 0.15532
#
# Static dielectric constant tensor:
#      x y z
#    x 3.840350 -0.062970 -0.047590 
#    y -0.062970 4.322750 -0.582300 
#    z -0.047590 -0.582300 4.307800 
# 
# 
# High freq. dielectric constant tensor:
#      x y z
#    x 1.811580 0.001760 -0.005460 
#    y 0.001760 1.800440 0.020280 
#    z -0.005460 0.020280 1.784770 
# 
# From -- ./inp_files/176684.got.cif
#   From: 2010.06.25/outbox.cif.g09.slc.cpg/sg2_89_cif.got.tgz:176684.got - 2010.06.27 13:26:56.
