data_PCOD8018842
_publ_section_title
;
Structure prediction by ZEFSAII (Michael W. Deem and Ramdas Pophale) SiO2 
 PCOD8018842
Probable space group: P -1
;
_chemical_formula_sum "Si O2"
_cell_formula_units_Z 14
_cell_length_a 9.416587
_cell_length_b 12.493767
_cell_length_c 18.291506
_cell_angle_alpha 18.969921
_cell_angle_beta 70.295937
_cell_angle_gamma 71.108538
_cell_volume 658.498881
_symmetry_space_group_name_H-M "P -1"
_symmetry_group_IT_number 2
_symmetry_cell_setting 'triclinic'
loop_
_space_group_symop_operation_xyz
x,y,z
-x,-y,-z
loop_
_atom_site_type_symbol
_atom_site_label
_atom_site_fract_x
_atom_site_fract_y
_atom_site_fract_z
Si Si1 0.339882 0.851418 0.604733
Si Si2 0.218139 0.169113 0.550843
Si Si3 0.560883 0.811378 0.181379
Si Si4 0.651914 0.881832 0.867822
Si Si5 0.946568 0.145404 0.709011
Si Si6 0.457463 0.904028 0.397802
Si Si7 0.863035 0.063776 0.930601
O O1 0.331611 0.882214 0.498154
O O2 0.500000 0.000000 0.500000
O O3 0.212112 0.062310 0.535024
O O4 0.316157 0.475826 0.874065
O O5 0.375289 0.014365 0.654702
O O6 0.203328 0.563621 0.301868
O O7 0.082952 0.002003 0.728076
O O8 0.516952 0.435351 0.430147
O O9 0.495628 0.969132 0.164079
O O10 0.500000 0.000000 0.000000
O O11 0.740265 0.830026 0.137904
O O12 0.793864 0.125782 0.699298
O O13 0.609809 0.842660 0.814501
O O14 0.911444 0.938934 0.921817
O O15 0.000000 0.500000 0.500000
O O16 0.000000 0.000000 0.000000
#
# Coordination Sequence:
#
# PCOD8018842 Si02
#       7
#     2   2   2   2   2   2   2
#     4  10  22  44  65  90 132 166 214 265 311 377
#     4  10  22  42  60  89 131 166 206 262 317 375
#     4  12  19  39  63  89 126 161 206 265 320 360
#     4  12  24  40  68  97 126 166 217 262 318 378
#     4  10  22  41  59  91 132 158 205 265 316 375
#     4  11  23  39  68  97 122 167 216 263 314 380
#     4  11  23  37  63  92 122 165 208 261 323 372
#
# _framework density 21.260475
#
# number of rings (size 3 to 8) (size 9 to 14) (size 15 to 20)
#    0.000    1.143    4.286    2.143    6.000    2.857 
#    2.571    0.714    0.000    0.000    0.000    0.000 
#    0.000    0.000    0.000    0.000    0.000    0.000 
#
# Total GULP energy -173485.617469 kJ/mol
# GULP energy per Si atom -12391.829819 kJ/mol
# Density = 2.121209 g / cm^3
# Si number density = 21.260475 Si / 1000 Ang^3
#
#
#
# Elastic Constant Matrix: (Units=GPa)
#
#
# Indices 1 2 3 4 5 6 
#
# 1 120.3785 37.7699 14.1573 24.5341 -5.3642 -4.1357
# 2 37.7699 176.9491 29.9327 28.6318 8.9325 -18.7649
# 3 14.1573 29.9327 50.2985 14.5043 -12.3618 -0.9882
# 4 24.5341 28.6318 14.5043 33.1822 6.4511 -0.7870
# 5 -5.3642 8.9325 -12.3618 6.4511 25.4703 12.7313
# 6 -4.1357 -18.7649 -0.9882 -0.7870 12.7313 38.1020
#
#
#
# Elastic Compliance Matrix: (Units=1/GPa)
#
#
# Indices 1 2 3 4 5 6 
#
# 1 0.010676 -0.001910 0.002516 -0.008882 0.007610 -0.002443
# 2 -0.001910 0.008599 -0.006581 -0.001031 -0.009926 0.007152
# 3 0.002516 -0.006581 0.035753 -0.018183 0.031217 -0.012847
# 4 -0.008882 -0.001031 -0.018183 0.051065 -0.027400 0.008267
# 5 0.007610 -0.009926 0.031217 -0.027400 0.082048 -0.031234
# 6 -0.002443 0.007152 -0.012847 0.008267 -0.031234 0.039776
#
#
# Mechanical properties :
#
#
# Convention : Reuss Voigt Hill
#
# Bulk Modulus (GPa) = 23.21462 56.81619 40.01540
# Shear Modulus (GPa) = 19.66744 37.06863 28.36804
#
# Velocity S-wave (km/s) = 3.04480 4.18011 3.65678
# Velocity P-wave (km/s) = 4.82741 7.07670 6.05737
#
# Compressibility (1/GPa) = 0.04307631
#
# Stress axis : x y z
#
# Youngs Moduli (GPa) = 93.66647 116.29680 27.96981
#
# Poissons Ratio (x) = 0.22217 -0.07036
# Poissons Ratio (y) = 0.17894 0.18407
# Poissons Ratio (z) = -0.23563 0.76535
#
# Static dielectric constant tensor:
#      x y z
#    x 3.365540 -0.419530 -0.858760 
#    y -0.419530 4.436220 -0.224010 
#    z -0.858760 -0.224010 2.472450 
# 
# 
# High freq. dielectric constant tensor:
#      x y z
#    x 1.816820 -0.000880 -0.018950 
#    y -0.000880 1.857000 0.015670 
#    z -0.018950 0.015670 1.813190 
# 
# From -- ./inp_files/176590.got.cif
#   From: 2010.06.25/outbox.cif.g09.slc.cpg/sg2_89_cif.got.tgz:176590.got - 2010.06.27 13:26:56.
