data_PCOD8018093
_publ_section_title
;
Structure prediction by ZEFSAII (Michael W. Deem and Ramdas Pophale) SiO2 
 PCOD8018093
Probable space group: P -1
;
_chemical_formula_sum "Si O2"
_cell_formula_units_Z 16
_cell_length_a 6.776468
_cell_length_b 14.450748
_cell_length_c 23.929139
_cell_angle_alpha 160.652257
_cell_angle_beta 74.897886
_cell_angle_gamma 102.851454
_cell_volume 747.503654
_symmetry_space_group_name_H-M "P -1"
_symmetry_group_IT_number 2
_symmetry_cell_setting 'triclinic'
loop_
_space_group_symop_operation_xyz
x,y,z
-x,-y,-z
loop_
_atom_site_type_symbol
_atom_site_label
_atom_site_fract_x
_atom_site_fract_y
_atom_site_fract_z
Si Si1 0.269530 0.252625 0.399812
Si Si2 0.002001 0.609289 0.331929
Si Si3 0.607351 0.489606 0.897457
Si Si4 0.180419 0.094416 0.957209
Si Si5 0.062939 0.391140 0.323146
Si Si6 0.301911 0.986477 0.469308
Si Si7 0.472257 0.358153 0.331857
Si Si8 0.212497 0.632998 0.066841
O O1 0.366242 0.211541 0.308096
O O2 0.438671 0.355347 0.489736
O O3 0.075077 0.481032 0.542626
O O4 0.184018 0.966345 0.263126
O O5 0.983575 0.572161 0.378234
O O6 0.139566 0.864240 0.453550
O O7 0.105500 0.312106 0.134367
O O8 0.783186 0.706431 0.373507
O O9 0.654789 0.210864 0.699640
O O10 0.696021 0.478416 0.945845
O O11 0.715604 0.749245 0.011465
O O12 0.361533 0.545475 0.953564
O O13 0.349672 0.853026 0.828807
O O14 0.980070 0.937503 0.864251
O O15 0.302921 0.425073 0.334593
O O16 0.500000 0.000000 0.500000
O O17 0.000000 0.500000 0.000000
#
# Coordination Sequence:
#
# PCOD8018093 Si02
#       8
#     2   2   2   2   2   2   2   2
#     4  10  22  41  58  92 127 160 219 265 313 380
#     4  10  23  41  60  99 125 157 220 262 306 383
#     4  10  23  41  60  95 126 164 215 264 318 385
#     4  10  22  40  62  89 134 163 211 269 310 382
#     4  11  23  37  67  92 124 172 212 264 314 379
#     4  10  23  43  69  87 127 173 205 265 327 378
#     4  10  22  40  63  87 127 174 208 263 320 371
#     4  11  24  39  66  93 129 167 208 268 322 383
#
# _framework density 21.404575999999999
#
# number of rings (size 3 to 8) (size 9 to 14) (size 15 to 20)
#    0.000    1.750    1.250    1.500    1.750   11.500 
#    0.000    0.000    0.000    0.000    0.000    0.000 
#    0.000    0.000    0.000    0.000    0.000    0.000 
#
# Total GULP energy -198356.693551 kJ/mol
# GULP energy per Si atom -12397.293347 kJ/mol
# Density = 2.135586 g / cm^3
# Si number density = 21.404576 Si / 1000 Ang^3
#
#
#
# Elastic Constant Matrix: (Units=GPa)
#
#
# Indices 1 2 3 4 5 6 
#
# 1 127.4002 40.6545 49.4347 2.9862 10.8835 -14.1015
# 2 40.6545 75.3235 35.4294 1.6787 5.3245 -2.1290
# 3 49.4347 35.4294 91.6307 10.9623 -2.8227 1.0098
# 4 2.9862 1.6787 10.9623 28.5313 10.0726 -0.6750
# 5 10.8835 5.3245 -2.8227 10.0726 32.9121 3.9423
# 6 -14.1015 -2.1290 1.0098 -0.6750 3.9423 32.1460
#
#
#
# Elastic Compliance Matrix: (Units=1/GPa)
#
#
# Indices 1 2 3 4 5 6 
#
# 1 0.012357 -0.003313 -0.006046 0.003440 -0.005862 0.006182
# 2 -0.003313 0.017822 -0.005501 0.002501 -0.003064 0.000328
# 3 -0.006046 -0.005501 0.017617 -0.008604 0.007594 -0.004682
# 4 0.003440 0.002501 -0.008604 0.043694 -0.016234 0.004853
# 5 -0.005862 -0.003064 0.007594 -0.016234 0.039418 -0.008188
# 6 0.006182 0.000328 -0.004682 0.004853 -0.008188 0.035095
#
#
# Mechanical properties :
#
#
# Convention : Reuss Voigt Hill
#
# Bulk Modulus (GPa) = 55.32135 60.59909 57.96022
# Shear Modulus (GPa) = 24.78350 29.97361 27.37856
#
# Velocity S-wave (km/s) = 3.40643 3.74617 3.58033
# Velocity P-wave (km/s) = 6.43221 6.86181 6.65048
#
# Compressibility (1/GPa) = 0.01807620
#
# Stress axis : x y z
#
# Youngs Moduli (GPa) = 80.92615 56.11129 56.76414
#
# Poissons Ratio (x) = 0.18591 0.34318
# Poissons Ratio (y) = 0.26813 0.31223
# Poissons Ratio (z) = 0.48926 0.30864
#
# Static dielectric constant tensor:
#      x y z
#    x 4.090830 0.217740 -0.230640 
#    y 0.217740 3.776520 -0.013440 
#    z -0.230640 -0.013440 3.848110 
# 
# 
# High freq. dielectric constant tensor:
#      x y z
#    x 1.842500 0.016510 -0.008800 
#    y 0.016510 1.836320 0.003070 
#    z -0.008800 0.003070 1.842130 
# 
# From -- ./inp_files/77937.got.cif
#   From: 2010.06.25/outbox.cif.g09.slc.cpg/sg2_39_cif.got.tgz:77937.got - 2010.06.27 13:26:56.
