data_PCOD8018443
_publ_section_title
;
Structure prediction by ZEFSAII (Michael W. Deem and Ramdas Pophale) SiO2 
 PCOD8018443
Probable space group: P -1
;
_chemical_formula_sum "Si O2"
_cell_formula_units_Z 14
_cell_length_a 12.982080
_cell_length_b 6.806324
_cell_length_c 20.821332
_cell_angle_alpha 65.146146
_cell_angle_beta 21.978059
_cell_angle_gamma 63.385219
_cell_volume 615.515847
_symmetry_space_group_name_H-M "P -1"
_symmetry_group_IT_number 2
_symmetry_cell_setting 'triclinic'
loop_
_space_group_symop_operation_xyz
x,y,z
-x,-y,-z
loop_
_atom_site_type_symbol
_atom_site_label
_atom_site_fract_x
_atom_site_fract_y
_atom_site_fract_z
Si Si1 0.689847 0.177176 0.669894
Si Si2 0.296242 0.588201 0.866066
Si Si3 0.192991 0.549209 0.200565
Si Si4 0.797612 0.014480 0.357571
Si Si5 0.198700 0.586150 0.779153
Si Si6 0.245645 0.294470 0.327677
Si Si7 0.260463 0.728014 0.518883
O O1 0.406941 0.325705 0.835310
O O2 0.729814 0.168891 0.571077
O O3 0.945619 0.287885 0.536538
O O4 0.690544 0.925818 0.724211
O O5 0.262130 0.677043 0.800886
O O6 0.505631 0.719691 0.762951
O O7 0.006186 0.595753 0.070824
O O8 0.226225 0.506258 0.263964
O O9 0.028606 0.794870 0.249471
O O10 0.014035 0.380197 0.296270
O O11 0.500000 0.500000 0.000000
O O12 0.500000 0.000000 0.500000
O O13 0.928239 0.204339 0.219144
O O14 0.740333 0.078556 0.456105
O O15 0.473758 0.465996 0.600360
#
# Coordination Sequence:
#
# PCOD8018443 Si02
#       7
#     2   2   2   2   2   2   2
#     4   9  21  40  65  98 126 172 218 272 332 392
#     4  10  22  41  67  97 133 167 221 283 324 384
#     4  11  27  44  66 103 134 172 225 273 332 396
#     4  12  26  43  72  94 131 189 217 265 337 396
#     4  10  23  44  65 101 133 174 226 268 328 402
#     4  10  22  40  66  93 133 173 215 277 332 387
#     4  10  23  45  66  96 136 169 223 274 322 398
#
# _framework density 22.745149999999999
#
# number of rings (size 3 to 8) (size 9 to 14) (size 15 to 20)
#    0.000    1.714    1.429    0.857    6.000    4.000 
#    0.000    2.143    0.000    0.000    0.000    0.000 
#    0.000    0.000    0.000    0.000    0.000    0.000 
#
# Total GULP energy -173549.760957 kJ/mol
# GULP energy per Si atom -12396.411497 kJ/mol
# Density = 2.269338 g / cm^3
# Si number density = 22.745150 Si / 1000 Ang^3
#
#
#
# Elastic Constant Matrix: (Units=GPa)
#
#
# Indices 1 2 3 4 5 6 
#
# 1 93.9152 31.7868 41.1366 -8.1486 -19.5138 12.1679
# 2 31.7868 80.1170 36.3027 9.0765 -4.2950 -15.9885
# 3 41.1366 36.3027 127.6266 8.2618 -14.5542 9.6752
# 4 -8.1486 9.0765 8.2618 28.6233 1.7379 -8.2946
# 5 -19.5138 -4.2950 -14.5542 1.7379 30.2499 -4.4750
# 6 12.1679 -15.9885 9.6752 -8.2946 -4.4750 40.5248
#
#
#
# Elastic Compliance Matrix: (Units=1/GPa)
#
#
# Indices 1 2 3 4 5 6 
#
# 1 0.016799 -0.006732 -0.002629 0.005751 0.007537 -0.005063
# 2 -0.006732 0.019202 -0.003972 -0.003985 -0.001889 0.009521
# 3 -0.002629 -0.003972 0.010636 -0.003819 0.002512 -0.003821
# 4 0.005751 -0.003985 -0.003819 0.040664 -0.000154 0.005919
# 5 0.007537 -0.001889 0.002512 -0.000154 0.038967 0.000663
# 6 -0.005063 0.009521 -0.003821 0.005919 0.000663 0.032150
#
#
# Mechanical properties :
#
#
# Convention : Reuss Voigt Hill
#
# Bulk Modulus (GPa) = 50.06815 57.79013 53.92914
# Shear Modulus (GPa) = 26.07705 32.70845 29.39275
#
# Velocity S-wave (km/s) = 3.38966 3.79626 3.59871
# Velocity P-wave (km/s) = 6.11393 6.68419 6.40541
#
# Compressibility (1/GPa) = 0.01997278
#
# Stress axis : x y z
#
# Youngs Moduli (GPa) = 59.52833 52.07659 94.02351
#
# Poissons Ratio (x) = 0.35056 0.24717
# Poissons Ratio (y) = 0.40073 0.37342
# Poissons Ratio (z) = 0.15649 0.20683
#
# Static dielectric constant tensor:
#      x y z
#    x 4.143370 -0.171320 -0.230260 
#    y -0.171320 4.020190 0.016500 
#    z -0.230260 0.016500 4.017440 
# 
# 
# High freq. dielectric constant tensor:
#      x y z
#    x 1.897930 -0.011030 -0.015290 
#    y -0.011030 1.892140 -0.000680 
#    z -0.015290 -0.000680 1.895010 
# 
# From -- ./inp_files/611148.got.cif
#   From: 2010.06.25/outbox.cif.g09.slc.cpg/sg2_306_cif.got.tgz:611148.got - 2010.06.27 13:26:56.
