data_PCOD8018391
_publ_section_title
;
Structure prediction by ZEFSAII (Michael W. Deem and Ramdas Pophale) SiO2 
 PCOD8018391
Probable space group: P -1
;
_chemical_formula_sum "Si O2"
_cell_formula_units_Z 14
_cell_length_a 6.015217
_cell_length_b 13.101048
_cell_length_c 12.645249
_cell_angle_alpha 45.119893
_cell_angle_beta 63.606838
_cell_angle_gamma 78.599110
_cell_volume 621.862400
_symmetry_space_group_name_H-M "P -1"
_symmetry_group_IT_number 2
_symmetry_cell_setting 'triclinic'
loop_
_space_group_symop_operation_xyz
x,y,z
-x,-y,-z
loop_
_atom_site_type_symbol
_atom_site_label
_atom_site_fract_x
_atom_site_fract_y
_atom_site_fract_z
Si Si1 0.954282 0.824666 0.373427
Si Si2 0.406594 0.285817 0.163538
Si Si3 0.098748 0.858055 0.543877
Si Si4 0.715511 0.654893 0.084861
Si Si5 0.650470 0.154722 0.896415
Si Si6 0.208448 0.877252 0.872654
Si Si7 0.550330 0.340828 0.315383
O O1 0.731021 0.692870 0.550611
O O2 0.139270 0.869111 0.401432
O O3 0.123675 0.775921 0.280425
O O4 0.847613 0.966478 0.257509
O O5 0.522954 0.136902 0.227640
O O6 0.565774 0.375604 0.159871
O O7 0.128682 0.268127 0.281357
O O8 0.411254 0.359534 0.994315
O O9 0.342471 0.809882 0.579435
O O10 0.000000 0.000000 0.500000
O O11 0.542215 0.732044 0.142274
O O12 0.702983 0.482895 0.242166
O O13 0.998888 0.745301 0.965244
O O14 0.780008 0.136020 0.994309
O O15 0.500000 0.000000 0.000000
#
# Coordination Sequence:
#
# PCOD8018391 Si02
#       7
#     2   2   2   2   2   2   2
#     4  11  24  41  65  96 129 169 216 264 322 381
#     4  10  22  40  65  96 131 171 214 259 317 389
#     4  11  23  39  64  95 134 170 213 263 320 381
#     4  11  24  42  66  98 130 170 217 266 319 380
#     4  11  25  43  71  95 124 166 225 272 314 380
#     4  11  23  41  71  96 125 170 222 264 319 379
#     4  11  25  41  64  97 138 171 205 266 329 378
#
# _framework density 22.513020000000001
#
# number of rings (size 3 to 8) (size 9 to 14) (size 15 to 20)
#    0.000    1.143    1.429    4.286    4.000    9.714 
#    0.000    1.429    0.000    0.000    0.000    0.000 
#    0.000    0.000    0.000    0.000    0.000    0.000 
#
# Total GULP energy -173474.076850 kJ/mol
# GULP energy per Si atom -12391.005489 kJ/mol
# Density = 2.246178 g / cm^3
# Si number density = 22.513020 Si / 1000 Ang^3
#
#
#
# Elastic Constant Matrix: (Units=GPa)
#
#
# Indices 1 2 3 4 5 6 
#
# 1 78.6861 27.6743 15.1424 14.2921 10.7161 -0.0604
# 2 27.6743 107.8392 41.5035 10.1267 5.2788 1.9498
# 3 15.1424 41.5035 56.2697 20.5601 -3.8644 -0.5865
# 4 14.2921 10.1267 20.5601 48.7020 -2.4519 -4.6141
# 5 10.7161 5.2788 -3.8644 -2.4519 24.3373 8.3322
# 6 -0.0604 1.9498 -0.5865 -4.6141 8.3322 31.3338
#
#
#
# Elastic Compliance Matrix: (Units=1/GPa)
#
#
# Indices 1 2 3 4 5 6 
#
# 1 0.015628 -0.002853 -0.001244 -0.003687 -0.007380 0.001604
# 2 -0.002853 0.014049 -0.010644 0.002256 -0.003298 0.000130
# 3 -0.001244 -0.010644 0.030079 -0.009957 0.007385 -0.002207
# 4 -0.003687 0.002256 -0.009957 0.025703 0.001057 0.003170
# 5 -0.007380 -0.003298 0.007385 0.001057 0.050792 -0.013021
# 6 0.001604 0.000130 -0.002207 0.003170 -0.013021 0.035798
#
#
# Mechanical properties :
#
#
# Convention : Reuss Voigt Hill
#
# Bulk Modulus (GPa) = 33.03128 45.71504 39.37316
# Shear Modulus (GPa) = 23.62706 31.43960 27.53333
#
# Velocity S-wave (km/s) = 3.24309 3.74104 3.50093
# Velocity P-wave (km/s) = 5.35980 6.24585 5.81971
#
# Compressibility (1/GPa) = 0.03027433
#
# Stress axis : x y z
#
# Youngs Moduli (GPa) = 63.98899 71.17952 33.24530
#
# Poissons Ratio (x) = 0.20309 0.04135
# Poissons Ratio (y) = 0.18258 0.35386
# Poissons Ratio (z) = 0.07959 0.75762
#
# Static dielectric constant tensor:
#      x y z
#    x 4.361050 -0.064480 -0.051040 
#    y -0.064480 4.157960 0.268940 
#    z -0.051040 0.268940 3.996460 
# 
# 
# High freq. dielectric constant tensor:
#      x y z
#    x 1.893950 -0.005410 0.000310 
#    y -0.005410 1.890840 0.009750 
#    z 0.000310 0.009750 1.877360 
# 
# From -- ./inp_files/59751.got.cif
#   From: 2010.06.25/outbox.cif.g09.slc.cpg/sg2_30_cif.got.tgz:59751.got - 2010.06.27 13:26:56.
