data_PCOD8018100
_publ_section_title
;
Structure prediction by ZEFSAII (Michael W. Deem and Ramdas Pophale) SiO2 
 PCOD8018100
Probable space group: P -1
;
_chemical_formula_sum "Si O2"
_cell_formula_units_Z 14
_cell_length_a 16.847980
_cell_length_b 5.426487
_cell_length_c 7.926407
_cell_angle_alpha 59.957399
_cell_angle_beta 86.951144
_cell_angle_gamma 78.841663
_cell_volume 614.643029
_symmetry_space_group_name_H-M "P -1"
_symmetry_group_IT_number 2
_symmetry_cell_setting 'triclinic'
loop_
_space_group_symop_operation_xyz
x,y,z
-x,-y,-z
loop_
_atom_site_type_symbol
_atom_site_label
_atom_site_fract_x
_atom_site_fract_y
_atom_site_fract_z
Si Si1 0.176264 0.309034 0.540974
Si Si2 0.906271 0.492470 0.013789
Si Si3 0.477471 0.308685 0.215717
Si Si4 0.429160 0.761348 0.457865
Si Si5 0.094362 0.864934 0.538650
Si Si6 0.312842 0.586727 0.315133
Si Si7 0.825630 0.052164 0.992519
O O1 0.125793 0.644569 0.454996
O O2 0.265627 0.331669 0.458703
O O3 0.136794 0.146006 0.451610
O O4 0.180259 0.124619 0.774874
O O5 0.882096 0.331146 0.234481
O O6 0.877095 0.312515 0.922436
O O7 0.864558 0.832491 0.914012
O O8 0.000000 0.500000 0.000000
O O9 0.558654 0.191733 0.359133
O O10 0.401505 0.484016 0.266045
O O11 0.446937 0.026092 0.248892
O O12 0.500000 0.500000 0.000000
O O13 0.500000 0.500000 0.500000
O O14 0.336270 0.730446 0.439335
O O15 0.000000 0.000000 0.500000
O O16 0.263224 0.807814 0.110847
#
# Coordination Sequence:
#
# PCOD8018100 Si02
#       7
#     2   2   2   2   2   2   2
#     4  10  24  41  60  97 134 169 226 280 333 398
#     4  10  22  40  62  90 130 172 225 279 331 403
#     4  10  23  44  70 101 133 175 224 273 345 414
#     4   9  22  43  65  99 132 172 223 267 345 411
#     4  10  22  40  64  90 126 177 223 277 337 394
#     4  11  25  39  70  94 133 177 219 280 340 401
#     4  10  24  40  60  98 130 174 223 277 342 385
#
# _framework density 22.777448
#
# number of rings (size 3 to 8) (size 9 to 14) (size 15 to 20)
#    0.000    2.000    0.000    0.857    8.000    6.857 
#    2.571    0.000    0.000    0.000    0.000    0.000 
#    0.000    0.000    0.000    0.000    0.000    0.000 
#
# Total GULP energy -173441.808772 kJ/mol
# GULP energy per Si atom -12388.700627 kJ/mol
# Density = 2.272561 g / cm^3
# Si number density = 22.777448 Si / 1000 Ang^3
#
#
#
# Elastic Constant Matrix: (Units=GPa)
#
#
# Indices 1 2 3 4 5 6 
#
# 1 155.9372 63.5832 48.7636 -4.0947 5.6749 35.3957
# 2 63.5832 158.3119 48.2343 -19.6394 3.5828 28.7295
# 3 48.7636 48.2343 74.6178 -23.3805 -6.3795 15.9111
# 4 -4.0947 -19.6394 -23.3805 34.1212 0.6801 -2.7156
# 5 5.6749 3.5828 -6.3795 0.6801 42.0836 -3.2697
# 6 35.3957 28.7295 15.9111 -2.7156 -3.2697 44.7726
#
#
#
# Elastic Compliance Matrix: (Units=1/GPa)
#
#
# Indices 1 2 3 4 5 6 
#
# 1 0.010151 -0.001806 -0.005887 -0.004221 -0.002444 -0.005208
# 2 -0.001806 0.008935 -0.003277 0.002461 -0.001293 -0.003086
# 3 -0.005887 -0.003277 0.024244 0.013876 0.004470 -0.000691
# 4 -0.004221 0.002461 0.013876 0.039639 0.001773 -0.000640
# 5 -0.002444 -0.001293 0.004470 0.001773 0.025093 0.003113
# 6 -0.005208 -0.003086 -0.000691 -0.000640 0.003113 0.028867
#
#
# Mechanical properties :
#
#
# Convention : Reuss Voigt Hill
#
# Bulk Modulus (GPa) = 46.75079 78.89212 62.82145
# Shear Modulus (GPa) = 30.12074 39.41455 34.76764
#
# Velocity S-wave (km/s) = 3.64042 4.16434 3.91116
# Velocity P-wave (km/s) = 6.18383 7.60484 6.93085
#
# Compressibility (1/GPa) = 0.02139001
#
# Stress axis : x y z
#
# Youngs Moduli (GPa) = 98.51694 111.91796 41.24682
#
# Poissons Ratio (x) = 0.20217 0.24281
# Poissons Ratio (y) = 0.17796 0.13515
# Poissons Ratio (z) = 0.57995 0.36672
#
# Static dielectric constant tensor:
#      x y z
#    x 4.152900 0.567720 0.443140 
#    y 0.567720 5.241020 0.024930 
#    z 0.443140 0.024930 4.285510 
# 
# 
# High freq. dielectric constant tensor:
#      x y z
#    x 1.892530 0.016890 0.010450 
#    y 0.016890 1.915180 -0.015080 
#    z 0.010450 -0.015080 1.903130 
# 
# From -- ./inp_files/137669.got.cif
#   From: 2010.06.25/outbox.cif.g09.slc.cpg/sg2_69_cif.got.tgz:137669.got - 2010.06.27 13:26:56.
