data_PCOD8018506
_publ_section_title
;
Structure prediction by ZEFSAII (Michael W. Deem and Ramdas Pophale) SiO2 
 PCOD8018506
Probable space group: P -1
;
_chemical_formula_sum "Si O2"
_cell_formula_units_Z 14
_cell_length_a 5.572534
_cell_length_b 22.009114
_cell_length_c 11.923955
_cell_angle_alpha 27.252483
_cell_angle_beta 65.464267
_cell_angle_gamma 74.031464
_cell_volume 593.464594
_symmetry_space_group_name_H-M "P -1"
_symmetry_group_IT_number 2
_symmetry_cell_setting 'triclinic'
loop_
_space_group_symop_operation_xyz
x,y,z
-x,-y,-z
loop_
_atom_site_type_symbol
_atom_site_label
_atom_site_fract_x
_atom_site_fract_y
_atom_site_fract_z
Si Si1 0.513009 0.372236 0.564338
Si Si2 0.445753 0.150109 0.767240
Si Si3 0.859645 0.317439 0.790598
Si Si4 0.467364 0.350098 0.988001
Si Si5 0.988879 0.893444 0.578967
Si Si6 0.898930 0.050627 0.129884
Si Si7 0.524682 0.205226 0.422503
O O1 0.571124 0.240668 0.702296
O O2 0.692591 0.389213 0.614992
O O3 0.626364 0.509974 0.245161
O O4 0.187816 0.359997 0.660670
O O5 0.571140 0.243030 0.482459
O O6 0.120454 0.131528 0.866479
O O7 0.500000 0.000000 0.000000
O O8 0.766264 0.357978 0.864552
O O9 0.761314 0.156528 0.049191
O O10 0.288139 0.219365 0.173404
O O11 0.432111 0.322016 0.175620
O O12 0.225119 0.813032 0.671517
O O13 0.039512 0.971812 0.322828
O O14 0.000000 0.000000 0.500000
O O15 0.682214 0.940686 0.285726
#
# Coordination Sequence:
#
# PCOD8018506 Si02
#       7
#     2   2   2   2   2   2   2
#     4  11  27  45  70 103 132 188 225 282 342 403
#     4  11  22  43  71  96 135 174 236 284 332 406
#     4  11  24  44  72 100 136 177 230 282 342 406
#     4  11  26  42  66  98 141 179 225 278 342 415
#     4  11  23  39  67  98 136 174 219 280 342 400
#     4  10  22  40  67 101 126 175 228 281 341 397
#     4  11  23  40  65  97 136 179 223 283 341 395
#
# _framework density 23.590287
#
# number of rings (size 3 to 8) (size 9 to 14) (size 15 to 20)
#    0.000    1.143    1.429    3.857   10.000    4.000 
#    0.000    0.714    0.000    0.000    0.000    0.000 
#    0.000    0.000    0.000    0.000    0.000    0.000 
#
# Total GULP energy -173479.201168 kJ/mol
# GULP energy per Si atom -12391.371512 kJ/mol
# Density = 2.353659 g / cm^3
# Si number density = 23.590287 Si / 1000 Ang^3
#
#
#
# Elastic Constant Matrix: (Units=GPa)
#
#
# Indices 1 2 3 4 5 6 
#
# 1 91.4147 14.7324 20.7364 6.0639 1.7176 2.4923
# 2 14.7324 90.2265 34.9283 8.8188 -6.1901 -0.1680
# 3 20.7364 34.9283 110.7728 -3.6640 21.9898 3.1912
# 4 6.0639 8.8188 -3.6640 26.4613 -0.1229 6.2589
# 5 1.7176 -6.1901 21.9898 -0.1229 24.1145 -1.4848
# 6 2.4923 -0.1680 3.1912 6.2589 -1.4848 31.1244
#
#
#
# Elastic Compliance Matrix: (Units=1/GPa)
#
#
# Indices 1 2 3 4 5 6 
#
# 1 0.011732 -0.000699 -0.002268 -0.002738 0.001032 -0.000111
# 2 -0.000699 0.015307 -0.007087 -0.006507 0.010574 0.002678
# 3 -0.002268 -0.007087 0.015058 0.005671 -0.015562 -0.003283
# 4 -0.002738 -0.006507 0.005671 0.043586 -0.007009 -0.009497
# 5 0.001032 0.010574 -0.015562 -0.007009 0.058621 0.005776
# 6 -0.000111 0.002678 -0.003283 -0.009497 0.005776 0.034674
#
#
# Mechanical properties :
#
#
# Convention : Reuss Voigt Hill
#
# Bulk Modulus (GPa) = 45.47839 48.13425 46.80632
# Shear Modulus (GPa) = 24.22287 31.14115 27.68201
#
# Velocity S-wave (km/s) = 3.20787 3.63724 3.42928
# Velocity P-wave (km/s) = 5.74812 6.17154 5.96359
#
# Compressibility (1/GPa) = 0.02198847
#
# Stress axis : x y z
#
# Youngs Moduli (GPa) = 85.23994 65.32813 66.40899
#
# Poissons Ratio (x) = 0.04569 0.15061
# Poissons Ratio (y) = 0.05961 0.47065
# Poissons Ratio (z) = 0.19332 0.46299
#
# Static dielectric constant tensor:
#      x y z
#    x 4.161580 0.035960 0.076230 
#    y 0.035960 4.326080 -0.043230 
#    z 0.076230 -0.043230 4.322360 
# 
# 
# High freq. dielectric constant tensor:
#      x y z
#    x 1.927730 0.002200 0.008030 
#    y 0.002200 1.927320 0.001320 
#    z 0.008030 0.001320 1.938660 
# 
# From -- ./inp_files/72447.got.cif
#   From: 2010.06.25/outbox.cif.g09.slc.cpg/sg2_37_cif.got.tgz:72447.got - 2010.06.27 13:26:56.
