data_PCOD8018397
_publ_section_title
;
Structure prediction by ZEFSAII (Michael W. Deem and Ramdas Pophale) SiO2 
 PCOD8018397
Probable space group: P -1
;
_chemical_formula_sum "Si O2"
_cell_formula_units_Z 12
_cell_length_a 5.347810
_cell_length_b 16.973026
_cell_length_c 9.358718
_cell_angle_alpha 133.369240
_cell_angle_beta 95.054289
_cell_angle_gamma 61.432367
_cell_volume 502.466565
_symmetry_space_group_name_H-M "P -1"
_symmetry_group_IT_number 2
_symmetry_cell_setting 'triclinic'
loop_
_space_group_symop_operation_xyz
x,y,z
-x,-y,-z
loop_
_atom_site_type_symbol
_atom_site_label
_atom_site_fract_x
_atom_site_fract_y
_atom_site_fract_z
Si Si1 0.650626 0.905425 0.675761
Si Si2 0.726785 0.302286 0.678287
Si Si3 0.647415 0.114977 0.614507
Si Si4 0.763813 0.415494 0.102221
Si Si5 0.643808 0.112726 0.106495
Si Si6 0.572589 0.703304 0.920164
O O1 0.523701 0.938507 0.547099
O O2 0.518442 0.840877 0.688420
O O3 0.018172 0.801708 0.552443
O O4 0.518979 0.045130 0.918773
O O5 0.575282 0.238781 0.670554
O O6 0.467892 0.427425 0.731330
O O7 0.868436 0.345600 0.863597
O O8 0.526224 0.166303 0.830655
O O9 0.000000 0.000000 0.500000
O O10 0.587875 0.366276 0.120751
O O11 0.056326 0.391448 0.171890
O O12 0.553461 0.245218 0.182774
O O13 0.000000 0.000000 0.000000
#
# Coordination Sequence:
#
# PCOD8018397 Si02
#       6
#     2   2   2   2   2   2
#     4  11  23  41  68  91 133 173 220 270 345 393
#     4  10  22  40  65  98 134 170 218 270 338 386
#     4  11  23  38  68 101 132 166 224 278 333 397
#     4  10  24  41  69  98 135 176 217 276 324 396
#     4  11  26  43  64  94 134 177 220 275 341 391
#     4  11  24  43  68  99 134 171 227 271 330 392
#
# _framework density 23.882186000000001
#
# number of rings (size 3 to 8) (size 9 to 14) (size 15 to 20)
#    0.000    1.333    1.667    3.000   11.667    3.333 
#    0.000    1.667    0.000    0.000    0.000    0.000 
#    0.000    0.000    0.000    0.000    0.000    0.000 
#
# Total GULP energy -148797.177006 kJ/mol
# GULP energy per Si atom -12399.764751 kJ/mol
# Density = 2.382783 g / cm^3
# Si number density = 23.882186 Si / 1000 Ang^3
#
#
#
# Elastic Constant Matrix: (Units=GPa)
#
#
# Indices 1 2 3 4 5 6 
#
# 1 88.9283 24.4197 -16.5589 -1.0550 -19.9301 -10.4596
# 2 24.4197 140.6705 -4.4037 0.1765 -11.3412 -5.1635
# 3 -16.5589 -4.4037 42.0635 -3.4339 -11.0995 1.8232
# 4 -1.0550 0.1765 -3.4339 33.7845 3.2926 -7.7296
# 5 -19.9301 -11.3412 -11.0995 3.2926 33.1130 -1.6518
# 6 -10.4596 -5.1635 1.8232 -7.7296 -1.6518 38.1755
#
#
#
# Elastic Compliance Matrix: (Units=1/GPa)
#
#
# Indices 1 2 3 4 5 6 
#
# 1 0.017029 -0.001404 0.009943 0.001372 0.013207 0.004850
# 2 -0.001404 0.007565 0.000742 -0.000050 0.002034 0.000681
# 3 0.009943 0.000742 0.032335 0.002518 0.016953 0.002524
# 4 0.001372 -0.000050 0.002518 0.031516 -0.001153 0.006580
# 5 0.013207 0.002034 0.016953 -0.001153 0.044882 0.004793
# 6 0.004850 0.000681 0.002524 0.006580 0.004793 0.029035
#
#
# Mechanical properties :
#
#
# Convention : Reuss Voigt Hill
#
# Bulk Modulus (GPa) = 13.24627 30.95296 22.09961
# Shear Modulus (GPa) = 29.59247 38.89494 34.24370
#
# Velocity S-wave (km/s) = 3.52391 4.03999 3.79074
# Velocity P-wave (km/s) = 4.70274 5.89499 5.33229
#
# Compressibility (1/GPa) = 0.07549296
#
# Stress axis : x y z
#
# Youngs Moduli (GPa) = 58.72471 132.19171 30.92588
#
# Poissons Ratio (x) = 0.18556 -0.30751
# Poissons Ratio (y) = 0.08243 -0.02296
# Poissons Ratio (z) = -0.58392 -0.09815
#
# Static dielectric constant tensor:
#      x y z
#    x 4.419370 0.161250 0.027200 
#    y 0.161250 4.390240 -0.218310 
#    z 0.027200 -0.218310 4.419750 
# 
# 
# High freq. dielectric constant tensor:
#      x y z
#    x 1.945830 0.004570 -0.002160 
#    y 0.004570 1.958240 -0.005800 
#    z -0.002160 -0.005800 1.933060 
# 
# From -- ./inp_files/20447.got.cif
#   From: 2010.06.25/outbox.cif.g09.slc.cpg/sg2_11_cif.got.tgz:20447.got - 2010.06.27 13:26:56.
