data_PCOD8018889
_publ_section_title
;
Structure prediction by ZEFSAII (Michael W. Deem and Ramdas Pophale) SiO2 
 PCOD8018889
Probable space group: P -1
;
_chemical_formula_sum "Si O2"
_cell_formula_units_Z 12
_cell_length_a 22.736976
_cell_length_b 7.895313
_cell_length_c 7.895313
_cell_angle_alpha 125.310643
_cell_angle_beta 32.497036
_cell_angle_gamma 143.173310
_cell_volume 435.176204
_symmetry_space_group_name_H-M "P -1"
_symmetry_group_IT_number 2
_symmetry_cell_setting 'triclinic'
loop_
_space_group_symop_operation_xyz
x,y,z
-x,-y,-z
loop_
_atom_site_type_symbol
_atom_site_label
_atom_site_fract_x
_atom_site_fract_y
_atom_site_fract_z
Si Si1 0.374691 0.098966 0.762258
Si Si2 0.330145 0.485069 0.276272
Si Si3 0.818261 0.741177 0.824699
Si Si4 0.181739 0.720515 0.713609
Si Si5 0.330147 0.266708 0.494633
Si Si6 0.625308 0.113667 0.025106
O O1 0.483940 0.445931 0.755553
O O2 0.499998 0.118425 0.381570
O O3 0.239633 0.953919 0.862980
O O4 0.302269 0.892517 0.985712
O O5 0.272662 0.275472 0.125805
O O6 0.224806 0.548944 0.567553
O O7 0.280051 0.285355 0.445205
O O8 0.516058 0.792621 0.005891
O O9 0.775190 0.758024 0.125478
O O10 0.760364 0.418119 0.764982
O O11 0.000000 0.000000 0.500000
O O12 0.272666 0.943794 0.457483
O O13 0.000000 0.500000 0.000000
#
# Coordination Sequence:
#
# PCOD8018889 Si02
#       6
#     2   2   2   2   2   2
#     4   8  16  34  59  82 109 151 195 234 281 338
#     4  10  22  41  62  84 115 155 196 237 283 341
#     4  11  21  34  58  89 119 151 188 237 293 343
#     4  11  21  34  58  89 119 151 188 237 293 343
#     4  10  22  41  62  84 115 155 196 237 283 341
#     4   8  16  34  59  82 109 151 195 234 281 338
#
# _framework density 27.575033999999999
#
# number of rings (size 3 to 8) (size 9 to 14) (size 15 to 20)
#    0.000    2.333    0.000    5.000    0.000    4.000 
#    0.000    3.333    0.000   23.000    0.000    0.000 
#    0.000    0.000    0.000    0.000    0.000    0.000 
#
# Total GULP energy -148824.135192 kJ/mol
# GULP energy per Si atom -12402.011266 kJ/mol
# Density = 2.751227 g / cm^3
# Si number density = 27.575034 Si / 1000 Ang^3
#
#
#
# Elastic Constant Matrix: (Units=GPa)
#
#
# Indices 1 2 3 4 5 6 
#
# 1 232.5418 85.6774 116.7444 -34.7273 14.0507 -9.7848
# 2 85.6774 197.0147 62.3938 -2.2906 4.8547 10.2546
# 3 116.7444 62.3938 169.2889 -37.2898 0.5060 8.9664
# 4 -34.7273 -2.2906 -37.2898 43.9886 5.9794 -1.0467
# 5 14.0507 4.8547 0.5060 5.9794 44.3800 1.6082
# 6 -9.7848 10.2546 8.9664 -1.0467 1.6082 34.0249
#
#
#
# Elastic Compliance Matrix: (Units=1/GPa)
#
#
# Indices 1 2 3 4 5 6 
#
# 1 0.008128 -0.002299 -0.004287 0.003156 -0.002857 0.004392
# 2 -0.002299 0.006571 -0.001306 -0.002701 0.000475 -0.002403
# 3 -0.004287 -0.001306 0.010732 0.005456 0.000771 -0.003536
# 4 0.003156 -0.002701 0.005456 0.030412 -0.004916 0.001452
# 5 -0.002857 0.000475 0.000771 -0.004916 0.024128 -0.002460
# 6 0.004392 -0.002403 -0.003536 0.001452 -0.002460 0.032470
#
#
# Mechanical properties :
#
#
# Convention : Reuss Voigt Hill
#
# Bulk Modulus (GPa) = 103.65184 125.38630 114.51907
# Shear Modulus (GPa) = 38.04030 46.74736 42.39383
#
# Velocity S-wave (km/s) = 3.71822 4.12184 3.92522
# Velocity P-wave (km/s) = 7.49027 8.25969 7.88437
#
# Compressibility (1/GPa) = 0.00964768
#
# Stress axis : x y z
#
# Youngs Moduli (GPa) = 123.02788 152.18686 93.18308
#
# Poissons Ratio (x) = 0.34981 0.39949
# Poissons Ratio (y) = 0.28279 0.12168
# Poissons Ratio (z) = 0.52744 0.19872
#
# Static dielectric constant tensor:
#      x y z
#    x 5.226450 0.150670 0.276770 
#    y 0.150670 7.168800 0.521020 
#    z 0.276770 0.521020 4.786400 
# 
# 
# High freq. dielectric constant tensor:
#      x y z
#    x 2.123340 -0.006380 0.010710 
#    y -0.006380 2.193150 0.050530 
#    z 0.010710 0.050530 2.123810 
# 
# From -- ./inp_files/266313.got.cif
#   From: 2010.06.25/outbox.cif.g09.slc.cpg/sg2_134_cif.got.tgz:266313.got - 2010.06.27 13:26:56.
