data_PCOD8018509
_publ_section_title
;
Structure prediction by ZEFSAII (Michael W. Deem and Ramdas Pophale) SiO2 
 PCOD8018509
Probable space group: P -1
;
_chemical_formula_sum "Si O2"
_cell_formula_units_Z 16
_cell_length_a 13.049624
_cell_length_b 9.115811
_cell_length_c 11.488692
_cell_angle_alpha 60.568924
_cell_angle_beta 54.193420
_cell_angle_gamma 103.773145
_cell_volume 644.944381
_symmetry_space_group_name_H-M "P -1"
_symmetry_group_IT_number 2
_symmetry_cell_setting 'triclinic'
loop_
_space_group_symop_operation_xyz
x,y,z
-x,-y,-z
loop_
_atom_site_type_symbol
_atom_site_label
_atom_site_fract_x
_atom_site_fract_y
_atom_site_fract_z
Si Si1 0.798493 0.713436 0.235847
Si Si2 0.571150 0.928508 0.571422
Si Si3 0.938466 0.115598 0.349700
Si Si4 0.692094 0.977696 0.898669
Si Si5 0.482190 0.489561 0.693271
Si Si6 0.916070 0.715536 0.553565
Si Si7 0.571091 0.148892 0.058116
Si Si8 0.162750 0.527296 0.865689
O O1 0.688412 0.619709 0.468647
O O2 0.668584 0.684898 0.241886
O O3 0.828072 0.547473 0.240090
O O4 0.000000 0.000000 0.000000
O O5 0.490584 0.696943 0.636164
O O6 0.766671 0.065429 0.447579
O O7 0.639353 0.170847 0.359275
O O8 0.430907 0.833024 0.808581
O O9 0.000797 0.205476 0.403716
O O10 0.868273 0.854461 0.484160
O O11 0.121391 0.336022 0.060010
O O12 0.618936 0.003821 0.051360
O O13 0.599118 0.698517 0.071427
O O14 0.627886 0.999714 0.811608
O O15 0.919069 0.198190 0.670101
O O16 0.728413 0.420490 0.785671
O O17 0.000000 0.500000 0.000000
#
# Coordination Sequence:
#
# PCOD8018509 Si02
#       8
#     2   2   2   2   2   2   2   2
#     4  11  24  47  67  98 138 181 230 280 343 407
#     4  11  23  45  68 104 140 175 232 287 336 410
#     4  10  22  40  67 101 132 176 228 282 338 397
#     4  11  24  46  65 101 141 177 229 279 342 412
#     4  11  26  43  72 101 134 186 231 278 347 406
#     4  11  23  41  67  97 134 177 230 276 338 402
#     4  11  25  42  69 101 137 181 223 285 345 399
#     4  10  22  42  69 100 135 179 222 281 343 402
#
# _framework density 24.808340000000001
#
# number of rings (size 3 to 8) (size 9 to 14) (size 15 to 20)
#    0.000    1.250    1.250    4.125    5.250    2.500 
#    9.000    0.000    0.000    0.000    0.000    0.000 
#    0.000    0.000    0.000    0.000    0.000    0.000 
#
# Total GULP energy -198442.881373 kJ/mol
# GULP energy per Si atom -12402.680086 kJ/mol
# Density = 2.475187 g / cm^3
# Si number density = 24.808340 Si / 1000 Ang^3
#
#
#
# Elastic Constant Matrix: (Units=GPa)
#
#
# Indices 1 2 3 4 5 6 
#
# 1 62.7545 35.2389 37.3726 1.8201 8.0976 -22.5421
# 2 35.2389 138.1245 56.2075 -2.1703 2.4870 -16.4873
# 3 37.3726 56.2075 165.9318 -10.8003 2.1785 -11.6628
# 4 1.8201 -2.1703 -10.8003 52.2853 0.2265 -0.3276
# 5 8.0976 2.4870 2.1785 0.2265 44.2812 -4.1279
# 6 -22.5421 -16.4873 -11.6628 -0.3276 -4.1279 40.8465
#
#
#
# Elastic Compliance Matrix: (Units=1/GPa)
#
#
# Indices 1 2 3 4 5 6 
#
# 1 0.024292 -0.003417 -0.003632 -0.001658 -0.003069 0.010667
# 2 -0.003417 0.009167 -0.002253 0.000040 0.000333 0.001205
# 3 -0.003632 -0.002253 0.007660 0.001609 0.000342 -0.000679
# 4 -0.001658 0.000040 0.001609 0.019516 0.000096 -0.000273
# 5 -0.003069 0.000333 0.000342 0.000096 0.023190 0.000883
# 6 0.010667 0.001205 -0.000679 -0.000273 0.000883 0.030748
#
#
# Mechanical properties :
#
#
# Convention : Reuss Voigt Hill
#
# Bulk Modulus (GPa) = 44.41214 69.38319 56.89767
# Shear Modulus (GPa) = 35.54118 43.34872 39.44495
#
# Velocity S-wave (km/s) = 3.78912 4.18466 3.99179
# Velocity P-wave (km/s) = 6.08968 7.16777 6.65060
#
# Compressibility (1/GPa) = 0.02251637
#
# Stress axis : x y z
#
# Youngs Moduli (GPa) = 41.16506 109.08957 130.54656
#
# Poissons Ratio (x) = 0.37279 0.47410
# Poissons Ratio (y) = 0.14067 0.29406
# Poissons Ratio (z) = 0.14950 0.24573
#
# Static dielectric constant tensor:
#      x y z
#    x 4.513020 -0.237840 -0.018260 
#    y -0.237840 4.383370 -0.060530 
#    z -0.018260 -0.060530 5.076420 
# 
# 
# High freq. dielectric constant tensor:
#      x y z
#    x 2.001170 -0.010660 -0.015070 
#    y -0.010660 1.985220 -0.005500 
#    z -0.015070 -0.005500 2.010740 
# 
# From -- ./inp_files/447120.got.cif
#   From: 2010.06.25/outbox.cif.g09.slc.cpg/sg2_224_cif.got.tgz:447120.got - 2010.06.27 13:26:56.
