data_PCOD8018200
_publ_section_title
;
Structure prediction by ZEFSAII (Michael W. Deem and Ramdas Pophale) SiO2 
 PCOD8018200
Probable space group: P -1
;
_chemical_formula_sum "Si O2"
_cell_formula_units_Z 16
_cell_length_a 18.283573
_cell_length_b 12.466813
_cell_length_c 7.266326
_cell_angle_alpha 42.803846
_cell_angle_beta 131.392418
_cell_angle_gamma 137.999870
_cell_volume 728.142751
_symmetry_space_group_name_H-M "P -1"
_symmetry_group_IT_number 2
_symmetry_cell_setting 'triclinic'
loop_
_space_group_symop_operation_xyz
x,y,z
-x,-y,-z
loop_
_atom_site_type_symbol
_atom_site_label
_atom_site_fract_x
_atom_site_fract_y
_atom_site_fract_z
Si Si1 0.116262 0.980087 0.358273
Si Si2 0.489850 0.826587 0.891714
Si Si3 0.879614 0.868077 0.206600
Si Si4 0.162556 0.520739 0.262816
Si Si5 0.580841 0.450002 0.588017
Si Si6 0.273606 0.152519 0.722566
Si Si7 0.583138 0.239088 0.541970
Si Si8 0.025522 0.558686 0.679954
O O1 0.070607 0.773641 0.481770
O O2 0.016426 0.991354 0.288462
O O3 0.222982 0.043984 0.586825
O O4 0.157125 0.116784 0.080666
O O5 0.418628 0.722340 0.724369
O O6 0.502474 0.021806 0.707425
O O7 0.410874 0.698584 0.085411
O O8 0.613194 0.849983 0.042110
O O9 0.836809 0.661040 0.451567
O O10 0.819141 0.942634 0.149880
O O11 0.289544 0.691856 0.266298
O O12 0.088711 0.554119 0.248793
O O13 0.115488 0.515089 0.984111
O O14 0.500000 0.500000 0.500000
O O15 0.698959 0.637259 0.519548
O O16 0.534625 0.348215 0.441945
O O17 0.000000 0.500000 0.500000
#
# Coordination Sequence:
#
# PCOD8018200 Si02
#       8
#     2   2   2   2   2   2   2   2
#     4  10  23  39  63  96 129 166 217 263 318 394
#     4  10  25  40  65  95 127 170 219 269 326 385
#     4  10  22  40  63  95 126 169 209 269 318 385
#     4  10  22  40  66  93 126 170 213 263 320 388
#     4  10  23  40  62  93 124 170 216 271 316 380
#     4  11  22  40  65  92 127 172 210 267 325 378
#     4  11  22  44  65  92 130 170 217 271 326 389
#     4  10  23  42  63  94 132 169 212 262 321 389
#
# _framework density 21.973714000000001
#
# number of rings (size 3 to 8) (size 9 to 14) (size 15 to 20)
#    0.000    1.750    1.250    1.500    1.750   12.000 
#    0.000    3.750    0.000    0.000    0.000    0.000 
#    0.000    0.000    0.000    0.000    0.000    0.000 
#
# Total GULP energy -198323.268295 kJ/mol
# GULP energy per Si atom -12395.204268 kJ/mol
# Density = 2.192370 g / cm^3
# Si number density = 21.973714 Si / 1000 Ang^3
#
#
#
# Elastic Constant Matrix: (Units=GPa)
#
#
# Indices 1 2 3 4 5 6 
#
# 1 90.4726 39.1006 28.5035 12.2549 -9.9206 -5.8161
# 2 39.1006 114.7328 38.9299 21.7142 -11.3044 -19.1230
# 3 28.5035 38.9299 97.8693 16.5605 -12.2379 0.0635
# 4 12.2549 21.7142 16.5605 40.3534 0.7906 -1.3772
# 5 -9.9206 -11.3044 -12.2379 0.7906 30.6770 4.2987
# 6 -5.8161 -19.1230 0.0635 -1.3772 4.2987 28.8516
#
#
#
# Elastic Compliance Matrix: (Units=1/GPa)
#
#
# Indices 1 2 3 4 5 6 
#
# 1 0.013649 -0.003424 -0.002065 -0.001499 0.002358 0.000063
# 2 -0.003424 0.013303 -0.003349 -0.004511 0.001497 0.007696
# 3 -0.002065 -0.003349 0.013180 -0.003172 0.003914 -0.003399
# 4 -0.001499 -0.004511 -0.003172 0.028999 -0.003977 -0.001308
# 5 0.002358 0.001497 0.003914 -0.003977 0.036153 -0.004118
# 6 0.000063 0.007696 -0.003399 -0.001308 -0.004118 0.040332
#
#
# Mechanical properties :
#
#
# Convention : Reuss Voigt Hill
#
# Bulk Modulus (GPa) = 44.53115 57.34918 50.94017
# Shear Modulus (GPa) = 29.27795 33.07912 31.17854
#
# Velocity S-wave (km/s) = 3.65418 3.88415 3.77092
# Velocity P-wave (km/s) = 6.17363 6.80229 6.49557
#
# Compressibility (1/GPa) = 0.02245619
#
# Stress axis : x y z
#
# Youngs Moduli (GPa) = 73.26424 75.17012 75.87528
#
# Poissons Ratio (x) = 0.25742 0.15665
# Poissons Ratio (y) = 0.25089 0.25410
# Poissons Ratio (z) = 0.15126 0.25174
#
# Static dielectric constant tensor:
#      x y z
#    x 4.012930 0.077670 -0.241660 
#    y 0.077670 3.976460 -0.223630 
#    z -0.241660 -0.223630 4.260700 
# 
# 
# High freq. dielectric constant tensor:
#      x y z
#    x 1.863960 -0.002050 -0.013350 
#    y -0.002050 1.859230 -0.006990 
#    z -0.013350 -0.006990 1.870620 
# 
# From -- ./inp_files/109530.got.cif
#   From: 2010.06.25/outbox.cif.g09.slc.cpg/sg2_55_cif.got.tgz:109530.got - 2010.06.27 13:26:56.
