data_PCOD8018210
_publ_section_title
;
Structure prediction by ZEFSAII (Michael W. Deem and Ramdas Pophale) SiO2 
 PCOD8018210
Probable space group: P -1
;
_chemical_formula_sum "Si O2"
_cell_formula_units_Z 14
_cell_length_a 12.011020
_cell_length_b 8.666518
_cell_length_c 18.923638
_cell_angle_alpha 135.623307
_cell_angle_beta 147.752918
_cell_angle_gamma 64.057905
_cell_volume 657.309156
_symmetry_space_group_name_H-M "P -1"
_symmetry_group_IT_number 2
_symmetry_cell_setting 'triclinic'
loop_
_space_group_symop_operation_xyz
x,y,z
-x,-y,-z
loop_
_atom_site_type_symbol
_atom_site_label
_atom_site_fract_x
_atom_site_fract_y
_atom_site_fract_z
Si Si1 0.423343 0.940148 0.727849
Si Si2 0.089421 0.551646 0.263220
Si Si3 0.954005 0.627840 0.450905
Si Si4 0.763589 0.851198 0.784439
Si Si5 0.316695 0.588010 0.899592
Si Si6 0.175800 0.683513 0.097690
Si Si7 0.323331 0.099149 0.585706
O O1 0.551599 0.807178 0.709458
O O2 0.191377 0.736435 0.570560
O O3 0.358507 0.100223 0.689570
O O4 0.588232 0.121545 0.936622
O O5 0.246521 0.414546 0.327184
O O6 0.933174 0.564883 0.247959
O O7 0.263832 0.834390 0.431521
O O8 0.920828 0.419967 0.064918
O O9 0.735282 0.452226 0.225744
O O10 0.888371 0.832408 0.517386
O O11 0.000000 0.500000 0.500000
O O12 0.778544 0.027322 0.782544
O O13 0.000000 0.000000 0.000000
O O14 0.500000 0.500000 0.000000
O O15 0.432551 0.697646 0.251015
O O16 0.000000 0.500000 0.000000
#
# Coordination Sequence:
#
# PCOD8018210 Si02
#       7
#     2   2   2   2   2   2   2
#     4  11  21  40  70  93 125 179 221 270 319 405
#     4  11  21  40  67  96 123 173 225 264 321 395
#     4  12  27  43  62 103 137 166 220 288 334 379
#     4   9  19  39  63  96 127 164 224 266 320 391
#     4  12  21  41  73  92 123 180 225 264 326 399
#     4  10  22  40  63  96 133 168 211 274 331 386
#     4  11  22  43  66  93 129 175 225 262 326 401
#
# _framework density 21.298959
#
# number of rings (size 3 to 8) (size 9 to 14) (size 15 to 20)
#    0.000    1.143    7.143    1.286    0.000    5.714 
#    2.571    0.000    0.000    0.000    0.000    0.000 
#    0.000    0.000    0.000    0.000    0.000    0.000 
#
# Total GULP energy -173487.301838 kJ/mol
# GULP energy per Si atom -12391.950131 kJ/mol
# Density = 2.125048 g / cm^3
# Si number density = 21.298959 Si / 1000 Ang^3
#
#
#
# Elastic Constant Matrix: (Units=GPa)
#
#
# Indices 1 2 3 4 5 6 
#
# 1 95.9452 74.9794 45.2632 0.8209 27.7843 -9.1241
# 2 74.9794 144.0437 52.6998 -4.5971 12.9988 -17.5424
# 3 45.2632 52.6998 105.1876 4.2109 11.3436 -4.6035
# 4 0.8209 -4.5971 4.2109 33.0727 -6.3403 -2.7789
# 5 27.7843 12.9988 11.3436 -6.3403 52.8010 -5.4731
# 6 -9.1241 -17.5424 -4.6035 -2.7789 -5.4731 29.4477
#
#
#
# Elastic Compliance Matrix: (Units=1/GPa)
#
#
# Indices 1 2 3 4 5 6 
#
# 1 0.022259 -0.009708 -0.003667 -0.003299 -0.009082 -0.001459
# 2 -0.009708 0.013533 -0.002870 0.003609 0.003405 0.005579
# 3 -0.003667 -0.002870 0.012604 -0.002095 -0.000443 -0.001156
# 4 -0.003299 0.003609 -0.002095 0.032599 0.005724 0.004941
# 5 -0.009082 0.003405 -0.000443 0.005724 0.024094 0.004163
# 6 -0.001459 0.005579 -0.001156 0.004941 0.004163 0.037889
#
#
# Mechanical properties :
#
#
# Convention : Reuss Voigt Hill
#
# Bulk Modulus (GPa) = 62.87158 76.78460 69.82809
# Shear Modulus (GPa) = 27.65944 34.54656 31.10300
#
# Velocity S-wave (km/s) = 3.60756 4.03175 3.82554
# Velocity P-wave (km/s) = 6.85094 7.60280 7.23664
#
# Compressibility (1/GPa) = 0.01590544
#
# Stress axis : x y z
#
# Youngs Moduli (GPa) = 44.92592 73.89196 79.34220
#
# Poissons Ratio (x) = 0.71737 0.29091
# Poissons Ratio (y) = 0.43616 0.22773
# Poissons Ratio (z) = 0.16472 0.21209
#
# Static dielectric constant tensor:
#      x y z
#    x 3.797120 -0.067740 -0.011660 
#    y -0.067740 3.920180 0.032850 
#    z -0.011660 0.032850 4.155910 
# 
# 
# High freq. dielectric constant tensor:
#      x y z
#    x 1.813500 -0.025610 0.004940 
#    y -0.025610 1.820960 -0.009730 
#    z 0.004940 -0.009730 1.857510 
# 
# From -- ./inp_files/272574.got.cif
#   From: 2010.06.25/outbox.cif.g09.slc.cpg/sg2_137_cif.got.tgz:272574.got - 2010.06.27 13:26:56.
