data_PCOD8018129
_publ_section_title
;
Structure prediction by ZEFSAII (Michael W. Deem and Ramdas Pophale) SiO2 
 PCOD8018129
Probable space group: P -1
;
_chemical_formula_sum "Si O2"
_cell_formula_units_Z 16
_cell_length_a 8.932009
_cell_length_b 10.264955
_cell_length_c 11.987136
_cell_angle_alpha 129.211622
_cell_angle_beta 116.465171
_cell_angle_gamma 75.092244
_cell_volume 761.855469
_symmetry_space_group_name_H-M "P -1"
_symmetry_group_IT_number 2
_symmetry_cell_setting 'triclinic'
loop_
_space_group_symop_operation_xyz
x,y,z
-x,-y,-z
loop_
_atom_site_type_symbol
_atom_site_label
_atom_site_fract_x
_atom_site_fract_y
_atom_site_fract_z
Si Si1 0.789446 0.647681 0.455027
Si Si2 0.385757 0.026080 0.369517
Si Si3 0.152939 0.627956 0.500815
Si Si4 0.075413 0.461044 0.155364
Si Si5 0.476353 0.487748 0.855830
Si Si6 0.420727 0.918524 0.757056
Si Si7 0.800297 0.302824 0.850829
Si Si8 0.363472 0.217808 0.053106
O O1 0.690812 0.791444 0.562126
O O2 0.772578 0.483096 0.436915
O O3 0.701768 0.599476 0.282164
O O4 0.979913 0.707021 0.526026
O O5 0.495965 0.998209 0.280283
O O6 0.500000 0.000000 0.500000
O O7 0.224643 0.896859 0.250752
O O8 0.117141 0.501645 0.318141
O O9 0.284468 0.777150 0.594942
O O10 0.084962 0.636014 0.182806
O O11 0.196487 0.319868 0.070805
O O12 0.886489 0.381447 0.034652
O O13 0.619137 0.368572 0.795457
O O14 0.494534 0.668747 0.900857
O O15 0.500000 0.500000 0.000000
O O16 0.566914 0.838805 0.835242
O O17 0.325914 0.056957 0.873597
#
# Coordination Sequence:
#
# PCOD8018129 Si02
#       8
#     2   2   2   2   2   2   2   2
#     4  11  25  41  65  98 130 169 223 266 324 387
#     4  12  24  42  65 100 130 172 218 271 328 383
#     4  11  24  44  65  95 130 175 215 271 322 389
#     4  10  22  43  67  93 128 174 214 265 331 384
#     4  11  20  39  65  88 129 174 215 266 319 389
#     4  11  24  42  65  95 133 170 218 268 326 387
#     4  10  22  40  62  94 129 162 219 262 320 398
#     4  10  23  40  65  97 125 173 217 265 326 387
#
# _framework density 21.001359000000001
#
# number of rings (size 3 to 8) (size 9 to 14) (size 15 to 20)
#    0.000    1.250    2.500    3.000    3.500    1.000 
#    2.250    2.500    0.000    0.000    0.000    0.000 
#    0.000    0.000    0.000    0.000    0.000    0.000 
#
# Total GULP energy -198411.609671 kJ/mol
# GULP energy per Si atom -12400.725604 kJ/mol
# Density = 2.095356 g / cm^3
# Si number density = 21.001359 Si / 1000 Ang^3
#
#
#
# Elastic Constant Matrix: (Units=GPa)
#
#
# Indices 1 2 3 4 5 6 
#
# 1 67.4314 35.4543 37.3372 1.7822 3.3108 1.1381
# 2 35.4543 83.1488 43.5021 -4.3123 5.3845 4.2092
# 3 37.3372 43.5021 137.3676 -7.7642 9.3741 5.9167
# 4 1.7822 -4.3123 -7.7642 36.6509 7.4471 -3.0700
# 5 3.3108 5.3845 9.3741 7.4471 36.8160 1.6566
# 6 1.1381 4.2092 5.9167 -3.0700 1.6566 34.6251
#
#
#
# Elastic Compliance Matrix: (Units=1/GPa)
#
#
# Indices 1 2 3 4 5 6 
#
# 1 0.020571 -0.007118 -0.003553 -0.002670 0.000612 0.000530
# 2 -0.007118 0.016972 -0.003197 0.001853 -0.001355 -0.001054
# 3 -0.003553 -0.003197 0.009556 0.002167 -0.002047 -0.000837
# 4 -0.002670 0.001853 0.002167 0.029655 -0.006691 0.002442
# 5 0.000612 -0.001355 -0.002047 -0.006691 0.029247 -0.001498
# 6 0.000530 -0.001054 -0.000837 0.002442 -0.001498 0.029423
#
#
# Mechanical properties :
#
#
# Convention : Reuss Voigt Hill
#
# Bulk Modulus (GPa) = 51.64456 57.83721 54.74088
# Shear Modulus (GPa) = 29.47871 33.06203 31.27037
#
# Velocity S-wave (km/s) = 3.75061 3.97202 3.86290
# Velocity P-wave (km/s) = 6.58791 6.97392 6.78366
#
# Compressibility (1/GPa) = 0.01936312
#
# Stress axis : x y z
#
# Youngs Moduli (GPa) = 48.61217 58.92211 104.64426
#
# Poissons Ratio (x) = 0.41938 0.37178
# Poissons Ratio (y) = 0.34600 0.33459
# Poissons Ratio (z) = 0.17271 0.18840
#
# Static dielectric constant tensor:
#      x y z
#    x 3.648000 0.087720 0.049000 
#    y 0.087720 3.841670 0.108520 
#    z 0.049000 0.108520 3.770230 
# 
# 
# High freq. dielectric constant tensor:
#      x y z
#    x 1.811300 0.000320 0.006680 
#    y 0.000320 1.827330 -0.003970 
#    z 0.006680 -0.003970 1.833300 
# 
# From -- ./inp_files/262827.got.cif
#   From: 2010.06.25/outbox.cif.g09.slc.cpg/sg2_132_cif.got.tgz:262827.got - 2010.06.27 13:26:56.
