data_PCOD8018970
_publ_section_title
;
Structure prediction by ZEFSAII (Michael W. Deem and Ramdas Pophale) SiO2 
 PCOD8018970
Probable space group: P -1
;
_chemical_formula_sum "Si O2"
_cell_formula_units_Z 14
_cell_length_a 7.366166
_cell_length_b 12.341421
_cell_length_c 9.955571
_cell_angle_alpha 124.849076
_cell_angle_beta 69.511101
_cell_angle_gamma 120.825367
_cell_volume 635.708658
_symmetry_space_group_name_H-M "P -1"
_symmetry_group_IT_number 2
_symmetry_cell_setting 'triclinic'
loop_
_space_group_symop_operation_xyz
x,y,z
-x,-y,-z
loop_
_atom_site_type_symbol
_atom_site_label
_atom_site_fract_x
_atom_site_fract_y
_atom_site_fract_z
Si Si1 0.529559 0.728174 0.434375
Si Si2 0.937954 0.147022 0.962153
Si Si3 0.492410 0.439583 0.312031
Si Si4 0.177720 0.168026 0.321612
Si Si5 0.595265 0.814621 0.178075
Si Si6 0.241201 0.870470 0.709209
Si Si7 0.799457 0.370721 0.018906
O O1 0.450631 0.554847 0.307597
O O2 0.735249 0.784389 0.517438
O O3 0.587830 0.811598 0.338822
O O4 0.347392 0.758842 0.579545
O O5 0.862014 0.156833 0.137669
O O6 0.872266 0.245611 0.950718
O O7 0.191363 0.199059 0.935619
O O8 0.817527 0.984533 0.824676
O O9 0.500000 0.500000 0.500000
O O10 0.307652 0.278667 0.247405
O O11 0.608987 0.315985 0.920978
O O12 0.939388 0.157699 0.376364
O O13 0.589879 0.964299 0.234242
O O14 0.713149 0.429330 0.210102
O O15 0.000000 0.500000 0.000000
#
# Coordination Sequence:
#
# PCOD8018970 Si02
#       7
#     2   2   2   2   2   2   2
#     4  11  24  40  62  92 134 171 202 260 315 364
#     4  11  23  42  69  93 124 167 209 264 316 364
#     4  10  22  41  63  92 126 163 211 256 304 374
#     4  10  22  41  66  95 127 164 213 260 310 372
#     4  11  25  43  63  96 129 162 215 261 308 379
#     4  11  23  40  68  97 123 166 215 257 312 377
#     4  12  26  43  66  94 127 167 209 258 320 379
#
# _framework density 22.022670000000002
#
# number of rings (size 3 to 8) (size 9 to 14) (size 15 to 20)
#    0.000    1.143    0.000    7.286    0.000   11.429 
#    0.000    0.000    0.000    0.000    0.000    0.000 
#    0.000    0.000    0.000    0.000    0.000    0.000 
#
# Total GULP energy -173630.573240 kJ/mol
# GULP energy per Si atom -12402.183803 kJ/mol
# Density = 2.197255 g / cm^3
# Si number density = 22.022670 Si / 1000 Ang^3
#
#
#
# Elastic Constant Matrix: (Units=GPa)
#
#
# Indices 1 2 3 4 5 6 
#
# 1 90.2653 57.5450 47.6303 21.6176 4.5722 1.7374
# 2 57.5450 139.0881 55.0164 15.9749 1.0735 11.5402
# 3 47.6303 55.0164 90.3545 5.3063 3.7692 7.2117
# 4 21.6176 15.9749 5.3063 40.7420 -11.8521 -5.5767
# 5 4.5722 1.0735 3.7692 -11.8521 35.1700 0.3502
# 6 1.7374 11.5402 7.2117 -5.5767 0.3502 40.5213
#
#
#
# Elastic Compliance Matrix: (Units=1/GPa)
#
#
# Indices 1 2 3 4 5 6 
#
# 1 0.020207 -0.004412 -0.007243 -0.009414 -0.004893 0.000426
# 2 -0.004412 0.011044 -0.004103 -0.001762 0.000107 -0.002469
# 3 -0.007243 -0.004103 0.017282 0.003122 0.000278 -0.001169
# 4 -0.009414 -0.001762 0.003122 0.034103 0.012386 0.004936
# 5 -0.004893 0.000107 0.000278 0.012386 0.033195 0.001548
# 6 0.000426 -0.002469 -0.001169 0.004936 0.001548 0.026237
#
#
# Mechanical properties :
#
#
# Convention : Reuss Voigt Hill
#
# Bulk Modulus (GPa) = 58.76026 71.12124 64.94075
# Shear Modulus (GPa) = 27.89294 33.92108 30.90701
#
# Velocity S-wave (km/s) = 3.56273 3.92890 3.75029
# Velocity P-wave (km/s) = 6.60785 7.27642 6.95018
#
# Compressibility (1/GPa) = 0.01701830
#
# Stress axis : x y z
#
# Youngs Moduli (GPa) = 49.48814 90.54377 57.86254
#
# Poissons Ratio (x) = 0.39945 0.41909
# Poissons Ratio (y) = 0.21832 0.23742
# Poissons Ratio (z) = 0.35843 0.37151
#
# Static dielectric constant tensor:
#      x y z
#    x 4.101740 -0.125850 -0.129210 
#    y -0.125850 4.622790 0.252050 
#    z -0.129210 0.252050 3.914310 
# 
# 
# High freq. dielectric constant tensor:
#      x y z
#    x 1.866790 -0.005170 -0.007630 
#    y -0.005170 1.883020 0.003860 
#    z -0.007630 0.003860 1.866250 
# 
# From -- ./inp_files/157864.got.cif
#   From: 2010.06.25/outbox.cif.g09.slc.cpg/sg2_79_cif.got.tgz:157864.got - 2010.06.27 13:26:56.
