data_PCOD8018117
_publ_section_title
;
Structure prediction by ZEFSAII (Michael W. Deem and Ramdas Pophale) SiO2 
 PCOD8018117
Probable space group: P -1
;
_chemical_formula_sum "Si O2"
_cell_formula_units_Z 16
_cell_length_a 19.030352
_cell_length_b 9.500283
_cell_length_c 12.609789
_cell_angle_alpha 36.726237
_cell_angle_beta 35.508117
_cell_angle_gamma 37.806179
_cell_volume 726.992558
_symmetry_space_group_name_H-M "P -1"
_symmetry_group_IT_number 2
_symmetry_cell_setting 'triclinic'
loop_
_space_group_symop_operation_xyz
x,y,z
-x,-y,-z
loop_
_atom_site_type_symbol
_atom_site_label
_atom_site_fract_x
_atom_site_fract_y
_atom_site_fract_z
Si Si1 0.261610 0.112289 0.170175
Si Si2 0.999431 0.511567 0.822922
Si Si3 0.162996 0.281114 0.564234
Si Si4 0.984188 0.044608 0.830470
Si Si5 0.747308 0.514459 0.864295
Si Si6 0.541116 0.291091 0.966258
Si Si7 0.067029 0.904746 0.589308
Si Si8 0.438566 0.200010 0.357808
O O1 0.151079 0.283823 0.120191
O O2 0.290848 0.299142 0.101604
O O3 0.397165 0.947988 0.043458
O O4 0.211667 0.912136 0.410290
O O5 0.069508 0.491747 0.634187
O O6 0.074538 0.611788 0.760481
O O7 0.001137 0.242521 0.011554
O O8 0.101098 0.072976 0.738519
O O9 0.162530 0.415129 0.372337
O O10 0.312594 0.145363 0.506403
O O11 0.843291 0.221437 0.949880
O O12 0.988469 0.087421 0.672563
O O13 0.611489 0.529986 0.974296
O O14 0.611674 0.492151 0.741144
O O15 0.546556 0.163532 0.153308
O O16 0.000000 0.000000 0.500000
O O17 0.500000 0.000000 0.500000
#
# Coordination Sequence:
#
# PCOD8018117 Si02
#       8
#     2   2   2   2   2   2   2   2
#     4  11  21  42  63  93 138 173 218 271 330 403
#     4  11  24  38  64 100 136 172 217 279 333 391
#     4  11  22  42  66  97 128 177 226 269 334 396
#     4  12  23  40  67 100 135 170 222 279 332 394
#     4  11  22  40  70  94 131 177 221 273 328 401
#     4  10  24  43  67 100 131 179 229 267 338 405
#     4  10  22  40  62  92 132 175 214 267 334 391
#     4  10  24  46  70  96 134 181 227 280 328 400
#
# _framework density 22.008479999999999
#
# number of rings (size 3 to 8) (size 9 to 14) (size 15 to 20)
#    0.000    1.250    2.500    3.750    1.750    5.000 
#    4.500    0.000    0.000    3.750    0.000    0.000 
#    0.000    0.000    0.000    0.000    0.000    0.000 
#
# Total GULP energy -198227.535295 kJ/mol
# GULP energy per Si atom -12389.220956 kJ/mol
# Density = 2.195839 g / cm^3
# Si number density = 22.008480 Si / 1000 Ang^3
#
#
#
# Elastic Constant Matrix: (Units=GPa)
#
#
# Indices 1 2 3 4 5 6 
#
# 1 101.8448 51.4362 33.7887 -4.2304 -3.1893 15.2087
# 2 51.4362 137.0255 47.6874 8.4325 -3.9063 20.9126
# 3 33.7887 47.6874 76.6289 -6.3675 -8.1339 -6.0817
# 4 -4.2304 8.4325 -6.3675 35.0714 10.4918 3.0826
# 5 -3.1893 -3.9063 -8.1339 10.4918 30.0663 -0.4406
# 6 15.2087 20.9126 -6.0817 3.0826 -0.4406 42.4394
#
#
#
# Elastic Compliance Matrix: (Units=1/GPa)
#
#
# Indices 1 2 3 4 5 6 
#
# 1 0.013475 -0.003132 -0.004231 0.002258 -0.000969 -0.004066
# 2 -0.003132 0.011926 -0.006737 -0.004230 0.000792 -0.005404
# 3 -0.004231 -0.006737 0.020308 0.003185 0.003169 0.007548
# 4 0.002258 -0.004230 0.003185 0.033825 -0.011264 -0.000842
# 5 -0.000969 0.000792 0.003169 -0.011264 0.038072 0.001625
# 6 -0.004066 -0.005404 0.007548 -0.000842 0.001625 0.028843
#
#
# Mechanical properties :
#
#
# Convention : Reuss Voigt Hill
#
# Bulk Modulus (GPa) = 57.11144 64.59153 60.85148
# Shear Modulus (GPa) = 27.70346 33.68790 30.69568
#
# Velocity S-wave (km/s) = 3.55175 3.91663 3.73865
# Velocity P-wave (km/s) = 6.54416 7.06155 6.80777
#
# Compressibility (1/GPa) = 0.01750963
#
# Stress axis : x y z
#
# Youngs Moduli (GPa) = 74.21318 83.85155 49.24178
#
# Poissons Ratio (x) = 0.26261 0.20832
# Poissons Ratio (y) = 0.23242 0.33175
# Poissons Ratio (z) = 0.31396 0.56491
#
# Static dielectric constant tensor:
#      x y z
#    x 4.179300 0.513840 -0.149160 
#    y 0.513840 4.067000 -0.077920 
#    z -0.149160 -0.077920 4.227510 
# 
# 
# High freq. dielectric constant tensor:
#      x y z
#    x 1.867460 0.025680 -0.007920 
#    y 0.025680 1.856970 -0.001160 
#    z -0.007920 -0.001160 1.868910 
# 
# From -- ./inp_files/461783.got.cif
#   From: 2010.06.25/outbox.cif.g09.slc.cpg/sg2_231_cif.got.tgz:461783.got - 2010.06.27 13:26:56.
