data_PCOD8018002
_publ_section_title
;
Structure prediction by ZEFSAII (Michael W. Deem and Ramdas Pophale) SiO2 
 PCOD8018002
Probable space group: P -1
;
_chemical_formula_sum "Si O2"
_cell_formula_units_Z 16
_cell_length_a 15.100705
_cell_length_b 15.365544
_cell_length_c 12.078758
_cell_angle_alpha 58.697365
_cell_angle_beta 42.276703
_cell_angle_gamma 28.234748
_cell_volume 811.203978
_symmetry_space_group_name_H-M "P -1"
_symmetry_group_IT_number 2
_symmetry_cell_setting 'triclinic'
loop_
_space_group_symop_operation_xyz
x,y,z
-x,-y,-z
loop_
_atom_site_type_symbol
_atom_site_label
_atom_site_fract_x
_atom_site_fract_y
_atom_site_fract_z
Si Si1 0.884560 0.688478 0.973354
Si Si2 0.926093 0.082736 0.328186
Si Si3 0.403819 0.838873 0.570099
Si Si4 0.901687 0.297178 0.074201
Si Si5 0.371150 0.993598 0.692212
Si Si6 0.078187 0.636172 0.607960
Si Si7 0.303552 0.706353 0.373671
Si Si8 0.381551 0.062613 0.317828
O O1 0.072210 0.623067 0.925625
O O2 0.893631 0.727632 0.817537
O O3 0.000000 0.500000 0.000000
O O4 0.579798 0.902758 0.141829
O O5 0.827408 0.068863 0.335924
O O6 0.006949 0.128841 0.155459
O O7 0.706566 0.251291 0.515477
O O8 0.182275 0.871528 0.294680
O O9 0.381543 0.876437 0.698455
O O10 0.667577 0.602374 0.463349
O O11 0.401624 0.953463 0.451372
O O12 0.595218 0.488574 0.205909
O O13 0.063993 0.209554 0.868601
O O14 0.531170 0.892248 0.727859
O O15 0.500000 0.000000 0.500000
O O16 0.137776 0.715057 0.508659
O O17 0.913883 0.724339 0.590665
#
# Coordination Sequence:
#
# PCOD8018002 Si02
#       8
#     2   2   2   2   2   2   2   2
#     4  11  22  37  60  92 128 162 199 248 307 376
#     4  11  22  38  64  94 128 159 196 250 310 374
#     4  11  21  39  64  84 119 165 206 252 309 349
#     4  11  22  42  63  89 125 162 203 251 309 358
#     4   9  23  45  63  83 122 167 210 261 297 352
#     4  12  21  37  64  91 123 162 199 250 314 364
#     4  11  23  38  63  97 128 155 195 254 309 375
#     4  10  22  40  59  88 124 162 207 252 300 365
#
# _framework density 19.723769999999998
#
# number of rings (size 3 to 8) (size 9 to 14) (size 15 to 20)
#    0.000    1.250    5.000    1.500    0.000    1.000 
#    4.500    3.125    0.000    0.000    0.000    0.000 
#    0.000    0.000    0.000    0.000    0.000    0.000 
#
# Total GULP energy -198276.318294 kJ/mol
# GULP energy per Si atom -12392.269893 kJ/mol
# Density = 1.967888 g / cm^3
# Si number density = 19.723770 Si / 1000 Ang^3
#
#
#
# Elastic Constant Matrix: (Units=GPa)
#
#
# Indices 1 2 3 4 5 6 
#
# 1 132.4855 23.6809 27.2834 1.8342 1.5930 15.8613
# 2 23.6809 85.9231 30.5888 -9.7729 2.9870 -2.9570
# 3 27.2834 30.5888 96.2664 -10.7054 0.7479 0.6567
# 4 1.8342 -9.7729 -10.7054 13.1446 2.6128 -6.5838
# 5 1.5930 2.9870 0.7479 2.6128 28.0849 3.7655
# 6 15.8613 -2.9570 0.6567 -6.5838 3.7655 27.9965
#
#
#
# Elastic Compliance Matrix: (Units=1/GPa)
#
#
# Indices 1 2 3 4 5 6 
#
# 1 0.009929 -0.003321 -0.002946 -0.011069 0.002077 -0.008789
# 2 -0.003321 0.015435 -0.002373 0.014497 -0.003742 0.007480
# 3 -0.002946 -0.002373 0.013276 0.011829 -0.001584 0.004102
# 4 -0.011069 0.014497 0.011829 0.120701 -0.017590 0.038275
# 5 0.002077 -0.003742 -0.001584 -0.017590 0.039029 -0.010920
# 6 -0.008789 0.007480 0.004102 0.038275 -0.010920 0.051862
#
#
# Mechanical properties :
#
#
# Convention : Reuss Voigt Hill
#
# Bulk Modulus (GPa) = 46.81648 53.08680 49.95164
# Shear Modulus (GPa) = 18.20615 29.38665 23.79640
#
# Velocity S-wave (km/s) = 3.04148 3.86412 3.47721
# Velocity P-wave (km/s) = 6.01014 6.84706 6.44220
#
# Compressibility (1/GPa) = 0.02136000
#
# Stress axis : x y z
#
# Youngs Moduli (GPa) = 100.71668 64.78844 75.32107
#
# Poissons Ratio (x) = 0.21519 0.22188
# Poissons Ratio (y) = 0.33452 0.17873
# Poissons Ratio (z) = 0.29668 0.15374
#
# Static dielectric constant tensor:
#      x y z
#    x 4.121720 0.110920 0.078320 
#    y 0.110920 3.427660 -0.028680 
#    z 0.078320 -0.028680 3.690680 
# 
# 
# High freq. dielectric constant tensor:
#      x y z
#    x 1.782760 0.004980 -0.004090 
#    y 0.004980 1.755550 -0.002390 
#    z -0.004090 -0.002390 1.764340 
# 
# From -- ./inp_files/426156.got.cif
#   From: 2010.06.25/outbox.cif.g09.slc.cpg/sg2_214_cif.got.tgz:426156.got - 2010.06.27 13:26:56.
