data_PCOD8018364
_publ_section_title
;
Structure prediction by ZEFSAII (Michael W. Deem and Ramdas Pophale) SiO2 
 PCOD8018364
Probable space group: P -1
;
_chemical_formula_sum "Si O2"
_cell_formula_units_Z 14
_cell_length_a 7.611813
_cell_length_b 11.868435
_cell_length_c 20.263027
_cell_angle_alpha 29.698046
_cell_angle_beta 111.012999
_cell_angle_gamma 127.770258
_cell_volume 642.732356
_symmetry_space_group_name_H-M "P -1"
_symmetry_group_IT_number 2
_symmetry_cell_setting 'triclinic'
loop_
_space_group_symop_operation_xyz
x,y,z
-x,-y,-z
loop_
_atom_site_type_symbol
_atom_site_label
_atom_site_fract_x
_atom_site_fract_y
_atom_site_fract_z
Si Si1 0.786744 0.740880 0.412583
Si Si2 0.790303 0.997233 0.448143
Si Si3 0.884177 0.772176 0.936573
Si Si4 0.250432 0.433362 0.640315
Si Si5 0.797154 0.140466 0.517418
Si Si6 0.416584 0.389099 0.150862
Si Si7 0.010057 0.356700 0.165140
O O1 0.500000 0.500000 0.500000
O O2 0.861193 0.643286 0.409923
O O3 0.935933 0.779560 0.478638
O O4 0.856013 0.061825 0.247031
O O5 0.550733 0.667785 0.558208
O O6 0.705814 0.072987 0.463450
O O7 0.907269 0.252331 0.278974
O O8 0.000000 0.000000 0.500000
O O9 0.740607 0.770299 0.856316
O O10 0.703835 0.647144 0.039843
O O11 0.961445 0.576791 0.025892
O O12 0.132048 0.107466 0.819737
O O13 0.154784 0.566419 0.602542
O O14 0.602715 0.857948 0.682816
O O15 0.300709 0.509301 0.117254
#
# Coordination Sequence:
#
# PCOD8018364 Si02
#       7
#     2   2   2   2   2   2   2
#     4  11  21  37  67 102 124 164 223 280 320 378
#     4  12  23  46  68  93 127 177 223 271 335 385
#     4  11  24  40  63 102 135 175 208 271 331 405
#     4  12  24  40  66 103 128 166 229 274 324 391
#     4  11  23  43  67  94 131 171 221 275 327 383
#     4  10  22  40  65  94 134 174 210 260 341 384
#     4  11  22  43  68  92 138 170 215 267 340 382
#
# _framework density 21.782005999999999
#
# number of rings (size 3 to 8) (size 9 to 14) (size 15 to 20)
#    0.000    0.857    7.143    2.143    0.000    1.143 
#    2.571    3.571    0.000    0.000    0.000    0.000 
#    0.000    0.000    0.000    0.000    0.000    0.000 
#
# Total GULP energy -173468.743217 kJ/mol
# GULP energy per Si atom -12390.624515 kJ/mol
# Density = 2.173243 g / cm^3
# Si number density = 21.782006 Si / 1000 Ang^3
#
#
#
# Elastic Constant Matrix: (Units=GPa)
#
#
# Indices 1 2 3 4 5 6 
#
# 1 80.5922 7.0181 36.6740 -12.1635 -6.5184 -16.9604
# 2 7.0181 103.7796 35.3377 3.1148 2.1748 -24.1775
# 3 36.6740 35.3377 93.2159 -11.1922 6.4666 -9.4833
# 4 -12.1635 3.1148 -11.1922 24.7810 -6.5758 -5.4257
# 5 -6.5184 2.1748 6.4666 -6.5758 42.1592 -3.9322
# 6 -16.9604 -24.1775 -9.4833 -5.4257 -3.9322 38.5517
#
#
#
# Elastic Compliance Matrix: (Units=1/GPa)
#
#
# Indices 1 2 3 4 5 6 
#
# 1 0.019781 0.003217 -0.007097 0.010286 0.006620 0.011097
# 2 0.003217 0.013270 -0.005580 -0.000388 0.001397 0.008453
# 3 -0.007097 -0.005580 0.015950 0.003056 -0.003020 -0.002576
# 4 0.010286 -0.000388 0.003056 0.052606 0.010608 0.013519
# 5 0.006620 0.001397 -0.003020 0.010608 0.027474 0.007341
# 6 0.011097 0.008453 -0.002576 0.013519 0.007341 0.038140
#
#
# Mechanical properties :
#
#
# Convention : Reuss Voigt Hill
#
# Bulk Modulus (GPa) = 33.24467 48.40525 40.82496
# Shear Modulus (GPa) = 25.48860 34.33559 29.91210
#
# Velocity S-wave (km/s) = 3.42448 3.97461 3.70976
# Velocity P-wave (km/s) = 5.56163 6.58287 6.09368
#
# Compressibility (1/GPa) = 0.03008001
#
# Stress axis : x y z
#
# Youngs Moduli (GPa) = 50.55411 75.35955 62.69773
#
# Poissons Ratio (x) = -0.24241 0.44498
# Poissons Ratio (y) = -0.16262 0.34983
# Poissons Ratio (z) = 0.35879 0.42047
#
# Static dielectric constant tensor:
#      x y z
#    x 4.520530 -0.403920 -0.513150 
#    y -0.403920 5.327330 0.426900 
#    z -0.513150 0.426900 4.183060 
# 
# 
# High freq. dielectric constant tensor:
#      x y z
#    x 1.875330 -0.015600 -0.016030 
#    y -0.015600 1.840850 0.006750 
#    z -0.016030 0.006750 1.845340 
# 
# From -- ./inp_files/215837.got.cif
#   From: 2010.06.25/outbox.cif.g09.slc.cpg/sg2_108_cif.got.tgz:215837.got - 2010.06.27 13:26:56.
