data_PCOD8018790
_publ_section_title
;
Structure prediction by ZEFSAII (Michael W. Deem and Ramdas Pophale) SiO2 
 PCOD8018790
Probable space group: P -1
;
_chemical_formula_sum "Si O2"
_cell_formula_units_Z 16
_cell_length_a 11.369209
_cell_length_b 8.969027
_cell_length_c 16.901127
_cell_angle_alpha 33.088740
_cell_angle_beta 52.223866
_cell_angle_gamma 61.868776
_cell_volume 740.193336
_symmetry_space_group_name_H-M "P -1"
_symmetry_group_IT_number 2
_symmetry_cell_setting 'triclinic'
loop_
_space_group_symop_operation_xyz
x,y,z
-x,-y,-z
loop_
_atom_site_type_symbol
_atom_site_label
_atom_site_fract_x
_atom_site_fract_y
_atom_site_fract_z
Si Si1 0.288255 0.917874 0.270523
Si Si2 0.813971 0.099042 0.844927
Si Si3 0.829603 0.521534 0.048366
Si Si4 0.967304 0.734684 0.185736
Si Si5 0.574723 0.123636 0.335827
Si Si6 0.562627 0.371037 0.916721
Si Si7 0.801173 0.597732 0.840109
Si Si8 0.355358 0.390690 0.562354
O O1 0.169326 0.851720 0.277943
O O2 0.333697 0.622358 0.404375
O O3 0.204546 0.069252 0.309123
O O4 0.428823 0.135252 0.091720
O O5 0.673492 0.242948 0.868168
O O6 0.965600 0.206453 0.780429
O O7 0.781764 0.770476 0.011218
O O8 0.736077 0.255294 0.240495
O O9 0.790830 0.528039 0.968281
O O10 0.000000 0.500000 0.000000
O O11 0.790149 0.657999 0.299489
O O12 0.046603 0.484895 0.225035
O O13 0.000000 0.000000 0.000000
O O14 0.486175 0.355130 0.226663
O O15 0.500000 0.000000 0.500000
O O16 0.604991 0.890512 0.365645
O O17 0.652834 0.445350 0.928002
O O18 0.500000 0.500000 0.500000
#
# Coordination Sequence:
#
# PCOD8018790 Si02
#       8
#     2   2   2   2   2   2   2   2
#     4  11  23  41  69  97 136 176 226 278 331 401
#     4  10  22  40  71  98 126 183 230 268 329 409
#     4  11  23  42  68  99 136 179 224 272 338 403
#     4  11  25  44  68  99 139 179 222 276 342 401
#     4  12  26  43  68 102 137 171 223 283 338 395
#     4  11  22  41  72  96 136 179 226 270 340 400
#     4  10  22  41  71  95 128 185 229 270 326 408
#     4  12  29  44  67 103 139 175 224 284 338 391
#
# _framework density 21.615973
#
# number of rings (size 3 to 8) (size 9 to 14) (size 15 to 20)
#    0.000    1.000    2.500    4.500    7.000    2.000 
#    0.000    5.000    0.000    0.000    0.000    0.000 
#    0.000    0.000    0.000    0.000    0.000    0.000 
#
# Total GULP energy -198278.504653 kJ/mol
# GULP energy per Si atom -12392.406541 kJ/mol
# Density = 2.156677 g / cm^3
# Si number density = 21.615973 Si / 1000 Ang^3
#
#
#
# Elastic Constant Matrix: (Units=GPa)
#
#
# Indices 1 2 3 4 5 6 
#
# 1 126.3923 56.5994 51.7306 1.5545 -16.7684 -15.6606
# 2 56.5994 160.9626 51.8249 -21.2197 -14.6595 -14.2675
# 3 51.7306 51.8249 121.1951 -6.3729 -5.4334 -22.8795
# 4 1.5545 -21.2197 -6.3729 39.0681 -8.0047 0.6010
# 5 -16.7684 -14.6595 -5.4334 -8.0047 33.1486 -1.5198
# 6 -15.6606 -14.2675 -22.8795 0.6010 -1.5198 34.4870
#
#
#
# Elastic Compliance Matrix: (Units=1/GPa)
#
#
# Indices 1 2 3 4 5 6 
#
# 1 0.011136 -0.002594 -0.003176 -0.001652 0.003661 0.002066
# 2 -0.002594 0.008926 -0.002032 0.005349 0.003650 0.001235
# 3 -0.003176 -0.002032 0.011516 0.000782 -0.000184 0.005335
# 4 -0.001652 0.005349 0.000782 0.030534 0.009116 0.001851
# 5 0.003661 0.003650 -0.000184 0.009116 0.036010 0.004478
# 6 0.002066 0.001235 0.005335 0.001851 0.004478 0.034150
#
#
# Mechanical properties :
#
#
# Convention : Reuss Voigt Hill
#
# Bulk Modulus (GPa) = 62.60595 80.98440 71.79517
# Shear Modulus (GPa) = 32.63702 37.90041 35.26871
#
# Velocity S-wave (km/s) = 3.88990 4.19185 4.04369
# Velocity P-wave (km/s) = 7.01433 7.80866 7.42213
#
# Compressibility (1/GPa) = 0.01597292
#
# Stress axis : x y z
#
# Youngs Moduli (GPa) = 89.80138 112.03308 86.83744
#
# Poissons Ratio (x) = 0.29063 0.27584
# Poissons Ratio (y) = 0.23296 0.17642
# Poissons Ratio (z) = 0.28525 0.22761
#
# Static dielectric constant tensor:
#      x y z
#    x 4.293300 -0.210810 0.194510 
#    y -0.210810 4.631730 -0.530220 
#    z 0.194510 -0.530220 3.830990 
# 
# 
# High freq. dielectric constant tensor:
#      x y z
#    x 1.865310 -0.004390 -0.000840 
#    y -0.004390 1.875290 -0.020370 
#    z -0.000840 -0.020370 1.827020 
# 
# From -- ./inp_files/566360.got.cif
#   From: 2010.06.25/outbox.cif.g09.slc.cpg/sg2_284_cif.got.tgz:566360.got - 2010.06.27 13:26:56.
