data_PCOD8018667
_publ_section_title
;
Structure prediction by ZEFSAII (Michael W. Deem and Ramdas Pophale) SiO2 
 PCOD8018667
Probable space group: P -1
;
_chemical_formula_sum "Si O2"
_cell_formula_units_Z 16
_cell_length_a 26.406869
_cell_length_b 16.266914
_cell_length_c 10.890531
_cell_angle_alpha 34.572058
_cell_angle_beta 22.868500
_cell_angle_gamma 23.031648
_cell_volume 701.946814
_symmetry_space_group_name_H-M "P -1"
_symmetry_group_IT_number 2
_symmetry_cell_setting 'triclinic'
loop_
_space_group_symop_operation_xyz
x,y,z
-x,-y,-z
loop_
_atom_site_type_symbol
_atom_site_label
_atom_site_fract_x
_atom_site_fract_y
_atom_site_fract_z
Si Si1 0.438363 0.641172 0.706746
Si Si2 0.658735 0.561270 0.935724
Si Si3 0.027221 0.632514 0.896511
Si Si4 0.060919 0.882473 0.381761
Si Si5 0.322148 0.246573 0.560130
Si Si6 0.862288 0.287926 0.216253
Si Si7 0.419381 0.912884 0.238519
Si Si8 0.995300 0.828200 0.220349
O O1 0.643723 0.480885 0.508774
O O2 0.387194 0.836563 0.521296
O O3 0.446536 0.509139 0.746720
O O4 0.284394 0.729672 0.046128
O O5 0.615116 0.669330 0.768027
O O6 0.883930 0.338329 0.731097
O O7 0.579832 0.721729 0.024477
O O8 0.022818 0.743523 0.651380
O O9 0.215794 0.379972 0.760617
O O10 0.024959 0.707696 0.942142
O O11 0.828990 0.709606 0.244199
O O12 0.000000 0.000000 0.500000
O O13 0.932648 0.062311 0.341523
O O14 0.500000 0.000000 0.500000
O O15 0.899416 0.313546 0.964790
O O16 0.214692 0.076255 0.423937
O O17 0.500000 0.000000 0.000000
O O18 0.000000 0.000000 0.000000
#
# Coordination Sequence:
#
# PCOD8018667 Si02
#       8
#     2   2   2   2   2   2   2   2
#     4  12  23  46  72 105 148 189 252 290 358 451
#     4  12  26  47  75 105 144 200 247 291 366 451
#     4  10  25  46  67 107 140 184 244 295 367 430
#     4  10  22  40  69 104 136 181 233 294 354 423
#     4  11  27  48  72  99 145 190 239 301 363 433
#     4  11  24  40  77 102 143 184 235 308 355 426
#     4  12  28  43  71 113 147 188 240 302 372 430
#     4  12  24  47  76 105 149 194 241 304 364 438
#
# _framework density 22.793748999999998
#
# number of rings (size 3 to 8) (size 9 to 14) (size 15 to 20)
#    0.000    0.750    5.000    1.125    3.500    8.500 
#    0.000    0.000    0.000    0.000    0.000    0.000 
#    0.000    0.000    0.000    0.000    0.000    0.000 
#
# Total GULP energy -198342.797508 kJ/mol
# GULP energy per Si atom -12396.424844 kJ/mol
# Density = 2.274187 g / cm^3
# Si number density = 22.793749 Si / 1000 Ang^3
#
#
#
# Elastic Constant Matrix: (Units=GPa)
#
#
# Indices 1 2 3 4 5 6 
#
# 1 74.9661 26.9074 12.8171 -10.1113 -6.2116 9.1762
# 2 26.9074 121.3237 22.2244 2.4549 -4.0866 -7.0523
# 3 12.8171 22.2244 77.8475 -7.0882 -8.4077 6.1186
# 4 -10.1113 2.4549 -7.0882 38.6776 4.1427 -3.8092
# 5 -6.2116 -4.0866 -8.4077 4.1427 39.7624 0.7263
# 6 9.1762 -7.0523 6.1186 -3.8092 0.7263 46.2579
#
#
#
# Elastic Compliance Matrix: (Units=1/GPa)
#
#
# Indices 1 2 3 4 5 6 
#
# 1 0.015794 -0.003566 -0.000813 0.003711 0.001602 -0.003289
# 2 -0.003566 0.009669 -0.002516 -0.001779 0.000047 0.002367
# 3 -0.000813 -0.002516 0.014311 0.002112 0.002457 -0.001980
# 4 0.003711 -0.001779 0.002112 0.027646 -0.002056 0.001022
# 5 0.001602 0.000047 0.002457 -0.002056 0.026160 -0.001216
# 6 -0.003289 0.002367 -0.001980 0.001022 -0.001216 0.022996
#
#
# Mechanical properties :
#
#
# Convention : Reuss Voigt Hill
#
# Bulk Modulus (GPa) = 38.48548 44.22613 41.35580
# Shear Modulus (GPa) = 35.96364 39.08547 37.52455
#
# Velocity S-wave (km/s) = 3.97644 4.14544 4.06182
# Velocity P-wave (km/s) = 6.16471 6.50828 6.33883
#
# Compressibility (1/GPa) = 0.02598383
#
# Stress axis : x y z
#
# Youngs Moduli (GPa) = 63.31432 103.41839 69.87601
#
# Poissons Ratio (x) = 0.36882 0.05680
# Poissons Ratio (y) = 0.22579 0.17583
# Poissons Ratio (z) = 0.05147 0.26024
#
# Static dielectric constant tensor:
#      x y z
#    x 4.004920 -0.139030 0.117190 
#    y -0.139030 4.700450 -0.279020 
#    z 0.117190 -0.279020 4.270410 
# 
# 
# High freq. dielectric constant tensor:
#      x y z
#    x 1.893950 0.006500 0.004360 
#    y 0.006500 1.913480 0.007140 
#    z 0.004360 0.007140 1.896450 
# 
# From -- ./inp_files/477716.got.cif
#   From: 2010.06.25/outbox.cif.g09.slc.cpg/sg2_239_cif.got.tgz:477716.got - 2010.06.27 13:26:56.
