data_PCOD8018119
_publ_section_title
;
Structure prediction by ZEFSAII (Michael W. Deem and Ramdas Pophale) SiO2 
 PCOD8018119
Probable space group: P -1
;
_chemical_formula_sum "Si O2"
_cell_formula_units_Z 16
_cell_length_a 14.961837
_cell_length_b 8.465047
_cell_length_c 12.167838
_cell_angle_alpha 140.530437
_cell_angle_beta 127.655202
_cell_angle_gamma 52.027432
_cell_volume 743.284972
_symmetry_space_group_name_H-M "P -1"
_symmetry_group_IT_number 2
_symmetry_cell_setting 'triclinic'
loop_
_space_group_symop_operation_xyz
x,y,z
-x,-y,-z
loop_
_atom_site_type_symbol
_atom_site_label
_atom_site_fract_x
_atom_site_fract_y
_atom_site_fract_z
Si Si1 0.870078 0.319608 0.927301
Si Si2 0.105763 0.990134 0.888202
Si Si3 0.462870 0.518326 0.357740
Si Si4 0.701491 0.535448 0.489642
Si Si5 0.722008 0.956167 0.559507
Si Si6 0.146353 0.444188 0.734945
Si Si7 0.262356 0.325792 0.158671
Si Si8 0.952956 0.181812 0.460982
O O1 0.846446 0.466435 0.871254
O O2 0.817533 0.074308 0.752549
O O3 0.812325 0.524408 0.091856
O O4 0.010334 0.208949 0.004817
O O5 0.143860 0.706647 0.813656
O O6 0.023648 0.001057 0.725451
O O7 0.228066 0.057776 0.992613
O O8 0.500000 0.500000 0.500000
O O9 0.582838 0.442952 0.335714
O O10 0.380013 0.324533 0.175360
O O11 0.391746 0.813628 0.435148
O O12 0.687524 0.778318 0.529787
O O13 0.719978 0.600046 0.664012
O O14 0.812513 0.300010 0.415496
O O15 0.767714 0.797233 0.395653
O O16 0.016012 0.407509 0.619523
O O17 0.000000 0.000000 0.500000
#
# Coordination Sequence:
#
# PCOD8018119 Si02
#       8
#     2   2   2   2   2   2   2   2
#     4  11  22  39  64  93 136 173 208 267 323 386
#     4  12  21  39  60  92 139 169 210 267 323 386
#     4   9  22  41  70  91 123 174 222 267 320 379
#     4  11  21  41  66  92 126 172 216 264 324 377
#     4  11  22  42  69  96 133 167 219 266 320 392
#     4  12  24  40  63 102 131 168 213 264 331 385
#     4  10  22  40  62  93 122 170 225 260 318 379
#     4  12  24  37  63  99 131 167 213 260 323 392
#
# _framework density 21.526064000000002
#
# number of rings (size 3 to 8) (size 9 to 14) (size 15 to 20)
#    0.000    1.000    2.500    5.250    3.500    0.000 
#    0.000    0.625    8.250    6.750    0.000    0.000 
#    0.000    0.000    0.000    0.000    0.000    0.000 
#
# Total GULP energy -198274.517552 kJ/mol
# GULP energy per Si atom -12392.157347 kJ/mol
# Density = 2.147707 g / cm^3
# Si number density = 21.526064 Si / 1000 Ang^3
#
#
#
# Elastic Constant Matrix: (Units=GPa)
#
#
# Indices 1 2 3 4 5 6 
#
# 1 136.3032 58.9199 47.3595 9.8191 32.0206 2.6103
# 2 58.9199 96.7244 22.0305 -8.5305 17.3218 -1.9916
# 3 47.3595 22.0305 103.4868 2.8089 10.0173 8.0326
# 4 9.8191 -8.5305 2.8089 26.0820 11.0038 -0.0773
# 5 32.0206 17.3218 10.0173 11.0038 46.9952 -1.7400
# 6 2.6103 -1.9916 8.0326 -0.0773 -1.7400 35.4712
#
#
#
# Elastic Compliance Matrix: (Units=1/GPa)
#
#
# Indices 1 2 3 4 5 6 
#
# 1 0.012972 -0.006644 -0.003908 -0.004752 -0.004468 -0.000672
# 2 -0.006644 0.015907 -0.000372 0.009162 -0.003353 0.001322
# 3 -0.003908 -0.000372 0.011694 -0.000011 0.000222 -0.002370
# 4 -0.004752 0.009162 -0.000011 0.047913 -0.011340 0.000415
# 5 -0.004468 -0.003353 0.000222 -0.011340 0.028221 0.001450
# 6 -0.000672 0.001322 -0.002370 0.000415 0.001450 0.028924
#
#
# Mechanical properties :
#
#
# Convention : Reuss Voigt Hill
#
# Bulk Modulus (GPa) = 53.41219 65.90380 59.65799
# Shear Modulus (GPa) = 28.78188 35.58997 32.18592
#
# Velocity S-wave (km/s) = 3.66057 4.07054 3.87099
# Velocity P-wave (km/s) = 6.53705 7.26462 6.91042
#
# Compressibility (1/GPa) = 0.01872232
#
# Stress axis : x y z
#
# Youngs Moduli (GPa) = 77.09161 62.86705 85.51680
#
# Poissons Ratio (x) = 0.41771 0.33421
# Poissons Ratio (y) = 0.51222 0.03184
# Poissons Ratio (z) = 0.30128 0.02340
#
# Static dielectric constant tensor:
#      x y z
#    x 4.548120 0.072400 0.125970 
#    y 0.072400 4.031160 -0.235790 
#    z 0.125970 -0.235790 4.320200 
# 
# 
# High freq. dielectric constant tensor:
#      x y z
#    x 1.855100 0.019050 0.009200 
#    y 0.019050 1.842760 -0.007360 
#    z 0.009200 -0.007360 1.838590 
# 
# From -- ./inp_files/271741.got.cif
#   From: 2010.06.25/outbox.cif.g09.slc.cpg/sg2_136_cif.got.tgz:271741.got - 2010.06.27 13:26:56.
