data_PCOD8018531
_publ_section_title
;
Structure prediction by ZEFSAII (Michael W. Deem and Ramdas Pophale) SiO2 
 PCOD8018531
Probable space group: P -1
;
_chemical_formula_sum "Si O2"
_cell_formula_units_Z 14
_cell_length_a 5.334276
_cell_length_b 23.139929
_cell_length_c 9.075035
_cell_angle_alpha 140.780902
_cell_angle_beta 76.889129
_cell_angle_gamma 89.448987
_cell_volume 657.820607
_symmetry_space_group_name_H-M "P -1"
_symmetry_group_IT_number 2
_symmetry_cell_setting 'triclinic'
loop_
_space_group_symop_operation_xyz
x,y,z
-x,-y,-z
loop_
_atom_site_type_symbol
_atom_site_label
_atom_site_fract_x
_atom_site_fract_y
_atom_site_fract_z
Si Si1 0.274173 0.359725 0.988776
Si Si2 0.481440 0.140343 0.526011
Si Si3 0.940786 0.287710 0.511116
Si Si4 0.261005 0.578585 0.926858
Si Si5 0.041904 0.031020 0.393441
Si Si6 0.159352 0.903479 0.867212
Si Si7 0.622886 0.623254 0.335226
O O1 0.368009 0.249829 0.808221
O O2 0.451652 0.416307 0.165497
O O3 0.307360 0.380284 0.852555
O O4 0.952183 0.407184 0.152028
O O5 0.245272 0.093916 0.492868
O O6 0.551675 0.138428 0.337103
O O7 0.751704 0.088881 0.479275
O O8 0.844327 0.329137 0.768201
O O9 0.008230 0.172807 0.276118
O O10 0.698070 0.328440 0.505243
O O11 0.207481 0.315559 0.481897
O O12 0.287052 0.483445 0.826352
O O13 0.000000 0.000000 0.500000
O O14 0.185739 0.932571 0.090283
O O15 0.000000 0.000000 0.000000
#
# Coordination Sequence:
#
# PCOD8018531 Si02
#       7
#     2   2   2   2   2   2   2
#     4  10  17  27  48  72 108 139 179 214 267 332
#     4  11  21  38  60  82 109 149 189 234 278 330
#     4  10  18  29  44  72 108 142 180 212 269 332
#     4  10  17  28  44  73 117 147 164 216 289 329
#     4  11  25  41  57  79 114 149 193 235 284 333
#     4  10  22  36  59  84 111 150 187 236 281 328
#     4  10  18  27  46  71 118 146 166 216 288 330
#
# _framework density 21.282399000000002
#
# number of rings (size 3 to 8) (size 9 to 14) (size 15 to 20)
#    0.000    1.714    2.857    6.000    6.000    2.286 
#    0.000    0.000    0.000    0.000    0.000    0.000 
#    0.000   38.857    0.000    0.000    0.000    0.000 
#
# Total GULP energy -173484.686270 kJ/mol
# GULP energy per Si atom -12391.763305 kJ/mol
# Density = 2.123396 g / cm^3
# Si number density = 21.282399 Si / 1000 Ang^3
#
#
#
# Elastic Constant Matrix: (Units=GPa)
#
#
# Indices 1 2 3 4 5 6 
#
# 1 212.8259 39.8313 24.5345 15.5739 24.4938 7.3376
# 2 39.8313 68.4457 39.1113 7.1667 14.5626 8.9595
# 3 24.5345 39.1113 45.0763 21.6869 13.3830 9.0811
# 4 15.5739 7.1667 21.6869 36.9096 8.3406 3.1078
# 5 24.4938 14.5626 13.3830 8.3406 23.3017 18.7738
# 6 7.3376 8.9595 9.0811 3.1078 18.7738 33.4143
#
#
#
# Elastic Compliance Matrix: (Units=1/GPa)
#
#
# Indices 1 2 3 4 5 6 
#
# 1 0.005944 -0.003182 0.001807 -0.001546 -0.007490 0.003409
# 2 -0.003182 0.037115 -0.037375 0.017483 -0.007421 0.003448
# 3 0.001807 -0.037375 0.072494 -0.034804 -0.004035 -0.004573
# 4 -0.001546 0.017483 -0.034804 0.046928 -0.012260 0.007634
# 5 -0.007490 -0.007421 -0.004035 -0.012260 0.104876 -0.053053
# 6 0.003409 0.003448 -0.004573 0.007634 -0.053053 0.058595
#
#
# Mechanical properties :
#
#
# Convention : Reuss Voigt Hill
#
# Bulk Modulus (GPa) = 26.27903 59.25579 42.76741
# Shear Modulus (GPa) = 12.01530 33.58318 22.79924
#
# Velocity S-wave (km/s) = 2.37864 3.97669 3.27658
# Velocity P-wave (km/s) = 4.46301 6.99918 5.86971
#
# Compressibility (1/GPa) = 0.03805316
#
# Stress axis : x y z
#
# Youngs Moduli (GPa) = 168.25091 26.94296 13.79423
#
# Poissons Ratio (x) = 0.08573 -0.02492
# Poissons Ratio (y) = 0.53536 0.51555
# Poissons Ratio (z) = -0.30397 1.00698
#
# Static dielectric constant tensor:
#      x y z
#    x 5.540360 -0.041350 0.149790 
#    y -0.041350 3.591940 0.406520 
#    z 0.149790 0.406520 5.170690 
# 
# 
# High freq. dielectric constant tensor:
#      x y z
#    x 1.867650 0.000730 0.010090 
#    y 0.000730 1.801340 0.052780 
#    z 0.010090 0.052780 1.795590 
# 
# From -- ./inp_files/80259.got.cif
#   From: 2010.06.25/outbox.cif.g09.slc.cpg/sg2_41_cif.got.tgz:80259.got - 2010.06.27 13:26:56.
