data_PCOD8018550
_publ_section_title
;
Structure prediction by ZEFSAII (Michael W. Deem and Ramdas Pophale) SiO2 
 PCOD8018550
Probable space group: P -1
;
_chemical_formula_sum "Si O2"
_cell_formula_units_Z 14
_cell_length_a 5.019205
_cell_length_b 18.731170
_cell_length_c 11.682901
_cell_angle_alpha 133.209462
_cell_angle_beta 116.773877
_cell_angle_gamma 68.227749
_cell_volume 711.425970
_symmetry_space_group_name_H-M "P -1"
_symmetry_group_IT_number 2
_symmetry_cell_setting 'triclinic'
loop_
_space_group_symop_operation_xyz
x,y,z
-x,-y,-z
loop_
_atom_site_type_symbol
_atom_site_label
_atom_site_fract_x
_atom_site_fract_y
_atom_site_fract_z
Si Si1 0.317353 0.862018 0.350244
Si Si2 0.259688 0.309289 0.691908
Si Si3 0.239696 0.363584 0.000985
Si Si4 0.172173 0.111061 0.368794
Si Si5 0.650681 0.856378 0.184463
Si Si6 0.303206 0.512777 0.863881
Si Si7 0.435855 0.983525 0.838381
O O1 0.409505 0.745674 0.271990
O O2 0.528747 0.927603 0.539922
O O3 0.385643 0.880586 0.250844
O O4 0.965090 0.886892 0.333090
O O5 0.120983 0.348536 0.830619
O O6 0.075326 0.226341 0.505041
O O7 0.260048 0.398672 0.698436
O O8 0.318949 0.259451 0.964445
O O9 0.525036 0.428030 0.131714
O O10 0.005006 0.424922 0.102114
O O11 0.290371 0.091884 0.240690
O O12 0.887422 0.055417 0.284545
O O13 0.561849 0.912802 0.112511
O O14 0.500000 0.500000 0.000000
O O15 0.500000 0.000000 0.000000
#
# Coordination Sequence:
#
# PCOD8018550 Si02
#       7
#     2   2   2   2   2   2   2
#     4   9  20  33  55  82 112 132 170 213 280 312
#     4   8  18  32  49  81 112 140 170 208 258 327
#     4  10  19  29  46  79 111 145 167 203 258 322
#     4  10  23  38  58  80 110 136 183 222 270 320
#     4  11  20  36  53  78 114 138 178 223 260 323
#     4  10  17  27  48  73 115 148 165 192 255 326
#     4  12  26  41  56  76 101 147 192 224 268 315
#
# _framework density 19.678785999999999
#
# number of rings (size 3 to 8) (size 9 to 14) (size 15 to 20)
#    0.857    1.143    0.000    6.429    0.000    5.714 
#    0.000    0.000    0.000    0.000    0.000    6.000 
#    0.000    0.000    0.000    0.000    0.000    0.000 
#
# Total GULP energy -173453.249074 kJ/mol
# GULP energy per Si atom -12389.517791 kJ/mol
# Density = 1.963400 g / cm^3
# Si number density = 19.678786 Si / 1000 Ang^3
#
#
#
# Elastic Constant Matrix: (Units=GPa)
#
#
# Indices 1 2 3 4 5 6 
#
# 1 108.5266 25.0898 17.1047 13.8803 4.0292 15.3187
# 2 25.0898 74.3326 49.9635 16.6326 11.7615 28.2724
# 3 17.1047 49.9635 58.1583 13.6044 2.0244 23.2971
# 4 13.8803 16.6326 13.6044 21.8596 6.6586 4.4045
# 5 4.0292 11.7615 2.0244 6.6586 25.4456 4.4282
# 6 15.3187 28.2724 23.2971 4.4045 4.4282 26.5680
#
#
#
# Elastic Compliance Matrix: (Units=1/GPa)
#
#
# Indices 1 2 3 4 5 6 
#
# 1 0.010781 -0.001727 0.001722 -0.006002 0.001417 -0.005130
# 2 -0.001727 0.041903 -0.026549 -0.007118 -0.012143 -0.017112
# 3 0.001722 -0.026549 0.047795 -0.011852 0.013909 -0.015005
# 4 -0.006002 -0.007118 -0.011852 0.063914 -0.013828 0.013136
# 5 0.001417 -0.012143 0.013909 -0.013828 0.048215 -0.005836
# 6 -0.005130 -0.017112 -0.015005 0.013136 -0.005836 0.070759
#
#
# Mechanical properties :
#
#
# Convention : Reuss Voigt Hill
#
# Bulk Modulus (GPa) = 21.10910 47.25927 34.18419
# Shear Modulus (GPa) = 14.19385 24.69861 19.44623
#
# Velocity S-wave (km/s) = 2.68857 3.54657 3.14695
# Velocity P-wave (km/s) = 4.51531 6.39049 5.53292
#
# Compressibility (1/GPa) = 0.04737293
#
# Stress axis : x y z
#
# Youngs Moduli (GPa) = 92.75388 23.86447 20.92289
#
# Poissons Ratio (x) = 0.04121 -0.03603
# Poissons Ratio (y) = 0.16015 0.55547
# Poissons Ratio (z) = -0.15974 0.63357
#
# Static dielectric constant tensor:
#      x y z
#    x 3.689850 0.023790 -0.001830 
#    y 0.023790 3.145960 0.386360 
#    z -0.001830 0.386360 3.300010 
# 
# 
# High freq. dielectric constant tensor:
#      x y z
#    x 1.782430 0.010380 -0.001650 
#    y 0.010380 1.740680 0.054010 
#    z -0.001650 0.054010 1.724170 
# 
# From -- ./inp_files/369882.got.cif
#   From: 2010.06.25/outbox.cif.g09.slc.cpg/sg2_185_cif.got.tgz:369882.got - 2010.06.27 13:26:56.
