data_PCOD8018462
_publ_section_title
;
Structure prediction by ZEFSAII (Michael W. Deem and Ramdas Pophale) SiO2 
 PCOD8018462
Probable space group: P -1
;
_chemical_formula_sum "Si O2"
_cell_formula_units_Z 14
_cell_length_a 11.454330
_cell_length_b 9.754977
_cell_length_c 20.495592
_cell_angle_alpha 151.673559
_cell_angle_beta 138.698991
_cell_angle_gamma 60.095515
_cell_volume 612.761937
_symmetry_space_group_name_H-M "P -1"
_symmetry_group_IT_number 2
_symmetry_cell_setting 'triclinic'
loop_
_space_group_symop_operation_xyz
x,y,z
-x,-y,-z
loop_
_atom_site_type_symbol
_atom_site_label
_atom_site_fract_x
_atom_site_fract_y
_atom_site_fract_z
Si Si1 0.538060 0.769836 0.968916
Si Si2 0.793566 0.676221 0.752446
Si Si3 0.791212 0.178684 0.639631
Si Si4 0.332259 0.683326 0.228658
Si Si5 0.922784 0.818646 0.459968
Si Si6 0.831272 0.348700 0.420496
Si Si7 0.337694 0.302822 0.432839
O O1 0.696000 0.654349 0.958661
O O2 0.318933 0.453102 0.764991
O O3 0.500000 0.000000 0.000000
O O4 0.642041 0.982304 0.166886
O O5 0.793399 0.355404 0.646785
O O6 0.573905 0.622588 0.661213
O O7 0.795039 0.697828 0.684367
O O8 0.000000 0.000000 0.000000
O O9 0.836796 0.407953 0.820909
O O10 0.565042 0.860158 0.428656
O O11 0.946745 0.052836 0.631975
O O12 0.315252 0.937306 0.277404
O O13 0.065565 0.668960 0.475798
O O14 0.000000 0.000000 0.500000
O O15 0.754020 0.612365 0.507313
O O16 0.000000 0.500000 0.500000
#
# Coordination Sequence:
#
# PCOD8018462 Si02
#       7
#     2   2   2   2   2   2   2
#     4  11  25  44  71  96 132 180 231 277 339 404
#     4  10  22  40  66  95 131 170 216 271 338 393
#     4   9  19  38  65  92 125 171 214 270 326 387
#     4   9  20  40  67  91 123 167 224 270 321 385
#     4  11  24  44  67  98 140 175 222 279 345 404
#     4  12  25  42  68  99 138 180 224 278 340 402
#     4  10  23  42  65  97 132 168 219 276 330 395
#
# _framework density 22.847370999999999
#
# number of rings (size 3 to 8) (size 9 to 14) (size 15 to 20)
#    0.000    1.714    1.429    1.714    6.000    6.286 
#    0.000    2.143    0.000    0.000    0.000    0.000 
#    0.000    0.000    0.000    0.000    0.000    0.000 
#
# Total GULP energy -173443.607910 kJ/mol
# GULP energy per Si atom -12388.829136 kJ/mol
# Density = 2.279537 g / cm^3
# Si number density = 22.847371 Si / 1000 Ang^3
#
#
#
# Elastic Constant Matrix: (Units=GPa)
#
#
# Indices 1 2 3 4 5 6 
#
# 1 137.4130 44.8909 43.7496 17.9331 -8.8895 -8.8629
# 2 44.8909 106.3573 33.0377 11.4909 -2.6870 5.5575
# 3 43.7496 33.0377 92.2655 -5.8224 0.1817 -7.4717
# 4 17.9331 11.4909 -5.8224 35.1174 -4.8229 -1.9251
# 5 -8.8895 -2.6870 0.1817 -4.8229 26.8993 13.4598
# 6 -8.8629 5.5575 -7.4717 -1.9251 13.4598 37.5084
#
#
#
# Elastic Compliance Matrix: (Units=1/GPa)
#
#
# Indices 1 2 3 4 5 6 
#
# 1 0.010238 -0.002520 -0.004170 -0.004794 0.001757 0.001085
# 2 -0.002520 0.012230 -0.003717 -0.003301 0.001807 -0.003966
# 3 -0.004170 -0.003717 0.014814 0.005634 -0.002734 0.003787
# 4 -0.004794 -0.003301 0.005634 0.033482 0.003598 0.000906
# 5 0.001757 0.001807 -0.002734 0.003598 0.047178 -0.017142
# 6 0.001085 -0.003966 0.003787 0.000906 -0.017142 0.034457
#
#
# Mechanical properties :
#
#
# Convention : Reuss Voigt Hill
#
# Bulk Modulus (GPa) = 60.72746 64.37690 62.55218
# Shear Modulus (GPa) = 27.97946 34.19555 31.08750
#
# Velocity S-wave (km/s) = 3.50326 3.87291 3.69271
# Velocity P-wave (km/s) = 6.55752 6.94531 6.75420
#
# Compressibility (1/GPa) = 0.01646702
#
# Stress axis : x y z
#
# Youngs Moduli (GPa) = 97.67951 81.76557 67.50260
#
# Poissons Ratio (x) = 0.20605 0.28149
# Poissons Ratio (y) = 0.24616 0.25093
# Poissons Ratio (z) = 0.40733 0.30395
#
# Static dielectric constant tensor:
#      x y z
#    x 4.396760 -0.161940 0.018360 
#    y -0.161940 3.751590 0.354240 
#    z 0.018360 0.354240 4.059140 
# 
# 
# High freq. dielectric constant tensor:
#      x y z
#    x 1.907750 -0.007060 0.001220 
#    y -0.007060 1.911520 0.003380 
#    z 0.001220 0.003380 1.879560 
# 
# From -- ./inp_files/594325.got.cif
#   From: 2010.06.25/outbox.cif.g09.slc.cpg/sg2_298_cif.got.tgz:594325.got - 2010.06.27 13:26:56.
