data_PCOD8018143
_publ_section_title
;
Structure prediction by ZEFSAII (Michael W. Deem and Ramdas Pophale) SiO2 
 PCOD8018143
Probable space group: P -1
;
_chemical_formula_sum "Si O2"
_cell_formula_units_Z 16
_cell_length_a 20.277899
_cell_length_b 9.456405
_cell_length_c 8.112106
_cell_angle_alpha 102.372732
_cell_angle_beta 120.773301
_cell_angle_gamma 126.069877
_cell_volume 723.895810
_symmetry_space_group_name_H-M "P -1"
_symmetry_group_IT_number 2
_symmetry_cell_setting 'triclinic'
loop_
_space_group_symop_operation_xyz
x,y,z
-x,-y,-z
loop_
_atom_site_type_symbol
_atom_site_label
_atom_site_fract_x
_atom_site_fract_y
_atom_site_fract_z
Si Si1 0.918914 0.250420 0.131698
Si Si2 0.044813 0.374042 0.670490
Si Si3 0.366346 0.211417 0.187765
Si Si4 0.755884 0.506448 0.894097
Si Si5 0.494764 0.114210 0.256590
Si Si6 0.077010 0.270707 0.160033
Si Si7 0.669622 0.400066 0.230869
Si Si8 0.227558 0.206103 0.787857
O O1 0.945022 0.459298 0.176094
O O2 0.007783 0.343976 0.427128
O O3 0.969658 0.234061 0.038452
O O4 0.756661 0.966121 0.881402
O O5 0.193758 0.523788 0.903467
O O6 0.925948 0.087664 0.532187
O O7 0.500000 0.500000 0.500000
O O8 0.390072 0.078803 0.156147
O O9 0.321406 0.214839 0.958279
O O10 0.595702 0.240898 0.572431
O O11 0.851320 0.602565 0.891633
O O12 0.784515 0.714398 0.042500
O O13 0.580325 0.300586 0.252616
O O14 0.414005 0.838846 0.054259
O O15 0.189627 0.455159 0.496046
O O16 0.000000 0.000000 0.000000
O O17 0.700927 0.596737 0.221219
#
# Coordination Sequence:
#
# PCOD8018143 Si02
#       8
#     2   2   2   2   2   2   2   2
#     4  10  24  40  66  94 129 174 207 264 331 366
#     4  10  22  40  62  98 127 164 215 269 316 377
#     4  11  23  42  65  93 131 170 213 264 310 392
#     4  11  22  39  64  94 126 166 215 265 308 384
#     4  10  24  44  65  93 131 171 215 255 326 380
#     4  11  22  39  66  92 127 168 212 264 321 377
#     4  10  24  42  67  96 126 171 213 266 313 387
#     4  11  22  39  68  97 128 166 217 263 323 373
#
# _framework density 22.102627999999999
#
# number of rings (size 3 to 8) (size 9 to 14) (size 15 to 20)
#    0.000    1.500    1.250    3.375    8.750    2.500 
#    0.000    0.000    0.000    0.000    0.000    0.000 
#    0.000    0.000    0.000    0.000    0.000    0.000 
#
# Total GULP energy -198429.858926 kJ/mol
# GULP energy per Si atom -12401.866183 kJ/mol
# Density = 2.205232 g / cm^3
# Si number density = 22.102628 Si / 1000 Ang^3
#
#
#
# Elastic Constant Matrix: (Units=GPa)
#
#
# Indices 1 2 3 4 5 6 
#
# 1 102.1548 12.5204 30.8310 5.4980 16.0654 -10.9751
# 2 12.5204 94.9793 32.4673 13.3732 5.6570 -7.4791
# 3 30.8310 32.4673 129.9424 -0.7693 10.8207 -14.6163
# 4 5.4980 13.3732 -0.7693 30.5349 -11.6592 0.5235
# 5 16.0654 5.6570 10.8207 -11.6592 33.4895 0.4272
# 6 -10.9751 -7.4791 -14.6163 0.5235 0.4272 35.4192
#
#
#
# Elastic Compliance Matrix: (Units=1/GPa)
#
#
# Indices 1 2 3 4 5 6 
#
# 1 0.012085 0.000523 -0.002085 -0.005210 -0.007066 0.003157
# 2 0.000523 0.012860 -0.002829 -0.007399 -0.004109 0.001869
# 3 -0.002085 -0.002829 0.009285 0.001396 -0.001069 0.002580
# 4 -0.005210 -0.007399 0.001396 0.044170 0.018720 -0.003479
# 5 -0.007066 -0.004109 -0.001069 0.018720 0.040861 -0.004268
# 6 0.003157 0.001869 0.002580 -0.003479 -0.004268 0.030774
#
#
# Mechanical properties :
#
#
# Convention : Reuss Voigt Hill
#
# Bulk Modulus (GPa) = 39.29666 53.19042 46.24354
# Shear Modulus (GPa) = 29.88640 36.63925 33.26283
#
# Velocity S-wave (km/s) = 3.68117 4.07589 3.88355
# Velocity P-wave (km/s) = 5.99047 6.80205 6.40912
#
# Compressibility (1/GPa) = 0.02544746
#
# Stress axis : x y z
#
# Youngs Moduli (GPa) = 82.74637 77.75877 107.70318
#
# Poissons Ratio (x) = -0.04064 0.22460
# Poissons Ratio (y) = -0.04325 0.30466
# Poissons Ratio (z) = 0.17256 0.21996
#
# Static dielectric constant tensor:
#      x y z
#    x 4.118090 -0.051720 0.127790 
#    y -0.051720 3.899760 0.017260 
#    z 0.127790 0.017260 4.190760 
# 
# 
# High freq. dielectric constant tensor:
#      x y z
#    x 1.865960 -0.007770 0.006870 
#    y -0.007770 1.868200 0.006820 
#    z 0.006870 0.006820 1.881270 
# 
# From -- ./inp_files/254876.got.cif
#   From: 2010.06.25/outbox.cif.g09.slc.cpg/sg2_128_cif.got.tgz:254876.got - 2010.06.27 13:26:56.
