data_PCOD8018490
_publ_section_title
;
Structure prediction by ZEFSAII (Michael W. Deem and Ramdas Pophale) SiO2 
 PCOD8018490
Probable space group: P -1
;
_chemical_formula_sum "Si O2"
_cell_formula_units_Z 16
_cell_length_a 9.344273
_cell_length_b 11.298685
_cell_length_c 15.161374
_cell_angle_alpha 150.788123
_cell_angle_beta 91.604022
_cell_angle_gamma 76.766804
_cell_volume 708.995393
_symmetry_space_group_name_H-M "P -1"
_symmetry_group_IT_number 2
_symmetry_cell_setting 'triclinic'
loop_
_space_group_symop_operation_xyz
x,y,z
-x,-y,-z
loop_
_atom_site_type_symbol
_atom_site_label
_atom_site_fract_x
_atom_site_fract_y
_atom_site_fract_z
Si Si1 0.495139 0.323854 0.521293
Si Si2 0.415393 0.105257 0.975940
Si Si3 0.958186 0.159396 0.911342
Si Si4 0.483422 0.872778 0.325664
Si Si5 0.907992 0.437424 0.758096
Si Si6 0.287731 0.709326 0.637917
Si Si7 0.622538 0.361716 0.094283
Si Si8 0.864281 0.061782 0.656810
O O1 0.347184 0.446004 0.529206
O O2 0.649737 0.353866 0.503689
O O3 0.442403 0.484194 0.715480
O O4 0.543504 0.009207 0.337599
O O5 0.251773 0.358958 0.157379
O O6 0.530886 0.174346 0.957760
O O7 0.500000 0.000000 0.000000
O O8 0.383825 0.876259 0.779573
O O9 0.912998 0.163108 0.811840
O O10 0.810929 0.188439 0.989735
O O11 0.100789 0.873741 0.750523
O O12 0.003003 0.406098 0.089526
O O13 0.587659 0.555442 0.133513
O O14 0.306483 0.933695 0.336948
O O15 0.500000 0.000000 0.500000
O O16 0.864037 0.260175 0.710116
O O17 0.018126 0.245311 0.559738
#
# Coordination Sequence:
#
# PCOD8018490 Si02
#       8
#     2   2   2   2   2   2   2   2
#     4  10  22  42  70  91 130 174 225 267 330 394
#     4  11  22  42  66  95 130 177 223 271 327 408
#     4  11  26  42  64 104 136 172 219 281 336 394
#     4  10  22  40  66  99 130 170 217 278 330 393
#     4  10  23  43  67  97 135 178 225 271 336 398
#     4  10  24  43  67  96 130 176 225 271 328 398
#     4  11  23  42  66  97 133 169 218 274 339 389
#     4  11  23  41  69  96 136 177 222 276 337 393
#
# _framework density 22.567142
#
# number of rings (size 3 to 8) (size 9 to 14) (size 15 to 20)
#    0.000    1.500    2.500    1.875    3.500    5.000 
#    2.250    0.625    0.000    0.000    0.000    0.000 
#    0.000    0.000    0.000    0.000    0.000    0.000 
#
# Total GULP energy -198354.783980 kJ/mol
# GULP energy per Si atom -12397.173999 kJ/mol
# Density = 2.251578 g / cm^3
# Si number density = 22.567142 Si / 1000 Ang^3
#
#
#
# Elastic Constant Matrix: (Units=GPa)
#
#
# Indices 1 2 3 4 5 6 
#
# 1 115.0286 40.7883 34.7312 8.8471 -11.2582 -17.2077
# 2 40.7883 126.9133 39.6129 17.5043 -2.0263 -0.8605
# 3 34.7312 39.6129 83.8186 -0.4122 -15.2544 -11.2951
# 4 8.8471 17.5043 -0.4122 35.1455 -5.6399 -1.5944
# 5 -11.2582 -2.0263 -15.2544 -5.6399 37.6404 2.2432
# 6 -17.2077 -0.8605 -11.2951 -1.5944 2.2432 32.8054
#
#
#
# Elastic Compliance Matrix: (Units=1/GPa)
#
#
# Indices 1 2 3 4 5 6 
#
# 1 0.011375 -0.002680 -0.002466 -0.001046 0.001812 0.004873
# 2 -0.002680 0.010999 -0.005034 -0.005459 -0.002894 -0.002918
# 3 -0.002466 -0.005034 0.017079 0.004538 0.006340 0.004242
# 4 -0.001046 -0.005459 0.004538 0.032542 0.005987 0.002043
# 5 0.001812 -0.002894 0.006340 0.005987 0.030344 0.001273
# 6 0.004873 -0.002918 0.004242 0.002043 0.001273 0.034435
#
#
# Mechanical properties :
#
#
# Convention : Reuss Voigt Hill
#
# Bulk Modulus (GPa) = 52.37432 61.78058 57.07745
# Shear Modulus (GPa) = 30.58128 35.16013 32.87070
#
# Velocity S-wave (km/s) = 3.68519 3.95146 3.82065
# Velocity P-wave (km/s) = 6.43165 6.94655 6.69405
#
# Compressibility (1/GPa) = 0.01909333
#
# Stress axis : x y z
#
# Youngs Moduli (GPa) = 87.91286 90.91679 58.55033
#
# Poissons Ratio (x) = 0.24366 0.14436
# Poissons Ratio (y) = 0.23561 0.29477
# Poissons Ratio (z) = 0.21675 0.45772
#
# Static dielectric constant tensor:
#      x y z
#    x 4.219140 0.044300 0.043010 
#    y 0.044300 4.451680 0.150810 
#    z 0.043010 0.150810 4.479320 
# 
# 
# High freq. dielectric constant tensor:
#      x y z
#    x 1.885480 -0.005290 -0.001880 
#    y -0.005290 1.892780 0.006180 
#    z -0.001880 0.006180 1.898460 
# 
# From -- ./inp_files/501223.got.cif
#   From: 2010.06.25/outbox.cif.g09.slc.cpg/sg2_251_cif.got.tgz:501223.got - 2010.06.27 13:26:56.
