data_PCOD8018241
_publ_section_title
;
Structure prediction by ZEFSAII (Michael W. Deem and Ramdas Pophale) SiO2 
 PCOD8018241
Probable space group: P -1
;
_chemical_formula_sum "Si O2"
_cell_formula_units_Z 16
_cell_length_a 18.348927
_cell_length_b 9.080654
_cell_length_c 5.580012
_cell_angle_alpha 65.101813
_cell_angle_beta 109.247177
_cell_angle_gamma 119.757984
_cell_volume 723.470808
_symmetry_space_group_name_H-M "P -1"
_symmetry_group_IT_number 2
_symmetry_cell_setting 'triclinic'
loop_
_space_group_symop_operation_xyz
x,y,z
-x,-y,-z
loop_
_atom_site_type_symbol
_atom_site_label
_atom_site_fract_x
_atom_site_fract_y
_atom_site_fract_z
Si Si1 0.983025 0.249890 0.293992
Si Si2 0.559593 0.741622 0.219332
Si Si3 0.229727 0.395681 0.904744
Si Si4 0.067642 0.094448 0.810446
Si Si5 0.715465 0.321935 0.613801
Si Si6 0.580936 0.954474 0.600723
Si Si7 0.871080 0.441601 0.017550
Si Si8 0.377058 0.511843 0.315918
O O1 0.909341 0.308642 0.256031
O O2 0.042800 0.250542 0.577343
O O3 0.933779 0.047110 0.290899
O O4 0.046657 0.378745 0.079144
O O5 0.575817 0.850014 0.417133
O O6 0.460249 0.613774 0.175542
O O7 0.608263 0.611492 0.378284
O O8 0.586974 0.854402 0.924176
O O9 0.163819 0.190651 0.940148
O O10 0.271260 0.499356 0.638845
O O11 0.183456 0.513855 0.877622
O O12 0.300999 0.378706 0.159914
O O13 0.000000 0.000000 0.000000
O O14 0.649411 0.330824 0.734042
O O15 0.668372 0.134784 0.552398
O O16 0.807176 0.343086 0.796470
O O17 0.500000 0.000000 0.500000
#
# Coordination Sequence:
#
# PCOD8018241 Si02
#       8
#     2   2   2   2   2   2   2   2
#     4  10  22  40  64  90 126 162 219 270 327 400
#     4  11  26  46  71 103 135 180 229 275 334 404
#     4  11  23  41  66  92 130 170 220 267 338 394
#     4  11  22  40  62  91 122 170 212 267 329 393
#     4  11  24  42  66  93 134 175 217 276 339 394
#     4  12  25  44  70 102 138 177 226 279 336 399
#     4  10  22  41  61  94 125 169 214 271 329 398
#     4  10  25  43  70  96 133 174 219 272 334 402
#
# _framework density 22.115613
#
# number of rings (size 3 to 8) (size 9 to 14) (size 15 to 20)
#    0.000    1.250    3.750    1.125    5.250    3.500 
#    2.250    0.000    0.000    0.000    0.000    0.000 
#    0.000    0.000    0.000    0.000    0.000    0.000 
#
# Total GULP energy -198298.862470 kJ/mol
# GULP energy per Si atom -12393.678904 kJ/mol
# Density = 2.206528 g / cm^3
# Si number density = 22.115613 Si / 1000 Ang^3
#
#
#
# Elastic Constant Matrix: (Units=GPa)
#
#
# Indices 1 2 3 4 5 6 
#
# 1 78.5802 33.4157 19.4989 3.5557 23.8702 11.4623
# 2 33.4157 122.9489 28.1348 9.6810 12.7875 29.2137
# 3 19.4989 28.1348 89.0768 -0.6824 5.8760 6.5947
# 4 3.5557 9.6810 -0.6824 35.6865 2.6156 2.1728
# 5 23.8702 12.7875 5.8760 2.6156 38.4591 0.2547
# 6 11.4623 29.2137 6.5947 2.1728 0.2547 39.2573
#
#
#
# Elastic Compliance Matrix: (Units=1/GPa)
#
#
# Indices 1 2 3 4 5 6 
#
# 1 0.017784 -0.002629 -0.002212 -0.000213 -0.009793 -0.002789
# 2 -0.002629 0.011470 -0.002425 -0.002339 -0.001604 -0.007220
# 3 -0.002212 -0.002425 0.012449 0.001083 0.000201 0.000297
# 4 -0.000213 -0.002339 0.001083 0.028785 -0.001213 0.000035
# 5 -0.009793 -0.001604 0.000201 -0.001213 0.032639 0.003875
# 6 -0.002789 -0.007220 0.000297 0.000035 0.003875 0.031583
#
#
# Mechanical properties :
#
#
# Convention : Reuss Voigt Hill
#
# Bulk Modulus (GPa) = 36.80312 50.30051 43.55182
# Shear Modulus (GPa) = 31.58593 36.65103 34.11848
#
# Velocity S-wave (km/s) = 3.78328 4.07535 3.93202
# Velocity P-wave (km/s) = 5.98010 6.70360 6.35216
#
# Compressibility (1/GPa) = 0.02717161
#
# Stress axis : x y z
#
# Youngs Moduli (GPa) = 56.23049 87.18772 80.32645
#
# Poissons Ratio (x) = 0.22924 0.17765
# Poissons Ratio (y) = 0.14785 0.19476
# Poissons Ratio (z) = 0.12436 0.21140
#
# Static dielectric constant tensor:
#      x y z
#    x 3.958710 0.034420 0.250870 
#    y 0.034420 4.302580 0.089150 
#    z 0.250870 0.089150 4.005940 
# 
# 
# High freq. dielectric constant tensor:
#      x y z
#    x 1.870400 0.011450 0.012710 
#    y 0.011450 1.876450 0.004900 
#    z 0.012710 0.004900 1.866920 
# 
# From -- ./inp_files/46823.got.cif
#   From: 2010.06.25/outbox.cif.g09.slc.cpg/sg2_24_cif.got.tgz:46823.got - 2010.06.27 13:26:56.
