data_PCOD8018134
_publ_section_title
;
Structure prediction by ZEFSAII (Michael W. Deem and Ramdas Pophale) SiO2 
 PCOD8018134
Probable space group: P -1
;
_chemical_formula_sum "Si O2"
_cell_formula_units_Z 14
_cell_length_a 15.474236
_cell_length_b 15.332320
_cell_length_c 6.435161
_cell_angle_alpha 109.061584
_cell_angle_beta 100.245235
_cell_angle_gamma 26.093398
_cell_volume 609.750232
_symmetry_space_group_name_H-M "P -1"
_symmetry_group_IT_number 2
_symmetry_cell_setting 'triclinic'
loop_
_space_group_symop_operation_xyz
x,y,z
-x,-y,-z
loop_
_atom_site_type_symbol
_atom_site_label
_atom_site_fract_x
_atom_site_fract_y
_atom_site_fract_z
Si Si1 0.531849 0.406584 0.140957
Si Si2 0.286748 0.309419 0.107277
Si Si3 0.071211 0.622136 0.610135
Si Si4 0.882969 0.895398 0.366270
Si Si5 0.215031 0.821881 0.555362
Si Si6 0.258920 0.511402 0.986937
Si Si7 0.239000 0.151558 0.002327
O O1 0.368414 0.595972 0.384682
O O2 0.754401 0.199042 0.192129
O O3 0.500000 0.500000 0.000000
O O4 0.474941 0.354236 0.015243
O O5 0.202508 0.422872 0.383048
O O6 0.189912 0.301001 0.013373
O O7 0.218236 0.447501 0.012118
O O8 0.528411 0.073900 0.002894
O O9 0.235381 0.524817 0.739677
O O10 0.955616 0.806126 0.560780
O O11 0.903714 0.733661 0.772352
O O12 0.729493 0.129027 0.477587
O O13 0.781199 0.899820 0.236385
O O14 0.073238 0.747811 0.187189
O O15 0.000000 0.000000 0.500000
#
# Coordination Sequence:
#
# PCOD8018134 Si02
#       7
#     2   2   2   2   2   2   2
#     4  11  26  41  67 100 129 170 221 273 329 396
#     4  10  22  40  64  89 132 168 214 276 320 393
#     4  10  23  38  65  91 129 173 214 265 331 390
#     4  10  22  41  65  91 130 168 212 271 325 391
#     4  11  24  44  67  91 131 172 215 271 331 391
#     4  10  22  41  61  94 131 165 215 268 328 390
#     4  10  22  40  62  95 125 170 220 265 330 388
#
# _framework density 22.960221000000001
#
# number of rings (size 3 to 8) (size 9 to 14) (size 15 to 20)
#    0.000    1.714    1.429    1.286    2.000   13.714 
#    0.000    2.857    0.000    0.000    0.000    0.000 
#    0.000    0.000    0.000    0.000    0.000    0.000 
#
# Total GULP energy -173457.701195 kJ/mol
# GULP energy per Si atom -12389.835800 kJ/mol
# Density = 2.290796 g / cm^3
# Si number density = 22.960221 Si / 1000 Ang^3
#
#
#
# Elastic Constant Matrix: (Units=GPa)
#
#
# Indices 1 2 3 4 5 6 
#
# 1 127.3809 37.9179 51.6806 -25.0592 24.9678 12.9500
# 2 37.9179 87.1091 33.2284 -27.1574 9.9055 0.7755
# 3 51.6806 33.2284 92.0862 -28.8994 9.0236 1.4041
# 4 -25.0592 -27.1574 -28.8994 50.8041 -4.9966 2.2731
# 5 24.9678 9.9055 9.0236 -4.9966 32.9511 2.8749
# 6 12.9500 0.7755 1.4041 2.2731 2.8749 38.0454
#
#
#
# Elastic Compliance Matrix: (Units=1/GPa)
#
#
# Indices 1 2 3 4 5 6 
#
# 1 0.012605 -0.002239 -0.005013 0.001649 -0.006938 -0.003634
# 2 -0.002239 0.015246 -0.002371 0.005543 -0.001424 0.000315
# 3 -0.005013 -0.002371 0.016160 0.005502 0.000854 0.000765
# 4 0.001649 0.005543 0.005502 0.026684 -0.000161 -0.002459
# 5 -0.006938 -0.001424 0.000854 -0.000161 0.035804 -0.000337
# 6 -0.003634 0.000315 0.000765 -0.002459 -0.000337 0.027659
#
#
# Mechanical properties :
#
#
# Convention : Reuss Voigt Hill
#
# Bulk Modulus (GPa) = 40.38030 61.35889 50.86959
# Shear Modulus (GPa) = 30.92954 36.61008 33.76981
#
# Velocity S-wave (km/s) = 3.67426 3.99745 3.83926
# Velocity P-wave (km/s) = 5.96871 6.93456 6.46968
#
# Compressibility (1/GPa) = 0.02476455
#
# Stress axis : x y z
#
# Youngs Moduli (GPa) = 79.33579 65.59137 61.88214
#
# Poissons Ratio (x) = 0.14686 0.31024
# Poissons Ratio (y) = 0.17763 0.14669
# Poissons Ratio (z) = 0.39774 0.15549
#
# Static dielectric constant tensor:
#      x y z
#    x 4.240200 0.050660 0.335430 
#    y 0.050660 4.499480 -0.069760 
#    z 0.335430 -0.069760 4.209960 
# 
# 
# High freq. dielectric constant tensor:
#      x y z
#    x 1.908240 0.004510 0.020250 
#    y 0.004510 1.914500 -0.011050 
#    z 0.020250 -0.011050 1.899560 
# 
# From -- ./inp_files/51929.got.cif
#   From: 2010.06.25/outbox.cif.g09.slc.cpg/sg2_26_cif.got.tgz:51929.got - 2010.06.27 13:26:56.
