data_PCOD8018479
_publ_section_title
;
Structure prediction by ZEFSAII (Michael W. Deem and Ramdas Pophale) SiO2 
 PCOD8018479
Probable space group: P -1
;
_chemical_formula_sum "Si O2"
_cell_formula_units_Z 16
_cell_length_a 13.958136
_cell_length_b 14.877805
_cell_length_c 11.655440
_cell_angle_alpha 140.212229
_cell_angle_beta 149.645409
_cell_angle_gamma 39.911079
_cell_volume 741.215588
_symmetry_space_group_name_H-M "P -1"
_symmetry_group_IT_number 2
_symmetry_cell_setting 'triclinic'
loop_
_space_group_symop_operation_xyz
x,y,z
-x,-y,-z
loop_
_atom_site_type_symbol
_atom_site_label
_atom_site_fract_x
_atom_site_fract_y
_atom_site_fract_z
Si Si1 0.667865 0.567507 0.209240
Si Si2 0.523398 0.104996 0.728002
Si Si3 0.860719 0.040310 0.545723
Si Si4 0.765367 0.210015 0.399922
Si Si5 0.019045 0.400135 0.265134
Si Si6 0.027871 0.559743 0.210783
Si Si7 0.644539 0.824534 0.137522
Si Si8 0.040530 0.066374 0.986117
O O1 0.531949 0.735513 0.226914
O O2 0.787653 0.497323 0.147849
O O3 0.833261 0.535593 0.447853
O O4 0.500000 0.500000 0.000000
O O5 0.376474 0.120665 0.698894
O O6 0.500000 0.000000 0.500000
O O7 0.749651 0.046617 0.952115
O O8 0.800028 0.191371 0.555926
O O9 0.698111 0.959300 0.263692
O O10 0.082659 0.935276 0.642414
O O11 0.866457 0.076488 0.722767
O O12 0.798354 0.362361 0.540970
O O13 0.543725 0.212898 0.143358
O O14 0.077100 0.420478 0.212787
O O15 0.057965 0.230323 0.176034
O O16 0.829583 0.677378 0.170005
O O17 0.000000 0.500000 0.000000
O O18 0.000000 0.000000 0.000000
#
# Coordination Sequence:
#
# PCOD8018479 Si02
#       8
#     2   2   2   2   2   2   2   2
#     4  11  25  43  69  99 138 182 230 281 353 416
#     4  12  23  43  67 103 139 179 230 286 342 415
#     4  10  22  40  66  97 135 172 227 282 345 402
#     4  10  22  42  67  98 131 179 227 284 342 404
#     4  11  25  44  67  98 140 180 227 285 347 413
#     4  11  25  45  69  96 139 183 231 282 343 413
#     4  11  23  42  70  98 136 177 229 287 342 410
#     4  12  24  42  68 100 138 178 228 290 347 413
#
# _framework density 21.586162999999999
#
# number of rings (size 3 to 8) (size 9 to 14) (size 15 to 20)
#    0.000    1.000    3.750    2.625    1.750    1.500 
#    2.250    0.000    0.000    0.000    0.000    0.000 
#    0.000    0.000    0.000    0.000    0.000    0.000 
#
# Total GULP energy -198311.017983 kJ/mol
# GULP energy per Si atom -12394.438624 kJ/mol
# Density = 2.153703 g / cm^3
# Si number density = 21.586163 Si / 1000 Ang^3
#
#
#
# Elastic Constant Matrix: (Units=GPa)
#
#
# Indices 1 2 3 4 5 6 
#
# 1 134.4447 54.0651 53.9442 -0.2930 -3.3312 20.4879
# 2 54.0651 108.3276 33.5622 13.7882 8.6366 12.0831
# 3 53.9442 33.5622 115.9929 -13.0181 19.5847 8.9421
# 4 -0.2930 13.7882 -13.0181 16.9555 3.8630 2.3381
# 5 -3.3312 8.6366 19.5847 3.8630 45.6714 -1.3662
# 6 20.4879 12.0831 8.9421 2.3381 -1.3662 47.6812
#
#
#
# Elastic Compliance Matrix: (Units=1/GPa)
#
#
# Indices 1 2 3 4 5 6 
#
# 1 0.011488 -0.004276 -0.004492 -0.000171 0.003500 -0.002902
# 2 -0.004276 0.014456 -0.003769 -0.014620 -0.000205 -0.000408
# 3 -0.004492 -0.003769 0.014957 0.016293 -0.007435 -0.000932
# 4 -0.000171 -0.014620 0.016293 0.086565 -0.011672 -0.003857
# 5 0.003500 -0.000205 -0.007435 -0.011672 0.026403 0.001271
# 6 -0.002902 -0.000408 -0.000932 -0.003857 0.001271 0.022723
#
#
# Mechanical properties :
#
#
# Convention : Reuss Voigt Hill
#
# Bulk Modulus (GPa) = 63.18346 71.32314 67.25330
# Shear Modulus (GPa) = 24.16146 36.54120 30.35133
#
# Velocity S-wave (km/s) = 3.34923 4.11884 3.75381
# Velocity P-wave (km/s) = 6.65510 7.46543 7.07188
#
# Compressibility (1/GPa) = 0.01582693
#
# Stress axis : x y z
#
# Youngs Moduli (GPa) = 87.04460 69.17719 66.85969
#
# Poissons Ratio (x) = 0.29577 0.30035
# Poissons Ratio (y) = 0.37217 0.25200
# Poissons Ratio (z) = 0.39102 0.26073
#
# Static dielectric constant tensor:
#      x y z
#    x 4.091020 0.102120 0.068550 
#    y 0.102120 3.762900 -0.039470 
#    z 0.068550 -0.039470 3.837690 
# 
# 
# High freq. dielectric constant tensor:
#      x y z
#    x 1.859210 0.009480 0.004960 
#    y 0.009480 1.843260 0.001380 
#    z 0.004960 0.001380 1.849830 
# 
# From -- ./inp_files/454405.got.cif
#   From: 2010.06.25/outbox.cif.g09.slc.cpg/sg2_228_cif.got.tgz:454405.got - 2010.06.27 13:26:56.
