data_PCOD8018546
_publ_section_title
;
Structure prediction by ZEFSAII (Michael W. Deem and Ramdas Pophale) SiO2 
 PCOD8018546
Probable space group: P -1
;
_chemical_formula_sum "Si O2"
_cell_formula_units_Z 12
_cell_length_a 20.518352
_cell_length_b 11.508181
_cell_length_c 18.213627
_cell_angle_alpha 148.855557
_cell_angle_beta 19.548245
_cell_angle_gamma 157.671202
_cell_volume 542.462781
_symmetry_space_group_name_H-M "P -1"
_symmetry_group_IT_number 2
_symmetry_cell_setting 'triclinic'
loop_
_space_group_symop_operation_xyz
x,y,z
-x,-y,-z
loop_
_atom_site_type_symbol
_atom_site_label
_atom_site_fract_x
_atom_site_fract_y
_atom_site_fract_z
Si Si1 0.862341 0.341289 0.483083
Si Si2 0.868784 0.843072 0.977073
Si Si3 0.372776 0.128075 0.125650
Si Si4 0.247833 0.875592 0.860444
Si Si5 0.055625 0.240686 0.737444
Si Si6 0.764305 0.048280 0.664603
O O1 0.000000 0.500000 0.500000
O O2 0.975397 0.601979 0.443641
O O3 0.547192 0.132159 0.712334
O O4 0.926356 0.137462 0.280110
O O5 0.600905 0.493748 0.086946
O O6 0.794730 0.018014 0.110864
O O7 0.000000 0.000000 0.000000
O O8 0.201774 0.993156 0.308819
O O9 0.494768 0.976838 0.899997
O O10 0.187632 0.038435 0.205279
O O11 0.186619 0.567503 0.741384
O O12 0.041049 0.803272 0.101036
O O13 0.264341 0.197684 0.488865
#
# Coordination Sequence:
#
# PCOD8018546 Si02
#       6
#     2   2   2   2   2   2
#     4  11  24  45  70  98 130 179 224 272 332 393
#     4  11  26  44  68  99 135 176 221 276 330 389
#     4  10  23  42  66  94 130 174 219 267 328 396
#     4  11  26  42  66  99 137 170 223 274 326 396
#     4  11  24  42  66  98 131 175 216 273 332 388
#     4  10  22  40  67  93 128 172 217 264 325 395
#
# _framework density 22.121334000000001
#
# number of rings (size 3 to 8) (size 9 to 14) (size 15 to 20)
#    0.000    1.333    0.000    4.500    9.333    2.667 
#    0.000    4.167    0.000    0.000    0.000    0.000 
#    0.000    0.000    0.000    0.000    0.000    0.000 
#
# Total GULP energy -148864.412206 kJ/mol
# GULP energy per Si atom -12405.367684 kJ/mol
# Density = 2.207098 g / cm^3
# Si number density = 22.121334 Si / 1000 Ang^3
#
#
#
# Elastic Constant Matrix: (Units=GPa)
#
#
# Indices 1 2 3 4 5 6 
#
# 1 114.9112 56.4118 23.7320 -8.0100 -3.7534 3.8861
# 2 56.4118 128.9958 51.0655 10.0775 -1.3646 -5.8007
# 3 23.7320 51.0655 98.5811 15.6394 7.3866 -4.7010
# 4 -8.0100 10.0775 15.6394 35.2669 -0.5193 2.6836
# 5 -3.7534 -1.3646 7.3866 -0.5193 27.9081 1.9293
# 6 3.8861 -5.8007 -4.7010 2.6836 1.9293 42.2013
#
#
#
# Elastic Compliance Matrix: (Units=1/GPa)
#
#
# Indices 1 2 3 4 5 6 
#
# 1 0.012023 -0.005248 -0.001225 0.004982 0.001941 -0.002370
# 2 -0.005248 0.012168 -0.004587 -0.002756 0.000929 0.001778
# 3 -0.001225 -0.004587 0.014070 -0.005391 -0.004323 0.001590
# 4 0.004982 -0.002756 -0.005391 0.032986 0.002829 -0.003665
# 5 0.001941 0.000929 -0.004323 0.002829 0.037503 -0.002427
# 6 -0.002370 0.001778 0.001590 -0.003665 -0.002427 0.024680
#
#
# Mechanical properties :
#
#
# Convention : Reuss Voigt Hill
#
# Bulk Modulus (GPa) = 61.95506 67.21186 64.58346
# Shear Modulus (GPa) = 31.06934 35.16051 33.11493
#
# Velocity S-wave (km/s) = 3.75173 3.99110 3.87326
# Velocity P-wave (km/s) = 6.84361 7.18942 7.01865
#
# Compressibility (1/GPa) = 0.01614073
#
# Stress axis : x y z
#
# Youngs Moduli (GPa) = 83.17708 82.17984 71.07254
#
# Poissons Ratio (x) = 0.43129 0.08703
# Poissons Ratio (y) = 0.43653 0.32604
# Poissons Ratio (z) = 0.10186 0.37700
#
# Static dielectric constant tensor:
#      x y z
#    x 3.841800 -0.237130 0.056860 
#    y -0.237130 4.015980 0.142450 
#    z 0.056860 0.142450 4.275780 
# 
# 
# High freq. dielectric constant tensor:
#      x y z
#    x 1.870290 -0.014410 0.003140 
#    y -0.014410 1.872330 0.008820 
#    z 0.003140 0.008820 1.884220 
# 
# From -- ./inp_files/160330.got.cif
#   From: 2010.06.25/outbox.cif.g09.slc.cpg/sg2_81_cif.got.tgz:160330.got - 2010.06.27 13:26:56.
