data_PCOD8018898
_publ_section_title
;
Structure prediction by ZEFSAII (Michael W. Deem and Ramdas Pophale) SiO2 
 PCOD8018898
Probable space group: P -1
;
_chemical_formula_sum "Si O2"
_cell_formula_units_Z 16
_cell_length_a 12.092594
_cell_length_b 9.130463
_cell_length_c 14.618987
_cell_angle_alpha 132.734769
_cell_angle_beta 140.569195
_cell_angle_gamma 65.109555
_cell_volume 734.323504
_symmetry_space_group_name_H-M "P -1"
_symmetry_group_IT_number 2
_symmetry_cell_setting 'triclinic'
loop_
_space_group_symop_operation_xyz
x,y,z
-x,-y,-z
loop_
_atom_site_type_symbol
_atom_site_label
_atom_site_fract_x
_atom_site_fract_y
_atom_site_fract_z
Si Si1 0.184671 0.073059 0.593877
Si Si2 0.272094 0.177926 0.201750
Si Si3 0.967579 0.585002 0.416209
Si Si4 0.064579 0.724413 0.896873
Si Si5 0.346578 0.693416 0.211014
Si Si6 0.396848 0.909297 0.521619
Si Si7 0.297088 0.933414 0.774012
Si Si8 0.366303 0.250596 0.087150
O O1 0.190654 0.288539 0.637209
O O2 0.227120 0.909637 0.478046
O O3 0.338842 0.083459 0.774712
O O4 0.000000 0.000000 0.500000
O O5 0.454001 0.197709 0.383659
O O6 0.320852 0.268811 0.171208
O O7 0.145391 0.306166 0.225746
O O8 0.156165 0.951221 0.020811
O O9 0.917121 0.406312 0.235308
O O10 0.000000 0.500000 0.500000
O O11 0.144992 0.741925 0.566411
O O12 0.165940 0.664182 0.024512
O O13 0.312371 0.782416 0.325835
O O14 0.391446 0.472246 0.152249
O O15 0.511520 0.853441 0.339431
O O16 0.457958 0.830428 0.858859
O O17 0.227906 0.068956 0.867636
#
# Coordination Sequence:
#
# PCOD8018898 Si02
#       8
#     2   2   2   2   2   2   2   2
#     4  10  22  41  62  89 131 169 208 269 317 383
#     4  10  22  41  67  89 134 165 215 274 310 385
#     4  11  24  39  66  93 126 171 213 261 322 388
#     4  10  23  43  62  97 126 170 215 262 326 378
#     4  10  24  40  66  96 130 168 217 270 320 386
#     4  10  22  43  64  96 128 173 216 265 328 376
#     4  10  23  40  59  93 131 166 215 258 318 388
#     4  11  22  39  63  94 127 169 213 266 319 372
#
# _framework density 21.788761000000001
#
# number of rings (size 3 to 8) (size 9 to 14) (size 15 to 20)
#    0.000    1.750    1.250    1.500    3.500    8.000 
#    0.000    1.875    0.000    0.000    0.000    0.000 
#    0.000    0.000    0.000    0.000    0.000    0.000 
#
# Total GULP energy -198252.381344 kJ/mol
# GULP energy per Si atom -12390.773834 kJ/mol
# Density = 2.173917 g / cm^3
# Si number density = 21.788761 Si / 1000 Ang^3
#
#
#
# Elastic Constant Matrix: (Units=GPa)
#
#
# Indices 1 2 3 4 5 6 
#
# 1 112.8508 45.3291 40.1497 -17.3693 -19.2165 -13.2363
# 2 45.3291 169.9170 39.2889 -18.0833 -12.5708 -4.7251
# 3 40.1497 39.2889 83.5031 -12.0772 -26.5212 -6.1673
# 4 -17.3693 -18.0833 -12.0772 25.8550 5.5922 -3.3604
# 5 -19.2165 -12.5708 -26.5212 5.5922 35.2522 -3.3968
# 6 -13.2363 -4.7251 -6.1673 -3.3604 -3.3968 35.8271
#
#
#
# Elastic Compliance Matrix: (Units=1/GPa)
#
#
# Indices 1 2 3 4 5 6 
#
# 1 0.012662 -0.001675 -0.002951 0.005800 0.003631 0.004838
# 2 -0.001675 0.007138 -0.002289 0.002934 -0.000541 0.000152
# 3 -0.002951 -0.002289 0.018836 0.003136 0.011561 0.003241
# 4 0.005800 0.002934 0.003136 0.047102 -0.000185 0.007470
# 5 0.003631 -0.000541 0.011561 -0.000185 0.039554 0.006993
# 6 0.004838 0.000152 0.003241 0.007470 0.006993 0.031641
#
#
# Mechanical properties :
#
#
# Convention : Reuss Voigt Hill
#
# Bulk Modulus (GPa) = 40.31191 68.42291 54.36741
# Shear Modulus (GPa) = 27.92797 35.48709 31.70753
#
# Velocity S-wave (km/s) = 3.58405 4.04008 3.81888
# Velocity P-wave (km/s) = 5.97232 7.29616 6.66718
#
# Compressibility (1/GPa) = 0.02480656
#
# Stress axis : x y z
#
# Youngs Moduli (GPa) = 78.97435 140.09614 53.08960
#
# Poissons Ratio (x) = 0.23470 0.15664
# Poissons Ratio (y) = 0.13231 0.12152
# Poissons Ratio (z) = 0.23302 0.32069
#
# Static dielectric constant tensor:
#      x y z
#    x 3.795970 0.101780 -0.235290 
#    y 0.101780 5.309430 -0.630920 
#    z -0.235290 -0.630920 4.135060 
# 
# 
# High freq. dielectric constant tensor:
#      x y z
#    x 1.849980 -0.001530 -0.019450 
#    y -0.001530 1.878470 -0.012160 
#    z -0.019450 -0.012160 1.847190 
# 
# From -- ./inp_files/516314.got.cif
#   From: 2010.06.25/outbox.cif.g09.slc.cpg/sg2_259_cif.got.tgz:516314.got - 2010.06.27 13:26:56.
