data_PCOD8018992
_publ_section_title
;
Structure prediction by ZEFSAII (Michael W. Deem and Ramdas Pophale) SiO2 
 PCOD8018992
Probable space group: P -1
;
_chemical_formula_sum "Si O2"
_cell_formula_units_Z 16
_cell_length_a 22.822886
_cell_length_b 8.129741
_cell_length_c 20.115173
_cell_angle_alpha 138.785199
_cell_angle_beta 20.604572
_cell_angle_gamma 147.556054
_cell_volume 690.444762
_symmetry_space_group_name_H-M "P -1"
_symmetry_group_IT_number 2
_symmetry_cell_setting 'triclinic'
loop_
_space_group_symop_operation_xyz
x,y,z
-x,-y,-z
loop_
_atom_site_type_symbol
_atom_site_label
_atom_site_fract_x
_atom_site_fract_y
_atom_site_fract_z
Si Si1 0.411005 0.664973 0.112115
Si Si2 0.948419 0.508787 0.244718
Si Si3 0.051255 0.915443 0.571558
Si Si4 0.201659 0.610289 0.779351
Si Si5 0.675088 0.803080 0.511699
Si Si6 0.421989 0.858362 0.380727
Si Si7 0.638310 0.354125 0.111232
Si Si8 0.440749 0.308791 0.181127
O O1 0.497657 0.977719 0.154983
O O2 0.500000 0.500000 0.000000
O O3 0.500903 0.779997 0.975988
O O4 0.157845 0.441034 0.320729
O O5 0.018437 0.857326 0.288559
O O6 0.839990 0.370952 0.247449
O O7 0.789832 0.279820 0.398838
O O8 0.137220 0.488812 0.048375
O O9 0.136420 0.939064 0.562300
O O10 0.226267 0.018829 0.358757
O O11 0.257080 0.368261 0.657899
O O12 0.386438 0.948016 0.713051
O O13 0.000000 0.500000 0.000000
O O14 0.483676 0.545238 0.685390
O O15 0.571798 0.931883 0.619153
O O16 0.422078 0.582579 0.265309
O O17 0.637692 0.445280 0.063146
#
# Coordination Sequence:
#
# PCOD8018992 Si02
#       8
#     2   2   2   2   2   2   2   2
#     4  12  23  40  71  94 131 181 224 262 333 387
#     4  10  22  41  63  94 134 165 215 274 322 388
#     4   9  22  43  62  95 134 173 217 276 318 379
#     4  11  24  42  70  94 128 169 217 267 328 400
#     4  10  23  42  66  94 133 165 219 270 322 394
#     4  11  23  42  66  99 127 177 211 270 332 383
#     4  11  23  44  63  96 133 175 214 274 323 383
#     4  10  25  42  63  98 139 169 226 271 317 393
#
# _framework density 23.173466999999999
#
# number of rings (size 3 to 8) (size 9 to 14) (size 15 to 20)
#    0.000    1.500    1.250    3.375    5.250    2.500 
#    2.250    1.875    0.000    0.000    0.000    0.000 
#    0.000    0.000    0.000    0.000    0.000    0.000 
#
# Total GULP energy -198343.267213 kJ/mol
# GULP energy per Si atom -12396.454201 kJ/mol
# Density = 2.312072 g / cm^3
# Si number density = 23.173467 Si / 1000 Ang^3
#
#
#
# Elastic Constant Matrix: (Units=GPa)
#
#
# Indices 1 2 3 4 5 6 
#
# 1 89.5727 0.3792 21.4447 -2.4295 -4.3412 -5.3719
# 2 0.3792 48.9270 26.6340 -12.7562 6.6045 8.4180
# 3 21.4447 26.6340 124.9603 -2.7869 -6.1713 14.2407
# 4 -2.4295 -12.7562 -2.7869 32.4971 5.0389 -6.1451
# 5 -4.3412 6.6045 -6.1713 5.0389 44.5104 2.1259
# 6 -5.3719 8.4180 14.2407 -6.1451 2.1259 26.9193
#
#
#
# Elastic Compliance Matrix: (Units=1/GPa)
#
#
# Indices 1 2 3 4 5 6 
#
# 1 0.012103 0.001158 -0.002714 0.001824 0.000240 0.003886
# 2 0.001158 0.027685 -0.005881 0.010925 -0.005935 -0.002353
# 3 -0.002714 -0.005881 0.010363 -0.002989 0.002625 -0.005075
# 4 0.001824 0.010925 -0.002989 0.037372 -0.006450 0.007570
# 5 0.000240 -0.005935 0.002625 -0.006450 0.024603 -0.002901
# 6 0.003886 -0.002353 -0.005075 0.007570 -0.002901 0.043301
#
#
# Mechanical properties :
#
#
# Convention : Reuss Voigt Hill
#
# Bulk Modulus (GPa) = 28.34641 40.04176 34.19408
# Shear Modulus (GPa) = 27.46332 35.11884 31.29108
#
# Velocity S-wave (km/s) = 3.44629 3.89714 3.67863
# Velocity P-wave (km/s) = 5.30044 6.12918 5.72982
#
# Compressibility (1/GPa) = 0.03527783
#
# Stress axis : x y z
#
# Youngs Moduli (GPa) = 82.62236 36.12028 96.49610
#
# Poissons Ratio (x) = -0.04184 0.26192
# Poissons Ratio (y) = -0.09571 0.56749
# Poissons Ratio (z) = 0.22426 0.21242
#
# Static dielectric constant tensor:
#      x y z
#    x 4.123320 -0.063340 -0.022330 
#    y -0.063340 3.919620 0.189090 
#    z -0.022330 0.189090 4.405860 
# 
# 
# High freq. dielectric constant tensor:
#      x y z
#    x 1.925570 -0.004780 -0.006040 
#    y -0.004780 1.897350 0.014080 
#    z -0.006040 0.014080 1.933490 
# 
# From -- ./inp_files/221794.got.cif
#   From: 2010.06.25/outbox.cif.g09.slc.cpg/sg2_111_cif.got.tgz:221794.got - 2010.06.27 13:26:56.
