data_PCOD8018928
_publ_section_title
;
Structure prediction by ZEFSAII (Michael W. Deem and Ramdas Pophale) SiO2 
 PCOD8018928
Probable space group: P -1
;
_chemical_formula_sum "Si O2"
_cell_formula_units_Z 12
_cell_length_a 12.974986
_cell_length_b 23.433419
_cell_length_c 9.062160
_cell_angle_alpha 36.486625
_cell_angle_beta 149.295035
_cell_angle_gamma 155.553561
_cell_volume 579.286647
_symmetry_space_group_name_H-M "P -1"
_symmetry_group_IT_number 2
_symmetry_cell_setting 'triclinic'
loop_
_space_group_symop_operation_xyz
x,y,z
-x,-y,-z
loop_
_atom_site_type_symbol
_atom_site_label
_atom_site_fract_x
_atom_site_fract_y
_atom_site_fract_z
Si Si1 0.287489 0.354231 0.623002
Si Si2 0.168294 0.113544 0.843821
Si Si3 0.592237 0.969410 0.314778
Si Si4 0.606905 0.462238 0.089608
Si Si5 0.745685 0.298810 0.688028
Si Si6 0.638809 0.163239 0.143382
O O1 0.500000 0.500000 0.500000
O O2 0.322798 0.262511 0.782485
O O3 0.959328 0.280505 0.363020
O O4 0.364588 0.371779 0.853335
O O5 0.415207 0.128978 0.055138
O O6 0.934733 0.059023 0.541487
O O7 0.000000 0.000000 0.000000
O O8 0.396224 0.805967 0.409569
O O9 0.549601 0.020813 0.301453
O O10 0.500000 0.000000 0.000000
O O11 0.655393 0.378098 0.405027
O O12 0.908870 0.599763 0.102032
O O13 0.500000 0.500000 0.000000
O O14 0.621950 0.216282 0.860205
#
# Coordination Sequence:
#
# PCOD8018928 Si02
#       6
#     2   2   2   2   2   2
#     4  11  24  44  67  97 132 171 223 269 323 394
#     4  11  25  42  65  96 131 172 221 269 326 386
#     4   9  21  40  64  93 125 162 214 265 318 386
#     4  11  25  40  65  94 131 170 215 268 321 385
#     4  10  22  41  62  96 130 167 216 265 324 386
#     4  10  23  42  70  92 130 173 216 268 330 385
#
# _framework density 20.715133000000002
#
# number of rings (size 3 to 8) (size 9 to 14) (size 15 to 20)
#    0.000    1.667    1.667    1.000    2.333   12.667 
#    0.000    0.000    0.000    0.000    0.000    0.000 
#    0.000    0.000    0.000    0.000    0.000    0.000 
#
# Total GULP energy -148810.966931 kJ/mol
# GULP energy per Si atom -12400.913911 kJ/mol
# Density = 2.066798 g / cm^3
# Si number density = 20.715133 Si / 1000 Ang^3
#
#
#
# Elastic Constant Matrix: (Units=GPa)
#
#
# Indices 1 2 3 4 5 6 
#
# 1 123.4733 61.9295 60.8228 9.0669 30.8530 0.1187
# 2 61.9295 142.0106 48.8679 4.5060 18.4456 -17.7473
# 3 60.8228 48.8679 110.3241 22.1029 21.7131 -5.9779
# 4 9.0669 4.5060 22.1029 41.3698 -5.4184 -7.4603
# 5 30.8530 18.4456 21.7131 -5.4184 41.4602 -0.6528
# 6 0.1187 -17.7473 -5.9779 -7.4603 -0.6528 33.0858
#
#
#
# Elastic Compliance Matrix: (Units=1/GPa)
#
#
# Indices 1 2 3 4 5 6 
#
# 1 0.014215 -0.004179 -0.004521 -0.001771 -0.006640 -0.003640
# 2 -0.004179 0.010305 -0.002410 0.002108 0.000151 0.005586
# 3 -0.004521 -0.002410 0.014937 -0.007355 -0.004352 -0.000322
# 4 -0.001771 0.002108 -0.007355 0.030591 0.008338 0.006871
# 5 -0.006640 0.000151 -0.004352 0.008338 0.032391 0.001838
# 6 -0.003640 0.005586 -0.000322 0.006871 0.001838 0.034761
#
#
# Mechanical properties :
#
#
# Convention : Reuss Voigt Hill
#
# Bulk Modulus (GPa) = 58.01873 79.89427 68.95650
# Shear Modulus (GPa) = 30.27236 36.79570 33.53403
#
# Velocity S-wave (km/s) = 3.82693 4.21916 4.02782
# Velocity P-wave (km/s) = 6.89898 7.89853 7.41561
#
# Compressibility (1/GPa) = 0.01723581
#
# Stress axis : x y z
#
# Youngs Moduli (GPa) = 70.34831 97.03868 66.94795
#
# Poissons Ratio (x) = 0.40557 0.30269
# Poissons Ratio (y) = 0.29402 0.16134
# Poissons Ratio (z) = 0.31807 0.23385
#
# Static dielectric constant tensor:
#      x y z
#    x 3.570120 -0.444490 0.044900 
#    y -0.444490 3.954590 -0.136390 
#    z 0.044900 -0.136390 3.937490 
# 
# 
# High freq. dielectric constant tensor:
#      x y z
#    x 1.792320 -0.016080 0.000630 
#    y -0.016080 1.826060 0.002120 
#    z 0.000630 0.002120 1.832560 
# 
# From -- ./inp_files/21487.got.cif
#   From: 2010.06.25/outbox.cif.g09.slc.cpg/sg2_11_cif.got.tgz:21487.got - 2010.06.27 13:26:56.
