data_PCOD8018090
_publ_section_title
;
Structure prediction by ZEFSAII (Michael W. Deem and Ramdas Pophale) SiO2 
 PCOD8018090
Probable space group: P -1
;
_chemical_formula_sum "Si O2"
_cell_formula_units_Z 12
_cell_length_a 7.696641
_cell_length_b 24.646864
_cell_length_c 23.835362
_cell_angle_alpha 11.708652
_cell_angle_beta 143.830269
_cell_angle_gamma 142.721531
_cell_volume 541.018346
_symmetry_space_group_name_H-M "P -1"
_symmetry_group_IT_number 2
_symmetry_cell_setting 'triclinic'
loop_
_space_group_symop_operation_xyz
x,y,z
-x,-y,-z
loop_
_atom_site_type_symbol
_atom_site_label
_atom_site_fract_x
_atom_site_fract_y
_atom_site_fract_z
Si Si1 0.353553 0.265252 0.295701
Si Si2 0.094221 0.013716 0.074732
Si Si3 0.951209 0.234734 0.326219
Si Si4 0.230932 0.022661 0.725019
Si Si5 0.007470 0.477315 0.270367
Si Si6 0.848020 0.486299 0.602147
O O1 0.228489 0.249960 0.341436
O O2 0.695129 0.340935 0.310839
O O3 0.305179 0.975444 0.548332
O O4 0.186262 0.475436 0.000785
O O5 0.444302 0.056582 0.127212
O O6 0.994912 0.750008 0.347957
O O7 0.934051 0.250010 0.823609
O O8 0.000000 0.000000 0.000000
O O9 0.063727 0.159068 0.492705
O O10 0.241620 0.249980 0.546671
O O11 0.058389 0.749979 0.973374
O O12 0.025327 0.556560 0.259646
O O13 0.500000 0.500000 0.500000
#
# Coordination Sequence:
#
# PCOD8018090 Si02
#       6
#     2   2   2   2   2   2
#     4  10  22  40  62  89 125 169 214 260 314 372
#     4  12  25  45  70  96 129 166 210 260 317 378
#     4  10  22  40  62  89 125 169 214 260 314 372
#     4  12  25  41  64  96 131 167 212 261 316 376
#     4  12  25  41  64  96 131 167 212 261 316 376
#     4  12  25  45  70  96 129 166 210 260 317 378
#
# _framework density 22.180394
#
# number of rings (size 3 to 8) (size 9 to 14) (size 15 to 20)
#    0.000    0.667    0.000    8.000    0.000    8.000 
#    0.000    0.000    0.000    0.000    0.000    0.000 
#    0.000    0.000    0.000    0.000    0.000    0.000 
#
# Total GULP energy -148875.047913 kJ/mol
# GULP energy per Si atom -12406.253993 kJ/mol
# Density = 2.212991 g / cm^3
# Si number density = 22.180394 Si / 1000 Ang^3
#
#
#
# Elastic Constant Matrix: (Units=GPa)
#
#
# Indices 1 2 3 4 5 6 
#
# 1 130.1601 66.0901 63.1767 0.4542 -3.5196 0.2606
# 2 66.0901 91.1166 27.6881 6.7114 -12.2969 4.0402
# 3 63.1767 27.6881 138.5024 -18.4626 -8.9033 -2.5731
# 4 0.4542 6.7114 -18.4626 30.6928 -4.7781 -2.2954
# 5 -3.5196 -12.2969 -8.9033 -4.7781 55.6706 -8.8552
# 6 0.2606 4.0402 -2.5731 -2.2954 -8.8552 29.2743
#
#
#
# Elastic Compliance Matrix: (Units=1/GPa)
#
#
# Indices 1 2 3 4 5 6 
#
# 1 0.015000 -0.009422 -0.005325 -0.001705 -0.002144 -0.000084
# 2 -0.009422 0.018439 0.000317 -0.003377 0.002951 -0.001805
# 3 -0.005325 0.000317 0.010713 0.006994 0.002400 0.002220
# 4 -0.001705 -0.003377 0.006994 0.038654 0.004453 0.005474
# 5 -0.002144 0.002951 0.002400 0.004453 0.020247 0.006296
# 6 -0.000084 -0.001805 0.002220 0.005474 0.006296 0.036938
#
#
# Mechanical properties :
#
#
# Convention : Reuss Voigt Hill
#
# Bulk Modulus (GPa) = 65.38676 74.85433 70.12054
# Shear Modulus (GPa) = 28.74416 36.64915 32.69666
#
# Velocity S-wave (km/s) = 3.60380 4.06929 3.84360
# Velocity P-wave (km/s) = 6.84544 7.47663 7.16799
#
# Compressibility (1/GPa) = 0.01529362
#
# Stress axis : x y z
#
# Youngs Moduli (GPa) = 66.66837 54.23154 93.34075
#
# Poissons Ratio (x) = 0.51095 0.49705
# Poissons Ratio (y) = 0.62813 -0.02962
# Poissons Ratio (z) = 0.35502 -0.01721
#
# Static dielectric constant tensor:
#      x y z
#    x 4.443910 -0.032250 -0.010720 
#    y -0.032250 3.926110 -0.099610 
#    z -0.010720 -0.099610 4.266450 
# 
# 
# High freq. dielectric constant tensor:
#      x y z
#    x 1.894160 0.000210 -0.005670 
#    y 0.000210 1.874940 -0.005370 
#    z -0.005670 -0.005370 1.894610 
# 
# From -- ./inp_files/128947.got.cif
#   From: 2010.06.25/outbox.cif.g09.slc.cpg/sg2_65_cif.got.tgz:128947.got - 2010.06.27 13:26:56.
