data_PCOD8018523
_publ_section_title
;
Structure prediction by ZEFSAII (Michael W. Deem and Ramdas Pophale) SiO2 
 PCOD8018523
Probable space group: P -1
;
_chemical_formula_sum "Si O2"
_cell_formula_units_Z 16
_cell_length_a 23.346358
_cell_length_b 9.292806
_cell_length_c 8.553398
_cell_angle_alpha 126.917127
_cell_angle_beta 31.814125
_cell_angle_gamma 128.666959
_cell_volume 752.769974
_symmetry_space_group_name_H-M "P -1"
_symmetry_group_IT_number 2
_symmetry_cell_setting 'triclinic'
loop_
_space_group_symop_operation_xyz
x,y,z
-x,-y,-z
loop_
_atom_site_type_symbol
_atom_site_label
_atom_site_fract_x
_atom_site_fract_y
_atom_site_fract_z
Si Si1 0.183457 0.358385 0.854558
Si Si2 0.761822 0.116446 0.649675
Si Si3 0.056329 0.604180 0.171713
Si Si4 0.663646 0.458597 0.125445
Si Si5 0.979632 0.113243 0.324118
Si Si6 0.922280 0.216664 0.080357
Si Si7 0.623054 0.741858 0.818701
Si Si8 0.461926 0.435476 0.791236
O O1 0.254951 0.369955 0.856219
O O2 0.261010 0.319796 0.509178
O O3 0.155423 0.554617 0.010488
O O4 0.068894 0.187501 0.023442
O O5 0.853032 0.096152 0.553381
O O6 0.810410 0.096884 0.350634
O O7 0.647335 0.954296 0.841188
O O8 0.733109 0.310073 0.849469
O O9 0.991059 0.725281 0.504336
O O10 0.972942 0.405621 0.185392
O O11 0.111295 0.727125 0.975627
O O12 0.549741 0.372629 0.433636
O O13 0.637532 0.527773 0.060950
O O14 0.991167 0.912621 0.225440
O O15 0.520606 0.622451 0.873593
O O16 0.590435 0.727249 0.068352
#
# Coordination Sequence:
#
# PCOD8018523 Si02
#       8
#     2   2   2   2   2   2   2   2
#     4  11  20  40  63  89 126 173 203 249 319 380
#     4  12  22  39  63  96 123 170 204 255 317 382
#     4  11  23  39  60  88 132 181 209 252 302 366
#     4  10  22  40  67  89 121 159 213 254 323 379
#     4  12  22  43  60  94 140 169 208 254 307 385
#     4  11  24  39  59  93 132 174 217 251 300 372
#     4  10  22  40  68  88 121 160 207 265 325 367
#     4   9  22  46  63  91 116 158 210 273 317 374
#
# _framework density 21.254832
#
# number of rings (size 3 to 8) (size 9 to 14) (size 15 to 20)
#    0.000    1.250    3.750    2.625    1.750    1.000 
#    4.500    0.000    0.000    0.000    0.000    0.000 
#    0.000    0.000    0.000    0.000    0.000    0.000 
#
# Total GULP energy -198386.566304 kJ/mol
# GULP energy per Si atom -12399.160394 kJ/mol
# Density = 2.120646 g / cm^3
# Si number density = 21.254832 Si / 1000 Ang^3
#
#
#
# Elastic Constant Matrix: (Units=GPa)
#
#
# Indices 1 2 3 4 5 6 
#
# 1 101.2933 22.0919 19.1256 -7.2139 -0.9322 -23.1857
# 2 22.0919 72.7169 10.5305 -0.2479 0.8119 -12.2430
# 3 19.1256 10.5305 57.4764 3.7571 4.5258 -5.1549
# 4 -7.2139 -0.2479 3.7571 42.6314 -4.2731 3.3458
# 5 -0.9322 0.8119 4.5258 -4.2731 32.0107 -2.6561
# 6 -23.1857 -12.2430 -5.1549 3.3458 -2.6561 27.0031
#
#
#
# Elastic Compliance Matrix: (Units=1/GPa)
#
#
# Indices 1 2 3 4 5 6 
#
# 1 0.013377 -0.001905 -0.003503 0.001986 0.002020 0.009906
# 2 -0.001905 0.015436 -0.001718 -0.000466 0.000158 0.005109
# 3 -0.003503 -0.001718 0.019289 -0.002610 -0.003141 -0.000090
# 4 0.001986 -0.000466 -0.002610 0.024511 0.003570 -0.001690
# 5 0.002020 0.000158 -0.003141 0.003570 0.032544 0.003965
# 6 0.009906 0.005109 -0.000090 -0.001690 0.003965 0.048437
#
#
# Mechanical properties :
#
#
# Convention : Reuss Voigt Hill
#
# Bulk Modulus (GPa) = 29.54152 37.22028 33.38090
# Shear Modulus (GPa) = 27.91307 32.31160 30.11233
#
# Velocity S-wave (km/s) = 3.62782 3.90320 3.76803
# Velocity P-wave (km/s) = 5.61044 6.15328 5.88812
#
# Compressibility (1/GPa) = 0.03385066
#
# Stress axis : x y z
#
# Youngs Moduli (GPa) = 74.75774 64.78292 51.84377
#
# Poissons Ratio (x) = 0.12339 0.18159
# Poissons Ratio (y) = 0.14239 0.08907
# Poissons Ratio (z) = 0.26185 0.11130
#
# Static dielectric constant tensor:
#      x y z
#    x 3.887770 -0.105080 0.075370 
#    y -0.105080 3.800920 0.045770 
#    z 0.075370 0.045770 3.877450 
# 
# 
# High freq. dielectric constant tensor:
#      x y z
#    x 1.828340 -0.005100 0.008320 
#    y -0.005100 1.826120 0.005910 
#    z 0.008320 0.005910 1.832850 
# 
# From -- ./inp_files/203821.got.cif
#   From: 2010.06.25/outbox.cif.g09.slc.cpg/sg2_102_cif.got.tgz:203821.got - 2010.06.27 13:26:56.
