data_PCOD8018416
_publ_section_title
;
Structure prediction by ZEFSAII (Michael W. Deem and Ramdas Pophale) SiO2 
 PCOD8018416
Probable space group: P -1
;
_chemical_formula_sum "Si O2"
_cell_formula_units_Z 16
_cell_length_a 19.680306
_cell_length_b 5.438156
_cell_length_c 8.653522
_cell_angle_alpha 75.807630
_cell_angle_beta 51.021179
_cell_angle_gamma 67.823478
_cell_volume 666.663535
_symmetry_space_group_name_H-M "P -1"
_symmetry_group_IT_number 2
_symmetry_cell_setting 'triclinic'
loop_
_space_group_symop_operation_xyz
x,y,z
-x,-y,-z
loop_
_atom_site_type_symbol
_atom_site_label
_atom_site_fract_x
_atom_site_fract_y
_atom_site_fract_z
Si Si1 0.696143 0.281492 0.981090
Si Si2 0.124360 0.339008 0.702873
Si Si3 0.852643 0.347053 0.934263
Si Si4 0.949556 0.758866 0.858920
Si Si5 0.409596 0.184396 0.025712
Si Si6 0.600548 0.916515 0.300326
Si Si7 0.735455 0.462790 0.361154
Si Si8 0.744834 0.021296 0.637540
O O1 0.764894 0.434601 0.931464
O O2 0.752891 0.094831 0.793553
O O3 0.606219 0.497428 0.002896
O O4 0.661092 0.124328 0.194304
O O5 0.220517 0.353803 0.627693
O O6 0.057475 0.621877 0.692921
O O7 0.153498 0.137266 0.547001
O O8 0.068117 0.243669 0.931207
O O9 0.894950 0.592579 0.860370
O O10 0.921794 0.072964 0.808648
O O11 0.815051 0.283355 0.163570
O O12 0.409688 0.094979 0.864806
O O13 0.500000 0.000000 0.000000
O O14 0.324868 0.151251 0.250236
O O15 0.500000 0.000000 0.500000
O O16 0.652615 0.641914 0.350131
O O17 0.699917 0.277412 0.554954
#
# Coordination Sequence:
#
# PCOD8018416 Si02
#       8
#     2   2   2   2   2   2   2   2
#     4  11  25  47  68  97 146 193 231 294 369 435
#     4  10  22  40  66 106 141 184 236 298 361 419
#     4  11  22  44  72 102 142 192 241 303 357 429
#     4  10  23  39  73 106 145 181 251 302 360 421
#     4  11  27  46  68 100 141 186 235 295 365 432
#     4  11  27  43  72 105 137 184 243 299 357 426
#     4  11  23  42  72 103 141 186 242 293 354 432
#     4  11  25  42  71  98 145 186 240 286 369 430
#
# _framework density 24.000112999999999
#
# number of rings (size 3 to 8) (size 9 to 14) (size 15 to 20)
#    0.000    1.250    2.500    2.250    8.750    3.000 
#    0.000    1.250    0.000    0.000    0.000    0.000 
#    0.000    0.000    0.000    0.000    0.000    0.000 
#
# Total GULP energy -198266.696835 kJ/mol
# GULP energy per Si atom -12391.668552 kJ/mol
# Density = 2.394549 g / cm^3
# Si number density = 24.000113 Si / 1000 Ang^3
#
#
#
# Elastic Constant Matrix: (Units=GPa)
#
#
# Indices 1 2 3 4 5 6 
#
# 1 77.7863 9.1181 23.7557 14.7073 2.3781 -12.2951
# 2 9.1181 96.1600 27.4604 12.0336 2.0210 -14.2491
# 3 23.7557 27.4604 100.7955 8.3777 -4.4487 -7.1136
# 4 14.7073 12.0336 8.3777 39.7221 -7.0206 1.7900
# 5 2.3781 2.0210 -4.4487 -7.0206 16.8089 3.9345
# 6 -12.2951 -14.2491 -7.1136 1.7900 3.9345 41.7561
#
#
#
# Elastic Compliance Matrix: (Units=1/GPa)
#
#
# Indices 1 2 3 4 5 6 
#
# 1 0.016314 0.001403 -0.003557 -0.007358 -0.007833 0.005730
# 2 0.001403 0.012672 -0.003282 -0.004913 -0.005798 0.004935
# 3 -0.003557 -0.003282 0.011752 0.000641 0.004419 -0.000609
# 4 -0.007358 -0.004913 0.000641 0.032556 0.016974 -0.006729
# 5 -0.007833 -0.005798 0.004419 0.016974 0.072145 -0.011058
# 6 0.005730 0.004935 -0.000609 -0.006729 -0.011058 0.028546
#
#
# Mechanical properties :
#
#
# Convention : Reuss Voigt Hill
#
# Bulk Modulus (GPa) = 33.48283 43.93448 38.70866
# Shear Modulus (GPa) = 25.66584 33.95127 29.80856
#
# Velocity S-wave (km/s) = 3.27372 3.76524 3.52805
# Velocity P-wave (km/s) = 5.31706 6.10314 5.72361
#
# Compressibility (1/GPa) = 0.02986605
#
# Stress axis : x y z
#
# Youngs Moduli (GPa) = 61.29770 78.91689 85.08958
#
# Poissons Ratio (x) = -0.11074 0.30266
# Poissons Ratio (y) = -0.08602 0.27928
# Poissons Ratio (z) = 0.21803 0.25902
#
# Static dielectric constant tensor:
#      x y z
#    x 4.244970 0.126900 -0.101920 
#    y 0.126900 4.797930 -0.219370 
#    z -0.101920 -0.219370 4.627470 
# 
# 
# High freq. dielectric constant tensor:
#      x y z
#    x 1.936770 -0.007240 0.006000 
#    y -0.007240 1.959890 0.013760 
#    z 0.006000 0.013760 1.944780 
# 
# From -- ./inp_files/350527.got.cif
#   From: 2010.06.25/outbox.cif.g09.slc.cpg/sg2_176_cif.got.tgz:350527.got - 2010.06.27 13:26:56.
