data_PCOD8018015
_publ_section_title
;
Structure prediction by ZEFSAII (Michael W. Deem and Ramdas Pophale) SiO2 
 PCOD8018015
Probable space group: P -1
;
_chemical_formula_sum "Si O2"
_cell_formula_units_Z 16
_cell_length_a 9.203527
_cell_length_b 8.676877
_cell_length_c 14.019703
_cell_angle_alpha 90.124764
_cell_angle_beta 136.312021
_cell_angle_gamma 97.907054
_cell_volume 757.476247
_symmetry_space_group_name_H-M "P -1"
_symmetry_group_IT_number 2
_symmetry_cell_setting 'triclinic'
loop_
_space_group_symop_operation_xyz
x,y,z
-x,-y,-z
loop_
_atom_site_type_symbol
_atom_site_label
_atom_site_fract_x
_atom_site_fract_y
_atom_site_fract_z
Si Si1 0.789566 0.643376 0.365594
Si Si2 0.278768 0.389713 0.875117
Si Si3 0.858064 0.445011 0.736454
Si Si4 0.014967 0.773703 0.887419
Si Si5 0.760908 0.345197 0.475279
Si Si6 0.634575 0.885772 0.797699
Si Si7 0.316945 0.065017 0.962736
Si Si8 0.630792 0.237515 0.795893
O O1 0.766849 0.557125 0.252658
O O2 0.749357 0.514964 0.428593
O O3 0.616562 0.756123 0.294326
O O4 0.043974 0.726234 0.480719
O O5 0.274016 0.204832 0.876384
O O6 0.100393 0.420018 0.865284
O O7 0.500000 0.500000 0.000000
O O8 0.880234 0.633866 0.758168
O O9 0.769354 0.371989 0.593252
O O10 0.706320 0.360165 0.747550
O O11 0.859089 0.832675 0.888600
O O12 0.107706 0.924679 0.866000
O O13 0.210884 0.719615 0.037665
O O14 0.546184 0.223510 0.349487
O O15 0.640729 0.063114 0.765241
O O16 0.595940 0.871012 0.892279
O O17 0.500000 0.000000 0.000000
#
# Coordination Sequence:
#
# PCOD8018015 Si02
#       8
#     2   2   2   2   2   2   2   2
#     4  10  22  40  60  84 121 157 202 248 292 358
#     4  11  20  36  61  89 118 154 201 252 299 352
#     4  11  23  39  62  88 119 161 209 245 289 364
#     4  11  23  40  63  92 125 158 195 253 311 351
#     4  10  24  43  60  86 122 168 203 240 300 358
#     4  11  23  41  62  88 129 160 192 248 307 363
#     4  11  22  38  62  93 122 153 198 251 309 359
#     4  11  22  39  63  93 118 153 203 255 306 350
#
# _framework density 21.122776999999999
#
# number of rings (size 3 to 8) (size 9 to 14) (size 15 to 20)
#    0.000    1.250    0.000    7.875    0.000    5.000 
#    0.000    2.500    0.000    0.000    0.000    0.000 
#    0.000    0.000    0.000    0.000    0.000    0.000 
#
# Total GULP energy -198322.265870 kJ/mol
# GULP energy per Si atom -12395.141617 kJ/mol
# Density = 2.107470 g / cm^3
# Si number density = 21.122777 Si / 1000 Ang^3
#
#
#
# Elastic Constant Matrix: (Units=GPa)
#
#
# Indices 1 2 3 4 5 6 
#
# 1 109.9359 22.0681 22.1505 -5.1359 14.3461 -11.3371
# 2 22.0681 67.3412 11.4503 -1.4726 -0.1096 -0.1379
# 3 22.1505 11.4503 67.3887 1.2239 8.8184 0.4378
# 4 -5.1359 -1.4726 1.2239 33.9583 -8.2947 4.7207
# 5 14.3461 -0.1096 8.8184 -8.2947 33.4581 -9.1107
# 6 -11.3371 -0.1379 0.4378 4.7207 -9.1107 42.7646
#
#
#
# Elastic Compliance Matrix: (Units=1/GPa)
#
#
# Indices 1 2 3 4 5 6 
#
# 1 0.010933 -0.003121 -0.002657 0.000512 -0.003283 0.002160
# 2 -0.003121 0.016235 -0.002010 0.000856 0.002019 -0.000419
# 3 -0.002657 -0.002010 0.016641 -0.001885 -0.004144 -0.001556
# 4 0.000512 0.000856 -0.001885 0.031745 0.007685 -0.001709
# 5 -0.003283 0.002019 -0.004144 0.007685 0.035929 0.005985
# 6 0.002160 -0.000419 -0.001556 -0.001709 0.005985 0.025435
#
#
# Mechanical properties :
#
#
# Convention : Reuss Voigt Hill
#
# Bulk Modulus (GPa) = 35.41874 39.55595 37.48735
# Shear Modulus (GPa) = 30.88231 34.63600 32.75916
#
# Velocity S-wave (km/s) = 3.82781 4.05377 3.94241
# Velocity P-wave (km/s) = 6.02832 6.37794 6.20559
#
# Compressibility (1/GPa) = 0.02823364
#
# Stress axis : x y z
#
# Youngs Moduli (GPa) = 91.46584 61.59414 60.09321
#
# Poissons Ratio (x) = 0.19222 0.15968
# Poissons Ratio (y) = 0.28544 0.12078
# Poissons Ratio (z) = 0.24304 0.12380
#
# Static dielectric constant tensor:
#      x y z
#    x 3.997370 0.062920 0.094690 
#    y 0.062920 4.001900 -0.315670 
#    z 0.094690 -0.315670 4.346230 
# 
# 
# High freq. dielectric constant tensor:
#      x y z
#    x 1.846630 0.000020 0.012690 
#    y 0.000020 1.823460 -0.004010 
#    z 0.012690 -0.004010 1.822320 
# 
# From -- ./inp_files/186756.got.cif
#   From: 2010.06.25/outbox.cif.g09.slc.cpg/sg2_94_cif.got.tgz:186756.got - 2010.06.27 13:26:56.
