data_PCOD8018025
_publ_section_title
;
Structure prediction by ZEFSAII (Michael W. Deem and Ramdas Pophale) SiO2 
 PCOD8018025
Probable space group: P -1
;
_chemical_formula_sum "Si O2"
_cell_formula_units_Z 12
_cell_length_a 4.914059
_cell_length_b 10.902620
_cell_length_c 12.474362
_cell_angle_alpha 132.177052
_cell_angle_beta 93.091728
_cell_angle_gamma 83.300618
_cell_volume 491.628080
_symmetry_space_group_name_H-M "P -1"
_symmetry_group_IT_number 2
_symmetry_cell_setting 'triclinic'
loop_
_space_group_symop_operation_xyz
x,y,z
-x,-y,-z
loop_
_atom_site_type_symbol
_atom_site_label
_atom_site_fract_x
_atom_site_fract_y
_atom_site_fract_z
Si Si1 0.479201 0.674893 0.545165
Si Si2 0.852728 0.931766 0.093400
Si Si3 0.982458 0.597083 0.376863
Si Si4 0.797970 0.440990 0.871277
Si Si5 0.842039 0.782563 0.784858
Si Si6 0.581275 0.242600 0.921615
O O1 0.500000 0.500000 0.500000
O O2 0.171274 0.715245 0.517167
O O3 0.585471 0.804928 0.709200
O O4 0.671812 0.663178 0.436317
O O5 0.141436 0.816959 0.044898
O O6 0.635295 0.896175 0.160661
O O7 0.907826 0.125043 0.205932
O O8 0.730328 0.876123 0.944969
O O9 0.029300 0.616572 0.263201
O O10 0.044036 0.407577 0.306981
O O11 0.650860 0.286547 0.825800
O O12 0.563881 0.590965 0.924866
O O13 0.000000 0.500000 0.000000
#
# Coordination Sequence:
#
# PCOD8018025 Si02
#       6
#     2   2   2   2   2   2
#     4  10  23  38  60  89 124 164 197 247 289 366
#     4  11  24  37  63  90 128 158 195 251 294 380
#     4  11  23  38  64  92 121 154 207 250 299 350
#     4  11  23  39  67  88 123 151 208 262 298 347
#     4  10  22  40  60  91 126 162 197 238 311 358
#     4  11  23  39  58  95 117 159 197 253 307 343
#
# _framework density 24.408695000000002
#
# number of rings (size 3 to 8) (size 9 to 14) (size 15 to 20)
#    0.000    1.333    3.333    2.000    7.000    8.000 
#    0.000    0.000    0.000    6.000    0.000    0.000 
#    0.000    0.000    0.000    0.000    0.000    0.000 
#
# Total GULP energy -148769.433349 kJ/mol
# GULP energy per Si atom -12397.452779 kJ/mol
# Density = 2.435314 g / cm^3
# Si number density = 24.408695 Si / 1000 Ang^3
#
#
#
# Elastic Constant Matrix: (Units=GPa)
#
#
# Indices 1 2 3 4 5 6 
#
# 1 107.8492 43.1446 24.5064 -5.3025 4.8739 32.1846
# 2 43.1446 133.0365 36.5927 -8.4884 7.2284 45.0172
# 3 24.5064 36.5927 101.3483 -8.7743 25.5407 10.2617
# 4 -5.3025 -8.4884 -8.7743 29.2691 9.2366 -1.5697
# 5 4.8739 7.2284 25.5407 9.2366 30.1347 2.8305
# 6 32.1846 45.0172 10.2617 -1.5697 2.8305 46.2896
#
#
#
# Elastic Compliance Matrix: (Units=1/GPa)
#
#
# Indices 1 2 3 4 5 6 
#
# 1 0.012255 -0.001013 -0.001853 0.000922 0.000216 -0.007107
# 2 -0.001013 0.012380 -0.003038 0.001866 0.000194 -0.010610
# 3 -0.001853 -0.003038 0.015728 0.008352 -0.015046 0.001959
# 4 0.000922 0.001866 0.008352 0.043920 -0.020993 -0.001534
# 5 0.000216 0.000194 -0.015046 -0.020993 0.052376 -0.000918
# 6 -0.007107 -0.010610 0.001959 -0.001534 -0.000918 0.036433
#
#
# Mechanical properties :
#
#
# Convention : Reuss Voigt Hill
#
# Bulk Modulus (GPa) = 35.01898 61.19126 48.10512
# Shear Modulus (GPa) = 25.71794 37.00471 31.36133
#
# Velocity S-wave (km/s) = 3.24950 3.89787 3.58836
# Velocity P-wave (km/s) = 5.33452 6.73659 6.07613
#
# Compressibility (1/GPa) = 0.02855594
#
# Stress axis : x y z
#
# Youngs Moduli (GPa) = 81.60108 80.77781 63.58002
#
# Poissons Ratio (x) = 0.08181 0.11779
# Poissons Ratio (y) = 0.08265 0.19315
# Poissons Ratio (z) = 0.15118 0.24539
#
# Static dielectric constant tensor:
#      x y z
#    x 4.780760 0.453980 0.356290 
#    y 0.453980 4.662090 -0.011710 
#    z 0.356290 -0.011710 4.324500 
# 
# 
# High freq. dielectric constant tensor:
#      x y z
#    x 1.989600 0.026530 0.006820 
#    y 0.026530 1.961950 -0.005900 
#    z 0.006820 -0.005900 1.941210 
# 
# From -- ./inp_files/365420.got.cif
#   From: 2010.06.25/outbox.cif.g09.slc.cpg/sg2_183_cif.got.tgz:365420.got - 2010.06.27 13:26:56.
