data_PCOD8018599
_publ_section_title
;
Structure prediction by ZEFSAII (Michael W. Deem and Ramdas Pophale) SiO2 
 PCOD8018599
Probable space group: P -1
;
_chemical_formula_sum "Si O2"
_cell_formula_units_Z 16
_cell_length_a 19.501995
_cell_length_b 9.128388
_cell_length_c 11.283641
_cell_angle_alpha 40.343739
_cell_angle_beta 43.822429
_cell_angle_gamma 73.499878
_cell_volume 724.928429
_symmetry_space_group_name_H-M "P -1"
_symmetry_group_IT_number 2
_symmetry_cell_setting 'triclinic'
loop_
_space_group_symop_operation_xyz
x,y,z
-x,-y,-z
loop_
_atom_site_type_symbol
_atom_site_label
_atom_site_fract_x
_atom_site_fract_y
_atom_site_fract_z
Si Si1 0.831510 0.702412 0.065059
Si Si2 0.370742 0.372135 0.799115
Si Si3 0.627492 0.216898 0.272022
Si Si4 0.769160 0.001458 0.321087
Si Si5 0.032527 0.478711 0.104481
Si Si6 0.771582 0.527912 0.674399
Si Si7 0.774016 0.255751 0.612057
Si Si8 0.963453 0.198716 0.763375
O O1 0.715666 0.673536 0.173713
O O2 0.782824 0.453718 0.375444
O O3 0.903863 0.681176 0.878674
O O4 0.930979 0.009366 0.805150
O O5 0.500000 0.500000 0.500000
O O6 0.380935 0.575240 0.762660
O O7 0.319977 0.070742 0.106882
O O8 0.663411 0.046164 0.410116
O O9 0.500000 0.000000 0.500000
O O10 0.733672 0.383797 0.938599
O O11 0.707751 0.686563 0.638736
O O12 0.870126 0.212159 0.159543
O O13 0.837863 0.029794 0.097224
O O14 0.907042 0.319860 0.434665
O O15 0.000000 0.500000 0.000000
O O16 0.726083 0.301769 0.765610
O O17 0.920174 0.756774 0.342466
O O18 0.000000 0.500000 0.500000
#
# Coordination Sequence:
#
# PCOD8018599 Si02
#       8
#     2   2   2   2   2   2   2   2
#     4  11  25  44  68 104 144 178 226 283 352 420
#     4  12  29  48  71  96 133 182 241 293 346 410
#     4  12  30  49  70  99 135 186 246 296 343 413
#     4  12  24  45  70 105 146 185 230 284 348 424
#     4  10  22  40  68 106 143 173 222 276 347 420
#     4  12  24  43  73 104 144 184 231 281 353 421
#     4  11  24  43  72 104 140 183 219 287 353 413
#     4  12  23  40  71 110 145 185 222 280 353 424
#
# _framework density 22.071144
#
# number of rings (size 3 to 8) (size 9 to 14) (size 15 to 20)
#    0.000    0.500    5.000    3.375    7.000    1.500 
#    0.000    0.000    0.000    0.000    0.000    0.000 
#    0.000    0.000    0.000    0.000    0.000    0.000 
#
# Total GULP energy -198430.424792 kJ/mol
# GULP energy per Si atom -12401.901550 kJ/mol
# Density = 2.202091 g / cm^3
# Si number density = 22.071144 Si / 1000 Ang^3
#
#
#
# Elastic Constant Matrix: (Units=GPa)
#
#
# Indices 1 2 3 4 5 6 
#
# 1 82.0399 31.7919 37.7479 -14.9603 -5.8309 -7.6822
# 2 31.7919 159.5210 43.3200 -19.5683 -1.2084 2.0070
# 3 37.7479 43.3200 81.6452 -15.5307 -5.7742 -12.1198
# 4 -14.9603 -19.5683 -15.5307 41.5001 0.1514 1.8201
# 5 -5.8309 -1.2084 -5.7742 0.1514 35.1641 -3.7399
# 6 -7.6822 2.0070 -12.1198 1.8201 -3.7399 38.6847
#
#
#
# Elastic Compliance Matrix: (Units=1/GPa)
#
#
# Indices 1 2 3 4 5 6 
#
# 1 0.016206 -0.001266 -0.005911 0.002962 0.001817 0.001468
# 2 -0.001266 0.007724 -0.003472 0.001973 -0.000725 -0.001903
# 3 -0.005911 -0.003472 0.018249 0.002841 0.002398 0.004822
# 4 0.002962 0.001973 0.002841 0.027146 0.000929 0.000189
# 5 0.001817 -0.000725 0.002398 0.000929 0.029525 0.003960
# 6 0.001468 -0.001903 0.004822 0.000189 0.003960 0.028125
#
#
# Mechanical properties :
#
#
# Convention : Reuss Voigt Hill
#
# Bulk Modulus (GPa) = 47.88836 60.99175 54.44006
# Shear Modulus (GPa) = 32.20942 37.09287 34.65114
#
# Velocity S-wave (km/s) = 3.82428 4.10397 3.96659
# Velocity P-wave (km/s) = 6.42219 7.08173 6.76001
#
# Compressibility (1/GPa) = 0.02088190
#
# Stress axis : x y z
#
# Youngs Moduli (GPa) = 61.70404 129.46223 54.79769
#
# Poissons Ratio (x) = 0.16389 0.32393
# Poissons Ratio (y) = 0.07811 0.19024
# Poissons Ratio (z) = 0.36475 0.44944
#
# Static dielectric constant tensor:
#      x y z
#    x 4.453240 -0.605680 0.352990 
#    y -0.605680 4.764520 -0.267120 
#    z 0.352990 -0.267120 4.148170 
# 
# 
# High freq. dielectric constant tensor:
#      x y z
#    x 1.867030 -0.002700 0.004590 
#    y -0.002700 1.896190 -0.007300 
#    z 0.004590 -0.007300 1.850360 
# 
# From -- ./inp_files/283004.got.cif
#   From: 2010.06.25/outbox.cif.g09.slc.cpg/sg2_142_cif.got.tgz:283004.got - 2010.06.27 13:26:56.
