data_PCOD8018081
_publ_section_title
;
Structure prediction by ZEFSAII (Michael W. Deem and Ramdas Pophale) SiO2 
 PCOD8018081
Probable space group: P -1
;
_chemical_formula_sum "Si O2"
_cell_formula_units_Z 10
_cell_length_a 13.214338
_cell_length_b 12.873728
_cell_length_c 5.123997
_cell_angle_alpha 89.562981
_cell_angle_beta 87.404247
_cell_angle_gamma 145.946706
_cell_volume 486.019233
_symmetry_space_group_name_H-M "P -1"
_symmetry_group_IT_number 2
_symmetry_cell_setting 'triclinic'
loop_
_space_group_symop_operation_xyz
x,y,z
-x,-y,-z
loop_
_atom_site_type_symbol
_atom_site_label
_atom_site_fract_x
_atom_site_fract_y
_atom_site_fract_z
Si Si1 0.916071 0.221946 0.245423
Si Si2 0.338326 0.144821 0.960755
Si Si3 0.305440 0.781784 0.519999
Si Si4 0.280054 0.623290 0.027670
Si Si5 0.149230 0.039078 0.498177
O O1 0.851743 0.269138 0.405364
O O2 0.949430 0.156999 0.450518
O O3 0.099387 0.400749 0.064049
O O4 0.761558 0.052651 0.060177
O O5 0.273314 0.146562 0.227316
O O6 0.552746 0.310599 0.936082
O O7 0.283595 0.173329 0.725487
O O8 0.269952 0.706668 0.238621
O O9 0.500000 0.000000 0.500000
O O10 0.299501 0.685400 0.734909
O O11 0.000000 0.000000 0.500000
#
# Coordination Sequence:
#
# PCOD8018081 Si02
#       5
#     2   2   2   2   2
#     4  10  25  37  64  89 122 159 205 240 294 355
#     4  10  22  40  62  86 123 153 201 243 303 347
#     4  12  23  39  61  89 128 164 193 240 296 354
#     4  12  24  39  61  91 126 158 199 241 293 359
#     4  10  22  43  66  85 119 157 199 254 305 345
#
# _framework density 20.575316999999998
#
# number of rings (size 3 to 8) (size 9 to 14) (size 15 to 20)
#    1.200    0.000    2.000    4.800    5.600    0.000 
#    0.000    2.000    0.000    0.000    0.000    0.000 
#    0.000    0.000    0.000    0.000    0.000    0.000 
#
# Total GULP energy -123995.921395 kJ/mol
# GULP energy per Si atom -12399.592140 kJ/mol
# Density = 2.052849 g / cm^3
# Si number density = 20.575317 Si / 1000 Ang^3
#
#
#
# Elastic Constant Matrix: (Units=GPa)
#
#
# Indices 1 2 3 4 5 6 
#
# 1 148.5158 9.8446 27.5332 -17.8617 -5.2010 18.7741
# 2 9.8446 59.3095 5.6357 -14.8014 -9.7697 23.6726
# 3 27.5332 5.6357 112.2430 -7.8317 -8.4120 4.4642
# 4 -17.8617 -14.8014 -7.8317 19.5940 9.3719 -9.0693
# 5 -5.2010 -9.7697 -8.4120 9.3719 31.4917 -8.5103
# 6 18.7741 23.6726 4.4642 -9.0693 -8.5103 21.7520
#
#
#
# Elastic Compliance Matrix: (Units=1/GPa)
#
#
# Indices 1 2 3 4 5 6 
#
# 1 0.008726 0.003783 -0.001653 0.006988 -0.002433 -0.009347
# 2 0.003783 0.032952 -0.000468 0.013453 -0.002586 -0.034433
# 3 -0.001653 -0.000468 0.009548 0.001661 0.002034 0.001465
# 4 0.006988 0.013453 0.001661 0.078432 -0.016115 0.005384
# 5 -0.002433 -0.002586 0.002034 -0.016115 0.039461 0.013217
# 6 -0.009347 -0.034433 0.001465 0.005384 0.013217 0.098628
#
#
# Mechanical properties :
#
#
# Convention : Reuss Voigt Hill
#
# Bulk Modulus (GPa) = 18.33222 45.12169 31.72696
# Shear Modulus (GPa) = 17.69231 33.03786 25.36509
#
# Velocity S-wave (km/s) = 2.93555 4.01147 3.51492
# Velocity P-wave (km/s) = 4.51875 6.59041 5.65034
#
# Compressibility (1/GPa) = 0.05454876
#
# Stress axis : x y z
#
# Youngs Moduli (GPa) = 114.60185 30.34701 104.72999
#
# Poissons Ratio (x) = -0.11479 0.17315
# Poissons Ratio (y) = -0.43349 0.04902
# Poissons Ratio (z) = 0.18948 0.01420
#
# Static dielectric constant tensor:
#      x y z
#    x 3.959730 0.143880 -0.294810 
#    y 0.143880 3.534880 -0.078350 
#    z -0.294810 -0.078350 4.023360 
# 
# 
# High freq. dielectric constant tensor:
#      x y z
#    x 1.801150 0.017850 -0.003450 
#    y 0.017850 1.783810 -0.006150 
#    z -0.003450 -0.006150 1.818390 
# 
# From -- ./inp_files/20055.got.cif
#   From: 2010.06.25/outbox.cif.g09.slc.cpg/sg2_11_cif.got.tgz:20055.got - 2010.06.27 13:26:56.
