data_PCOD8018919
_publ_section_title
;
Structure prediction by ZEFSAII (Michael W. Deem and Ramdas Pophale) SiO2 
 PCOD8018919
Probable space group: P -1
;
_chemical_formula_sum "Si O2"
_cell_formula_units_Z 16
_cell_length_a 16.535704
_cell_length_b 22.761547
_cell_length_c 13.494585
_cell_angle_alpha 35.189980
_cell_angle_beta 23.243307
_cell_angle_gamma 21.966280
_cell_volume 728.522002
_symmetry_space_group_name_H-M "P -1"
_symmetry_group_IT_number 2
_symmetry_cell_setting 'triclinic'
loop_
_space_group_symop_operation_xyz
x,y,z
-x,-y,-z
loop_
_atom_site_type_symbol
_atom_site_label
_atom_site_fract_x
_atom_site_fract_y
_atom_site_fract_z
Si Si1 0.170439 0.675091 0.096561
Si Si2 0.244752 0.813866 0.494210
Si Si3 0.298625 0.148079 0.329679
Si Si4 0.113388 0.196279 0.960079
Si Si5 0.776887 0.681061 0.646164
Si Si6 0.250702 0.372378 0.973946
Si Si7 0.854184 0.167538 0.919700
Si Si8 0.175947 0.384957 0.725100
O O1 0.112523 0.798609 0.055349
O O2 0.174476 0.693764 0.948836
O O3 0.874773 0.710548 0.400545
O O4 0.500000 0.500000 0.000000
O O5 0.395443 0.741068 0.314736
O O6 0.517081 0.723833 0.397163
O O7 0.000000 0.000000 0.500000
O O8 0.023042 0.803733 0.787316
O O9 0.401786 0.174465 0.273380
O O10 0.027536 0.170290 0.636798
O O11 0.592906 0.975770 0.185328
O O12 0.182515 0.278584 0.201857
O O13 0.225243 0.264272 0.773357
O O14 0.116798 0.500626 0.554274
O O15 0.521907 0.693654 0.881781
O O16 0.000000 0.500000 0.000000
O O17 0.169801 0.475393 0.017788
O O18 0.000000 0.000000 0.000000
#
# Coordination Sequence:
#
# PCOD8018919 Si02
#       8
#     2   2   2   2   2   2   2   2
#     4  11  24  40  63  93 135 173 213 265 321 384
#     4  11  23  44  68  92 129 167 213 273 332 379
#     4  10  22  41  62  94 131 168 214 270 324 384
#     4  12  24  39  65  98 129 168 218 270 324 383
#     4  10  22  42  64  93 134 177 215 261 323 390
#     4   9  20  44  66  88 128 170 208 268 328 385
#     4  11  23  40  65  96 131 175 221 261 322 389
#     4  10  24  41  66  97 127 168 220 264 325 393
#
# _framework density 21.962275000000002
#
# number of rings (size 3 to 8) (size 9 to 14) (size 15 to 20)
#    0.000    1.500    1.250    3.000    0.000   13.000 
#    0.000    0.000    0.000    0.000    0.000    0.000 
#    0.000    0.000    0.000    0.000    0.000    0.000 
#
# Total GULP energy -198247.770457 kJ/mol
# GULP energy per Si atom -12390.485654 kJ/mol
# Density = 2.191229 g / cm^3
# Si number density = 21.962275 Si / 1000 Ang^3
#
#
#
# Elastic Constant Matrix: (Units=GPa)
#
#
# Indices 1 2 3 4 5 6 
#
# 1 64.3577 27.5474 24.8110 -11.9445 -0.0824 2.0992
# 2 27.5474 115.7659 25.2196 -7.6760 3.2214 2.8455
# 3 24.8110 25.2196 108.2471 -14.0030 6.0360 7.6281
# 4 -11.9445 -7.6760 -14.0030 32.9314 -5.6233 0.6338
# 5 -0.0824 3.2214 6.0360 -5.6233 35.3480 3.3238
# 6 2.0992 2.8455 7.6281 0.6338 3.3238 39.6526
#
#
#
# Elastic Compliance Matrix: (Units=1/GPa)
#
#
# Indices 1 2 3 4 5 6 
#
# 1 0.019203 -0.003621 -0.002957 0.005169 0.001741 -0.000417
# 2 -0.003621 0.009841 -0.001377 0.000296 -0.000604 -0.000204
# 3 -0.002957 -0.001377 0.010818 0.003057 -0.001074 -0.001785
# 4 0.005169 0.000296 0.003057 0.034522 0.005130 -0.001865
# 5 0.001741 -0.000604 -0.001074 0.005130 0.029575 -0.002403
# 6 -0.000417 -0.000204 -0.001785 -0.001865 -0.002403 0.025830
#
#
# Mechanical properties :
#
#
# Convention : Reuss Voigt Hill
#
# Bulk Modulus (GPa) = 41.74787 49.28073 45.51430
# Shear Modulus (GPa) = 32.53468 35.63925 34.08696
#
# Velocity S-wave (km/s) = 3.85306 4.03271 3.94390
# Velocity P-wave (km/s) = 6.23257 6.64614 6.44267
#
# Compressibility (1/GPa) = 0.02395332
#
# Stress axis : x y z
#
# Youngs Moduli (GPa) = 52.07486 101.61517 92.44047
#
# Poissons Ratio (x) = 0.36793 0.27334
# Poissons Ratio (y) = 0.18855 0.12725
# Poissons Ratio (z) = 0.15398 0.13988
#
# Static dielectric constant tensor:
#      x y z
#    x 6.114490 1.140040 0.414270 
#    y 1.140040 4.678790 0.337900 
#    z 0.414270 0.337900 2.832890 
# 
# 
# High freq. dielectric constant tensor:
#      x y z
#    x 1.855490 -0.000290 0.024150 
#    y -0.000290 1.883820 -0.003040 
#    z 0.024150 -0.003040 1.861090 
# 
# From -- ./inp_files/35752.got.cif
#   From: 2010.06.25/outbox.cif.g09.slc.cpg/sg2_18_cif.got.tgz:35752.got - 2010.06.27 13:26:56.
