data_PCOD8018289
_publ_section_title
;
Structure prediction by ZEFSAII (Michael W. Deem and Ramdas Pophale) SiO2 
 PCOD8018289
Probable space group: P -1
;
_chemical_formula_sum "Si O2"
_cell_formula_units_Z 12
_cell_length_a 7.954345
_cell_length_b 13.863675
_cell_length_c 16.319523
_cell_angle_alpha 156.041960
_cell_angle_beta 123.354547
_cell_angle_gamma 47.990785
_cell_volume 531.497667
_symmetry_space_group_name_H-M "P -1"
_symmetry_group_IT_number 2
_symmetry_cell_setting 'triclinic'
loop_
_space_group_symop_operation_xyz
x,y,z
-x,-y,-z
loop_
_atom_site_type_symbol
_atom_site_label
_atom_site_fract_x
_atom_site_fract_y
_atom_site_fract_z
Si Si1 0.910833 0.680255 0.231462
Si Si2 0.710743 0.053559 0.022076
Si Si3 0.910235 0.447723 0.350101
Si Si4 0.740223 0.916295 0.106973
Si Si5 0.977144 0.043405 0.663149
Si Si6 0.593683 0.025336 0.630779
O O1 0.633674 0.797505 0.236667
O O2 0.975803 0.815926 0.428743
O O3 0.025145 0.716477 0.206575
O O4 0.019201 0.366324 0.040592
O O5 0.776128 0.278620 0.189273
O O6 0.695681 0.068237 0.127094
O O7 0.471071 0.139835 0.977777
O O8 0.876109 0.740395 0.797226
O O9 0.000000 0.500000 0.500000
O O10 0.745635 0.733356 0.486327
O O11 0.781512 0.094660 0.326328
O O12 0.759684 0.155332 0.756286
O O13 0.500000 0.000000 0.500000
#
# Coordination Sequence:
#
# PCOD8018289 Si02
#       6
#     2   2   2   2   2   2
#     4  10  23  40  65  98 130 167 216 273 320 385
#     4  10  25  41  65  92 133 170 215 266 316 398
#     4  11  24  45  66  94 129 176 218 264 328 387
#     4  11  23  43  62  97 130 169 215 265 327 387
#     4  10  22  40  64  96 128 172 211 264 333 376
#     4  10  22  41  66  95 128 167 216 271 320 380
#
# _framework density 22.577708999999999
#
# number of rings (size 3 to 8) (size 9 to 14) (size 15 to 20)
#    0.000    1.667    0.000    3.500    9.333    0.667 
#    0.000    4.167    0.000    0.000    0.000    0.000 
#    0.000    0.000    0.000    0.000    0.000    0.000 
#
# Total GULP energy -148695.323779 kJ/mol
# GULP energy per Si atom -12391.276982 kJ/mol
# Density = 2.252632 g / cm^3
# Si number density = 22.577709 Si / 1000 Ang^3
#
#
#
# Elastic Constant Matrix: (Units=GPa)
#
#
# Indices 1 2 3 4 5 6 
#
# 1 129.1912 53.3008 37.9157 12.5301 8.1938 -16.8664
# 2 53.3008 163.0615 36.7716 -3.8115 7.2546 -15.9694
# 3 37.9157 36.7716 61.0015 11.7600 5.5471 -10.7238
# 4 12.5301 -3.8115 11.7600 46.1030 -6.0093 3.0423
# 5 8.1938 7.2546 5.5471 -6.0093 16.7876 4.3019
# 6 -16.8664 -15.9694 -10.7238 3.0423 4.3019 31.4970
#
#
#
# Elastic Compliance Matrix: (Units=1/GPa)
#
#
# Indices 1 2 3 4 5 6 
#
# 1 0.010951 -0.002151 -0.003549 -0.003287 -0.005611 0.004649
# 2 -0.002151 0.007843 -0.003374 0.001859 -0.000977 0.001630
# 3 -0.003549 -0.003374 0.023914 -0.006993 -0.008859 0.006417
# 4 -0.003287 0.001859 -0.006993 0.026962 0.014767 -0.007820
# 5 -0.005611 -0.000977 -0.008859 0.014767 0.075624 -0.018271
# 6 0.004649 0.001630 0.006417 -0.007820 -0.018271 0.040500
#
#
# Mechanical properties :
#
#
# Convention : Reuss Voigt Hill
#
# Bulk Modulus (GPa) = 40.71495 67.69226 54.20361
# Shear Modulus (GPa) = 23.57049 33.89526 28.73288
#
# Velocity S-wave (km/s) = 3.23456 3.87883 3.57125
# Velocity P-wave (km/s) = 5.65882 7.07866 6.40818
#
# Compressibility (1/GPa) = 0.02456100
#
# Stress axis : x y z
#
# Youngs Moduli (GPa) = 91.31444 127.49925 41.81636
#
# Poissons Ratio (x) = 0.27429 0.14839
# Poissons Ratio (y) = 0.19644 0.14108
# Poissons Ratio (z) = 0.32405 0.43015
#
# Static dielectric constant tensor:
#      x y z
#    x 4.923770 -0.326710 -0.029510 
#    y -0.326710 4.261240 -0.263080 
#    z -0.029510 -0.263080 3.900870 
# 
# 
# High freq. dielectric constant tensor:
#      x y z
#    x 1.904010 -0.004380 0.013000 
#    y -0.004380 1.905070 -0.015910 
#    z 0.013000 -0.015910 1.875890 
# 
# From -- ./inp_files/238267.got.cif
#   From: 2010.06.25/outbox.cif.g09.slc.cpg/sg2_120_cif.got.tgz:238267.got - 2010.06.27 13:26:56.
