data_PCOD8018507
_publ_section_title
;
Structure prediction by ZEFSAII (Michael W. Deem and Ramdas Pophale) SiO2 
 PCOD8018507
Probable space group: P -1
;
_chemical_formula_sum "Si O2"
_cell_formula_units_Z 14
_cell_length_a 12.077366
_cell_length_b 12.997362
_cell_length_c 9.514849
_cell_angle_alpha 47.190386
_cell_angle_beta 38.295757
_cell_angle_gamma 56.591275
_cell_volume 678.548066
_symmetry_space_group_name_H-M "P -1"
_symmetry_group_IT_number 2
_symmetry_cell_setting 'triclinic'
loop_
_space_group_symop_operation_xyz
x,y,z
-x,-y,-z
loop_
_atom_site_type_symbol
_atom_site_label
_atom_site_fract_x
_atom_site_fract_y
_atom_site_fract_z
Si Si1 0.237561 0.285090 0.756445
Si Si2 0.520515 0.351964 0.188330
Si Si3 0.161507 0.678504 0.906254
Si Si4 0.190820 0.986942 0.481547
Si Si5 0.462871 0.197075 0.114256
Si Si6 0.337002 0.427682 0.802265
Si Si7 0.214946 0.980026 0.141802
O O1 0.392899 0.353694 0.449672
O O2 0.235556 0.338324 0.869874
O O3 0.270816 0.117785 0.874533
O O4 0.046085 0.325507 0.840463
O O5 0.724150 0.328231 0.058617
O O6 0.468841 0.234900 0.237213
O O7 0.500000 0.500000 0.000000
O O8 0.203036 0.821664 0.651580
O O9 0.203522 0.548218 0.882885
O O10 0.992289 0.052589 0.648137
O O11 0.329610 0.068979 0.361185
O O12 0.249176 0.009842 0.242904
O O13 0.398065 0.328042 0.962513
O O14 0.662669 0.151128 0.909548
O O15 0.500000 0.500000 0.500000
#
# Coordination Sequence:
#
# PCOD8018507 Si02
#       7
#     2   2   2   2   2   2   2
#     4  11  24  43  69  95 130 171 219 267 322 379
#     4  12  26  46  60  96 135 174 215 262 326 388
#     4  11  24  43  68  96 132 170 217 268 319 383
#     4  10  22  41  67 100 130 162 217 268 320 383
#     4  12  24  41  68  92 132 173 211 265 326 380
#     4  12  22  42  68  99 127 170 221 268 319 379
#     4  10  22  40  67 101 129 164 212 271 325 377
#
# _framework density 20.632290000000001
#
# number of rings (size 3 to 8) (size 9 to 14) (size 15 to 20)
#    0.000    0.857    4.286    2.571    0.000    4.000 
#    5.143    2.857    0.000    0.000    0.000    0.000 
#    0.000    0.000    0.000    0.000    0.000    0.000 
#
# Total GULP energy -173677.334307 kJ/mol
# GULP energy per Si atom -12405.523879 kJ/mol
# Density = 2.058533 g / cm^3
# Si number density = 20.632290 Si / 1000 Ang^3
#
#
#
# Elastic Constant Matrix: (Units=GPa)
#
#
# Indices 1 2 3 4 5 6 
#
# 1 136.2427 46.1305 23.7677 13.3078 -4.3391 -2.1331
# 2 46.1305 110.4987 22.3285 2.4413 -5.9441 -4.4801
# 3 23.7677 22.3285 53.3546 0.2355 2.5091 -5.8185
# 4 13.3078 2.4413 0.2355 17.7440 -2.5066 6.7796
# 5 -4.3391 -5.9441 2.5091 -2.5066 27.4052 0.8633
# 6 -2.1331 -4.4801 -5.8185 6.7796 0.8633 40.4137
#
#
#
# Elastic Compliance Matrix: (Units=1/GPa)
#
#
# Indices 1 2 3 4 5 6 
#
# 1 0.009646 -0.003240 -0.002829 -0.007043 0.000410 0.000915
# 2 -0.003240 0.011186 -0.003313 0.001126 0.002308 0.000354
# 3 -0.002829 -0.003313 0.021812 0.000869 -0.003164 0.002546
# 4 -0.007043 0.001126 0.000869 0.066611 0.005502 -0.011414
# 5 0.000410 0.002308 -0.003164 0.005502 0.037908 -0.001911
# 6 0.000915 0.000354 0.002546 -0.011414 -0.001911 0.027154
#
#
# Mechanical properties :
#
#
# Convention : Reuss Voigt Hill
#
# Bulk Modulus (GPa) = 41.87809 53.83883 47.85846
# Shear Modulus (GPa) = 24.87067 30.97052 27.92060
#
# Velocity S-wave (km/s) = 3.47569 3.87857 3.68264
# Velocity P-wave (km/s) = 6.03727 6.79771 6.42874
#
# Compressibility (1/GPa) = 0.02387884
#
# Stress axis : x y z
#
# Youngs Moduli (GPa) = 103.67103 89.40002 45.84690
#
# Poissons Ratio (x) = 0.28969 0.12971
# Poissons Ratio (y) = 0.33594 0.15187
# Poissons Ratio (z) = 0.29331 0.29614
#
# Static dielectric constant tensor:
#      x y z
#    x 4.471660 0.109840 -0.049050 
#    y 0.109840 3.988940 -0.011880 
#    z -0.049050 -0.011880 3.599860 
# 
# 
# High freq. dielectric constant tensor:
#      x y z
#    x 1.817040 -0.008530 -0.006730 
#    y -0.008530 1.814020 -0.008940 
#    z -0.006730 -0.008940 1.803900 
# 
# From -- ./inp_files/183741.got.cif
#   From: 2010.06.25/outbox.cif.g09.slc.cpg/sg2_92_cif.got.tgz:183741.got - 2010.06.27 13:26:56.
