data_PCOD8018545
_publ_section_title
;
Structure prediction by ZEFSAII (Michael W. Deem and Ramdas Pophale) SiO2 
 PCOD8018545
Probable space group: P -1
;
_chemical_formula_sum "Si O2"
_cell_formula_units_Z 12
_cell_length_a 9.777528
_cell_length_b 10.807785
_cell_length_c 9.853391
_cell_angle_alpha 121.732920
_cell_angle_beta 40.451997
_cell_angle_gamma 120.836477
_cell_volume 562.540180
_symmetry_space_group_name_H-M "P -1"
_symmetry_group_IT_number 2
_symmetry_cell_setting 'triclinic'
loop_
_space_group_symop_operation_xyz
x,y,z
-x,-y,-z
loop_
_atom_site_type_symbol
_atom_site_label
_atom_site_fract_x
_atom_site_fract_y
_atom_site_fract_z
Si Si1 0.968888 0.658077 0.461753
Si Si2 0.874433 0.800206 0.119955
Si Si3 0.749237 0.572146 0.856496
Si Si4 0.652761 0.657978 0.458051
Si Si5 0.286086 0.905556 0.506137
Si Si6 0.353935 0.865948 0.722726
O O1 0.813113 0.598366 0.667899
O O2 0.825703 0.690931 0.465052
O O3 0.113349 0.539133 0.243373
O O4 0.121632 0.814715 0.472728
O O5 0.787391 0.674973 0.226142
O O6 0.786939 0.948488 0.296805
O O7 0.797128 0.727509 0.991199
O O8 0.131982 0.851683 0.961669
O O9 0.500000 0.500000 0.000000
O O10 0.500000 0.500000 0.500000
O O11 0.497025 0.774528 0.647174
O O12 0.313028 0.805606 0.561562
O O13 0.513764 0.962757 0.289631
#
# Coordination Sequence:
#
# PCOD8018545 Si02
#       6
#     2   2   2   2   2   2
#     4  11  25  43  62  98 133 164 211 274 316 373
#     4  11  23  42  68  97 124 173 220 258 314 392
#     4  11  25  39  66  95 128 167 222 260 314 380
#     4  11  25  42  65  94 137 171 206 264 333 375
#     4  10  23  41  71  92 130 169 218 264 316 376
#     4  10  22  40  67  93 127 171 215 256 322 379
#
# _framework density 21.331810000000001
#
# number of rings (size 3 to 8) (size 9 to 14) (size 15 to 20)
#    0.000    1.333    1.667    2.500    9.333    6.667 
#    0.000    1.667    0.000    0.000    0.000    0.000 
#    0.000    0.000    0.000    0.000    0.000    0.000 
#
# Total GULP energy -148785.053099 kJ/mol
# GULP energy per Si atom -12398.754425 kJ/mol
# Density = 2.128326 g / cm^3
# Si number density = 21.331810 Si / 1000 Ang^3
#
#
#
# Elastic Constant Matrix: (Units=GPa)
#
#
# Indices 1 2 3 4 5 6 
#
# 1 143.7793 37.7469 28.3847 -4.2574 -2.1542 9.3996
# 2 37.7469 109.1585 43.6750 -9.3476 -9.4352 16.9914
# 3 28.3847 43.6750 95.6578 -21.2963 -16.5118 6.8225
# 4 -4.2574 -9.3476 -21.2963 49.8730 10.6021 -1.0613
# 5 -2.1542 -9.4352 -16.5118 10.6021 25.9146 -6.6904
# 6 9.3996 16.9914 6.8225 -1.0613 -6.6904 42.6378
#
#
#
# Elastic Compliance Matrix: (Units=1/GPa)
#
#
# Indices 1 2 3 4 5 6 
#
# 1 0.007842 -0.002072 -0.001569 -0.000138 -0.001266 -0.000854
# 2 -0.002072 0.012361 -0.004707 -0.000032 0.000399 -0.003654
# 3 -0.001569 -0.004707 0.014994 0.004071 0.006279 0.000909
# 4 -0.000138 -0.000032 0.004071 0.023290 -0.007259 -0.001167
# 5 -0.001266 0.000399 0.006279 -0.007259 0.047237 0.006347
# 6 -0.000854 -0.003654 0.000909 -0.001167 0.006347 0.025919
#
#
# Mechanical properties :
#
#
# Convention : Reuss Voigt Hill
#
# Bulk Modulus (GPa) = 54.05202 63.13430 58.59316
# Shear Modulus (GPa) = 32.36124 39.60435 35.98279
#
# Velocity S-wave (km/s) = 3.89915 4.31349 4.11154
# Velocity P-wave (km/s) = 6.75758 7.38030 7.07579
#
# Compressibility (1/GPa) = 0.01850070
#
# Stress axis : x y z
#
# Youngs Moduli (GPa) = 127.52377 80.89804 66.69443
#
# Poissons Ratio (x) = 0.16763 0.10466
# Poissons Ratio (y) = 0.26425 0.31391
# Poissons Ratio (z) = 0.20011 0.38076
#
# Static dielectric constant tensor:
#      x y z
#    x 4.066470 -0.026760 -0.075860 
#    y -0.026760 4.034760 -0.347180 
#    z -0.075860 -0.347180 3.986210 
# 
# 
# High freq. dielectric constant tensor:
#      x y z
#    x 1.841480 0.006220 -0.017400 
#    y 0.006220 1.845990 -0.022010 
#    z -0.017400 -0.022010 1.832910 
# 
# From -- ./inp_files/182171.got.cif
#   From: 2010.06.25/outbox.cif.g09.slc.cpg/sg2_92_cif.got.tgz:182171.got - 2010.06.27 13:26:56.
