data_PCOD8018751
_publ_section_title
;
Structure prediction by ZEFSAII (Michael W. Deem and Ramdas Pophale) SiO2 
 PCOD8018751
Probable space group: P -1
;
_chemical_formula_sum "Si O2"
_cell_formula_units_Z 16
_cell_length_a 9.659057
_cell_length_b 14.226418
_cell_length_c 14.239584
_cell_angle_alpha 136.442871
_cell_angle_beta 95.351210
_cell_angle_gamma 50.349390
_cell_volume 745.622340
_symmetry_space_group_name_H-M "P -1"
_symmetry_group_IT_number 2
_symmetry_cell_setting 'triclinic'
loop_
_space_group_symop_operation_xyz
x,y,z
-x,-y,-z
loop_
_atom_site_type_symbol
_atom_site_label
_atom_site_fract_x
_atom_site_fract_y
_atom_site_fract_z
Si Si1 0.300793 0.476344 0.447112
Si Si2 0.590702 0.578884 0.040834
Si Si3 0.534353 0.131495 0.592402
Si Si4 0.721406 0.531647 0.351377
Si Si5 0.440549 0.631220 0.786053
Si Si6 0.773617 0.989880 0.816302
Si Si7 0.072097 0.785061 0.359451
Si Si8 0.250460 0.218413 0.201947
O O1 0.398250 0.361473 0.474485
O O2 0.517760 0.372260 0.324588
O O3 0.202079 0.417625 0.352273
O O4 0.063625 0.770968 0.649361
O O5 0.629619 0.640592 0.180715
O O6 0.389316 0.826154 0.146762
O O7 0.500000 0.500000 0.000000
O O8 0.845534 0.352269 0.833548
O O9 0.459939 0.235265 0.558250
O O10 0.500000 0.000000 0.500000
O O11 0.826589 0.911367 0.473062
O O12 0.711609 0.381707 0.212504
O O13 0.006968 0.351392 0.232269
O O14 0.711188 0.408069 0.690697
O O15 0.271499 0.887652 0.003422
O O16 0.714344 0.881749 0.765806
O O17 0.000000 0.000000 0.500000
O O18 0.500000 0.000000 0.000000
#
# Coordination Sequence:
#
# PCOD8018751 Si02
#       8
#     2   2   2   2   2   2   2   2
#     4  11  24  42  70  95 130 181 219 270 351 388
#     4  11  23  42  71 102 133 183 227 272 344 404
#     4  12  27  43  67 103 141 179 225 287 332 402
#     4  11  25  44  64 100 138 164 233 277 321 405
#     4  11  22  43  69 102 130 172 224 278 328 399
#     4  10  22  40  70  95 131 171 226 268 327 405
#     4  11  22  45  71  97 138 181 226 272 341 408
#     4  11  24  46  67  95 132 182 216 277 339 398
#
# _framework density 21.458583999999998
#
# number of rings (size 3 to 8) (size 9 to 14) (size 15 to 20)
#    0.000    1.000    3.750    3.375    5.250    2.500 
#    4.500    0.000    0.000    0.000    0.000    0.000 
#    0.000    0.000    0.000    0.000    0.000    0.000 
#
# Total GULP energy -198366.890087 kJ/mol
# GULP energy per Si atom -12397.930630 kJ/mol
# Density = 2.140974 g / cm^3
# Si number density = 21.458584 Si / 1000 Ang^3
#
#
#
# Elastic Constant Matrix: (Units=GPa)
#
#
# Indices 1 2 3 4 5 6 
#
# 1 107.2266 20.2840 28.1906 1.0846 5.5239 0.4289
# 2 20.2840 101.4377 33.6788 -2.0946 2.1651 5.7873
# 3 28.1906 33.6788 136.0668 -12.2293 3.2607 -1.1170
# 4 1.0846 -2.0946 -12.2293 30.7039 6.5642 0.3244
# 5 5.5239 2.1651 3.2607 6.5642 30.9719 2.3910
# 6 0.4289 5.7873 -1.1170 0.3244 2.3910 34.0349
#
#
#
# Elastic Compliance Matrix: (Units=1/GPa)
#
#
# Indices 1 2 3 4 5 6 
#
# 1 0.010146 -0.001432 -0.001794 -0.000884 -0.001346 0.000160
# 2 -0.001432 0.011074 -0.002471 -0.000141 -0.000079 -0.001939
# 3 -0.001794 -0.002471 0.008694 0.003616 -0.001249 0.000781
# 4 -0.000884 -0.000141 0.003616 0.035696 -0.007807 0.000362
# 5 -0.001346 -0.000079 -0.001249 -0.007807 0.034501 -0.002360
# 6 0.000160 -0.001939 0.000781 0.000362 -0.002360 0.029897
#
#
# Mechanical properties :
#
#
# Convention : Reuss Voigt Hill
#
# Bulk Modulus (GPa) = 53.99239 56.55975 55.27607
# Shear Modulus (GPa) = 33.88077 36.64735 35.26406
#
# Velocity S-wave (km/s) = 3.97784 4.13706 4.05823
# Velocity P-wave (km/s) = 6.80540 7.01678 6.91190
#
# Compressibility (1/GPa) = 0.01852113
#
# Stress axis : x y z
#
# Youngs Moduli (GPa) = 98.55995 90.29766 115.02240
#
# Poissons Ratio (x) = 0.12931 0.20630
# Poissons Ratio (y) = 0.14114 0.28423
# Poissons Ratio (z) = 0.17678 0.22313
#
# Static dielectric constant tensor:
#      x y z
#    x 4.694280 0.738540 0.845140 
#    y 0.738540 4.042900 0.137280 
#    z 0.845140 0.137280 4.836410 
# 
# 
# High freq. dielectric constant tensor:
#      x y z
#    x 1.844490 0.015950 0.006810 
#    y 0.015950 1.837970 -0.002910 
#    z 0.006810 -0.002910 1.855260 
# 
# From -- ./inp_files/455124.got.cif
#   From: 2010.06.25/outbox.cif.g09.slc.cpg/sg2_228_cif.got.tgz:455124.got - 2010.06.27 13:26:56.
