data_PCOD8018633
_publ_section_title
;
Structure prediction by ZEFSAII (Michael W. Deem and Ramdas Pophale) SiO2 
 PCOD8018633
Probable space group: P -1
;
_chemical_formula_sum "Si O2"
_cell_formula_units_Z 12
_cell_length_a 10.713502
_cell_length_b 10.530959
_cell_length_c 7.503368
_cell_angle_alpha 64.498520
_cell_angle_beta 62.394824
_cell_angle_gamma 115.690256
_cell_volume 413.884566
_symmetry_space_group_name_H-M "P -1"
_symmetry_group_IT_number 2
_symmetry_cell_setting 'triclinic'
loop_
_space_group_symop_operation_xyz
x,y,z
-x,-y,-z
loop_
_atom_site_type_symbol
_atom_site_label
_atom_site_fract_x
_atom_site_fract_y
_atom_site_fract_z
Si Si1 0.339694 0.759615 0.074689
Si Si2 0.052038 0.603419 0.690494
Si Si3 0.555803 0.162080 0.503199
Si Si4 0.076376 0.926075 0.382064
Si Si5 0.734144 0.810629 0.235608
Si Si6 0.386841 0.496399 0.235804
O O1 0.150328 0.611188 0.441637
O O2 0.494184 0.739705 0.016401
O O3 0.223021 0.636344 0.023820
O O4 0.478363 0.016898 0.827245
O O5 0.166920 0.598387 0.782144
O O6 0.132369 0.831763 0.521987
O O7 0.399589 0.174977 0.570124
O O8 0.500000 0.000000 0.500000
O O9 0.884496 0.712618 0.503430
O O10 0.000000 0.000000 0.500000
O O11 0.278793 0.154818 0.984770
O O12 0.595443 0.560229 0.542963
O O13 0.000000 0.000000 0.000000
O O14 0.500000 0.500000 0.000000
#
# Coordination Sequence:
#
# PCOD8018633 Si02
#       6
#     2   2   2   2   2   2
#     4  10  22  44  69  93 136 178 225 289 336 413
#     4  10  23  42  68  98 128 184 233 274 353 404
#     4  12  25  41  72 100 137 183 232 286 343 422
#     4  10  22  40  68  96 132 182 227 286 346 411
#     4  10  23  42  65 101 137 180 230 277 352 413
#     4  10  22  41  66  97 137 177 223 282 351 408
#
# _framework density 28.993592
#
# number of rings (size 3 to 8) (size 9 to 14) (size 15 to 20)
#    0.000    1.667    1.667    1.500    9.333    0.667 
#    0.000    6.667    0.000    0.000    0.000    0.000 
#    0.000    0.000    0.000    0.000    0.000    0.000 
#
# Total GULP energy -148663.641318 kJ/mol
# GULP energy per Si atom -12388.636777 kJ/mol
# Density = 2.892760 g / cm^3
# Si number density = 28.993592 Si / 1000 Ang^3
#
#
#
# Elastic Constant Matrix: (Units=GPa)
#
#
# Indices 1 2 3 4 5 6 
#
# 1 180.9232 41.3923 31.3304 -1.8765 -5.7871 -20.4156
# 2 41.3923 85.6560 11.4332 -0.9999 -3.7400 -31.4689
# 3 31.3304 11.4332 98.3864 -24.8958 0.4688 -16.9970
# 4 -1.8765 -0.9999 -24.8958 52.0910 -11.0229 6.2877
# 5 -5.7871 -3.7400 0.4688 -11.0229 46.1374 -0.6626
# 6 -20.4156 -31.4689 -16.9970 6.2877 -0.6626 72.3385
#
#
#
# Elastic Compliance Matrix: (Units=1/GPa)
#
#
# Indices 1 2 3 4 5 6 
#
# 1 0.006529 -0.002803 -0.001878 -0.000648 0.000459 0.000243
# 2 -0.002803 0.015216 0.000059 -0.000301 0.000894 0.005876
# 3 -0.001878 0.000059 0.012591 0.005947 0.001090 0.001947
# 4 -0.000648 -0.000301 0.005947 0.023255 0.005377 -0.000889
# 5 0.000459 0.000894 0.001090 0.005377 0.023086 0.000519
# 6 0.000243 0.005876 0.001947 -0.000889 0.000519 0.016988
#
#
# Mechanical properties :
#
#
# Convention : Reuss Voigt Hill
#
# Bulk Modulus (GPa) = 39.85165 59.25306 49.55235
# Shear Modulus (GPa) = 43.37591 52.83404 48.10497
#
# Velocity S-wave (km/s) = 3.87208 4.27343 4.07770
# Velocity P-wave (km/s) = 5.81081 6.69557 6.26881
#
# Compressibility (1/GPa) = 0.02509307
#
# Stress axis : x y z
#
# Youngs Moduli (GPa) = 153.16415 65.72244 79.42157
#
# Poissons Ratio (x) = 0.18420 0.14912
# Poissons Ratio (y) = 0.42928 -0.00470
# Poissons Ratio (z) = 0.28759 -0.00389
#
# Static dielectric constant tensor:
#      x y z
#    x 5.460680 0.286450 -1.439060 
#    y 0.286450 4.958380 -0.482130 
#    z -1.439060 -0.482130 3.106220 
# 
# 
# High freq. dielectric constant tensor:
#      x y z
#    x 2.211920 0.024680 0.006420 
#    y 0.024680 2.172110 -0.004700 
#    z 0.006420 -0.004700 2.223410 
# 
# From -- ./inp_files/247091.got.cif
#   From: 2010.06.25/outbox.cif.g09.slc.cpg/sg2_124_cif.got.tgz:247091.got - 2010.06.27 13:26:56.
