data_PCOD8018089
_publ_section_title
;
Structure prediction by ZEFSAII (Michael W. Deem and Ramdas Pophale) SiO2 
 PCOD8018089
Probable space group: P -1
;
_chemical_formula_sum "Si O2"
_cell_formula_units_Z 14
_cell_length_a 9.196750
_cell_length_b 9.291915
_cell_length_c 9.433991
_cell_angle_alpha 125.689945
_cell_angle_beta 105.448973
_cell_angle_gamma 87.856112
_cell_volume 623.904046
_symmetry_space_group_name_H-M "P -1"
_symmetry_group_IT_number 2
_symmetry_cell_setting 'triclinic'
loop_
_space_group_symop_operation_xyz
x,y,z
-x,-y,-z
loop_
_atom_site_type_symbol
_atom_site_label
_atom_site_fract_x
_atom_site_fract_y
_atom_site_fract_z
Si Si1 0.575197 0.658522 0.710660
Si Si2 0.930161 0.182297 0.567775
Si Si3 0.189135 0.483744 0.731506
Si Si4 0.229537 0.752244 0.154999
Si Si5 0.181395 0.034420 0.084028
Si Si6 0.508815 0.420227 0.804670
Si Si7 0.276003 0.805049 0.736817
O O1 0.500000 0.500000 0.500000
O O2 0.741283 0.757567 0.757336
O O3 0.604941 0.572948 0.820305
O O4 0.456195 0.799615 0.771005
O O5 0.890730 0.257011 0.753540
O O6 0.782915 0.156240 0.412895
O O7 0.045666 0.330705 0.600678
O O8 0.000000 0.000000 0.500000
O O9 0.334209 0.378336 0.682260
O O10 0.185890 0.624792 0.683475
O O11 0.189344 0.585234 0.941330
O O12 0.399767 0.749513 0.262509
O O13 0.230263 0.936825 0.179544
O O14 0.255040 0.972938 0.924749
O O15 0.000000 0.000000 0.000000
O O16 0.500000 0.500000 0.000000
#
# Coordination Sequence:
#
# PCOD8018089 Si02
#       7
#     2   2   2   2   2   2   2
#     4  11  24  43  67  93 124 165 209 254 310 375
#     4  12  24  37  58  95 128 160 206 262 310 360
#     4   9  21  41  63  86 123 166 209 253 310 373
#     4  10  22  40  62  89 122 165 207 256 310 366
#     4  11  25  44  64  91 127 168 209 252 307 373
#     4   9  20  39  64  91 117 157 207 256 304 362
#     4  10  23  42  63  87 121 167 206 251 310 375
#
# _framework density 22.439347999999999
#
# number of rings (size 3 to 8) (size 9 to 14) (size 15 to 20)
#    0.000    1.714    0.000    3.857    0.000   14.857 
#    0.000    2.143    0.000    0.000    0.000    0.000 
#    0.000    0.000    0.000    0.000    0.000    0.000 
#
# Total GULP energy -173537.749851 kJ/mol
# GULP energy per Si atom -12395.553561 kJ/mol
# Density = 2.238827 g / cm^3
# Si number density = 22.439348 Si / 1000 Ang^3
#
#
#
# Elastic Constant Matrix: (Units=GPa)
#
#
# Indices 1 2 3 4 5 6 
#
# 1 125.7463 57.0012 37.2166 2.9633 0.3487 -2.5566
# 2 57.0012 131.1369 43.3170 -20.8995 14.3416 -3.9575
# 3 37.2166 43.3170 62.4920 -3.7544 7.1915 0.0886
# 4 2.9633 -20.8995 -3.7544 38.4546 0.4178 7.1140
# 5 0.3487 14.3416 7.1915 0.4178 28.2989 6.9151
# 6 -2.5566 -3.9575 0.0886 7.1140 6.9151 46.8059
#
#
#
# Elastic Compliance Matrix: (Units=1/GPa)
#
#
# Indices 1 2 3 4 5 6 
#
# 1 0.011319 -0.004462 -0.004242 -0.003813 0.003168 0.000360
# 2 -0.004462 0.013036 -0.005341 0.006849 -0.005450 0.000633
# 3 -0.004242 -0.005341 0.022548 -0.000296 -0.002905 -0.000252
# 4 -0.003813 0.006849 -0.000296 0.030741 -0.002855 -0.003879
# 5 0.003168 -0.005450 -0.002905 -0.002855 0.040257 -0.005796
# 6 0.000360 0.000633 -0.000252 -0.003879 -0.005796 0.022884
#
#
# Mechanical properties :
#
#
# Convention : Reuss Voigt Hill
#
# Bulk Modulus (GPa) = 53.15703 66.04942 59.60322
# Shear Modulus (GPa) = 28.54764 34.83457 31.69110
#
# Velocity S-wave (km/s) = 3.57068 3.94431 3.76214
# Velocity P-wave (km/s) = 6.38281 7.08816 6.74471
#
# Compressibility (1/GPa) = 0.01881219
#
# Stress axis : x y z
#
# Youngs Moduli (GPa) = 88.34609 76.71015 44.35072
#
# Poissons Ratio (x) = 0.34228 0.18815
# Poissons Ratio (y) = 0.39420 0.23688
# Poissons Ratio (z) = 0.37479 0.40971
#
# Static dielectric constant tensor:
#      x y z
#    x 4.724200 -0.316030 -0.047900 
#    y -0.316030 4.149660 -0.238300 
#    z -0.047900 -0.238300 3.884150 
# 
# 
# High freq. dielectric constant tensor:
#      x y z
#    x 1.890130 -0.008560 -0.012830 
#    y -0.008560 1.887770 -0.020630 
#    z -0.012830 -0.020630 1.874010 
# 
# From -- ./inp_files/158065.got.cif
#   From: 2010.06.25/outbox.cif.g09.slc.cpg/sg2_80_cif.got.tgz:158065.got - 2010.06.27 13:26:56.
