data_PCOD8018866
_publ_section_title
;
Structure prediction by ZEFSAII (Michael W. Deem and Ramdas Pophale) SiO2 
 PCOD8018866
Probable space group: P -1
;
_chemical_formula_sum "Si O2"
_cell_formula_units_Z 14
_cell_length_a 11.937181
_cell_length_b 9.905936
_cell_length_c 13.897621
_cell_angle_alpha 115.668593
_cell_angle_beta 150.080131
_cell_angle_gamma 77.591078
_cell_volume 690.089118
_symmetry_space_group_name_H-M "P -1"
_symmetry_group_IT_number 2
_symmetry_cell_setting 'triclinic'
loop_
_space_group_symop_operation_xyz
x,y,z
-x,-y,-z
loop_
_atom_site_type_symbol
_atom_site_label
_atom_site_fract_x
_atom_site_fract_y
_atom_site_fract_z
Si Si1 0.437882 0.877885 0.520467
Si Si2 0.351189 0.158836 0.158729
Si Si3 0.177658 0.118961 0.462041
Si Si4 0.488293 0.321853 0.924517
Si Si5 0.117205 0.789653 0.876938
Si Si6 0.339698 0.106736 0.928479
Si Si7 0.128025 0.833046 0.111811
O O1 0.440251 0.767425 0.581526
O O2 0.295589 0.771945 0.290560
O O3 0.315716 0.008324 0.490837
O O4 0.720814 0.976727 0.736334
O O5 0.430650 0.217229 0.127179
O O6 0.112907 0.192166 0.017340
O O7 0.309234 0.969896 0.070216
O O8 0.341515 0.248203 0.697141
O O9 0.120548 0.218572 0.361381
O O10 0.935181 0.008380 0.299649
O O11 0.356002 0.222784 0.888053
O O12 0.500000 0.500000 0.000000
O O13 0.759778 0.323862 0.117338
O O14 0.064100 0.737419 0.933769
O O15 0.500000 0.000000 0.000000
#
# Coordination Sequence:
#
# PCOD8018866 Si02
#       7
#     2   2   2   2   2   2   2
#     4  10  17  27  52  89 116 141 181 236 298 334
#     4  10  18  30  53  83 116 143 184 238 290 326
#     4  11  20  36  61  83 113 156 196 233 292 331
#     4  12  25  40  57  83 117 158 197 236 286 346
#     4  10  19  34  52  82 119 142 188 237 288 329
#     4  11  20  40  58  82 120 150 193 248 280 335
#     4  10  18  28  51  88 122 138 177 247 290 336
#
# _framework density 20.287233000000001
#
# number of rings (size 3 to 8) (size 9 to 14) (size 15 to 20)
#    0.000    1.429    8.571    2.143    2.000    0.571 
#    0.000    0.000    0.000    0.857    0.000    2.000 
#    0.000    0.000    0.000    0.000    0.000    0.000 
#
# Total GULP energy -173463.495301 kJ/mol
# GULP energy per Si atom -12390.249664 kJ/mol
# Density = 2.024106 g / cm^3
# Si number density = 20.287233 Si / 1000 Ang^3
#
#
#
# Elastic Constant Matrix: (Units=GPa)
#
#
# Indices 1 2 3 4 5 6 
#
# 1 123.2605 17.6920 37.7774 -17.7142 -12.1038 9.1231
# 2 17.6920 44.3709 24.4787 -9.5648 -3.0107 -1.1328
# 3 37.7774 24.4787 78.4923 -32.8057 -23.8812 17.5475
# 4 -17.7142 -9.5648 -32.8057 27.5944 10.3363 -7.3654
# 5 -12.1038 -3.0107 -23.8812 10.3363 36.0036 -18.3241
# 6 9.1231 -1.1328 17.5475 -7.3654 -18.3241 19.1001
#
#
#
# Elastic Compliance Matrix: (Units=1/GPa)
#
#
# Indices 1 2 3 4 5 6 
#
# 1 0.009652 -0.001801 -0.003232 0.001425 -0.000134 -0.001327
# 2 -0.001801 0.029969 -0.011889 -0.001707 0.002093 0.014910
# 3 -0.003232 -0.011889 0.035539 0.030063 0.005025 -0.015398
# 4 0.001425 -0.001707 0.030063 0.072341 -0.001462 -0.001908
# 5 -0.000134 0.002093 0.005025 -0.001462 0.056899 0.049596
# 6 -0.001327 0.014910 -0.015398 -0.001908 0.049596 0.114865
#
#
# Mechanical properties :
#
#
# Convention : Reuss Voigt Hill
#
# Bulk Modulus (GPa) = 24.20417 45.11333 34.65875
# Shear Modulus (GPa) = 13.62830 27.61801 20.62316
#
# Velocity S-wave (km/s) = 2.59466 3.69365 3.19181
# Velocity P-wave (km/s) = 4.57526 6.36210 5.54118
#
# Compressibility (1/GPa) = 0.04131520
#
# Stress axis : x y z
#
# Youngs Moduli (GPa) = 103.60682 33.36745 28.13779
#
# Poissons Ratio (x) = 0.06010 0.09095
# Poissons Ratio (y) = 0.18660 0.33454
# Poissons Ratio (z) = 0.33488 0.39672
#
# Static dielectric constant tensor:
#      x y z
#    x 4.551970 0.302490 -0.335600 
#    y 0.302490 3.268510 -0.582070 
#    z -0.335600 -0.582070 4.002090 
# 
# 
# High freq. dielectric constant tensor:
#      x y z
#    x 1.824670 0.003080 -0.015740 
#    y 0.003080 1.726270 -0.064130 
#    z -0.015740 -0.064130 1.779290 
# 
# From -- ./inp_files/343851.got.cif
#   From: 2010.06.25/outbox.cif.g09.slc.cpg/sg2_172_cif.got.tgz:343851.got - 2010.06.27 13:26:56.
