data_PCOD8018128
_publ_section_title
;
Structure prediction by ZEFSAII (Michael W. Deem and Ramdas Pophale) SiO2 
 PCOD8018128
Probable space group: P -1
;
_chemical_formula_sum "Si O2"
_cell_formula_units_Z 16
_cell_length_a 10.905099
_cell_length_b 19.044339
_cell_length_c 11.007624
_cell_angle_alpha 33.607950
_cell_angle_beta 65.775424
_cell_angle_gamma 43.113553
_cell_volume 737.357492
_symmetry_space_group_name_H-M "P -1"
_symmetry_group_IT_number 2
_symmetry_cell_setting 'triclinic'
loop_
_space_group_symop_operation_xyz
x,y,z
-x,-y,-z
loop_
_atom_site_type_symbol
_atom_site_label
_atom_site_fract_x
_atom_site_fract_y
_atom_site_fract_z
Si Si1 0.603312 0.942651 0.352914
Si Si2 0.667539 0.740797 0.207712
Si Si3 0.096210 0.294479 0.628455
Si Si4 0.992138 0.087641 0.993889
Si Si5 0.317321 0.664301 0.041942
Si Si6 0.631359 0.215709 0.570968
Si Si7 0.337673 0.944095 0.604897
Si Si8 0.073785 0.082276 0.311546
O O1 0.684332 0.998289 0.328462
O O2 0.794478 0.741613 0.489328
O O3 0.526720 0.884993 0.552986
O O4 0.433454 0.120296 0.069353
O O5 0.758142 0.779135 0.208589
O O6 0.507237 0.766459 0.306510
O O7 0.863518 0.517193 0.404264
O O8 0.095477 0.145271 0.837777
O O9 0.143725 0.906349 0.288908
O O10 0.757012 0.271732 0.879184
O O11 0.000000 0.000000 0.000000
O O12 0.518063 0.430307 0.276903
O O13 0.375996 0.764322 0.832258
O O14 0.124053 0.726944 0.963314
O O15 0.700123 0.087292 0.607919
O O16 0.125767 0.128033 0.345365
O O17 0.000000 0.000000 0.500000
#
# Coordination Sequence:
#
# PCOD8018128 Si02
#       8
#     2   2   2   2   2   2   2   2
#     4  11  23  42  64  88 129 168 211 262 312 375
#     4  11  24  39  67  99 123 165 212 264 317 374
#     4  11  23  41  65  98 127 161 213 262 320 376
#     4  11  23  38  62  95 134 164 195 259 323 377
#     4  10  22  40  62  94 127 161 214 257 312 381
#     4  11  22  39  67  98 125 165 210 263 322 372
#     4  10  23  42  63  87 124 177 212 254 316 374
#     4   9  21  40  62  89 123 166 210 258 308 367
#
# _framework density 21.699106
#
# number of rings (size 3 to 8) (size 9 to 14) (size 15 to 20)
#    0.000    1.500    2.500    1.875    3.500    3.500 
#    0.000    7.500    0.000    0.000    0.000    0.000 
#    0.000    0.000    0.000    0.000    0.000    0.000 
#
# Total GULP energy -198257.116189 kJ/mol
# GULP energy per Si atom -12391.069762 kJ/mol
# Density = 2.164972 g / cm^3
# Si number density = 21.699106 Si / 1000 Ang^3
#
#
#
# Elastic Constant Matrix: (Units=GPa)
#
#
# Indices 1 2 3 4 5 6 
#
# 1 105.6780 38.9352 37.2340 -9.2408 4.0079 21.7003
# 2 38.9352 117.0520 43.2534 -1.2603 16.2413 5.0594
# 3 37.2340 43.2534 70.6953 -3.2582 -3.9359 9.0564
# 4 -9.2408 -1.2603 -3.2582 24.9401 0.0375 -1.7984
# 5 4.0079 16.2413 -3.9359 0.0375 24.0346 9.8346
# 6 21.7003 5.0594 9.0564 -1.7984 9.8346 36.0253
#
#
#
# Elastic Compliance Matrix: (Units=1/GPa)
#
#
# Indices 1 2 3 4 5 6 
#
# 1 0.013775 -0.002914 -0.004275 0.003881 0.001885 -0.007135
# 2 -0.002914 0.014212 -0.008602 -0.001081 -0.012709 0.005337
# 3 -0.004275 -0.008602 0.023076 0.000588 0.012515 -0.005405
# 4 0.003881 -0.001081 0.000588 0.041532 0.000249 -0.000328
# 5 0.001885 -0.012709 0.012515 0.000249 0.059604 -0.018756
# 6 -0.007135 0.005337 -0.005405 -0.000328 -0.018756 0.037769
#
#
# Mechanical properties :
#
#
# Convention : Reuss Voigt Hill
#
# Bulk Modulus (GPa) = 51.32789 59.14116 55.23453
# Shear Modulus (GPa) = 21.92576 28.60018 25.26297
#
# Velocity S-wave (km/s) = 3.18220 3.63441 3.41580
# Velocity P-wave (km/s) = 6.09980 6.70270 6.40835
#
# Compressibility (1/GPa) = 0.01948258
#
# Stress axis : x y z
#
# Youngs Moduli (GPa) = 72.59343 70.36303 43.33593
#
# Poissons Ratio (x) = 0.20504 0.18524
# Poissons Ratio (y) = 0.21154 0.37276
# Poissons Ratio (z) = 0.31030 0.60524
#
# Static dielectric constant tensor:
#      x y z
#    x 4.323130 0.210690 0.358060 
#    y 0.210690 3.594450 0.111100 
#    z 0.358060 0.111100 3.948700 
# 
# 
# High freq. dielectric constant tensor:
#      x y z
#    x 1.857490 -0.003110 0.002390 
#    y -0.003110 1.864790 0.014650 
#    z 0.002390 0.014650 1.835400 
# 
# From -- ./inp_files/438326.got.cif
#   From: 2010.06.25/outbox.cif.g09.slc.cpg/sg2_220_cif.got.tgz:438326.got - 2010.06.27 13:26:56.
