data_PCOD8018127
_publ_section_title
;
Structure prediction by ZEFSAII (Michael W. Deem and Ramdas Pophale) SiO2 
 PCOD8018127
Probable space group: P -1
;
_chemical_formula_sum "Si O2"
_cell_formula_units_Z 16
_cell_length_a 5.831169
_cell_length_b 9.017383
_cell_length_c 17.397099
_cell_angle_alpha 122.128075
_cell_angle_beta 61.558563
_cell_angle_gamma 94.961351
_cell_volume 663.875443
_symmetry_space_group_name_H-M "P -1"
_symmetry_group_IT_number 2
_symmetry_cell_setting 'triclinic'
loop_
_space_group_symop_operation_xyz
x,y,z
-x,-y,-z
loop_
_atom_site_type_symbol
_atom_site_label
_atom_site_fract_x
_atom_site_fract_y
_atom_site_fract_z
Si Si1 0.792026 0.898748 0.459656
Si Si2 0.188353 0.689122 0.066790
Si Si3 0.787128 0.135514 0.732605
Si Si4 0.762108 0.529916 0.423603
Si Si5 0.259613 0.663181 0.779586
Si Si6 0.799224 0.961190 0.909490
Si Si7 0.222190 0.221579 0.298941
Si Si8 0.340867 0.429164 0.847236
O O1 0.756291 0.741859 0.480879
O O2 0.945735 0.822387 0.335291
O O3 0.500000 0.000000 0.500000
O O4 0.000000 0.000000 0.500000
O O5 0.299052 0.775137 0.146145
O O6 0.955536 0.599024 0.108434
O O7 0.100605 0.853429 0.065013
O O8 0.402679 0.533860 0.944474
O O9 0.538163 0.236387 0.748320
O O10 0.816431 0.921443 0.669274
O O11 0.500000 0.500000 0.500000
O O12 0.799718 0.470407 0.312601
O O13 0.015010 0.412806 0.398080
O O14 0.477649 0.758548 0.734196
O O15 0.379886 0.552272 0.803898
O O16 0.006064 0.820586 0.890859
O O17 0.827563 0.857891 0.796463
O O18 0.500000 0.000000 0.000000
#
# Coordination Sequence:
#
# PCOD8018127 Si02
#       8
#     2   2   2   2   2   2   2   2
#     4  12  30  49  77 113 149 196 248 311 379 444
#     4  10  23  40  64  95 137 180 235 280 364 425
#     4  11  24  44  70  95 147 182 240 296 363 436
#     4  11  26  47  74 101 143 185 244 303 368 443
#     4  11  24  41  68 100 137 177 235 294 365 426
#     4  10  22  40  62  93 135 176 232 286 350 428
#     4  10  23  42  68  99 129 189 229 296 355 435
#     4  11  23  39  66 101 134 183 228 295 360 438
#
# _framework density 24.100905999999998
#
# number of rings (size 3 to 8) (size 9 to 14) (size 15 to 20)
#    0.000    1.250    0.000    4.125    7.000    9.500 
#    0.000    0.000    0.000    0.000    0.000    0.000 
#    0.000    0.000    0.000    0.000    0.000    0.000 
#
# Total GULP energy -198252.193090 kJ/mol
# GULP energy per Si atom -12390.762068 kJ/mol
# Density = 2.404605 g / cm^3
# Si number density = 24.100906 Si / 1000 Ang^3
#
#
#
# Elastic Constant Matrix: (Units=GPa)
#
#
# Indices 1 2 3 4 5 6 
#
# 1 93.6439 44.6858 32.8557 12.0986 -30.3896 -9.3788
# 2 44.6858 178.6026 44.5554 7.6591 -22.2435 -8.9021
# 3 32.8557 44.5554 93.0673 -1.6242 -24.2301 -13.1256
# 4 12.0986 7.6591 -1.6242 37.3856 -0.7501 -9.4584
# 5 -30.3896 -22.2435 -24.2301 -0.7501 45.6866 10.9893
# 6 -9.3788 -8.9021 -13.1256 -9.4584 10.9893 42.8203
#
#
#
# Elastic Compliance Matrix: (Units=1/GPa)
#
#
# Indices 1 2 3 4 5 6 
#
# 1 0.015827 -0.002110 -0.002653 -0.004888 0.008249 -0.000982
# 2 -0.002110 0.006836 -0.002384 -0.000841 0.000678 -0.000132
# 3 -0.002653 -0.002384 0.014327 0.002783 0.004021 0.002898
# 4 -0.004888 -0.000841 0.002783 0.030375 -0.003416 0.007194
# 5 0.008249 0.000678 0.004021 -0.003416 0.031120 -0.005561
# 6 -0.000982 -0.000132 0.002898 0.007194 -0.005561 0.027015
#
#
# Mechanical properties :
#
#
# Convention : Reuss Voigt Hill
#
# Bulk Modulus (GPa) = 44.06387 67.72306 55.89347
# Shear Modulus (GPa) = 33.93065 41.39294 37.66180
#
# Velocity S-wave (km/s) = 3.75621 4.14875 3.95735
# Velocity P-wave (km/s) = 6.09385 7.14915 6.64249
#
# Compressibility (1/GPa) = 0.02269433
#
# Stress axis : x y z
#
# Youngs Moduli (GPa) = 63.18470 146.29142 69.79626
#
# Poissons Ratio (x) = 0.30865 0.18520
# Poissons Ratio (y) = 0.13331 0.16642
# Poissons Ratio (z) = 0.16765 0.34882
#
# Static dielectric constant tensor:
#      x y z
#    x 4.232790 -0.172220 -0.023830 
#    y -0.172220 4.744580 0.243340 
#    z -0.023830 0.243340 4.585800 
# 
# 
# High freq. dielectric constant tensor:
#      x y z
#    x 1.940390 -0.007220 -0.003730 
#    y -0.007220 1.975720 0.002960 
#    z -0.003730 0.002960 1.967830 
# 
# From -- ./inp_files/323538.got.cif
#   From: 2010.06.25/outbox.cif.g09.slc.cpg/sg2_162_cif.got.tgz:323538.got - 2010.06.27 13:26:56.
