data_PCOD8018485
_publ_section_title
;
Structure prediction by ZEFSAII (Michael W. Deem and Ramdas Pophale) SiO2 
 PCOD8018485
Probable space group: P -1
;
_chemical_formula_sum "Si O2"
_cell_formula_units_Z 12
_cell_length_a 7.723317
_cell_length_b 9.477397
_cell_length_c 9.019987
_cell_angle_alpha 105.877644
_cell_angle_beta 111.146099
_cell_angle_gamma 44.517399
_cell_volume 431.602459
_symmetry_space_group_name_H-M "P -1"
_symmetry_group_IT_number 2
_symmetry_cell_setting 'triclinic'
loop_
_space_group_symop_operation_xyz
x,y,z
-x,-y,-z
loop_
_atom_site_type_symbol
_atom_site_label
_atom_site_fract_x
_atom_site_fract_y
_atom_site_fract_z
Si Si1 0.863466 0.822562 0.576879
Si Si2 0.457670 0.180923 0.734726
Si Si3 0.954473 0.290819 0.838307
Si Si4 0.392202 0.541593 0.750960
Si Si5 0.606371 0.147388 0.086909
Si Si6 0.896209 0.626462 0.819051
O O1 0.741264 0.833227 0.389721
O O2 0.846022 0.701879 0.658413
O O3 0.164195 0.692739 0.603238
O O4 0.703016 0.045902 0.660348
O O5 0.339090 0.410538 0.771435
O O6 0.555460 0.083009 0.901427
O O7 0.674848 0.390088 0.725758
O O8 0.048024 0.386397 0.802653
O O9 0.946466 0.340322 0.025141
O O10 0.149184 0.051618 0.810375
O O11 0.353160 0.701262 0.897226
O O12 0.625991 0.736324 0.839975
#
# Coordination Sequence:
#
# PCOD8018485 Si02
#       6
#     2   2   2   2   2   2
#     4  11  25  44  67  96 132 171 216 264 329 384
#     4  11  25  42  67  97 131 173 213 265 326 388
#     4  10  22  40  66  98 129 164 217 270 319 373
#     4  11  25  41  66  99 132 169 215 270 321 384
#     4  11  23  42  70  97 128 167 222 268 317 381
#     4  10  23  40  67  99 126 171 216 269 317 381
#
# _framework density 27.803363999999998
#
# number of rings (size 3 to 8) (size 9 to 14) (size 15 to 20)
#    0.000    1.333    1.667    2.500    9.333    1.333 
#    0.000    3.333    0.000   10.000    0.000    0.000 
#    0.000    0.000    0.000    0.000    0.000    0.000 
#
# Total GULP energy -148751.043258 kJ/mol
# GULP energy per Si atom -12395.920272 kJ/mol
# Density = 2.774008 g / cm^3
# Si number density = 27.803364 Si / 1000 Ang^3
#
#
#
# Elastic Constant Matrix: (Units=GPa)
#
#
# Indices 1 2 3 4 5 6 
#
# 1 66.3066 23.6550 40.7846 -2.7068 25.3458 -13.8213
# 2 23.6550 175.5101 46.2720 7.5285 15.1904 -15.5270
# 3 40.7846 46.2720 95.5623 -4.0101 8.9312 -11.0175
# 4 -2.7068 7.5285 -4.0101 32.3555 -15.6201 6.9524
# 5 25.3458 15.1904 8.9312 -15.6201 44.1557 -12.0379
# 6 -13.8213 -15.5270 -11.0175 6.9524 -12.0379 50.3370
#
#
#
# Elastic Compliance Matrix: (Units=1/GPa)
#
#
# Indices 1 2 3 4 5 6 
#
# 1 0.027807 0.001090 -0.010891 -0.007638 -0.016072 0.002799
# 2 0.001090 0.007078 -0.003579 -0.003917 -0.003328 0.001444
# 3 -0.010891 -0.003579 0.016526 0.004758 0.005899 0.000276
# 4 -0.007638 -0.003917 0.004758 0.041447 0.018456 -0.003575
# 5 -0.016072 -0.003328 0.005899 0.018456 0.039075 0.002647
# 6 0.002799 0.001444 0.000276 -0.003575 0.002647 0.022267
#
#
# Mechanical properties :
#
#
# Convention : Reuss Voigt Hill
#
# Bulk Modulus (GPa) = 40.56772 62.08915 51.32843
# Shear Modulus (GPa) = 26.43010 40.48078 33.45544
#
# Velocity S-wave (km/s) = 3.08654 3.81985 3.47261
# Velocity P-wave (km/s) = 5.22732 6.46800 5.88047
#
# Compressibility (1/GPa) = 0.02465014
#
# Stress axis : x y z
#
# Youngs Moduli (GPa) = 35.96224 141.27726 60.51137
#
# Poissons Ratio (x) = -0.15397 0.65903
# Poissons Ratio (y) = -0.03919 0.21659
# Poissons Ratio (z) = 0.39167 0.50567
#
# Static dielectric constant tensor:
#      x y z
#    x 4.913190 -0.302830 0.459250 
#    y -0.302830 5.767980 0.007910 
#    z 0.459250 0.007910 4.660310 
# 
# 
# High freq. dielectric constant tensor:
#      x y z
#    x 2.116980 -0.028890 0.019730 
#    y -0.028890 2.159770 -0.001890 
#    z 0.019730 -0.001890 2.091920 
# 
# From -- ./inp_files/376965.got.cif
#   From: 2010.06.25/outbox.cif.g09.slc.cpg/sg2_189_cif.got.tgz:376965.got - 2010.06.27 13:26:56.
