data_PCOD8018647
_publ_section_title
;
Structure prediction by ZEFSAII (Michael W. Deem and Ramdas Pophale) SiO2 
 PCOD8018647
Probable space group: P -1
;
_chemical_formula_sum "Si O2"
_cell_formula_units_Z 12
_cell_length_a 9.537138
_cell_length_b 10.337257
_cell_length_c 7.925619
_cell_angle_alpha 51.206783
_cell_angle_beta 111.909364
_cell_angle_gamma 89.311960
_cell_volume 531.384008
_symmetry_space_group_name_H-M "P -1"
_symmetry_group_IT_number 2
_symmetry_cell_setting 'triclinic'
loop_
_space_group_symop_operation_xyz
x,y,z
-x,-y,-z
loop_
_atom_site_type_symbol
_atom_site_label
_atom_site_fract_x
_atom_site_fract_y
_atom_site_fract_z
Si Si1 0.789578 0.982118 0.348650
Si Si2 0.822469 0.053186 0.942183
Si Si3 0.554226 0.940239 0.756438
Si Si4 0.194745 0.409215 0.788406
Si Si5 0.872215 0.392639 0.738061
Si Si6 0.101936 0.693365 0.809433
O O1 0.912044 0.813255 0.639151
O O2 0.606052 0.989164 0.262471
O O3 0.801677 0.168138 0.266620
O O4 0.837721 0.943636 0.208497
O O5 0.771888 0.261993 0.780231
O O6 0.685611 0.029821 0.783037
O O7 0.000000 0.000000 0.000000
O O8 0.500000 0.000000 0.500000
O O9 0.631324 0.727955 0.975732
O O10 0.203617 0.449330 0.558884
O O11 0.148095 0.579156 0.752249
O O12 0.061611 0.313330 0.834327
O O13 0.861819 0.434757 0.902293
#
# Coordination Sequence:
#
# PCOD8018647 Si02
#       6
#     2   2   2   2   2   2
#     4  10  24  43  70 103 138 179 231 284 343 404
#     4  11  22  45  72  96 138 187 230 273 343 421
#     4  12  27  44  68 106 141 176 227 290 350 399
#     4  11  23  42  70  99 138 178 232 281 341 407
#     4  10  22  40  68  99 130 184 230 277 331 414
#     4  10  22  43  72  99 135 184 234 274 341 417
#
# _framework density 22.582539000000001
#
# number of rings (size 3 to 8) (size 9 to 14) (size 15 to 20)
#    0.000    1.333    1.667    3.000    9.333    0.667 
#    3.000    1.667    0.000    0.000    0.000    0.000 
#    0.000    0.000    0.000    0.000    0.000    0.000 
#
# Total GULP energy -148684.191194 kJ/mol
# GULP energy per Si atom -12390.349266 kJ/mol
# Density = 2.253114 g / cm^3
# Si number density = 22.582539 Si / 1000 Ang^3
#
#
#
# Elastic Constant Matrix: (Units=GPa)
#
#
# Indices 1 2 3 4 5 6 
#
# 1 134.8970 49.5748 54.7956 12.6197 10.1062 7.0714
# 2 49.5748 108.3550 55.3891 21.5710 4.8340 11.1548
# 3 54.7956 55.3891 157.9212 18.4464 -6.6821 -5.6517
# 4 12.6197 21.5710 18.4464 32.6950 -3.3519 2.2559
# 5 10.1062 4.8340 -6.6821 -3.3519 45.1547 10.1283
# 6 7.0714 11.1548 -5.6517 2.2559 10.1283 33.1213
#
#
#
# Elastic Compliance Matrix: (Units=1/GPa)
#
#
# Indices 1 2 3 4 5 6 
#
# 1 0.009715 -0.002920 -0.002390 -0.000631 -0.002078 -0.000820
# 2 -0.002920 0.013914 -0.003347 -0.005982 -0.000888 -0.003954
# 3 -0.002390 -0.003347 0.008710 -0.001833 0.001415 0.002816
# 4 -0.000631 -0.005982 -0.001833 0.036298 0.003594 -0.001735
# 5 -0.002078 -0.000888 0.001415 0.003594 0.024712 -0.006817
# 6 -0.000820 -0.003954 0.002816 -0.001735 -0.006817 0.034382
#
#
# Mechanical properties :
#
#
# Convention : Reuss Voigt Hill
#
# Bulk Modulus (GPa) = 66.56116 80.07690 73.31903
# Shear Modulus (GPa) = 33.32132 38.28843 35.80488
#
# Velocity S-wave (km/s) = 3.84544 4.12210 3.98617
# Velocity P-wave (km/s) = 7.01820 7.62838 7.32964
#
# Compressibility (1/GPa) = 0.01502378
#
# Stress axis : x y z
#
# Youngs Moduli (GPa) = 102.93502 71.87194 114.80627
#
# Poissons Ratio (x) = 0.20988 0.27441
# Poissons Ratio (y) = 0.30059 0.38427
# Poissons Ratio (z) = 0.24604 0.24057
#
# Static dielectric constant tensor:
#      x y z
#    x 3.917050 0.219140 -0.214610 
#    y 0.219140 4.347940 0.074020 
#    z -0.214610 0.074020 4.214410 
# 
# 
# High freq. dielectric constant tensor:
#      x y z
#    x 1.880250 0.009290 -0.017880 
#    y 0.009290 1.893760 0.013090 
#    z -0.017880 0.013090 1.896300 
# 
# From -- ./inp_files/146222.got.cif
#   From: 2010.06.25/outbox.cif.g09.slc.cpg/sg2_74_cif.got.tgz:146222.got - 2010.06.27 13:26:56.
