data_PCOD8018153
_publ_section_title
;
Structure prediction by ZEFSAII (Michael W. Deem and Ramdas Pophale) SiO2 
 PCOD8018153
Probable space group: P -1
;
_chemical_formula_sum "Si O2"
_cell_formula_units_Z 14
_cell_length_a 9.409395
_cell_length_b 17.572068
_cell_length_c 6.905910
_cell_angle_alpha 125.987719
_cell_angle_beta 45.984583
_cell_angle_gamma 126.001975
_cell_volume 632.027972
_symmetry_space_group_name_H-M "P -1"
_symmetry_group_IT_number 2
_symmetry_cell_setting 'triclinic'
loop_
_space_group_symop_operation_xyz
x,y,z
-x,-y,-z
loop_
_atom_site_type_symbol
_atom_site_label
_atom_site_fract_x
_atom_site_fract_y
_atom_site_fract_z
Si Si1 0.188412 0.885242 0.145841
Si Si2 0.670271 0.293348 0.309339
Si Si3 0.943125 0.402697 0.532831
Si Si4 0.250275 0.176827 0.371167
Si Si5 0.268229 0.358655 0.386086
Si Si6 0.282560 0.557425 0.845512
Si Si7 0.559776 0.982448 0.199888
O O1 0.344603 0.962724 0.257164
O O2 0.953471 0.885835 0.410584
O O3 0.201090 0.775162 0.002965
O O4 0.265429 0.920863 0.907466
O O5 0.748551 0.321464 0.496753
O O6 0.424086 0.235255 0.450144
O O7 0.720521 0.393398 0.287050
O O8 0.000000 0.500000 0.500000
O O9 0.137993 0.360248 0.314876
O O10 0.903860 0.430815 0.831189
O O11 0.183051 0.251495 0.405117
O O12 0.344841 0.108101 0.045722
O O13 0.261380 0.442613 0.674152
O O14 0.510801 0.383462 0.141025
O O15 0.500000 0.000000 0.500000
#
# Coordination Sequence:
#
# PCOD8018153 Si02
#       7
#     2   2   2   2   2   2   2
#     4  10  22  41  68  96 128 165 212 261 324 384
#     4  10  23  41  62  95 130 174 214 264 313 373
#     4  12  24  37  63  92 125 175 220 261 311 365
#     4  10  22  42  69  93 131 174 210 265 327 380
#     4  10  22  40  63  88 127 174 210 265 317 364
#     4  10  22  42  58  87 133 167 217 264 308 370
#     4  10  23  44  69  97 128 161 207 268 327 390
#
# _framework density 22.150918000000001
#
# number of rings (size 3 to 8) (size 9 to 14) (size 15 to 20)
#    0.000    1.714    1.429    1.714    2.000    6.857 
#    0.000    4.286    0.000    0.000    0.000    0.000 
#    0.000    0.000    0.000    0.000    0.000    0.000 
#
# Total GULP energy -173576.045986 kJ/mol
# GULP energy per Si atom -12398.288999 kJ/mol
# Density = 2.210050 g / cm^3
# Si number density = 22.150918 Si / 1000 Ang^3
#
#
#
# Elastic Constant Matrix: (Units=GPa)
#
#
# Indices 1 2 3 4 5 6 
#
# 1 128.8161 40.8616 31.4410 -12.9247 -1.8285 -2.4357
# 2 40.8616 105.9541 39.4006 -5.9548 -6.7125 -5.2913
# 3 31.4410 39.4006 105.2763 -16.2067 -0.9864 5.3059
# 4 -12.9247 -5.9548 -16.2067 32.1466 3.8321 -6.6495
# 5 -1.8285 -6.7125 -0.9864 3.8321 29.5331 -2.8080
# 6 -2.4357 -5.2913 5.3059 -6.6495 -2.8080 30.2549
#
#
#
# Elastic Compliance Matrix: (Units=1/GPa)
#
#
# Indices 1 2 3 4 5 6 
#
# 1 0.009303 -0.002915 -0.001313 0.002803 -0.000394 0.001049
# 2 -0.002915 0.012309 -0.003948 -0.000655 0.002830 0.002729
# 3 -0.001313 -0.003948 0.012169 0.004616 -0.001365 -0.002042
# 4 0.002803 -0.000655 0.004616 0.036335 -0.003877 0.006928
# 5 -0.000394 0.002830 -0.001365 -0.003877 0.035233 0.003120
# 6 0.001049 0.002729 -0.002042 0.006928 0.003120 0.035785
#
#
# Mechanical properties :
#
#
# Convention : Reuss Voigt Hill
#
# Bulk Modulus (GPa) = 57.37078 62.60590 59.98834
# Shear Modulus (GPa) = 30.61913 33.60981 32.11447
#
# Velocity S-wave (km/s) = 3.72196 3.89949 3.81176
# Velocity P-wave (km/s) = 6.66534 6.97133 6.82005
#
# Compressibility (1/GPa) = 0.01743048
#
# Stress axis : x y z
#
# Youngs Moduli (GPa) = 107.48684 81.24061 82.17417
#
# Poissons Ratio (x) = 0.23681 0.10787
# Poissons Ratio (y) = 0.31331 0.32444
# Poissons Ratio (z) = 0.14109 0.32075
#
# Static dielectric constant tensor:
#      x y z
#    x 4.236840 0.094550 -0.230000 
#    y 0.094550 4.074410 0.063120 
#    z -0.230000 0.063120 3.703660 
# 
# 
# High freq. dielectric constant tensor:
#      x y z
#    x 1.882850 0.004240 -0.021200 
#    y 0.004240 1.879430 0.003720 
#    z -0.021200 0.003720 1.845590 
# 
# From -- ./inp_files/48783.got.cif
#   From: 2010.06.25/outbox.cif.g09.slc.cpg/sg2_25_cif.got.tgz:48783.got - 2010.06.27 13:26:56.
