data_PCOD8018076
_publ_section_title
;
Structure prediction by ZEFSAII (Michael W. Deem and Ramdas Pophale) SiO2 
 PCOD8018076
Probable space group: P -1
;
_chemical_formula_sum "Si O2"
_cell_formula_units_Z 14
_cell_length_a 11.592518
_cell_length_b 10.370250
_cell_length_c 6.647784
_cell_angle_alpha 62.005683
_cell_angle_beta 124.893056
_cell_angle_gamma 103.480679
_cell_volume 578.114103
_symmetry_space_group_name_H-M "P -1"
_symmetry_group_IT_number 2
_symmetry_cell_setting 'triclinic'
loop_
_space_group_symop_operation_xyz
x,y,z
-x,-y,-z
loop_
_atom_site_type_symbol
_atom_site_label
_atom_site_fract_x
_atom_site_fract_y
_atom_site_fract_z
Si Si1 0.870097 0.920442 0.184093
Si Si2 0.530443 0.715025 0.526356
Si Si3 0.140593 0.553615 0.001605
Si Si4 0.757657 0.655308 0.081133
Si Si5 0.350345 0.924434 0.414817
Si Si6 0.386258 0.440543 0.620089
Si Si7 0.826221 0.119137 0.359051
O O1 0.036826 0.940248 0.333906
O O2 0.799420 0.993031 0.260283
O O3 0.850272 0.746810 0.262127
O O4 0.790465 0.990577 0.861879
O O5 0.663167 0.764086 0.757362
O O6 0.381395 0.791272 0.386257
O O7 0.521478 0.540440 0.683712
O O8 0.566283 0.718860 0.319223
O O9 0.140506 0.726918 0.824791
O O10 0.151886 0.462819 0.870712
O O11 0.261580 0.517229 0.308731
O O12 0.000000 0.500000 0.000000
O O13 0.651148 0.573620 0.175733
O O14 0.311412 0.869521 0.640940
O O15 0.500000 0.000000 0.500000
#
# Coordination Sequence:
#
# PCOD8018076 Si02
#       7
#     2   2   2   2   2   2   2
#     4  11  26  46  69 104 140 187 232 291 341 423
#     4  10  22  40  62 100 137 177 228 285 344 411
#     4  11  25  45  70 102 133 181 239 286 342 417
#     4  11  23  41  70 100 135 180 229 287 346 409
#     4  12  25  44  71 103 139 184 234 283 345 419
#     4  10  22  40  67  96 138 176 226 289 346 407
#     4  11  27  47  71 102 143 187 231 287 357 408
#
# _framework density 24.216673
#
# number of rings (size 3 to 8) (size 9 to 14) (size 15 to 20)
#    0.000    1.143    1.429    3.429    2.000   10.857 
#    0.000    0.000    0.000    0.000    0.000    0.000 
#    0.000    0.000    0.000    0.000    0.000    0.000 
#
# Total GULP energy -173435.028160 kJ/mol
# GULP energy per Si atom -12388.216297 kJ/mol
# Density = 2.416155 g / cm^3
# Si number density = 24.216673 Si / 1000 Ang^3
#
#
#
# Elastic Constant Matrix: (Units=GPa)
#
#
# Indices 1 2 3 4 5 6 
#
# 1 152.0396 36.4061 22.5204 4.1905 -27.3813 -19.3791
# 2 36.4061 119.9407 16.0178 19.7620 -8.5140 -19.9532
# 3 22.5204 16.0178 59.5030 8.4453 -4.9524 -2.5579
# 4 4.1905 19.7620 8.4453 30.2514 -3.5153 -0.7038
# 5 -27.3813 -8.5140 -4.9524 -3.5153 33.5439 4.5671
# 6 -19.3791 -19.9532 -2.5579 -0.7038 4.5671 46.9253
#
#
#
# Elastic Compliance Matrix: (Units=1/GPa)
#
#
# Indices 1 2 3 4 5 6 
#
# 1 0.008696 -0.001752 -0.002411 0.001378 0.006151 0.002137
# 2 -0.001752 0.010672 -0.001159 -0.006326 -0.000054 0.003661
# 3 -0.002411 -0.001159 0.018599 -0.004099 0.000129 -0.000549
# 4 0.001378 -0.006326 -0.004099 0.038469 0.003229 -0.002082
# 5 0.006151 -0.000054 0.000129 0.003229 0.035294 -0.000862
# 6 0.002137 0.003661 -0.000549 -0.002082 -0.000862 0.023772
#
#
# Mechanical properties :
#
#
# Convention : Reuss Voigt Hill
#
# Bulk Modulus (GPa) = 36.60022 53.48577 45.04300
# Shear Modulus (GPa) = 32.20506 39.24672 35.72589
#
# Velocity S-wave (km/s) = 3.65070 4.03010 3.84508
# Velocity P-wave (km/s) = 5.73730 6.61739 6.19300
#
# Compressibility (1/GPa) = 0.02732224
#
# Stress axis : x y z
#
# Youngs Moduli (GPa) = 114.99279 93.70575 53.76533
#
# Poissons Ratio (x) = 0.16422 0.12964
# Poissons Ratio (y) = 0.20152 0.06230
# Poissons Ratio (z) = 0.27728 0.10858
#
# Static dielectric constant tensor:
#      x y z
#    x 4.491440 -0.392740 0.038770 
#    y -0.392740 4.902760 0.172700 
#    z 0.038770 0.172700 4.172470 
# 
# 
# High freq. dielectric constant tensor:
#      x y z
#    x 1.967650 -0.015390 0.003300 
#    y -0.015390 1.975690 0.023340 
#    z 0.003300 0.023340 1.949020 
# 
# From -- ./inp_files/68794.got.cif
#   From: 2010.06.25/outbox.cif.g09.slc.cpg/sg2_35_cif.got.tgz:68794.got - 2010.06.27 13:26:56.
