data_PCOD8018808
_publ_section_title
;
Structure prediction by ZEFSAII (Michael W. Deem and Ramdas Pophale) SiO2 
 PCOD8018808
Probable space group: P -1
;
_chemical_formula_sum "Si O2"
_cell_formula_units_Z 16
_cell_length_a 15.753685
_cell_length_b 5.272405
_cell_length_c 10.255677
_cell_angle_alpha 115.426674
_cell_angle_beta 101.203287
_cell_angle_gamma 105.282318
_cell_volume 694.366983
_symmetry_space_group_name_H-M "P -1"
_symmetry_group_IT_number 2
_symmetry_cell_setting 'triclinic'
loop_
_space_group_symop_operation_xyz
x,y,z
-x,-y,-z
loop_
_atom_site_type_symbol
_atom_site_label
_atom_site_fract_x
_atom_site_fract_y
_atom_site_fract_z
Si Si1 0.259795 0.648440 0.137193
Si Si2 0.930270 0.041995 0.383129
Si Si3 0.397973 0.638349 0.676082
Si Si4 0.722547 0.666102 0.666825
Si Si5 0.273122 0.423470 0.822070
Si Si6 0.440507 0.294769 0.821483
Si Si7 0.942699 0.650496 0.938908
Si Si8 0.904207 0.569753 0.632728
O O1 0.301294 0.535706 0.251235
O O2 0.153608 0.400388 0.027707
O O3 0.265205 0.989380 0.228264
O O4 0.306946 0.628901 0.008832
O O5 0.891929 0.301078 0.468202
O O6 0.995982 0.143529 0.297380
O O7 0.839456 0.737487 0.261539
O O8 0.000000 0.000000 0.500000
O O9 0.362043 0.478059 0.491884
O O10 0.313995 0.625473 0.748262
O O11 0.463054 0.485071 0.733011
O O12 0.462079 0.993133 0.745745
O O13 0.816582 0.672033 0.624564
O O14 0.328039 0.193661 0.794310
O O15 0.500000 0.500000 0.000000
O O16 0.910977 0.452070 0.753171
O O17 0.000000 0.500000 0.000000
O O18 0.000000 0.000000 0.000000
#
# Coordination Sequence:
#
# PCOD8018808 Si02
#       8
#     2   2   2   2   2   2   2   2
#     4  11  25  38  63  89 131 168 215 273 322 378
#     4  11  23  39  60  90 127 166 219 279 311 369
#     4  10  22  40  72  94 129 164 216 258 318 390
#     4  11  23  43  63  94 129 177 220 258 320 383
#     4  10  25  38  67  96 129 168 216 264 335 370
#     4  10  22  42  72 104 129 161 213 267 319 389
#     4  11  23  38  55  77 117 167 218 258 315 371
#     4  10  24  37  58  84 123 173 221 267 310 365
#
# _framework density 23.042570000000001
#
# number of rings (size 3 to 8) (size 9 to 14) (size 15 to 20)
#    0.750    0.750    0.000    4.875   12.250    1.000 
#    0.000    0.000    0.000    4.500    0.000    0.000 
#    0.000    0.000    0.000    0.000    0.000    0.000 
#
# Total GULP energy -198229.887957 kJ/mol
# GULP energy per Si atom -12389.367997 kJ/mol
# Density = 2.299012 g / cm^3
# Si number density = 23.042570 Si / 1000 Ang^3
#
#
#
# Elastic Constant Matrix: (Units=GPa)
#
#
# Indices 1 2 3 4 5 6 
#
# 1 16.8492 8.6976 -0.5702 -5.1393 -2.2629 -11.2289
# 2 8.6976 137.1083 43.8796 2.0196 -0.2719 -37.4919
# 3 -0.5702 43.8796 92.2007 -7.9724 8.5028 -12.7707
# 4 -5.1393 2.0196 -7.9724 45.5047 -5.1354 -0.4329
# 5 -2.2629 -0.2719 8.5028 -5.1354 40.5732 -4.4900
# 6 -11.2289 -37.4919 -12.7707 -0.4329 -4.4900 26.0789
#
#
#
# Elastic Compliance Matrix: (Units=1/GPa)
#
#
# Indices 1 2 3 4 5 6 
#
# 1 0.101849 0.008387 0.005075 0.014088 0.013196 0.060902
# 2 0.008387 0.014283 -0.003911 0.000293 0.003956 0.022915
# 3 0.005075 -0.003911 0.013573 0.002939 -0.001891 0.002933
# 4 0.014088 0.000293 0.002939 0.024640 0.004295 0.009074
# 5 0.013196 0.003956 -0.001891 0.004295 0.028047 0.015343
# 6 0.060902 0.022915 0.002933 0.009074 0.015343 0.101740
#
#
# Mechanical properties :
#
#
# Convention : Reuss Voigt Hill
#
# Bulk Modulus (GPa) = 6.72009 38.90805 22.81407
# Shear Modulus (GPa) = 15.89154 35.37478 25.63316
#
# Velocity S-wave (km/s) = 2.62899 3.92240 3.33892
# Velocity P-wave (km/s) = 3.48398 6.11847 4.97864
#
# Compressibility (1/GPa) = 0.14880744
#
# Stress axis : x y z
#
# Youngs Moduli (GPa) = 9.81845 70.01402 73.67380
#
# Poissons Ratio (x) = -0.58721 -0.37390
# Poissons Ratio (y) = -0.08235 0.28814
# Poissons Ratio (z) = -0.04983 0.27383
#
# Static dielectric constant tensor:
#      x y z
#    x 4.014620 0.093290 -0.082060 
#    y 0.093290 4.171330 -0.244710 
#    z -0.082060 -0.244710 4.101800 
# 
# 
# High freq. dielectric constant tensor:
#      x y z
#    x 1.889000 -0.004960 -0.002300 
#    y -0.004960 1.912760 -0.013430 
#    z -0.002300 -0.013430 1.917930 
# 
# From -- ./inp_files/468202.got.cif
#   From: 2010.06.25/outbox.cif.g09.slc.cpg/sg2_235_cif.got.tgz:468202.got - 2010.06.27 13:26:56.
