data_PCOD8018053
_publ_section_title
;
Structure prediction by ZEFSAII (Michael W. Deem and Ramdas Pophale) SiO2 
 PCOD8018053
Probable space group: P -1
;
_chemical_formula_sum "Si O2"
_cell_formula_units_Z 16
_cell_length_a 8.717825
_cell_length_b 21.808615
_cell_length_c 23.953649
_cell_angle_alpha 160.390105
_cell_angle_beta 38.812297
_cell_angle_gamma 151.199296
_cell_volume 705.551035
_symmetry_space_group_name_H-M "P -1"
_symmetry_group_IT_number 2
_symmetry_cell_setting 'triclinic'
loop_
_space_group_symop_operation_xyz
x,y,z
-x,-y,-z
loop_
_atom_site_type_symbol
_atom_site_label
_atom_site_fract_x
_atom_site_fract_y
_atom_site_fract_z
Si Si1 0.378549 0.644847 0.850278
Si Si2 0.353283 0.979463 0.089334
Si Si3 0.435686 0.811918 0.467152
Si Si4 0.719552 0.459619 0.330648
Si Si5 0.672318 0.421351 0.592341
Si Si6 0.590662 0.335362 0.417307
Si Si7 0.282100 0.644717 0.157998
Si Si8 0.396737 0.512772 0.125205
O O1 0.166176 0.467367 0.704002
O O2 0.638800 0.624817 0.779892
O O3 0.119484 0.566809 0.905513
O O4 0.560343 0.916528 0.006173
O O5 0.556567 0.178153 0.150865
O O6 0.310995 0.099350 0.255794
O O7 0.987806 0.728629 0.959186
O O8 0.532702 0.775220 0.468222
O O9 0.534723 0.711081 0.305921
O O10 0.042396 0.658221 0.446512
O O11 0.630338 0.098613 0.652619
O O12 0.428908 0.462911 0.423524
O O13 0.524294 0.272993 0.448441
O O14 0.055408 0.566794 0.615354
O O15 0.450339 0.651646 0.172197
O O16 0.400329 0.577047 0.014466
#
# Coordination Sequence:
#
# PCOD8018053 Si02
#       8
#     2   2   2   2   2   2   2   2
#     4  10  23  42  60  89 133 168 209 257 321 385
#     4  11  20  38  65  97 125 159 211 270 320 373
#     4  12  22  41  68  96 128 168 214 268 315 381
#     4  11  21  36  66  98 120 163 211 266 323 368
#     4  10  24  42  57  94 129 174 214 241 331 391
#     4  10  22  40  61  91 134 169 205 260 321 393
#     4  10  22  42  64  92 132 165 215 267 316 371
#     4  10  23  39  66 105 121 160 218 271 324 368
#
# _framework density 22.677309999999999
#
# number of rings (size 3 to 8) (size 9 to 14) (size 15 to 20)
#    0.000    1.500    3.750    1.875    1.750    1.000 
#    6.750    0.625    0.000    0.000    0.000    0.000 
#    0.000    0.000    0.000    0.000    0.000    0.000 
#
# Total GULP energy -198254.745219 kJ/mol
# GULP energy per Si atom -12390.921576 kJ/mol
# Density = 2.262570 g / cm^3
# Si number density = 22.677310 Si / 1000 Ang^3
#
#
#
# Elastic Constant Matrix: (Units=GPa)
#
#
# Indices 1 2 3 4 5 6 
#
# 1 67.7897 38.8393 33.4462 -6.2540 -22.1465 -15.8186
# 2 38.8393 106.5701 47.7421 -18.7071 -23.3924 -8.8208
# 3 33.4462 47.7421 132.2603 -13.2034 -31.1668 -7.7852
# 4 -6.2540 -18.7071 -13.2034 38.8573 -2.4551 -8.2703
# 5 -22.1465 -23.3924 -31.1668 -2.4551 37.0715 -6.4734
# 6 -15.8186 -8.8208 -7.7852 -8.2703 -6.4734 37.6761
#
#
#
# Elastic Compliance Matrix: (Units=1/GPa)
#
#
# Indices 1 2 3 4 5 6 
#
# 1 0.026063 -0.003611 0.000044 0.006551 0.016266 0.014339
# 2 -0.003611 0.014602 -0.001795 0.007175 0.006768 0.004270
# 3 0.000044 -0.001795 0.011096 0.004450 0.009296 0.004465
# 4 0.006551 0.007175 0.004450 0.036332 0.017439 0.016321
# 5 0.016266 0.006768 0.009296 0.017439 0.054027 0.023446
# 6 0.014339 0.004270 0.004465 0.016321 0.023446 0.042096
#
#
# Mechanical properties :
#
#
# Convention : Reuss Voigt Hill
#
# Bulk Modulus (GPa) = 24.36901 60.74169 42.55535
# Shear Modulus (GPa) = 23.96702 35.16049 29.56376
#
# Velocity S-wave (km/s) = 3.25448 3.94187 3.61456
# Velocity P-wave (km/s) = 4.98914 6.89646 6.01883
#
# Compressibility (1/GPa) = 0.04103573
#
# Stress axis : x y z
#
# Youngs Moduli (GPa) = 38.36813 68.48186 90.12661
#
# Poissons Ratio (x) = 0.24729 -0.00393
# Poissons Ratio (y) = 0.13855 0.16180
# Poissons Ratio (z) = -0.00167 0.12295
#
# Static dielectric constant tensor:
#      x y z
#    x 3.989260 -0.193230 -0.311000 
#    y -0.193230 3.995380 -0.444110 
#    z -0.311000 -0.444110 4.383650 
# 
# 
# High freq. dielectric constant tensor:
#      x y z
#    x 1.876780 -0.016760 -0.024020 
#    y -0.016760 1.889000 -0.029460 
#    z -0.024020 -0.029460 1.902540 
# 
# From -- ./inp_files/608662.got.cif
#   From: 2010.06.25/outbox.cif.g09.slc.cpg/sg2_305_cif.got.tgz:608662.got - 2010.06.27 13:26:56.
