data_PCOD8018596
_publ_section_title
;
Structure prediction by ZEFSAII (Michael W. Deem and Ramdas Pophale) SiO2 
 PCOD8018596
Probable space group: P -1
;
_chemical_formula_sum "Si O2"
_cell_formula_units_Z 14
_cell_length_a 9.539119
_cell_length_b 11.909246
_cell_length_c 15.687159
_cell_angle_alpha 27.280671
_cell_angle_beta 132.832565
_cell_angle_gamma 124.753665
_cell_volume 595.913168
_symmetry_space_group_name_H-M "P -1"
_symmetry_group_IT_number 2
_symmetry_cell_setting 'triclinic'
loop_
_space_group_symop_operation_xyz
x,y,z
-x,-y,-z
loop_
_atom_site_type_symbol
_atom_site_label
_atom_site_fract_x
_atom_site_fract_y
_atom_site_fract_z
Si Si1 0.312626 0.653530 0.051247
Si Si2 0.956181 0.903377 0.824238
Si Si3 0.989990 0.205389 0.785822
Si Si4 0.061092 0.677031 0.584404
Si Si5 0.614793 0.824179 0.308778
Si Si6 0.446261 0.609322 0.535513
Si Si7 0.291350 0.489764 0.960487
O O1 0.276923 0.589594 0.982290
O O2 0.107391 0.693696 0.987423
O O3 0.417942 0.902478 0.927250
O O4 0.447117 0.432188 0.301210
O O5 0.073013 0.066991 0.827959
O O6 0.861029 0.089397 0.587457
O O7 0.784013 0.782694 0.883177
O O8 0.778054 0.317896 0.594322
O O9 0.111087 0.426203 0.718198
O O10 0.000000 0.000000 0.000000
O O11 0.151074 0.659213 0.727042
O O12 0.835405 0.721090 0.474195
O O13 0.531023 0.823326 0.370868
O O14 0.503932 0.647982 0.321165
O O15 0.500000 0.500000 0.000000
#
# Coordination Sequence:
#
# PCOD8018596 Si02
#       7
#     2   2   2   2   2   2   2
#     4  11  25  44  70  99 137 181 229 274 337 409
#     4  11  25  46  72 102 134 183 229 281 343 408
#     4  11  23  43  74 103 138 176 224 290 345 399
#     4  10  23  46  69 101 137 179 230 276 350 400
#     4   9  21  40  69 102 132 178 221 288 335 403
#     4  10  22  40  68 103 140 171 223 281 347 394
#     4  12  28  45  67  99 142 185 230 279 332 410
#
# _framework density 23.493355999999999
#
# number of rings (size 3 to 8) (size 9 to 14) (size 15 to 20)
#    0.000    1.429    1.429    2.143    8.000    4.000 
#    0.000    0.000    0.000    0.000    0.000    0.000 
#    0.000    0.000    0.000    0.000    0.000    0.000 
#
# Total GULP energy -173586.567681 kJ/mol
# GULP energy per Si atom -12399.040549 kJ/mol
# Density = 2.343988 g / cm^3
# Si number density = 23.493356 Si / 1000 Ang^3
#
#
#
# Elastic Constant Matrix: (Units=GPa)
#
#
# Indices 1 2 3 4 5 6 
#
# 1 98.3573 26.3723 33.3215 11.8428 -10.4108 -4.0837
# 2 26.3723 67.6055 29.3256 21.6281 0.1066 -16.3949
# 3 33.3215 29.3256 130.2259 22.7103 -21.5362 -0.7773
# 4 11.8428 21.6281 22.7103 32.2116 -8.3241 -13.7591
# 5 -10.4108 0.1066 -21.5362 -8.3241 36.7627 -7.6808
# 6 -4.0837 -16.3949 -0.7773 -13.7591 -7.6808 43.8184
#
#
#
# Elastic Compliance Matrix: (Units=1/GPa)
#
#
# Indices 1 2 3 4 5 6 
#
# 1 0.012088 -0.003957 -0.001830 0.000166 0.002419 0.000090
# 2 -0.003957 0.021898 -0.002732 -0.010986 -0.004534 0.003532
# 3 -0.001830 -0.002732 0.010188 -0.004306 0.004141 -0.001638
# 4 0.000166 -0.010986 -0.004306 0.050294 0.011805 0.013690
# 5 0.002419 -0.004534 0.004141 0.011805 0.034754 0.008401
# 6 0.000090 0.003532 -0.001638 0.013690 0.008401 0.029894
#
#
# Mechanical properties :
#
#
# Convention : Reuss Voigt Hill
#
# Bulk Modulus (GPa) = 36.85034 52.69193 44.77113
# Shear Modulus (GPa) = 26.99804 36.36982 31.68393
#
# Velocity S-wave (km/s) = 3.39363 3.93885 3.67636
# Velocity P-wave (km/s) = 5.57451 6.56987 6.09255
#
# Compressibility (1/GPa) = 0.02713679
#
# Stress axis : x y z
#
# Youngs Moduli (GPa) = 82.72868 45.66570 98.15100
#
# Poissons Ratio (x) = 0.18068 0.17966
# Poissons Ratio (y) = 0.32732 0.26813
# Poissons Ratio (z) = 0.15143 0.12475
#
# Static dielectric constant tensor:
#      x y z
#    x 4.280140 -0.085490 -0.296000 
#    y -0.085490 4.347690 -0.126360 
#    z -0.296000 -0.126360 4.383870 
# 
# 
# High freq. dielectric constant tensor:
#      x y z
#    x 1.928930 -0.008360 -0.020070 
#    y -0.008360 1.917850 0.001210 
#    z -0.020070 0.001210 1.937780 
# 
# From -- ./inp_files/403252.got.cif
#   From: 2010.06.25/outbox.cif.g09.slc.cpg/sg2_202_cif.got.tgz:403252.got - 2010.06.27 13:26:56.
