data_PCOD8018830
_publ_section_title
;
Structure prediction by ZEFSAII (Michael W. Deem and Ramdas Pophale) SiO2 
 PCOD8018830
Probable space group: P -1
;
_chemical_formula_sum "Si O2"
_cell_formula_units_Z 16
_cell_length_a 5.102646
_cell_length_b 12.731921
_cell_length_c 31.465492
_cell_angle_alpha 25.370676
_cell_angle_beta 83.874159
_cell_angle_gamma 77.164928
_cell_volume 832.097241
_symmetry_space_group_name_H-M "P -1"
_symmetry_group_IT_number 2
_symmetry_cell_setting 'triclinic'
loop_
_space_group_symop_operation_xyz
x,y,z
-x,-y,-z
loop_
_atom_site_type_symbol
_atom_site_label
_atom_site_fract_x
_atom_site_fract_y
_atom_site_fract_z
Si Si1 0.663544 0.180123 0.530392
Si Si2 0.306624 0.596969 0.243489
Si Si3 0.922897 0.395100 0.187213
Si Si4 0.484413 0.927395 0.704129
Si Si5 0.738253 0.691300 0.357224
Si Si6 0.085709 0.674475 0.689327
Si Si7 0.220132 0.037789 0.015627
Si Si8 0.693392 0.362708 0.674047
O O1 0.774763 0.390331 0.477141
O O2 0.448174 0.329671 0.443286
O O3 0.503546 0.041559 0.615430
O O4 0.927447 0.977821 0.578231
O O5 0.596170 0.379477 0.309398
O O6 0.269518 0.838948 0.125648
O O7 0.290953 0.700896 0.253486
O O8 0.058614 0.474968 0.285678
O O9 0.676403 0.283627 0.219266
O O10 0.938688 0.425802 0.226365
O O11 0.211119 0.209170 0.232858
O O12 0.873582 0.678744 0.065337
O O13 0.325319 0.155555 0.653983
O O14 0.492226 0.791479 0.290307
O O15 0.008260 0.732794 0.317062
O O16 0.500000 0.000000 0.000000
O O17 0.000000 0.000000 0.000000
#
# Coordination Sequence:
#
# PCOD8018830 Si02
#       8
#     2   2   2   2   2   2   2   2
#     4   9  24  36  60  88 124 153 204 241 289 352
#     4  12  23  40  60  85 120 168 184 245 298 350
#     4  11  22  37  59  96 115 148 191 256 298 354
#     4  11  22  37  65  85 122 150 197 253 304 331
#     4  10  22  41  57  86 117 162 202 246 288 340
#     4  11  22  36  59  85 126 151 197 235 295 351
#     4  12  22  40  64  89 120 152 194 242 302 355
#     4  10  24  38  58  84 120 163 207 232 283 357
#
# _framework density 19.228522999999999
#
# number of rings (size 3 to 8) (size 9 to 14) (size 15 to 20)
#    0.750    0.500    2.500    4.125    5.250    1.500 
#    0.000    0.000    0.000    4.500    0.000    0.000 
#    0.000    0.000    0.000    0.000    0.000    0.000 
#
# Total GULP energy -198392.648212 kJ/mol
# GULP energy per Si atom -12399.540513 kJ/mol
# Density = 1.918476 g / cm^3
# Si number density = 19.228523 Si / 1000 Ang^3
#
#
#
# Elastic Constant Matrix: (Units=GPa)
#
#
# Indices 1 2 3 4 5 6 
#
# 1 110.5844 13.0665 22.0390 2.6910 6.9194 -6.4206
# 2 13.0665 48.5430 26.5699 6.2033 4.6719 -2.7934
# 3 22.0390 26.5699 81.5448 -1.3516 0.1037 -3.2108
# 4 2.6910 6.2033 -1.3516 20.1258 6.8510 0.1484
# 5 6.9194 4.6719 0.1037 6.8510 18.1611 -6.2071
# 6 -6.4206 -2.7934 -3.2108 0.1484 -6.2071 35.9975
#
#
#
# Elastic Compliance Matrix: (Units=1/GPa)
#
#
# Indices 1 2 3 4 5 6 
#
# 1 0.009874 -0.001036 -0.002292 -0.000098 -0.003125 0.000938
# 2 -0.001036 0.026909 -0.008586 -0.007571 -0.003425 0.000578
# 3 -0.002292 -0.008586 0.015759 0.003341 0.001955 0.000654
# 4 -0.000098 -0.007571 0.003341 0.059809 -0.022087 -0.004362
# 5 -0.003125 -0.003425 0.001955 -0.022087 0.069352 0.011401
# 6 0.000938 0.000578 0.000654 -0.004362 0.011401 0.030034
#
#
# Mechanical properties :
#
#
# Convention : Reuss Voigt Hill
#
# Bulk Modulus (GPa) = 34.82620 40.44699 37.63660
# Shear Modulus (GPa) = 20.39675 26.79001 23.59338
#
# Velocity S-wave (km/s) = 3.26046 3.73667 3.50666
# Velocity P-wave (km/s) = 5.68552 6.30059 6.00094
#
# Compressibility (1/GPa) = 0.02871401
#
# Stress axis : x y z
#
# Youngs Moduli (GPa) = 101.27162 37.16207 63.45626
#
# Poissons Ratio (x) = 0.03851 0.14543
# Poissons Ratio (y) = 0.10494 0.54485
# Poissons Ratio (z) = 0.23210 0.31908
#
# Static dielectric constant tensor:
#      x y z
#    x 3.666910 -0.124110 0.205780 
#    y -0.124110 3.181970 0.034870 
#    z 0.205780 0.034870 3.301860 
# 
# 
# High freq. dielectric constant tensor:
#      x y z
#    x 1.768880 -0.002900 0.004850 
#    y -0.002900 1.729940 -0.012230 
#    z 0.004850 -0.012230 1.730150 
# 
# From -- ./inp_files/621822.got.cif
#   From: 2010.06.25/outbox.cif.g09.slc.cpg/sg2_311_cif.got.tgz:621822.got - 2010.06.27 13:26:56.
