data_PCOD8018234
_publ_section_title
;
Structure prediction by ZEFSAII (Michael W. Deem and Ramdas Pophale) SiO2 
 PCOD8018234
Probable space group: P -1
;
_chemical_formula_sum "Si O2"
_cell_formula_units_Z 14
_cell_length_a 16.206396
_cell_length_b 8.634909
_cell_length_c 19.861856
_cell_angle_alpha 49.175915
_cell_angle_beta 160.689451
_cell_angle_gamma 121.977321
_cell_volume 651.756059
_symmetry_space_group_name_H-M "P -1"
_symmetry_group_IT_number 2
_symmetry_cell_setting 'triclinic'
loop_
_space_group_symop_operation_xyz
x,y,z
-x,-y,-z
loop_
_atom_site_type_symbol
_atom_site_label
_atom_site_fract_x
_atom_site_fract_y
_atom_site_fract_z
Si Si1 0.154802 0.125709 0.924351
Si Si2 0.751329 0.590878 0.506770
Si Si3 0.594943 0.224358 0.684739
Si Si4 0.114228 0.464344 0.172552
Si Si5 0.920097 0.092322 0.319424
Si Si6 0.229774 0.777690 0.978475
Si Si7 0.401401 0.757346 0.846054
O O1 0.901151 0.334755 0.684049
O O2 0.078848 0.942367 0.876251
O O3 0.368846 0.172946 0.028518
O O4 0.285826 0.024516 0.126203
O O5 0.589322 0.623250 0.441941
O O6 0.955507 0.719407 0.625674
O O7 0.545454 0.675848 0.262480
O O8 0.397564 0.258682 0.458539
O O9 0.833938 0.315700 0.826872
O O10 0.896054 0.415223 0.065847
O O11 0.000000 0.500000 0.000000
O O12 0.818151 0.094314 0.164901
O O13 0.670138 0.139172 0.163950
O O14 0.137903 0.853156 0.569330
O O15 0.500000 0.500000 0.000000
#
# Coordination Sequence:
#
# PCOD8018234 Si02
#       7
#     2   2   2   2   2   2   2
#     4  11  22  41  62  93 127 160 204 256 302 364
#     4  11  21  41  63  88 125 163 202 246 308 365
#     4  10  22  40  64  89 123 165 201 247 309 366
#     4  11  19  39  69  87 121 165 201 251 308 361
#     4  11  23  42  65  87 125 168 200 254 309 360
#     4  11  23  42  63  93 124 161 204 255 307 361
#     4  11  22  40  66  91 122 165 209 249 304 363
#
# _framework density 21.480428
#
# number of rings (size 3 to 8) (size 9 to 14) (size 15 to 20)
#    0.000    1.143    8.571    0.000    0.000    1.714 
#    2.571    7.143    0.000    0.000    0.000    0.000 
#    0.000    0.000    0.000    0.000    0.000    0.000 
#
# Total GULP energy -173531.784524 kJ/mol
# GULP energy per Si atom -12395.127466 kJ/mol
# Density = 2.143154 g / cm^3
# Si number density = 21.480428 Si / 1000 Ang^3
#
#
#
# Elastic Constant Matrix: (Units=GPa)
#
#
# Indices 1 2 3 4 5 6 
#
# 1 55.6407 10.5048 43.1234 -14.6354 -20.9642 2.9486
# 2 10.5048 73.0116 48.1763 -12.7840 -1.4321 12.4986
# 3 43.1234 48.1763 158.0538 -23.2644 -32.0855 -20.2855
# 4 -14.6354 -12.7840 -23.2644 44.6658 -3.3239 1.2488
# 5 -20.9642 -1.4321 -32.0855 -3.3239 49.6088 -2.6070
# 6 2.9486 12.4986 -20.2855 1.2488 -2.6070 28.7252
#
#
#
# Elastic Compliance Matrix: (Units=1/GPa)
#
#
# Indices 1 2 3 4 5 6 
#
# 1 0.028257 0.004132 -0.007749 0.007203 0.007014 -0.009847
# 2 0.004132 0.025172 -0.012499 0.002144 -0.006565 -0.020892
# 3 -0.007749 -0.012499 0.016746 0.002705 0.008360 0.018701
# 4 0.007203 0.002144 0.002705 0.027277 0.006665 -0.000343
# 5 0.007014 -0.006565 0.008360 0.006665 0.029333 0.010413
# 6 -0.009847 -0.020892 0.018701 -0.000343 0.010413 0.059080
#
#
# Mechanical properties :
#
#
# Convention : Reuss Voigt Hill
#
# Bulk Modulus (GPa) = 26.35449 54.47946 40.41698
# Shear Modulus (GPa) = 21.66891 36.92672 29.29782
#
# Velocity S-wave (km/s) = 3.17957 4.15069 3.69715
# Velocity P-wave (km/s) = 5.07693 6.95617 6.08948
#
# Compressibility (1/GPa) = 0.03794420
#
# Stress axis : x y z
#
# Youngs Moduli (GPa) = 35.38937 39.72608 59.71447
#
# Poissons Ratio (x) = -0.16415 0.46273
# Poissons Ratio (y) = -0.14623 0.74636
# Poissons Ratio (z) = 0.27423 0.49653
#
# Static dielectric constant tensor:
#      x y z
#    x 3.987820 0.207530 -0.200650 
#    y 0.207530 4.398680 -0.044300 
#    z -0.200650 -0.044300 4.181680 
# 
# 
# High freq. dielectric constant tensor:
#      x y z
#    x 1.838570 0.034830 -0.021560 
#    y 0.034830 1.823950 0.000480 
#    z -0.021560 0.000480 1.853820 
# 
# From -- ./inp_files/348021.got.cif
#   From: 2010.06.25/outbox.cif.g09.slc.cpg/sg2_175_cif.got.tgz:348021.got - 2010.06.27 13:26:56.
