data_PCOD8018184
_publ_section_title
;
Structure prediction by ZEFSAII (Michael W. Deem and Ramdas Pophale) SiO2 
 PCOD8018184
Probable space group: P -1
;
_chemical_formula_sum "Si O2"
_cell_formula_units_Z 16
_cell_length_a 15.367668
_cell_length_b 14.029115
_cell_length_c 8.804592
_cell_angle_alpha 66.164361
_cell_angle_beta 78.573533
_cell_angle_gamma 28.890203
_cell_volume 785.076384
_symmetry_space_group_name_H-M "P -1"
_symmetry_group_IT_number 2
_symmetry_cell_setting 'triclinic'
loop_
_space_group_symop_operation_xyz
x,y,z
-x,-y,-z
loop_
_atom_site_type_symbol
_atom_site_label
_atom_site_fract_x
_atom_site_fract_y
_atom_site_fract_z
Si Si1 0.524311 0.774807 0.771631
Si Si2 0.651383 0.202345 0.622659
Si Si3 0.242680 0.103335 0.377121
Si Si4 0.672239 0.166794 0.965487
Si Si5 0.506904 0.001583 0.817632
Si Si6 0.087543 0.694140 0.223627
Si Si7 0.708841 0.330863 0.704433
Si Si8 0.914947 0.494347 0.439894
O O1 0.733290 0.524206 0.802199
O O2 0.383998 0.954263 0.569087
O O3 0.440576 0.763290 0.899202
O O4 0.545342 0.849273 0.829893
O O5 0.756927 0.203414 0.625562
O O6 0.469052 0.409808 0.443710
O O7 0.786651 0.981371 0.628294
O O8 0.587379 0.217600 0.797701
O O9 0.031899 0.364688 0.325431
O O10 0.324840 0.095676 0.227424
O O11 0.896510 0.900079 0.056693
O O12 0.657490 0.309317 0.880340
O O13 0.308583 0.257004 0.666105
O O14 0.500000 0.000000 0.000000
O O15 0.116502 0.775621 0.243885
O O16 0.048695 0.650505 0.393495
O O17 0.000000 0.500000 0.500000
#
# Coordination Sequence:
#
# PCOD8018184 Si02
#       8
#     2   2   2   2   2   2   2   2
#     4  12  23  39  67  95 123 168 209 255 316 376
#     4   9  20  41  64  90 126 170 201 257 319 363
#     4  12  22  42  69  90 127 167 210 252 316 377
#     4  10  22  40  63  92 130 158 214 260 308 359
#     4  12  26  43  65  96 129 161 208 262 312 375
#     4  12  22  39  66  96 125 165 214 256 309 374
#     4   9  20  40  65  88 132 170 199 263 317 362
#     4  12  24  41  67  93 126 167 206 259 316 370
#
# _framework density 20.380182000000001
#
# number of rings (size 3 to 8) (size 9 to 14) (size 15 to 20)
#    0.750    0.250    5.000    2.250    0.000    2.000 
#    0.000    0.625    0.000    0.000    0.000    0.000 
#    0.000    0.000    0.000    0.000    0.000    0.000 
#
# Total GULP energy -198317.317544 kJ/mol
# GULP energy per Si atom -12394.832347 kJ/mol
# Density = 2.033380 g / cm^3
# Si number density = 20.380182 Si / 1000 Ang^3
#
#
#
# Elastic Constant Matrix: (Units=GPa)
#
#
# Indices 1 2 3 4 5 6 
#
# 1 117.7909 34.7033 20.5996 14.6675 -17.9877 20.5706
# 2 34.7033 108.8107 20.3206 13.9600 -8.2005 -3.6560
# 3 20.5996 20.3206 98.7912 5.8753 -17.3343 -6.9272
# 4 14.6675 13.9600 5.8753 28.7825 -0.3619 4.7189
# 5 -17.9877 -8.2005 -17.3343 -0.3619 25.7571 7.6661
# 6 20.5706 -3.6560 -6.9272 4.7189 7.6661 30.8946
#
#
#
# Elastic Compliance Matrix: (Units=1/GPa)
#
#
# Indices 1 2 3 4 5 6 
#
# 1 0.013983 -0.003434 -0.000829 -0.003120 0.011743 -0.012340
# 2 -0.003434 0.011102 -0.001202 -0.004090 -0.000980 0.004199
# 3 -0.000829 -0.001202 0.011902 -0.001623 0.006517 0.001709
# 4 -0.003120 -0.004090 -0.001623 0.039281 -0.002809 -0.004073
# 5 0.011743 -0.000980 0.006517 -0.002809 0.057074 -0.020207
# 6 -0.012340 0.004199 0.001709 -0.004073 -0.020207 0.047101
#
#
# Mechanical properties :
#
#
# Convention : Reuss Voigt Hill
#
# Bulk Modulus (GPa) = 38.37542 52.95995 45.66768
# Shear Modulus (GPa) = 24.99279 33.73813 29.36546
#
# Velocity S-wave (km/s) = 3.50570 4.07312 3.80001
# Velocity P-wave (km/s) = 5.93778 6.93995 6.45833
#
# Compressibility (1/GPa) = 0.02605835
#
# Stress axis : x y z
#
# Youngs Moduli (GPa) = 71.51479 90.07420 84.01801
#
# Poissons Ratio (x) = 0.30933 0.06961
# Poissons Ratio (y) = 0.24560 0.10097
# Poissons Ratio (z) = 0.05925 0.10824
#
# Static dielectric constant tensor:
#      x y z
#    x 3.746620 0.186650 -0.179980 
#    y 0.186650 3.362610 0.192200 
#    z -0.179980 0.192200 3.541060 
# 
# 
# High freq. dielectric constant tensor:
#      x y z
#    x 1.803380 0.013900 -0.007250 
#    y 0.013900 1.781810 -0.006520 
#    z -0.007250 -0.006520 1.803350 
# 
# From -- ./inp_files/314795.got.cif
#   From: 2010.06.25/outbox.cif.g09.slc.cpg/sg2_158_cif.got.tgz:314795.got - 2010.06.27 13:26:56.
