data_PCOD8018973
_publ_section_title
;
Structure prediction by ZEFSAII (Michael W. Deem and Ramdas Pophale) SiO2 
 PCOD8018973
Probable space group: P -1
;
_chemical_formula_sum "Si O2"
_cell_formula_units_Z 10
_cell_length_a 17.747320
_cell_length_b 11.966907
_cell_length_c 15.681229
_cell_angle_alpha 154.960513
_cell_angle_beta 164.042437
_cell_angle_gamma 23.161638
_cell_volume 352.568997
_symmetry_space_group_name_H-M "P -1"
_symmetry_group_IT_number 2
_symmetry_cell_setting 'triclinic'
loop_
_space_group_symop_operation_xyz
x,y,z
-x,-y,-z
loop_
_atom_site_type_symbol
_atom_site_label
_atom_site_fract_x
_atom_site_fract_y
_atom_site_fract_z
Si Si1 0.247316 0.775795 0.508012
Si Si2 0.235996 0.852042 0.873028
Si Si3 0.115762 0.484627 0.708662
Si Si4 0.889377 0.613603 0.130718
Si Si5 0.201408 0.021861 0.145593
O O1 0.172032 0.559824 0.339561
O O2 0.190131 0.081777 0.700241
O O3 0.603313 0.621557 0.768621
O O4 0.021355 0.838347 0.224062
O O5 0.098488 0.617409 0.539174
O O6 0.535991 0.752947 0.073161
O O7 0.301586 0.870310 0.056793
O O8 0.000000 0.500000 0.500000
O O9 0.071219 0.813284 0.912161
O O10 0.962841 0.356457 0.103436
O O11 0.500000 0.000000 0.500000
#
# Coordination Sequence:
#
# PCOD8018973 Si02
#       5
#     2   2   2   2   2
#     4  10  22  43  64  89 126 167 208 255 319 372
#     4  11  23  43  68  92 128 170 208 257 317 378
#     4  10  22  41  63  92 128 167 205 252 318 377
#     4  10  23  40  64  93 124 163 209 262 310 369
#     4  11  24  41  65  98 130 164 213 263 310 373
#
# _framework density 28.363242
#
# number of rings (size 3 to 8) (size 9 to 14) (size 15 to 20)
#    0.000    1.600    0.000    4.800    0.000    9.600 
#    0.000   13.000    0.000    0.000    0.000    0.000 
#    0.000    0.000    0.000    0.000    0.000    0.000 
#
# Total GULP energy -123971.099482 kJ/mol
# GULP energy per Si atom -12397.109948 kJ/mol
# Density = 2.829869 g / cm^3
# Si number density = 28.363242 Si / 1000 Ang^3
#
#
#
# Elastic Constant Matrix: (Units=GPa)
#
#
# Indices 1 2 3 4 5 6 
#
# 1 50.7029 23.4790 38.6106 3.4785 1.0363 20.1802
# 2 23.4790 137.7709 59.2601 -7.5914 -2.3703 16.8806
# 3 38.6106 59.2601 183.4642 -21.0439 -3.3072 11.4965
# 4 3.4785 -7.5914 -21.0439 53.2600 4.2897 -1.0382
# 5 1.0363 -2.3703 -3.3072 4.2897 42.3911 -3.1190
# 6 20.1802 16.8806 11.4965 -1.0382 -3.1190 62.1964
#
#
#
# Elastic Compliance Matrix: (Units=1/GPa)
#
#
# Indices 1 2 3 4 5 6 
#
# 1 0.028027 -0.001782 -0.005347 -0.004240 -0.001344 -0.007760
# 2 -0.001782 0.008750 -0.002316 0.000405 0.000212 -0.001351
# 3 -0.005347 -0.002316 0.007613 0.003017 0.000365 0.001025
# 4 -0.004240 0.000405 0.003017 0.020453 -0.001637 0.000967
# 5 -0.001344 0.000212 0.000365 -0.001637 0.023938 0.001484
# 6 -0.007760 -0.001351 0.001025 0.000967 0.001484 0.018864
#
#
# Mechanical properties :
#
#
# Convention : Reuss Voigt Hill
#
# Bulk Modulus (GPa) = 39.21885 68.29305 53.75595
# Shear Modulus (GPa) = 37.02761 48.27537 42.65149
#
# Velocity S-wave (km/s) = 3.61706 4.13005 3.88204
# Velocity P-wave (km/s) = 5.59478 6.84642 6.25200
#
# Compressibility (1/GPa) = 0.02549794
#
# Stress axis : x y z
#
# Youngs Moduli (GPa) = 35.68046 114.28593 131.36212
#
# Poissons Ratio (x) = 0.20371 0.70238
# Poissons Ratio (y) = 0.06360 0.30427
# Poissons Ratio (z) = 0.19078 0.26472
#
# Static dielectric constant tensor:
#      x y z
#    x 5.862110 0.925010 0.552320 
#    y 0.925010 6.917440 0.848960 
#    z 0.552320 0.848960 6.377550 
# 
# 
# High freq. dielectric constant tensor:
#      x y z
#    x 2.160370 0.004070 -0.014100 
#    y 0.004070 2.157220 0.013580 
#    z -0.014100 0.013580 2.170910 
# 
# From -- ./inp_files/15482.got.cif
#   From: 2010.06.25/outbox.cif.g09.slc.cpg/sg2_8_cif.got.tgz:15482.got - 2010.06.27 13:26:56.
