data_PCOD8018039
_publ_section_title
;
Structure prediction by ZEFSAII (Michael W. Deem and Ramdas Pophale) SiO2 
 PCOD8018039
Probable space group: P -1
;
_chemical_formula_sum "Si O2"
_cell_formula_units_Z 14
_cell_length_a 11.379276
_cell_length_b 8.756994
_cell_length_c 6.341158
_cell_angle_alpha 83.904996
_cell_angle_beta 88.214660
_cell_angle_gamma 96.256419
_cell_volume 623.987456
_symmetry_space_group_name_H-M "P -1"
_symmetry_group_IT_number 2
_symmetry_cell_setting 'triclinic'
loop_
_space_group_symop_operation_xyz
x,y,z
-x,-y,-z
loop_
_atom_site_type_symbol
_atom_site_label
_atom_site_fract_x
_atom_site_fract_y
_atom_site_fract_z
Si Si1 0.439670 0.404185 0.709255
Si Si2 0.543962 0.299537 0.110935
Si Si3 0.128039 0.679329 0.358455
Si Si4 0.913085 0.666146 0.677530
Si Si5 0.723845 0.126727 0.361689
Si Si6 0.319484 0.198578 0.419651
Si Si7 0.068852 0.860108 0.949726
O O1 0.500000 0.500000 0.500000
O O2 0.392540 0.530232 0.850104
O O3 0.337777 0.283211 0.633956
O O4 0.526486 0.304986 0.857061
O O5 0.627353 0.172324 0.193180
O O6 0.415800 0.264661 0.233149
O O7 0.144206 0.511521 0.286967
O O8 0.234515 0.728176 0.509061
O O9 0.999840 0.686110 0.469228
O O10 0.139176 0.800731 0.150597
O O11 0.811242 0.778401 0.652318
O O12 0.982692 0.715632 0.881464
O O13 0.836199 0.075032 0.239794
O O14 0.668835 0.982441 0.524816
O O15 0.000000 0.000000 0.000000
#
# Coordination Sequence:
#
# PCOD8018039 Si02
#       7
#     2   2   2   2   2   2   2
#     4   9  21  40  60  85 118 157 200 245 292 353
#     4  10  22  40  61  87 119 158 201 243 297 358
#     4  10  22  41  63  87 120 158 204 255 298 352
#     4  10  22  40  62  89 117 157 205 250 300 355
#     4  11  24  39  60  91 123 159 201 247 300 359
#     4  11  22  37  60  89 124 158 195 246 301 358
#     4  11  23  39  61  88 121 160 202 250 304 355
#
# _framework density 22.436349
#
# number of rings (size 3 to 8) (size 9 to 14) (size 15 to 20)
#    0.000    1.714    0.000    3.429    0.000   12.000 
#    0.000    0.000    0.000    0.000    0.000    0.000 
#    0.000    0.000    0.000    0.000    0.000    0.000 
#
# Total GULP energy -173603.558257 kJ/mol
# GULP energy per Si atom -12400.254161 kJ/mol
# Density = 2.238528 g / cm^3
# Si number density = 22.436349 Si / 1000 Ang^3
#
#
#
# Elastic Constant Matrix: (Units=GPa)
#
#
# Indices 1 2 3 4 5 6 
#
# 1 85.9721 19.8157 31.1133 -4.3644 16.6106 -7.3902
# 2 19.8157 91.7828 26.7469 -13.3249 -4.7687 -2.4687
# 3 31.1133 26.7469 115.5036 -10.1104 19.7063 -0.7259
# 4 -4.3644 -13.3249 -10.1104 35.7919 -9.7683 6.3569
# 5 16.6106 -4.7687 19.7063 -9.7683 29.8853 -4.7428
# 6 -7.3902 -2.4687 -0.7259 6.3569 -4.7428 32.5275
#
#
#
# Elastic Compliance Matrix: (Units=1/GPa)
#
#
# Indices 1 2 3 4 5 6 
#
# 1 0.014726 -0.003284 -0.002087 -0.002572 -0.007790 0.002417
# 2 -0.003284 0.013835 -0.003178 0.006031 0.008138 0.000241
# 3 -0.002087 -0.003178 0.011131 0.000090 -0.006894 -0.001490
# 4 -0.002572 0.006031 0.000090 0.034255 0.012742 -0.004961
# 5 -0.007790 0.008138 -0.006894 0.012742 0.048316 0.003249
# 6 0.002417 0.000241 -0.001490 -0.004961 0.003249 0.032721
#
#
# Mechanical properties :
#
#
# Convention : Reuss Voigt Hill
#
# Bulk Modulus (GPa) = 44.26163 49.84558 47.05361
# Shear Modulus (GPa) = 27.83755 34.01311 30.92533
#
# Velocity S-wave (km/s) = 3.52623 3.89779 3.71665
# Velocity P-wave (km/s) = 6.02906 6.52086 6.27978
#
# Compressibility (1/GPa) = 0.02259293
#
# Stress axis : x y z
#
# Youngs Moduli (GPa) = 67.90581 72.27847 89.84269
#
# Poissons Ratio (x) = 0.23738 0.18752
# Poissons Ratio (y) = 0.22302 0.28554
# Poissons Ratio (z) = 0.14173 0.22972
#
# Static dielectric constant tensor:
#      x y z
#    x 3.814270 0.167410 0.216030 
#    y 0.167410 4.223560 0.162730 
#    z 0.216030 0.162730 4.218030 
# 
# 
# High freq. dielectric constant tensor:
#      x y z
#    x 1.870390 0.004100 0.013750 
#    y 0.004100 1.888130 0.000400 
#    z 0.013750 0.000400 1.889010 
# 
# From -- ./inp_files/27612.got.cif
#   From: 2010.06.25/outbox.cif.g09.slc.cpg/sg2_14_cif.got.tgz:27612.got - 2010.06.27 13:26:56.
