data_PCOD8018499
_publ_section_title
;
Structure prediction by ZEFSAII (Michael W. Deem and Ramdas Pophale) SiO2 
 PCOD8018499
Probable space group: P -1
;
_chemical_formula_sum "Si O2"
_cell_formula_units_Z 12
_cell_length_a 7.442918
_cell_length_b 5.360116
_cell_length_c 13.855363
_cell_angle_alpha 93.027449
_cell_angle_beta 70.115146
_cell_angle_gamma 119.933962
_cell_volume 445.801254
_symmetry_space_group_name_H-M "P -1"
_symmetry_group_IT_number 2
_symmetry_cell_setting 'triclinic'
loop_
_space_group_symop_operation_xyz
x,y,z
-x,-y,-z
loop_
_atom_site_type_symbol
_atom_site_label
_atom_site_fract_x
_atom_site_fract_y
_atom_site_fract_z
Si Si1 0.136729 0.201594 0.611741
Si Si2 0.288825 0.292830 0.972876
Si Si3 0.689600 0.150217 0.745470
Si Si4 0.123798 0.682017 0.086090
Si Si5 0.340674 0.483384 0.766247
Si Si6 0.147579 0.402139 0.416791
O O1 0.327534 0.339928 0.661606
O O2 0.244657 0.301382 0.486314
O O3 0.945812 0.276296 0.671543
O O4 0.014728 0.853780 0.631473
O O5 0.358049 0.293821 0.848199
O O6 0.500000 0.500000 0.000000
O O7 0.142430 0.453904 0.007213
O O8 0.153063 0.966981 0.031189
O O9 0.681488 0.203811 0.863337
O O10 0.645334 0.357781 0.684192
O O11 0.543950 0.813421 0.737992
O O12 0.886641 0.513925 0.177321
O O13 0.000000 0.500000 0.500000
#
# Coordination Sequence:
#
# PCOD8018499 Si02
#       6
#     2   2   2   2   2   2
#     4   9  21  43  65  98 132 177 223 286 346 411
#     4  12  25  48  70 100 142 191 230 287 344 409
#     4  10  22  40  67 100 132 181 228 281 343 410
#     4  11  26  47  69 101 144 186 233 284 346 408
#     4  11  24  43  69 102 136 181 234 284 342 412
#     4   9  19  42  68  90 136 175 219 283 351 410
#
# _framework density 26.917826999999999
#
# number of rings (size 3 to 8) (size 9 to 14) (size 15 to 20)
#    0.000    1.667    1.667    1.500    4.667    0.667 
#    9.000    7.500    0.000    0.000    0.000    0.000 
#    0.000    0.000    0.000    0.000    0.000    0.000 
#
# Total GULP energy -148747.847280 kJ/mol
# GULP energy per Si atom -12395.653940 kJ/mol
# Density = 2.685656 g / cm^3
# Si number density = 26.917827 Si / 1000 Ang^3
#
#
#
# Elastic Constant Matrix: (Units=GPa)
#
#
# Indices 1 2 3 4 5 6 
#
# 1 54.7512 32.3902 31.0375 -13.3778 32.8587 8.8207
# 2 32.3902 179.7451 99.3226 -7.9126 43.3088 -3.4810
# 3 31.0375 99.3226 181.7373 -4.5505 45.4317 8.1474
# 4 -13.3778 -7.9126 -4.5505 56.1785 4.6773 13.9079
# 5 32.8587 43.3088 45.4317 4.6773 51.7429 0.2702
# 6 8.8207 -3.4810 8.1474 13.9079 0.2702 40.9887
#
#
#
# Elastic Compliance Matrix: (Units=1/GPa)
#
#
# Indices 1 2 3 4 5 6 
#
# 1 0.040679 -0.001168 0.001617 0.015478 -0.027599 -0.014245
# 2 -0.001168 0.008719 -0.003807 0.000519 -0.003268 0.001594
# 3 0.001617 -0.003807 0.008949 0.001809 -0.005846 -0.003026
# 4 0.015478 0.000519 0.001809 0.025941 -0.014132 -0.012355
# 5 -0.027599 -0.003268 -0.005846 -0.014132 0.045940 0.011316
# 6 -0.014245 0.001594 -0.003026 -0.012355 0.011316 0.032317
#
#
# Mechanical properties :
#
#
# Convention : Reuss Voigt Hill
#
# Bulk Modulus (GPa) = 19.36845 82.41490 50.89167
# Shear Modulus (GPa) = 26.81367 46.68091 36.74729
#
# Velocity S-wave (km/s) = 3.15958 4.16889 3.69882
# Velocity P-wave (km/s) = 4.53008 7.33870 6.09828
#
# Compressibility (1/GPa) = 0.05163037
#
# Stress axis : x y z
#
# Youngs Moduli (GPa) = 24.58244 114.69531 111.74281
#
# Poissons Ratio (x) = 0.13402 -0.18067
# Poissons Ratio (y) = 0.02872 0.42539
# Poissons Ratio (z) = -0.03975 0.43663
#
# Static dielectric constant tensor:
#      x y z
#    x 5.585750 -0.160240 0.522720 
#    y -0.160240 4.834100 0.058290 
#    z 0.522720 0.058290 5.936950 
# 
# 
# High freq. dielectric constant tensor:
#      x y z
#    x 2.095330 0.006550 0.011470 
#    y 0.006550 2.080210 0.005040 
#    z 0.011470 0.005040 2.108390 
# 
# From -- ./inp_files/34895.got.cif
#   From: 2010.06.25/outbox.cif.g09.slc.cpg/sg2_18_cif.got.tgz:34895.got - 2010.06.27 13:26:56.
