data_PCOD8018532
_publ_section_title
;
Structure prediction by ZEFSAII (Michael W. Deem and Ramdas Pophale) SiO2 
 PCOD8018532
Probable space group: P -1
;
_chemical_formula_sum "Si O2"
_cell_formula_units_Z 12
_cell_length_a 18.428963
_cell_length_b 15.366458
_cell_length_c 8.959081
_cell_angle_alpha 139.449006
_cell_angle_beta 53.250592
_cell_angle_gamma 157.877758
_cell_volume 560.429779
_symmetry_space_group_name_H-M "P -1"
_symmetry_group_IT_number 2
_symmetry_cell_setting 'triclinic'
loop_
_space_group_symop_operation_xyz
x,y,z
-x,-y,-z
loop_
_atom_site_type_symbol
_atom_site_label
_atom_site_fract_x
_atom_site_fract_y
_atom_site_fract_z
Si Si1 0.447552 0.561901 0.058848
Si Si2 0.923959 0.763322 0.364149
Si Si3 0.433772 0.884357 0.195210
Si Si4 0.369194 0.285643 0.527799
Si Si5 0.752669 0.191518 0.420721
Si Si6 0.362649 0.585152 0.475957
O O1 0.304125 0.462790 0.217389
O O2 0.665577 0.932961 0.245968
O O3 0.500000 0.500000 0.000000
O O4 0.346286 0.386258 0.795497
O O5 0.859519 0.707076 0.542106
O O6 0.711533 0.417507 0.103493
O O7 0.000000 0.000000 0.500000
O O8 0.121522 0.922611 0.319475
O O9 0.290410 0.750061 0.330342
O O10 0.640833 0.083618 0.262623
O O11 0.516543 0.110517 0.276695
O O12 0.500000 0.500000 0.500000
O O13 0.475143 0.302455 0.500669
O O14 0.000000 0.500000 0.500000
#
# Coordination Sequence:
#
# PCOD8018532 Si02
#       6
#     2   2   2   2   2   2
#     4   9  21  41  63  92 128 162 216 263 308 383
#     4  12  24  39  66  93 127 174 210 266 326 370
#     4  10  24  41  59  99 129 160 221 261 314 391
#     4  11  23  40  65  96 129 168 217 261 317 380
#     4  10  22  40  67  90 128 171 205 264 325 374
#     4  10  23  43  62  92 133 168 214 269 316 377
#
# _framework density 21.412137999999999
#
# number of rings (size 3 to 8) (size 9 to 14) (size 15 to 20)
#    0.000    1.667    1.667    1.500    2.333    5.333 
#    0.000    0.000    0.000    0.000    0.000    0.000 
#    0.000    0.000    0.000    0.000    0.000    0.000 
#
# Total GULP energy -148751.568502 kJ/mol
# GULP energy per Si atom -12395.964042 kJ/mol
# Density = 2.136340 g / cm^3
# Si number density = 21.412138 Si / 1000 Ang^3
#
#
#
# Elastic Constant Matrix: (Units=GPa)
#
#
# Indices 1 2 3 4 5 6 
#
# 1 117.4848 68.9278 39.1895 7.8747 -6.6635 -6.5561
# 2 68.9278 174.1091 48.8019 5.1483 8.2498 -3.2540
# 3 39.1895 48.8019 105.3183 1.5917 -2.2200 -17.9551
# 4 7.8747 5.1483 1.5917 24.7577 -5.7603 2.8946
# 5 -6.6635 8.2498 -2.2200 -5.7603 33.2725 7.5755
# 6 -6.5561 -3.2540 -17.9551 2.8946 7.5755 46.0433
#
#
#
# Elastic Compliance Matrix: (Units=1/GPa)
#
#
# Indices 1 2 3 4 5 6 
#
# 1 0.012092 -0.004171 -0.002451 -0.002165 0.002887 0.000132
# 2 -0.004171 0.008228 -0.002375 -0.000911 -0.003107 -0.000370
# 3 -0.002451 -0.002375 0.012234 -0.000026 -0.000061 0.004266
# 4 -0.002165 -0.000911 -0.000026 0.043752 0.008393 -0.004514
# 5 0.002887 -0.003107 -0.000061 0.008393 0.034216 -0.005990
# 6 0.000132 -0.000370 0.004266 -0.004514 -0.005990 0.024644
#
#
# Mechanical properties :
#
#
# Convention : Reuss Voigt Hill
#
# Bulk Modulus (GPa) = 68.68020 78.97229 73.82624
# Shear Modulus (GPa) = 31.64281 36.81424 34.22853
#
# Velocity S-wave (km/s) = 3.84838 4.15096 4.00253
# Velocity P-wave (km/s) = 7.20359 7.74184 7.47756
#
# Compressibility (1/GPa) = 0.01456024
#
# Stress axis : x y z
#
# Youngs Moduli (GPa) = 82.69630 121.54071 81.73878
#
# Poissons Ratio (x) = 0.50690 0.20034
# Poissons Ratio (y) = 0.34489 0.19417
# Poissons Ratio (z) = 0.20269 0.28871
#
# Static dielectric constant tensor:
#      x y z
#    x 4.014850 -0.222810 0.044330 
#    y -0.222810 4.067990 -0.277190 
#    z 0.044330 -0.277190 4.358500 
# 
# 
# High freq. dielectric constant tensor:
#      x y z
#    x 1.844430 -0.016470 -0.004670 
#    y -0.016470 1.843470 -0.010300 
#    z -0.004670 -0.010300 1.840960 
# 
# From -- ./inp_files/60845.got.cif
#   From: 2010.06.25/outbox.cif.g09.slc.cpg/sg2_31_cif.got.tgz:60845.got - 2010.06.27 13:26:56.
