data_PCOD8018789
_publ_section_title
;
Structure prediction by ZEFSAII (Michael W. Deem and Ramdas Pophale) SiO2 
 PCOD8018789
Probable space group: P -1
;
_chemical_formula_sum "Si O2"
_cell_formula_units_Z 16
_cell_length_a 14.917948
_cell_length_b 11.704443
_cell_length_c 11.516065
_cell_angle_alpha 142.142720
_cell_angle_beta 54.737955
_cell_angle_gamma 143.012559
_cell_volume 734.638933
_symmetry_space_group_name_H-M "P -1"
_symmetry_group_IT_number 2
_symmetry_cell_setting 'triclinic'
loop_
_space_group_symop_operation_xyz
x,y,z
-x,-y,-z
loop_
_atom_site_type_symbol
_atom_site_label
_atom_site_fract_x
_atom_site_fract_y
_atom_site_fract_z
Si Si1 0.178535 0.485860 0.627402
Si Si2 0.901533 0.201176 0.770783
Si Si3 0.435524 0.989592 0.722464
Si Si4 0.040803 0.604903 0.426770
Si Si5 0.940403 0.619051 0.980227
Si Si6 0.626993 0.905498 0.389054
Si Si7 0.664059 0.627626 0.448807
Si Si8 0.659749 0.518460 0.110351
O O1 0.298307 0.789061 0.752166
O O2 0.273356 0.410986 0.518307
O O3 0.070908 0.389174 0.741653
O O4 0.064962 0.340966 0.485031
O O5 0.847597 0.349753 0.904616
O O6 0.779760 0.930141 0.581279
O O7 0.919502 0.166550 0.866180
O O8 0.500213 0.869171 0.527125
O O9 0.378416 0.049040 0.705886
O O10 0.559302 0.246241 0.906422
O O11 0.998145 0.390430 0.195568
O O12 0.000000 0.500000 0.500000
O O13 0.213935 0.853974 0.482369
O O14 0.833992 0.671956 0.073704
O O15 0.608220 0.661627 0.219631
O O16 0.500000 0.500000 0.500000
O O17 0.647216 0.485523 0.232012
#
# Coordination Sequence:
#
# PCOD8018789 Si02
#       8
#     2   2   2   2   2   2   2   2
#     4  11  23  40  71 100 135 188 229 286 352 411
#     4  10  23  45  66  97 145 182 229 285 349 421
#     4  11  25  45  70 101 142 188 235 291 351 420
#     4  11  22  44  70  99 136 186 237 290 351 412
#     4  10  22  40  71  97 133 188 230 282 351 410
#     4  11  24  46  71  98 145 186 237 292 352 413
#     4  12  27  43  68 106 143 182 232 292 355 424
#     4  12  24  42  73 102 134 190 234 289 352 418
#
# _framework density 21.779406000000002
#
# number of rings (size 3 to 8) (size 9 to 14) (size 15 to 20)
#    0.000    1.000    3.750    3.000    3.500    3.500 
#    0.000    0.625    0.000    0.000    0.000    0.000 
#    0.000    0.000    0.000    0.000    0.000    0.000 
#
# Total GULP energy -198259.356238 kJ/mol
# GULP energy per Si atom -12391.209765 kJ/mol
# Density = 2.172983 g / cm^3
# Si number density = 21.779406 Si / 1000 Ang^3
#
#
#
# Elastic Constant Matrix: (Units=GPa)
#
#
# Indices 1 2 3 4 5 6 
#
# 1 163.4266 37.4708 40.8030 -8.6435 -3.3005 1.0470
# 2 37.4708 101.1001 35.6557 -9.0367 3.3436 2.7858
# 3 40.8030 35.6557 99.8115 -7.8219 10.2099 -3.0678
# 4 -8.6435 -9.0367 -7.8219 27.2874 -3.9008 3.5326
# 5 -3.3005 3.3436 10.2099 -3.9008 36.5693 -5.6569
# 6 1.0470 2.7858 -3.0678 3.5326 -5.6569 31.6502
#
#
#
# Elastic Compliance Matrix: (Units=1/GPa)
#
#
# Indices 1 2 3 4 5 6 
#
# 1 0.007221 -0.001768 -0.002389 0.001266 0.001589 -0.000172
# 2 -0.001768 0.012033 -0.003391 0.002628 -0.000292 -0.001675
# 3 -0.002389 -0.003391 0.012651 0.001176 -0.003172 0.000906
# 4 0.001266 0.002628 0.001176 0.039216 0.003113 -0.003980
# 5 0.001589 -0.000292 -0.003172 0.003113 0.029442 0.004580
# 6 -0.000172 -0.001675 0.000906 -0.003980 0.004580 0.033099
#
#
# Mechanical properties :
#
#
# Convention : Reuss Voigt Hill
#
# Bulk Modulus (GPa) = 59.49383 65.79968 62.64675
# Shear Modulus (GPa) = 32.39127 35.79529 34.09328
#
# Velocity S-wave (km/s) = 3.86066 4.05846 3.96079
# Velocity P-wave (km/s) = 6.87378 7.22765 7.05293
#
# Compressibility (1/GPa) = 0.01680847
#
# Stress axis : x y z
#
# Youngs Moduli (GPa) = 138.48474 83.10199 79.04250
#
# Poissons Ratio (x) = 0.14696 0.18882
# Poissons Ratio (y) = 0.24491 0.26807
# Poissons Ratio (z) = 0.33081 0.28183
#
# Static dielectric constant tensor:
#      x y z
#    x 4.553230 0.114410 -0.086340 
#    y 0.114410 3.758870 -0.086840 
#    z -0.086340 -0.086840 4.240210 
# 
# 
# High freq. dielectric constant tensor:
#      x y z
#    x 1.885100 0.004330 0.012540 
#    y 0.004330 1.836270 -0.007260 
#    z 0.012540 -0.007260 1.844630 
# 
# From -- ./inp_files/452631.got.cif
#   From: 2010.06.25/outbox.cif.g09.slc.cpg/sg2_227_cif.got.tgz:452631.got - 2010.06.27 13:26:56.
