data_PCOD8018678
_publ_section_title
;
Structure prediction by ZEFSAII (Michael W. Deem and Ramdas Pophale) SiO2 
 PCOD8018678
Probable space group: P -1
;
_chemical_formula_sum "Si O2"
_cell_formula_units_Z 14
_cell_length_a 11.209503
_cell_length_b 5.373781
_cell_length_c 17.453062
_cell_angle_alpha 109.785058
_cell_angle_beta 141.538960
_cell_angle_gamma 61.704876
_cell_volume 574.751051
_symmetry_space_group_name_H-M "P -1"
_symmetry_group_IT_number 2
_symmetry_cell_setting 'triclinic'
loop_
_space_group_symop_operation_xyz
x,y,z
-x,-y,-z
loop_
_atom_site_type_symbol
_atom_site_label
_atom_site_fract_x
_atom_site_fract_y
_atom_site_fract_z
Si Si1 0.358520 0.011806 0.227282
Si Si2 0.977613 0.317374 0.543364
Si Si3 0.852557 0.761532 0.998242
Si Si4 0.811257 0.444024 0.211754
Si Si5 0.571786 0.693305 0.969369
Si Si6 0.523612 0.511474 0.360327
Si Si7 0.143079 0.978763 0.256989
O O1 0.249661 0.992287 0.090070
O O2 0.492048 0.212579 0.305570
O O3 0.190851 0.144486 0.224929
O O4 0.487353 0.685824 0.279626
O O5 0.759555 0.454584 0.492273
O O6 0.000000 0.500000 0.500000
O O7 0.148410 0.310490 0.692757
O O8 0.000000 0.000000 0.500000
O O9 0.673010 0.678362 0.936523
O O10 0.000000 0.500000 0.000000
O O11 0.974236 0.847953 0.134378
O O12 0.739025 0.499335 0.093192
O O13 0.034944 0.184591 0.294671
O O14 0.627770 0.385254 0.156133
O O15 0.500000 0.000000 0.000000
O O16 0.359653 0.721994 0.361462
#
# Coordination Sequence:
#
# PCOD8018678 Si02
#       7
#     2   2   2   2   2   2   2
#     4  10  22  40  69 110 153 188 246 308 367 447
#     4  12  30  53  78 108 148 204 261 314 384 454
#     4  12  21  40  72 110 155 202 248 312 377 449
#     4  11  27  49  74 107 151 205 253 320 381 467
#     4  11  26  46  73 110 153 203 251 309 390 454
#     4  10  24  45  70 108 142 191 253 305 370 440
#     4  10  23  42  71 109 152 190 258 299 395 440
#
# _framework density 24.358371999999999
#
# number of rings (size 3 to 8) (size 9 to 14) (size 15 to 20)
#    0.857    0.286    2.857    2.143    4.000    2.857 
#    0.000    0.714    0.000    0.000    0.000    0.000 
#    0.000    0.000    0.000    0.000    0.000    0.000 
#
# Total GULP energy -173434.870084 kJ/mol
# GULP energy per Si atom -12388.205006 kJ/mol
# Density = 2.430293 g / cm^3
# Si number density = 24.358372 Si / 1000 Ang^3
#
#
#
# Elastic Constant Matrix: (Units=GPa)
#
#
# Indices 1 2 3 4 5 6 
#
# 1 142.1928 40.1679 45.6160 3.0716 26.1931 4.2475
# 2 40.1679 105.5486 33.0141 13.4751 17.2287 10.9711
# 3 45.6160 33.0141 103.2347 18.1940 31.7278 -3.8874
# 4 3.0716 13.4751 18.1940 37.9128 -0.1055 2.6960
# 5 26.1931 17.2287 31.7278 -0.1055 36.2287 -2.1802
# 6 4.2475 10.9711 -3.8874 2.6960 -2.1802 44.6782
#
#
#
# Elastic Compliance Matrix: (Units=1/GPa)
#
#
# Indices 1 2 3 4 5 6 
#
# 1 0.009080 -0.002202 -0.002545 0.001315 -0.003332 -0.000786
# 2 -0.002202 0.011959 -0.001485 -0.003168 -0.002973 -0.002810
# 3 -0.002545 -0.001485 0.016164 -0.007189 -0.011516 0.001885
# 4 0.001315 -0.003168 -0.007189 0.030972 0.006851 -0.001507
# 5 -0.003332 -0.002973 -0.011516 0.006851 0.041631 0.001663
# 6 -0.000786 -0.002810 0.001885 -0.001507 0.001663 0.023483
#
#
# Mechanical properties :
#
#
# Convention : Reuss Voigt Hill
#
# Bulk Modulus (GPa) = 40.42454 65.39687 52.91071
# Shear Modulus (GPa) = 32.46774 39.24247 35.85511
#
# Velocity S-wave (km/s) = 3.65488 4.01814 3.84081
# Velocity P-wave (km/s) = 5.86878 6.95941 6.43723
#
# Compressibility (1/GPa) = 0.02473745
#
# Stress axis : x y z
#
# Youngs Moduli (GPa) = 110.13089 83.62226 61.86675
#
# Poissons Ratio (x) = 0.18411 0.15747
# Poissons Ratio (y) = 0.24247 0.09190
# Poissons Ratio (z) = 0.28032 0.12422
#
# Static dielectric constant tensor:
#      x y z
#    x 4.780690 -0.126750 -0.060670 
#    y -0.126750 4.334120 -0.023400 
#    z -0.060670 -0.023400 5.077520 
# 
# 
# High freq. dielectric constant tensor:
#      x y z
#    x 1.978970 0.000220 0.027110 
#    y 0.000220 1.965720 -0.000250 
#    z 0.027110 -0.000250 1.948000 
# 
# From -- ./inp_files/564254.got.cif
#   From: 2010.06.25/outbox.cif.g09.slc.cpg/sg2_283_cif.got.tgz:564254.got - 2010.06.27 13:26:56.
