data_PCOD8018203
_publ_section_title
;
Structure prediction by ZEFSAII (Michael W. Deem and Ramdas Pophale) SiO2 
 PCOD8018203
Probable space group: P -1
;
_chemical_formula_sum "Si O2"
_cell_formula_units_Z 16
_cell_length_a 9.430104
_cell_length_b 8.936246
_cell_length_c 10.699400
_cell_angle_alpha 126.742756
_cell_angle_beta 87.168401
_cell_angle_gamma 90.213610
_cell_volume 721.249220
_symmetry_space_group_name_H-M "P -1"
_symmetry_group_IT_number 2
_symmetry_cell_setting 'triclinic'
loop_
_space_group_symop_operation_xyz
x,y,z
-x,-y,-z
loop_
_atom_site_type_symbol
_atom_site_label
_atom_site_fract_x
_atom_site_fract_y
_atom_site_fract_z
Si Si1 0.002463 0.252541 0.692470
Si Si2 0.554576 0.469533 0.724387
Si Si3 0.393739 0.902773 0.619495
Si Si4 0.582953 0.881506 0.834542
Si Si5 0.697509 0.708747 0.250371
Si Si6 0.075328 0.869919 0.622539
Si Si7 0.808706 0.564792 0.916809
Si Si8 0.098337 0.142401 0.139616
O O1 0.928272 0.405781 0.863979
O O2 0.164514 0.296892 0.669814
O O3 0.917928 0.256961 0.566309
O O4 0.998792 0.062806 0.677012
O O5 0.568237 0.288459 0.547035
O O6 0.564118 0.659695 0.741128
O O7 0.400806 0.461565 0.794209
O O8 0.670682 0.460863 0.823167
O O9 0.514426 0.937422 0.733597
O O10 0.234970 0.890294 0.677808
O O11 0.388827 0.091771 0.629463
O O12 0.747152 0.939988 0.864370
O O13 0.500000 0.000000 0.000000
O O14 0.762115 0.690338 0.098729
O O15 0.983581 0.785196 0.696040
O O16 0.876756 0.687234 0.867458
O O17 0.000000 0.000000 0.000000
#
# Coordination Sequence:
#
# PCOD8018203 Si02
#       8
#     2   2   2   2   2   2   2   2
#     4  10  22  40  63  95 128 166 215 263 319 377
#     4  11  24  42  64  96 130 172 215 265 324 383
#     4  11  22  44  65  95 134 170 213 269 317 387
#     4  11  25  43  65  95 133 171 217 265 321 386
#     4  11  24  40  68  94 133 169 219 265 322 380
#     4  10  22  41  65  92 132 167 211 266 318 377
#     4  11  23  44  63  97 129 167 216 269 318 385
#     4  11  24  42  67  95 127 171 215 260 327 381
#
# _framework density 22.183734000000001
#
# number of rings (size 3 to 8) (size 9 to 14) (size 15 to 20)
#    0.000    1.250    1.250    5.250    1.750    4.500 
#    0.000    0.000    0.000    0.000    0.000    0.000 
#    0.000    0.000    0.000    0.000    0.000    0.000 
#
# Total GULP energy -198358.552507 kJ/mol
# GULP energy per Si atom -12397.409532 kJ/mol
# Density = 2.213324 g / cm^3
# Si number density = 22.183734 Si / 1000 Ang^3
#
#
#
# Elastic Constant Matrix: (Units=GPa)
#
#
# Indices 1 2 3 4 5 6 
#
# 1 123.6354 28.4117 14.5789 6.4115 20.5530 3.1750
# 2 28.4117 43.2773 7.0810 1.5173 1.5052 7.1166
# 3 14.5789 7.0810 96.9906 8.9527 5.0202 -5.4981
# 4 6.4115 1.5173 8.9527 30.3236 -1.3095 -4.1415
# 5 20.5530 1.5052 5.0202 -1.3095 40.9220 -1.6800
# 6 3.1750 7.1166 -5.4981 -4.1415 -1.6800 44.1481
#
#
#
# Elastic Compliance Matrix: (Units=1/GPa)
#
#
# Indices 1 2 3 4 5 6 
#
# 1 0.010636 -0.006599 -0.000682 -0.001959 -0.005085 -0.000163
# 2 -0.006599 0.028283 -0.001421 -0.000073 0.002274 -0.004182
# 3 -0.000682 -0.001421 0.010907 -0.002866 -0.000980 0.001330
# 4 -0.001959 -0.000073 -0.002866 0.034784 0.002581 0.003157
# 5 -0.005085 0.002274 -0.000980 0.002581 0.027157 0.001153
# 6 -0.000163 -0.004182 0.001330 0.003157 0.001153 0.023843
#
#
# Mechanical properties :
#
#
# Convention : Reuss Voigt Hill
#
# Bulk Modulus (GPa) = 30.84300 40.44961 35.64630
# Shear Modulus (GPa) = 30.52108 37.33418 33.92763
#
# Velocity S-wave (km/s) = 3.71324 4.10683 3.91499
# Velocity P-wave (km/s) = 5.68488 6.38448 6.04481
#
# Compressibility (1/GPa) = 0.03242227
#
# Stress axis : x y z
#
# Youngs Moduli (GPa) = 94.01796 35.35754 91.68243
#
# Poissons Ratio (x) = 0.23331 0.06255
# Poissons Ratio (y) = 0.62039 0.13028
# Poissons Ratio (z) = 0.06414 0.05024
#
# Static dielectric constant tensor:
#      x y z
#    x 4.530760 -0.046630 0.286470 
#    y -0.046630 3.823950 -0.017200 
#    z 0.286470 -0.017200 4.152410 
# 
# 
# High freq. dielectric constant tensor:
#      x y z
#    x 1.895030 -0.003240 0.006630 
#    y -0.003240 1.852540 0.005690 
#    z 0.006630 0.005690 1.880150 
# 
# From -- ./inp_files/382123.got.cif
#   From: 2010.06.25/outbox.cif.g09.slc.cpg/sg2_192_cif.got.tgz:382123.got - 2010.06.27 13:26:56.
