data_PCOD8018019
_publ_section_title
;
Structure prediction by ZEFSAII (Michael W. Deem and Ramdas Pophale) SiO2 
 PCOD8018019
Probable space group: P -1
;
_chemical_formula_sum "Si O2"
_cell_formula_units_Z 16
_cell_length_a 16.138508
_cell_length_b 15.128465
_cell_length_c 15.576677
_cell_angle_alpha 39.708513
_cell_angle_beta 161.557884
_cell_angle_gamma 137.780131
_cell_volume 767.535736
_symmetry_space_group_name_H-M "P -1"
_symmetry_group_IT_number 2
_symmetry_cell_setting 'triclinic'
loop_
_space_group_symop_operation_xyz
x,y,z
-x,-y,-z
loop_
_atom_site_type_symbol
_atom_site_label
_atom_site_fract_x
_atom_site_fract_y
_atom_site_fract_z
Si Si1 0.264220 0.395161 0.579260
Si Si2 0.755484 0.466633 0.724955
Si Si3 0.741120 0.261734 0.225535
Si Si4 0.089945 0.660734 0.292788
Si Si5 0.243746 0.515020 0.791114
Si Si6 0.843435 0.191180 0.927187
Si Si7 0.238162 0.926847 0.332270
Si Si8 0.310153 0.013150 0.528824
O O1 0.228524 0.439618 0.413572
O O2 0.262840 0.527953 0.542839
O O3 0.030403 0.283145 0.454658
O O4 0.536970 0.323267 0.912257
O O5 0.500000 0.500000 0.500000
O O6 0.749226 0.304953 0.815640
O O7 0.000000 0.500000 0.000000
O O8 0.728347 0.334944 0.250474
O O9 0.669902 0.099906 0.291976
O O10 0.037328 0.741042 0.093373
O O11 0.234343 0.763758 0.426371
O O12 0.809009 0.602798 0.098609
O O13 0.000000 0.500000 0.500000
O O14 0.500000 0.500000 0.000000
O O15 0.593202 0.089736 0.736119
O O16 0.085901 0.113964 0.263661
O O17 0.500000 0.000000 0.500000
O O18 0.216623 0.940159 0.403164
O O19 0.000000 0.000000 0.000000
#
# Coordination Sequence:
#
# PCOD8018019 Si02
#       8
#     2   2   2   2   2   2   2   2
#     4  10  23  41  67  94 123 167 207 268 320 375
#     4  11  23  44  75 103 125 149 200 270 331 397
#     4  11  23  40  61  88 127 175 219 248 311 380
#     4  10  22  40  60  87 127 161 221 269 314 359
#     4  11  23  37  56  83 119 168 224 277 306 346
#     4  11  24  41  65  95 126 165 205 259 336 377
#     4  12  23  37  56  89 129 173 221 266 308 362
#     4  12  23  40  61  90 134 176 216 257 304 383
#
# _framework density 20.845934
#
# number of rings (size 3 to 8) (size 9 to 14) (size 15 to 20)
#    0.000    1.000    2.500    4.500    0.000   11.000 
#    0.000    0.000    0.000   15.000    0.000    0.000 
#    0.000    0.000    0.000    0.000    0.000    0.000 
#
# Total GULP energy -198450.689410 kJ/mol
# GULP energy per Si atom -12403.168088 kJ/mol
# Density = 2.079849 g / cm^3
# Si number density = 20.845934 Si / 1000 Ang^3
#
#
#
# Elastic Constant Matrix: (Units=GPa)
#
#
# Indices 1 2 3 4 5 6 
#
# 1 107.2259 50.0632 34.7355 0.8963 10.9316 2.4224
# 2 50.0632 123.0135 44.9005 -3.4137 3.4738 18.0634
# 3 34.7355 44.9005 131.5944 6.5975 4.2825 10.1937
# 4 0.8963 -3.4137 6.5975 35.1640 5.0091 0.5178
# 5 10.9316 3.4738 4.2825 5.0091 39.7764 5.5761
# 6 2.4224 18.0634 10.1937 0.5178 5.5761 28.7790
#
#
#
# Elastic Compliance Matrix: (Units=1/GPa)
#
#
# Indices 1 2 3 4 5 6 
#
# 1 0.012391 -0.004773 -0.001784 -0.000030 -0.003243 0.003213
# 2 -0.004773 0.011922 -0.002428 0.001655 0.001233 -0.006490
# 3 -0.001784 -0.002428 0.009108 -0.001902 0.000179 -0.001552
# 4 -0.000030 0.001655 -0.001902 0.029474 -0.003616 -0.000192
# 5 -0.003243 0.001233 0.000179 -0.003616 0.027168 -0.005763
# 6 0.003213 -0.006490 -0.001552 -0.000192 -0.005763 0.040220
#
#
# Mechanical properties :
#
#
# Convention : Reuss Voigt Hill
#
# Bulk Modulus (GPa) = 64.72149 69.02577 66.87363
# Shear Modulus (GPa) = 32.59360 36.21951 34.40656
#
# Velocity S-wave (km/s) = 3.95846 4.17284 4.06706
# Velocity P-wave (km/s) = 7.21162 7.51006 7.36235
#
# Compressibility (1/GPa) = 0.01545082
#
# Stress axis : x y z
#
# Youngs Moduli (GPa) = 80.70623 83.87917 109.78884
#
# Poissons Ratio (x) = 0.40032 0.19587
# Poissons Ratio (y) = 0.38517 0.26661
# Poissons Ratio (z) = 0.14399 0.20369
#
# Static dielectric constant tensor:
#      x y z
#    x 3.250450 -0.057070 -0.230670 
#    y -0.057070 3.987010 -0.087590 
#    z -0.230670 -0.087590 3.542620 
# 
# 
# High freq. dielectric constant tensor:
#      x y z
#    x 1.807320 0.013380 0.006110 
#    y 0.013380 1.821320 0.002660 
#    z 0.006110 0.002660 1.821500 
# 
# From -- ./inp_files/477122.got.cif
#   From: 2010.06.25/outbox.cif.g09.slc.cpg/sg2_239_cif.got.tgz:477122.got - 2010.06.27 13:26:56.
