data_PCOD8018677
_publ_section_title
;
Structure prediction by ZEFSAII (Michael W. Deem and Ramdas Pophale) SiO2 
 PCOD8018677
Probable space group: P -1
;
_chemical_formula_sum "Si O2"
_cell_formula_units_Z 12
_cell_length_a 7.389317
_cell_length_b 8.025911
_cell_length_c 12.997436
_cell_angle_alpha 43.509586
_cell_angle_beta 68.917193
_cell_angle_gamma 55.238219
_cell_volume 434.004916
_symmetry_space_group_name_H-M "P -1"
_symmetry_group_IT_number 2
_symmetry_cell_setting 'triclinic'
loop_
_space_group_symop_operation_xyz
x,y,z
-x,-y,-z
loop_
_atom_site_type_symbol
_atom_site_label
_atom_site_fract_x
_atom_site_fract_y
_atom_site_fract_z
Si Si1 0.070359 0.702878 0.333372
Si Si2 0.243816 0.981267 0.920308
Si Si3 0.893406 0.544026 0.112925
Si Si4 0.402667 0.118853 0.643160
Si Si5 0.148059 0.986497 0.384094
Si Si6 0.475653 0.445023 0.230247
O O1 0.965984 0.913292 0.162434
O O2 0.315134 0.471073 0.349207
O O3 0.856406 0.627590 0.433358
O O4 0.088915 0.882291 0.339973
O O5 0.175756 0.156894 0.960755
O O6 0.428728 0.024531 0.800861
O O7 0.332984 0.660656 0.072847
O O8 0.679016 0.499697 0.188919
O O9 0.094957 0.304345 0.243396
O O10 0.000000 0.500000 0.000000
O O11 0.594874 0.200460 0.550552
O O12 0.422091 0.870556 0.681014
O O13 0.000000 0.000000 0.500000
#
# Coordination Sequence:
#
# PCOD8018677 Si02
#       6
#     2   2   2   2   2   2
#     4  10  24  43  68 103 139 183 244 279 355 412
#     4  10  22  40  69 106 146 180 236 286 354 420
#     4  12  24  43  74 112 143 189 236 292 359 419
#     4  10  24  43  70  99 146 178 242 286 352 408
#     4  12  26  49  73 103 143 192 239 293 356 424
#     4  12  21  42  72 106 149 186 231 297 354 425
#
# _framework density 27.649456000000001
#
# number of rings (size 3 to 8) (size 9 to 14) (size 15 to 20)
#    1.000    0.000    1.667    5.500    0.000    2.000 
#    0.000    6.667    0.000    0.000    0.000    0.000 
#    0.000    0.000    0.000    0.000    0.000    0.000 
#
# Total GULP energy -148695.031161 kJ/mol
# GULP energy per Si atom -12391.252597 kJ/mol
# Density = 2.758652 g / cm^3
# Si number density = 27.649456 Si / 1000 Ang^3
#
#
#
# Elastic Constant Matrix: (Units=GPa)
#
#
# Indices 1 2 3 4 5 6 
#
# 1 176.4385 50.0986 55.3573 12.9916 -5.4546 -33.7166
# 2 50.0986 149.1400 56.7504 22.1754 4.9734 -9.6699
# 3 55.3573 56.7504 88.1352 16.5716 -9.4059 -23.9163
# 4 12.9916 22.1754 16.5716 53.8325 -10.8495 0.5006
# 5 -5.4546 4.9734 -9.4059 -10.8495 51.3062 11.0035
# 6 -33.7166 -9.6699 -23.9163 0.5006 11.0035 56.7884
#
#
#
# Elastic Compliance Matrix: (Units=1/GPa)
#
#
# Indices 1 2 3 4 5 6 
#
# 1 0.007579 -0.001030 -0.003214 -0.000536 -0.000454 0.003064
# 2 -0.001030 0.009540 -0.005513 -0.002458 -0.002388 -0.000824
# 3 -0.003214 -0.005513 0.018866 -0.002373 0.002140 0.004705
# 4 -0.000536 -0.002458 -0.002373 0.021463 0.004902 -0.002875
# 5 -0.000454 -0.002388 0.002140 0.004902 0.021977 -0.004076
# 6 0.003064 -0.000824 0.004705 -0.002875 -0.004076 0.022084
#
#
# Mechanical properties :
#
#
# Convention : Reuss Voigt Hill
#
# Bulk Modulus (GPa) = 60.70480 82.01404 71.35942
# Shear Modulus (GPa) = 39.52149 49.15258 44.33704
#
# Velocity S-wave (km/s) = 3.78481 4.22086 4.00877
# Velocity P-wave (km/s) = 6.41113 7.31305 6.87689
#
# Compressibility (1/GPa) = 0.01647316
#
# Stress axis : x y z
#
# Youngs Moduli (GPa) = 131.93837 104.81839 53.00628
#
# Poissons Ratio (x) = 0.10793 0.17035
# Poissons Ratio (y) = 0.13585 0.29220
# Poissons Ratio (z) = 0.42403 0.57782
#
# Static dielectric constant tensor:
#      x y z
#    x 5.238170 -0.721090 -0.029850 
#    y -0.721090 5.247490 0.179320 
#    z -0.029850 0.179320 6.180120 
# 
# 
# High freq. dielectric constant tensor:
#      x y z
#    x 2.126800 -0.035310 -0.006980 
#    y -0.035310 2.126410 0.003070 
#    z -0.006980 0.003070 2.159330 
# 
# From -- ./inp_files/375541.got.cif
#   From: 2010.06.25/outbox.cif.g09.slc.cpg/sg2_188_cif.got.tgz:375541.got - 2010.06.27 13:26:56.
