data_PCOD8018393
_publ_section_title
;
Structure prediction by ZEFSAII (Michael W. Deem and Ramdas Pophale) SiO2 
 PCOD8018393
Probable space group: P -1
;
_chemical_formula_sum "Si O2"
_cell_formula_units_Z 16
_cell_length_a 11.671272
_cell_length_b 13.778101
_cell_length_c 9.112532
_cell_angle_alpha 85.236092
_cell_angle_beta 143.786706
_cell_angle_gamma 112.593187
_cell_volume 726.837812
_symmetry_space_group_name_H-M "P -1"
_symmetry_group_IT_number 2
_symmetry_cell_setting 'triclinic'
loop_
_space_group_symop_operation_xyz
x,y,z
-x,-y,-z
loop_
_atom_site_type_symbol
_atom_site_label
_atom_site_fract_x
_atom_site_fract_y
_atom_site_fract_z
Si Si1 0.054026 0.106386 0.898458
Si Si2 0.595441 0.233956 0.208596
Si Si3 0.889830 0.174600 0.976117
Si Si4 0.447586 0.386311 0.877689
Si Si5 0.143081 0.981930 0.799486
Si Si6 0.989622 0.197726 0.543554
Si Si7 0.559473 0.241028 0.496778
Si Si8 0.420716 0.382376 0.512667
O O1 0.879332 0.088599 0.848592
O O2 0.082719 0.206538 0.804276
O O3 0.961363 0.989525 0.719420
O O4 0.294520 0.138626 0.214736
O O5 0.768996 0.207018 0.313204
O O6 0.675876 0.283276 0.450443
O O7 0.582141 0.330388 0.091653
O O8 0.353896 0.112472 0.978917
O O9 0.697532 0.200969 0.739130
O O10 0.804638 0.105120 0.050190
O O11 0.145770 0.290239 0.230633
O O12 0.508562 0.410512 0.767006
O O13 0.175291 0.299421 0.621343
O O14 0.500000 0.500000 0.000000
O O15 0.054739 0.923378 0.555850
O O16 0.568289 0.341722 0.585568
O O17 0.500000 0.500000 0.500000
#
# Coordination Sequence:
#
# PCOD8018393 Si02
#       8
#     2   2   2   2   2   2   2   2
#     4  10  22  40  65  96 135 187 217 271 332 404
#     4  11  25  44  70 103 141 183 223 280 342 408
#     4  11  23  43  66 100 142 182 224 278 339 405
#     4  12  27  47  73 100 136 177 234 285 338 408
#     4  11  23  42  66 105 142 181 227 275 340 415
#     4  12  23  45  68 100 141 179 226 280 345 400
#     4  10  22  43  66  97 135 176 227 274 334 402
#     4  11  26  45  72  99 131 177 232 287 339 401
#
# _framework density 22.013162999999999
#
# number of rings (size 3 to 8) (size 9 to 14) (size 15 to 20)
#    0.000    1.000    5.000    1.875    3.500    3.000 
#    4.500    0.000    0.000    0.000    0.000    0.000 
#    0.000    0.000    0.000    0.000    0.000    0.000 
#
# Total GULP energy -198320.958972 kJ/mol
# GULP energy per Si atom -12395.059936 kJ/mol
# Density = 2.196306 g / cm^3
# Si number density = 22.013163 Si / 1000 Ang^3
#
#
#
# Elastic Constant Matrix: (Units=GPa)
#
#
# Indices 1 2 3 4 5 6 
#
# 1 88.2265 25.9392 19.1681 10.7622 -20.6309 -22.2514
# 2 25.9392 114.2783 40.3112 -1.6629 -9.8194 -3.3727
# 3 19.1681 40.3112 73.6005 -7.9927 -13.6976 -11.6500
# 4 10.7622 -1.6629 -7.9927 29.1721 -5.0862 -11.4873
# 5 -20.6309 -9.8194 -13.6976 -5.0862 41.7507 -9.0319
# 6 -22.2514 -3.3727 -11.6500 -11.4873 -9.0319 47.6314
#
#
#
# Elastic Compliance Matrix: (Units=1/GPa)
#
#
# Indices 1 2 3 4 5 6 
#
# 1 0.016831 -0.002855 0.000370 -0.000891 0.009686 0.009373
# 2 -0.002855 0.011414 -0.006384 -0.001393 -0.001579 -0.002722
# 3 0.000370 -0.006384 0.021220 0.010454 0.008889 0.009117
# 4 -0.000891 -0.001393 0.010454 0.045360 0.011466 0.015155
# 5 0.009686 -0.001579 0.008889 0.011466 0.036187 0.016214
# 6 0.009373 -0.002722 0.009117 0.015155 0.016214 0.034140
#
#
# Mechanical properties :
#
#
# Convention : Reuss Voigt Hill
#
# Bulk Modulus (GPa) = 31.51948 49.66024 40.58986
# Shear Modulus (GPa) = 25.84430 36.42330 31.13380
#
# Velocity S-wave (km/s) = 3.43014 4.07211 3.76483
# Velocity P-wave (km/s) = 5.48064 6.68713 6.11372
#
# Compressibility (1/GPa) = 0.03172641
#
# Stress axis : x y z
#
# Youngs Moduli (GPa) = 59.41411 87.60983 47.12565
#
# Poissons Ratio (x) = 0.25011 -0.01742
# Poissons Ratio (y) = 0.16962 0.30086
# Poissons Ratio (z) = -0.02196 0.55931
#
# Static dielectric constant tensor:
#      x y z
#    x 4.374690 -0.214380 -0.384940 
#    y -0.214380 4.020110 -0.083270 
#    z -0.384940 -0.083270 3.938390 
# 
# 
# High freq. dielectric constant tensor:
#      x y z
#    x 1.881700 -0.010070 -0.023500 
#    y -0.010070 1.868730 -0.023200 
#    z -0.023500 -0.023200 1.855150 
# 
# From -- ./inp_files/273261.got.cif
#   From: 2010.06.25/outbox.cif.g09.slc.cpg/sg2_137_cif.got.tgz:273261.got - 2010.06.27 13:26:56.
