data_PCOD8018748
_publ_section_title
;
Structure prediction by ZEFSAII (Michael W. Deem and Ramdas Pophale) SiO2 
 PCOD8018748
Probable space group: P -1
;
_chemical_formula_sum "Si O2"
_cell_formula_units_Z 14
_cell_length_a 9.349872
_cell_length_b 18.009874
_cell_length_c 12.604708
_cell_angle_alpha 43.602610
_cell_angle_beta 127.291145
_cell_angle_gamma 152.615825
_cell_volume 668.649770
_symmetry_space_group_name_H-M "P -1"
_symmetry_group_IT_number 2
_symmetry_cell_setting 'triclinic'
loop_
_space_group_symop_operation_xyz
x,y,z
-x,-y,-z
loop_
_atom_site_type_symbol
_atom_site_label
_atom_site_fract_x
_atom_site_fract_y
_atom_site_fract_z
Si Si1 0.533657 0.889518 0.147893
Si Si2 0.983919 0.483882 0.820548
Si Si3 0.547543 0.907313 0.571803
Si Si4 0.028450 0.982746 0.180986
Si Si5 0.438354 0.317121 0.874971
Si Si6 0.679075 0.558865 0.911750
Si Si7 0.827361 0.020911 0.361823
O O1 0.218382 0.673065 0.198785
O O2 0.822197 0.988502 0.103952
O O3 0.589086 0.884752 0.299557
O O4 0.500000 0.000000 0.000000
O O5 0.776863 0.454630 0.836690
O O6 0.238685 0.683753 0.672080
O O7 0.152670 0.473664 0.973294
O O8 0.500000 0.000000 0.500000
O O9 0.843615 0.998933 0.669485
O O10 0.624076 0.965933 0.423443
O O11 0.811589 0.787471 0.225175
O O12 0.318898 0.156471 0.056674
O O13 0.455826 0.432639 0.838227
O O14 0.917596 0.770109 0.779459
O O15 0.500000 0.500000 0.000000
O O16 0.000000 0.000000 0.500000
#
# Coordination Sequence:
#
# PCOD8018748 Si02
#       7
#     2   2   2   2   2   2   2
#     4  11  23  44  72 103 135 176 236 285 332 404
#     4  11  24  43  69  99 134 175 238 280 325 415
#     4  12  26  44  66  99 143 181 222 280 353 405
#     4  10  22  42  66 100 136 173 225 285 331 406
#     4  10  22  40  70  94 128 173 229 281 326 390
#     4  12  23  41  71 100 131 177 232 282 335 406
#     4  12  25  44  67  96 142 180 216 283 353 398
#
# _framework density 20.937716999999999
#
# number of rings (size 3 to 8) (size 9 to 14) (size 15 to 20)
#    0.000    0.857    4.286    3.000    2.000    1.714 
#    2.571    2.143    0.000    0.000    0.000    0.000 
#    0.000    0.000    0.000    0.000    0.000    0.000 
#
# Total GULP energy -173611.569511 kJ/mol
# GULP energy per Si atom -12400.826394 kJ/mol
# Density = 2.089006 g / cm^3
# Si number density = 20.937717 Si / 1000 Ang^3
#
#
#
# Elastic Constant Matrix: (Units=GPa)
#
#
# Indices 1 2 3 4 5 6 
#
# 1 126.1921 63.3786 43.7829 -6.3388 -18.5606 -14.2817
# 2 63.3786 141.1976 51.4103 -5.4546 -10.4997 -20.4261
# 3 43.7829 51.4103 104.0936 -12.7383 -11.1325 -0.8264
# 4 -6.3388 -5.4546 -12.7383 42.1683 -2.7387 -6.0293
# 5 -18.5606 -10.4997 -11.1325 -2.7387 44.2148 1.4916
# 6 -14.2817 -20.4261 -0.8264 -6.0293 1.4916 40.0069
#
#
#
# Elastic Compliance Matrix: (Units=1/GPa)
#
#
# Indices 1 2 3 4 5 6 
#
# 1 0.011386 -0.003589 -0.002524 0.001014 0.003280 0.002211
# 2 -0.003589 0.010638 -0.003676 0.000314 -0.000026 0.004123
# 3 -0.002524 -0.003676 0.012988 0.002866 0.001587 -0.002137
# 4 0.001014 0.000314 0.002866 0.025566 0.002659 0.004335
# 5 0.003280 -0.000026 0.001587 0.002659 0.024529 0.000677
# 6 0.002211 0.004123 -0.002137 0.004335 0.000677 0.028474
#
#
# Mechanical properties :
#
#
# Convention : Reuss Voigt Hill
#
# Bulk Modulus (GPa) = 64.79407 76.51409 70.65408
# Shear Modulus (GPa) = 36.15220 39.47209 37.81215
#
# Velocity S-wave (km/s) = 4.15981 4.34662 4.25424
# Velocity P-wave (km/s) = 7.35427 7.86217 7.61246
#
# Compressibility (1/GPa) = 0.01543351
#
# Stress axis : x y z
#
# Youngs Moduli (GPa) = 87.82481 93.99956 76.99691
#
# Poissons Ratio (x) = 0.33736 0.19436
# Poissons Ratio (y) = 0.31520 0.28305
# Poissons Ratio (z) = 0.22169 0.34556
#
# Static dielectric constant tensor:
#      x y z
#    x 3.959570 -0.148050 -0.124370 
#    y -0.148050 4.072270 0.033310 
#    z -0.124370 0.033310 3.291300 
# 
# 
# High freq. dielectric constant tensor:
#      x y z
#    x 1.832400 -0.011670 -0.014940 
#    y -0.011670 1.841170 0.003270 
#    z -0.014940 0.003270 1.800190 
# 
# From -- ./inp_files/149914.got.cif
#   From: 2010.06.25/outbox.cif.g09.slc.cpg/sg2_75_cif.got.tgz:149914.got - 2010.06.27 13:26:56.
