data_PCOD8018270
_publ_section_title
;
Structure prediction by ZEFSAII (Michael W. Deem and Ramdas Pophale) SiO2 
 PCOD8018270
Probable space group: P -1
;
_chemical_formula_sum "Si O2"
_cell_formula_units_Z 14
_cell_length_a 5.185568
_cell_length_b 10.573837
_cell_length_c 12.497639
_cell_angle_alpha 84.446724
_cell_angle_beta 104.898906
_cell_angle_gamma 91.253039
_cell_volume 659.113294
_symmetry_space_group_name_H-M "P -1"
_symmetry_group_IT_number 2
_symmetry_cell_setting 'triclinic'
loop_
_space_group_symop_operation_xyz
x,y,z
-x,-y,-z
loop_
_atom_site_type_symbol
_atom_site_label
_atom_site_fract_x
_atom_site_fract_y
_atom_site_fract_z
Si Si1 0.318476 0.899862 0.124935
Si Si2 0.344057 0.505209 0.302858
Si Si3 0.740350 0.832500 0.005244
Si Si4 0.836954 0.360896 0.320810
Si Si5 0.553741 0.589124 0.898737
Si Si6 0.015204 0.851204 0.494837
Si Si7 0.435771 0.788236 0.363729
O O1 0.515431 0.824308 0.073038
O O2 0.422285 0.888569 0.257431
O O3 0.026326 0.839600 0.091063
O O4 0.313279 0.048680 0.087019
O O5 0.619399 0.431568 0.368401
O O6 0.291534 0.491256 0.170160
O O7 0.365395 0.651070 0.322082
O O8 0.106117 0.442121 0.348722
O O9 0.735249 0.706714 0.943475
O O10 0.722767 0.356035 0.187245
O O11 0.884274 0.218608 0.380761
O O12 0.500000 0.500000 0.000000
O O13 0.221241 0.827638 0.424569
O O14 0.730423 0.791736 0.442281
O O15 0.000000 0.000000 0.500000
#
# Coordination Sequence:
#
# PCOD8018270 Si02
#       7
#     2   2   2   2   2   2   2
#     4  10  23  40  63  99 128 177 221 261 327 392
#     4  10  24  42  68 100 130 173 218 265 336 387
#     4  10  22  40  64  93 138 173 217 268 324 381
#     4  10  25  44  64  99 133 165 229 266 322 403
#     4  10  24  40  69  97 135 175 213 273 324 390
#     4  12  28  46  70  98 127 177 222 273 332 387
#     4  12  25  44  73  93 138 169 220 280 322 392
#
# _framework density 21.240656999999999
#
# number of rings (size 3 to 8) (size 9 to 14) (size 15 to 20)
#    0.857    0.571    0.000    3.857    6.000    5.143 
#    0.000    0.000    0.000    0.000    0.000    0.000 
#    0.000    0.000    0.000    0.000    0.000    0.000 
#
# Total GULP energy -173614.513941 kJ/mol
# GULP energy per Si atom -12401.036710 kJ/mol
# Density = 2.119231 g / cm^3
# Si number density = 21.240657 Si / 1000 Ang^3
#
#
#
# Elastic Constant Matrix: (Units=GPa)
#
#
# Indices 1 2 3 4 5 6 
#
# 1 131.9060 42.9278 31.7551 -3.8984 -4.9663 -4.9113
# 2 42.9278 133.7740 67.8827 8.1081 -3.3473 3.0991
# 3 31.7551 67.8827 114.7364 -18.7054 3.9053 -6.2979
# 4 -3.8984 8.1081 -18.7054 50.6032 -7.1808 1.0762
# 5 -4.9663 -3.3473 3.9053 -7.1808 19.3827 0.5981
# 6 -4.9113 3.0991 -6.2979 1.0762 0.5981 28.9013
#
#
#
# Elastic Compliance Matrix: (Units=1/GPa)
#
#
# Indices 1 2 3 4 5 6 
#
# 1 0.008742 -0.002441 -0.000799 0.001068 0.002329 0.001485
# 2 -0.002441 0.012630 -0.007815 -0.004825 0.001445 -0.003322
# 3 -0.000799 -0.007815 0.014869 0.006275 -0.002342 0.003757
# 4 0.001068 -0.004825 0.006275 0.023908 0.007002 0.001031
# 5 0.002329 0.001445 -0.002342 0.007002 0.055557 -0.001680
# 6 0.001485 -0.003322 0.003757 0.001031 -0.001680 0.036024
#
#
# Mechanical properties :
#
#
# Convention : Reuss Voigt Hill
#
# Bulk Modulus (GPa) = 70.76195 73.94973 72.35584
# Shear Modulus (GPa) = 28.00330 35.63416 31.81873
#
# Velocity S-wave (km/s) = 3.63489 4.10034 3.87461
# Velocity P-wave (km/s) = 7.14166 7.57019 7.35905
#
# Compressibility (1/GPa) = 0.01413189
#
# Stress axis : x y z
#
# Youngs Moduli (GPa) = 114.38442 79.17881 67.25276
#
# Poissons Ratio (x) = 0.19326 0.05375
# Poissons Ratio (y) = 0.27918 0.52557
# Poissons Ratio (z) = 0.09142 0.61877
#
# Static dielectric constant tensor:
#      x y z
#    x 3.972580 -0.022530 0.011210 
#    y -0.022530 3.787290 -0.118980 
#    z 0.011210 -0.118980 3.825590 
# 
# 
# High freq. dielectric constant tensor:
#      x y z
#    x 1.845360 0.003130 0.000260 
#    y 0.003130 1.837540 -0.008810 
#    z 0.000260 -0.008810 1.830640 
# 
# From -- ./inp_files/360871.got.cif
#   From: 2010.06.25/outbox.cif.g09.slc.cpg/sg2_181_cif.got.tgz:360871.got - 2010.06.27 13:26:56.
