data_PCOD8018903
_publ_section_title
;
Structure prediction by ZEFSAII (Michael W. Deem and Ramdas Pophale) SiO2 
 PCOD8018903
Probable space group: P -1
;
_chemical_formula_sum "Si O2"
_cell_formula_units_Z 16
_cell_length_a 18.467510
_cell_length_b 14.337523
_cell_length_c 9.045815
_cell_angle_alpha 110.827944
_cell_angle_beta 130.802828
_cell_angle_gamma 31.061105
_cell_volume 797.391064
_symmetry_space_group_name_H-M "P -1"
_symmetry_group_IT_number 2
_symmetry_cell_setting 'triclinic'
loop_
_space_group_symop_operation_xyz
x,y,z
-x,-y,-z
loop_
_atom_site_type_symbol
_atom_site_label
_atom_site_fract_x
_atom_site_fract_y
_atom_site_fract_z
Si Si1 0.776208 0.741957 0.369978
Si Si2 0.457699 0.297290 0.343027
Si Si3 0.558948 0.097027 0.077254
Si Si4 0.851979 0.266006 0.702175
Si Si5 0.499268 0.568455 0.180101
Si Si6 0.722723 0.039815 0.980025
Si Si7 0.692472 0.268563 0.696863
Si Si8 0.618100 0.981092 0.572707
O O1 0.779537 0.788489 0.562797
O O2 0.000000 0.500000 0.500000
O O3 0.710615 0.880913 0.236635
O O4 0.619604 0.793930 0.188940
O O5 0.455880 0.266827 0.152568
O O6 0.250119 0.546882 0.242817
O O7 0.660061 0.179425 0.576385
O O8 0.463301 0.195125 0.397774
O O9 0.696110 0.031550 0.108604
O O10 0.714171 0.360107 0.432525
O O11 0.881884 0.146513 0.795137
O O12 0.069528 0.090588 0.828670
O O13 0.465652 0.715059 0.175079
O O14 0.315620 0.703730 0.121829
O O15 0.500000 0.500000 0.000000
O O16 0.735119 0.933414 0.829081
O O17 0.500000 0.500000 0.500000
O O18 0.500000 0.000000 0.500000
#
# Coordination Sequence:
#
# PCOD8018903 Si02
#       8
#     2   2   2   2   2   2   2   2
#     4  10  23  42  62  87 122 162 214 248 308 365
#     4   9  19  41  62  82 125 161 200 252 310 370
#     4  10  23  39  60  90 123 161 201 259 310 357
#     4  10  23  40  63  91 120 163 212 248 318 376
#     4  10  22  41  62  91 129 160 203 260 312 360
#     4  12  24  39  63  95 125 160 210 256 310 367
#     4   8  17  38  61  84 119 161 198 244 313 364
#     4  11  21  41  62  89 126 166 200 257 305 364
#
# _framework density 20.065435999999998
#
# number of rings (size 3 to 8) (size 9 to 14) (size 15 to 20)
#    0.000    2.250    3.750    0.000    7.000    3.000 
#    0.000    2.500    0.000    0.000    0.000    0.000 
#    0.000    0.000    0.000    0.000    0.000    0.000 
#
# Total GULP energy -198345.923192 kJ/mol
# GULP energy per Si atom -12396.620199 kJ/mol
# Density = 2.001977 g / cm^3
# Si number density = 20.065436 Si / 1000 Ang^3
#
#
#
# Elastic Constant Matrix: (Units=GPa)
#
#
# Indices 1 2 3 4 5 6 
#
# 1 165.5506 36.3449 40.3458 6.3491 -5.2137 -7.8341
# 2 36.3449 101.1682 41.1414 23.6877 -8.8153 1.3872
# 3 40.3458 41.1414 70.9561 21.5198 -3.0977 -11.9959
# 4 6.3491 23.6877 21.5198 39.6853 -6.2074 -0.9328
# 5 -5.2137 -8.8153 -3.0977 -6.2074 27.1012 4.2980
# 6 -7.8341 1.3872 -11.9959 -0.9328 4.2980 27.5013
#
#
#
# Elastic Compliance Matrix: (Units=1/GPa)
#
#
# Indices 1 2 3 4 5 6 
#
# 1 0.007246 -0.001456 -0.003734 0.001879 0.000854 0.000439
# 2 -0.001456 0.014642 -0.007051 -0.004254 0.003482 -0.004917
# 3 -0.003734 -0.007051 0.024573 -0.008883 -0.003873 0.010315
# 4 0.001879 -0.004254 -0.008883 0.033125 0.006016 -0.002941
# 5 0.000854 0.003482 -0.003873 0.006016 0.040356 -0.007725
# 6 0.000439 -0.004917 0.010315 -0.002941 -0.007725 0.042342
#
#
# Mechanical properties :
#
#
# Convention : Reuss Voigt Hill
#
# Bulk Modulus (GPa) = 45.49745 63.70435 54.60090
# Shear Modulus (GPa) = 25.76107 33.51375 29.63741
#
# Velocity S-wave (km/s) = 3.58698 4.09127 3.84739
# Velocity P-wave (km/s) = 6.31498 7.35766 6.85617
#
# Compressibility (1/GPa) = 0.02197926
#
# Stress axis : x y z
#
# Youngs Moduli (GPa) = 138.01247 68.29771 40.69496
#
# Poissons Ratio (x) = 0.09944 0.15195
# Poissons Ratio (y) = 0.20095 0.28693
# Poissons Ratio (z) = 0.51533 0.48155
#
# Static dielectric constant tensor:
#      x y z
#    x 4.280900 0.112020 -0.038060 
#    y 0.112020 3.650470 0.270100 
#    z -0.038060 0.270100 3.634130 
# 
# 
# High freq. dielectric constant tensor:
#      x y z
#    x 1.799530 0.003020 -0.014820 
#    y 0.003020 1.779970 0.017340 
#    z -0.014820 0.017340 1.764540 
# 
# From -- ./inp_files/335443.got.cif
#   From: 2010.06.25/outbox.cif.g09.slc.cpg/sg2_168_cif.got.tgz:335443.got - 2010.06.27 13:26:56.
