data_PCOD8018244
_publ_section_title
;
Structure prediction by ZEFSAII (Michael W. Deem and Ramdas Pophale) SiO2 
 PCOD8018244
Probable space group: P -1
;
_chemical_formula_sum "Si O2"
_cell_formula_units_Z 16
_cell_length_a 6.514310
_cell_length_b 11.599790
_cell_length_c 23.970856
_cell_angle_alpha 149.018715
_cell_angle_beta 109.722377
_cell_angle_gamma 56.384622
_cell_volume 735.656610
_symmetry_space_group_name_H-M "P -1"
_symmetry_group_IT_number 2
_symmetry_cell_setting 'triclinic'
loop_
_space_group_symop_operation_xyz
x,y,z
-x,-y,-z
loop_
_atom_site_type_symbol
_atom_site_label
_atom_site_fract_x
_atom_site_fract_y
_atom_site_fract_z
Si Si1 0.192898 0.662653 0.822340
Si Si2 0.569447 0.353235 0.002624
Si Si3 0.903450 0.030427 0.594003
Si Si4 0.216696 0.255345 0.254674
Si Si5 0.907793 0.800008 0.962792
Si Si6 0.916704 0.544876 0.446498
Si Si7 0.619676 0.353984 0.595642
Si Si8 0.708863 0.448633 0.831934
O O1 0.466303 0.438464 0.780442
O O2 0.086435 0.576130 0.725353
O O3 0.950813 0.783363 0.893426
O O4 0.238625 0.894357 0.904085
O O5 0.630892 0.055347 0.877143
O O6 0.500000 0.500000 0.000000
O O7 0.323294 0.529882 0.095162
O O8 0.810797 0.363274 0.050290
O O9 0.672288 0.239041 0.616410
O O10 0.943613 0.182130 0.713183
O O11 0.841800 0.828384 0.532422
O O12 0.173561 0.880220 0.523291
O O13 0.360760 0.387452 0.296469
O O14 0.171223 0.304921 0.337613
O O15 0.724188 0.698115 0.919659
O O16 0.664075 0.535464 0.409063
O O17 0.000000 0.500000 0.500000
#
# Coordination Sequence:
#
# PCOD8018244 Si02
#       8
#     2   2   2   2   2   2   2   2
#     4   9  18  34  58  89 128 150 201 254 306 358
#     4  10  24  41  57  87 129 166 205 257 304 369
#     4  10  23  39  65 100 125 161 210 260 315 367
#     4  10  22  40  64  91 119 166 206 255 311 369
#     4   9  19  35  56  88 121 163 202 247 301 367
#     4  11  25  43  65  90 125 168 210 261 316 370
#     4  10  22  44  68  93 125 161 213 265 313 370
#     4  11  21  35  61  92 122 165 201 249 310 372
#
# _framework density 21.749276999999999
#
# number of rings (size 3 to 8) (size 9 to 14) (size 15 to 20)
#    0.000    2.000    0.000    3.000    1.750    9.500 
#    2.250    0.000    0.000    0.000    0.000    0.000 
#    0.000    0.000    0.000    0.000    0.000    0.000 
#
# Total GULP energy -198243.116781 kJ/mol
# GULP energy per Si atom -12390.194799 kJ/mol
# Density = 2.169978 g / cm^3
# Si number density = 21.749277 Si / 1000 Ang^3
#
#
#
# Elastic Constant Matrix: (Units=GPa)
#
#
# Indices 1 2 3 4 5 6 
#
# 1 91.6333 45.1563 42.6001 -8.3548 16.5879 18.8716
# 2 45.1563 110.4150 51.5754 -13.0028 4.7310 21.5369
# 3 42.6001 51.5754 121.5699 -17.0644 -1.1580 20.0433
# 4 -8.3548 -13.0028 -17.0644 27.0774 6.5420 -5.3079
# 5 16.5879 4.7310 -1.1580 6.5420 34.1034 -4.0375
# 6 18.8716 21.5369 20.0433 -5.3079 -4.0375 29.3960
#
#
#
# Elastic Compliance Matrix: (Units=1/GPa)
#
#
# Indices 1 2 3 4 5 6 
#
# 1 0.017639 -0.003576 -0.003174 0.002587 -0.009562 -0.007386
# 2 -0.003576 0.013373 -0.003241 0.002614 -0.001319 -0.005001
# 3 -0.003174 -0.003241 0.011732 0.004017 0.001304 -0.002682
# 4 0.002587 0.002614 0.004017 0.043956 -0.009886 0.000264
# 5 -0.009562 -0.001319 0.001304 -0.009886 0.037227 0.009544
# 6 -0.007386 -0.005001 -0.002682 0.000264 0.009544 0.045611
#
#
# Mechanical properties :
#
#
# Convention : Reuss Voigt Hill
#
# Bulk Modulus (GPa) = 43.93596 66.92017 55.42807
# Shear Modulus (GPa) = 25.36675 30.40111 27.88393
#
# Velocity S-wave (km/s) = 3.41886 3.74277 3.58447
# Velocity P-wave (km/s) = 5.98579 7.03658 6.53235
#
# Compressibility (1/GPa) = 0.02276040
#
# Stress axis : x y z
#
# Youngs Moduli (GPa) = 56.69297 74.77617 85.24012
#
# Poissons Ratio (x) = 0.26741 0.27055
# Poissons Ratio (y) = 0.20274 0.27630
# Poissons Ratio (z) = 0.17994 0.24239
#
# Static dielectric constant tensor:
#      x y z
#    x 3.918760 0.112270 -0.037690 
#    y 0.112270 3.777760 -0.264840 
#    z -0.037690 -0.264840 4.218200 
# 
# 
# High freq. dielectric constant tensor:
#      x y z
#    x 1.857550 0.013000 -0.004600 
#    y 0.013000 1.828120 -0.015190 
#    z -0.004600 -0.015190 1.868840 
# 
# From -- ./inp_files/83534.got.cif
#   From: 2010.06.25/outbox.cif.g09.slc.cpg/sg2_42_cif.got.tgz:83534.got - 2010.06.27 13:26:56.
