data_PCOD8018594
_publ_section_title
;
Structure prediction by ZEFSAII (Michael W. Deem and Ramdas Pophale) SiO2 
 PCOD8018594
Probable space group: P -1
;
_chemical_formula_sum "Si O2"
_cell_formula_units_Z 16
_cell_length_a 10.043172
_cell_length_b 16.649885
_cell_length_c 7.265400
_cell_angle_alpha 64.138037
_cell_angle_beta 76.837786
_cell_angle_gamma 38.871408
_cell_volume 672.477730
_symmetry_space_group_name_H-M "P -1"
_symmetry_group_IT_number 2
_symmetry_cell_setting 'triclinic'
loop_
_space_group_symop_operation_xyz
x,y,z
-x,-y,-z
loop_
_atom_site_type_symbol
_atom_site_label
_atom_site_fract_x
_atom_site_fract_y
_atom_site_fract_z
Si Si1 0.908787 0.144917 0.409919
Si Si2 0.047808 0.371739 0.272098
Si Si3 0.435721 0.423794 0.746250
Si Si4 0.802596 0.130535 0.817539
Si Si5 0.748741 0.818719 0.273668
Si Si6 0.029825 0.578704 0.151646
Si Si7 0.736655 0.976013 0.836860
Si Si8 0.537347 0.557137 0.716090
O O1 0.888529 0.165778 0.617496
O O2 0.659399 0.287399 0.281539
O O3 0.000000 0.000000 0.500000
O O4 0.073895 0.129854 0.272460
O O5 0.147496 0.240843 0.494241
O O6 0.789938 0.505866 0.206958
O O7 0.118715 0.432126 0.268971
O O8 0.109014 0.327215 0.083070
O O9 0.626967 0.256441 0.890013
O O10 0.476798 0.483247 0.818005
O O11 0.434475 0.441843 0.510876
O O12 0.703841 0.096003 0.775880
O O13 0.000000 0.000000 0.000000
O O14 0.855319 0.682776 0.263894
O O15 0.490554 0.942796 0.253571
O O16 0.806616 0.882241 0.087763
O O17 0.240106 0.534587 0.157649
#
# Coordination Sequence:
#
# PCOD8018594 Si02
#       8
#     2   2   2   2   2   2   2   2
#     4   9  21  41  67  98 135 186 231 284 351 427
#     4  11  25  43  70 102 141 181 241 291 358 427
#     4  10  22  41  67 107 135 184 231 292 362 417
#     4  10  22  40  68 100 143 181 228 295 358 425
#     4  11  24  46  71  96 142 189 235 300 343 427
#     4  11  25  43  70 106 136 186 234 296 361 423
#     4  10  24  44  67  99 135 191 240 277 363 417
#     4  10  22  40  72 103 141 174 233 299 354 422
#
# _framework density 23.792608000000001
#
# number of rings (size 3 to 8) (size 9 to 14) (size 15 to 20)
#    0.000    1.750    1.250    1.125    8.750    3.500 
#    4.500    1.250    0.000    0.000    0.000    0.000 
#    0.000    0.000    0.000    0.000    0.000    0.000 
#
# Total GULP energy -198269.910523 kJ/mol
# GULP energy per Si atom -12391.869408 kJ/mol
# Density = 2.373845 g / cm^3
# Si number density = 23.792608 Si / 1000 Ang^3
#
#
#
# Elastic Constant Matrix: (Units=GPa)
#
#
# Indices 1 2 3 4 5 6 
#
# 1 96.4002 29.2238 29.4078 3.5025 -1.7806 -5.8917
# 2 29.2238 82.9421 20.2984 -6.3643 4.9621 -10.4035
# 3 29.4078 20.2984 126.1945 -7.0494 -0.4899 -13.0617
# 4 3.5025 -6.3643 -7.0494 35.0334 -6.8794 -5.4311
# 5 -1.7806 4.9621 -0.4899 -6.8794 29.6331 1.9888
# 6 -5.8917 -10.4035 -13.0617 -5.4311 1.9888 35.6664
#
#
#
# Elastic Compliance Matrix: (Units=1/GPa)
#
#
# Indices 1 2 3 4 5 6 
#
# 1 0.012420 -0.004073 -0.002412 -0.002363 0.000869 -0.000428
# 2 -0.004073 0.014546 -0.000831 0.003039 -0.002247 0.003854
# 3 -0.002412 -0.000831 0.009075 0.002488 0.000518 0.003033
# 4 -0.002363 0.003039 0.002488 0.032013 0.006425 0.005924
# 5 0.000869 -0.002247 0.000518 0.006425 0.035764 -0.001338
# 6 -0.000428 0.003854 0.003033 0.005924 -0.001338 0.031178
#
#
# Mechanical properties :
#
#
# Convention : Reuss Voigt Hill
#
# Bulk Modulus (GPa) = 46.70782 51.48855 49.09818
# Shear Modulus (GPa) = 31.89523 35.17370 33.53446
#
# Velocity S-wave (km/s) = 3.66533 3.84910 3.75834
# Velocity P-wave (km/s) = 6.13080 6.43752 6.28603
#
# Compressibility (1/GPa) = 0.02140969
#
# Stress axis : x y z
#
# Youngs Moduli (GPa) = 80.51819 68.74815 110.19425
#
# Poissons Ratio (x) = 0.27998 0.26579
# Poissons Ratio (y) = 0.32791 0.09154
# Poissons Ratio (z) = 0.19421 0.05711
#
# Static dielectric constant tensor:
#      x y z
#    x 3.748460 -0.270370 0.131310 
#    y -0.270370 4.534490 0.286770 
#    z 0.131310 0.286770 4.584230 
# 
# 
# High freq. dielectric constant tensor:
#      x y z
#    x 1.920670 -0.004630 -0.005060 
#    y -0.004630 1.952180 0.004110 
#    z -0.005060 0.004110 1.953070 
# 
# From -- ./inp_files/282876.got.cif
#   From: 2010.06.25/outbox.cif.g09.slc.cpg/sg2_142_cif.got.tgz:282876.got - 2010.06.27 13:26:56.
