data_PCOD8018619
_publ_section_title
;
Structure prediction by ZEFSAII (Michael W. Deem and Ramdas Pophale) SiO2 
 PCOD8018619
Probable space group: P -1
;
_chemical_formula_sum "Si O2"
_cell_formula_units_Z 16
_cell_length_a 9.896189
_cell_length_b 14.063619
_cell_length_c 12.307812
_cell_angle_alpha 33.470224
_cell_angle_beta 120.151312
_cell_angle_gamma 103.736548
_cell_volume 755.383106
_symmetry_space_group_name_H-M "P -1"
_symmetry_group_IT_number 2
_symmetry_cell_setting 'triclinic'
loop_
_space_group_symop_operation_xyz
x,y,z
-x,-y,-z
loop_
_atom_site_type_symbol
_atom_site_label
_atom_site_fract_x
_atom_site_fract_y
_atom_site_fract_z
Si Si1 0.904373 0.070669 0.505953
Si Si2 0.662100 0.855365 0.645054
Si Si3 0.227619 0.001024 0.831717
Si Si4 0.187158 0.610554 0.511739
Si Si5 0.694900 0.465194 0.119954
Si Si6 0.406001 0.682434 0.354668
Si Si7 0.807318 0.776450 0.192890
Si Si8 0.527129 0.933582 0.282661
O O1 0.783943 0.289852 0.242365
O O2 0.036957 0.062183 0.659619
O O3 0.808109 0.937491 0.629578
O O4 0.000000 0.000000 0.500000
O O5 0.608268 0.836667 0.518916
O O6 0.500000 0.000000 0.500000
O O7 0.727476 0.649137 0.920869
O O8 0.247923 0.159248 0.767094
O O9 0.357934 0.961353 0.821098
O O10 0.263415 0.813303 0.092090
O O11 0.234232 0.585008 0.681809
O O12 0.323288 0.667215 0.450469
O O13 0.198577 0.422067 0.639077
O O14 0.999082 0.765757 0.265812
O O15 0.500000 0.500000 0.000000
O O16 0.500000 0.500000 0.500000
O O17 0.540166 0.772486 0.355616
O O18 0.669086 0.924096 0.916230
#
# Coordination Sequence:
#
# PCOD8018619 Si02
#       8
#     2   2   2   2   2   2   2   2
#     4  12  27  49  73 106 150 190 243 307 356 427
#     4  12  26  45  75 107 139 198 242 290 369 428
#     4  11  23  45  66  96 141 180 230 294 356 422
#     4  11  23  42  66 103 138 172 234 296 349 422
#     4  12  26  48  75 107 148 192 244 300 356 439
#     4  11  24  40  68 102 132 183 233 287 362 423
#     4  10  22  40  68  94 133 179 218 289 356 407
#     4  11  23  43  67  95 139 178 231 284 352 431
#
# _framework density 21.181304000000001
#
# number of rings (size 3 to 8) (size 9 to 14) (size 15 to 20)
#    0.000    0.750    3.750    4.500    0.000    7.500 
#    2.250    0.000    0.000    0.000    0.000    0.000 
#    0.000    0.000    0.000    0.000    0.000    0.000 
#
# Total GULP energy -198359.676233 kJ/mol
# GULP energy per Si atom -12397.479765 kJ/mol
# Density = 2.113309 g / cm^3
# Si number density = 21.181304 Si / 1000 Ang^3
#
#
#
# Elastic Constant Matrix: (Units=GPa)
#
#
# Indices 1 2 3 4 5 6 
#
# 1 127.0721 42.2993 59.4177 -5.7400 -1.2523 -0.4544
# 2 42.2993 83.4059 54.9849 -12.1605 11.8658 -4.2689
# 3 59.4177 54.9849 126.4541 -4.9777 0.4865 -5.1520
# 4 -5.7400 -12.1605 -4.9777 43.2623 0.1976 5.2834
# 5 -1.2523 11.8658 0.4865 0.1976 39.5890 1.1329
# 6 -0.4544 -4.2689 -5.1520 5.2834 1.1329 41.8286
#
#
#
# Elastic Compliance Matrix: (Units=1/GPa)
#
#
# Indices 1 2 3 4 5 6 
#
# 1 0.010659 -0.003212 -0.003640 0.000174 0.001364 -0.000719
# 2 -0.003212 0.019596 -0.006791 0.004236 -0.005934 0.000754
# 3 -0.003640 -0.006791 0.012559 -0.001065 0.001746 0.000901
# 4 0.000174 0.004236 -0.001065 0.024549 -0.001294 -0.002763
# 5 0.001364 -0.005934 0.001746 -0.001294 0.027093 -0.000946
# 6 -0.000719 0.000754 0.000901 -0.002763 -0.000946 0.024462
#
#
# Mechanical properties :
#
#
# Convention : Reuss Voigt Hill
#
# Bulk Modulus (GPa) = 64.39600 72.25954 68.32777
# Shear Modulus (GPa) = 33.02923 36.95135 34.99029
#
# Velocity S-wave (km/s) = 3.95315 4.18128 4.06882
# Velocity P-wave (km/s) = 7.16274 7.58285 7.37579
#
# Compressibility (1/GPa) = 0.01552891
#
# Stress axis : x y z
#
# Youngs Moduli (GPa) = 93.81445 51.03083 79.62272
#
# Poissons Ratio (x) = 0.16391 0.28980
# Poissons Ratio (y) = 0.30133 0.54074
# Poissons Ratio (z) = 0.34145 0.34656
#
# Static dielectric constant tensor:
#      x y z
#    x 3.535540 0.048130 -0.237060 
#    y 0.048130 3.526720 0.285720 
#    z -0.237060 0.285720 3.505420 
# 
# 
# High freq. dielectric constant tensor:
#      x y z
#    x 1.836310 0.001090 0.008650 
#    y 0.001090 1.847130 0.000050 
#    z 0.008650 0.000050 1.828380 
# 
# From -- ./inp_files/398249.got.cif
#   From: 2010.06.25/outbox.cif.g09.slc.cpg/sg2_200_cif.got.tgz:398249.got - 2010.06.27 13:26:56.
