data_PCOD8018906
_publ_section_title
;
Structure prediction by ZEFSAII (Michael W. Deem and Ramdas Pophale) SiO2 
 PCOD8018906
Probable space group: P -1
;
_chemical_formula_sum "Si O2"
_cell_formula_units_Z 16
_cell_length_a 15.694896
_cell_length_b 14.236297
_cell_length_c 15.360953
_cell_angle_alpha 138.082181
_cell_angle_beta 161.669625
_cell_angle_gamma 41.114938
_cell_volume 702.808463
_symmetry_space_group_name_H-M "P -1"
_symmetry_group_IT_number 2
_symmetry_cell_setting 'triclinic'
loop_
_space_group_symop_operation_xyz
x,y,z
-x,-y,-z
loop_
_atom_site_type_symbol
_atom_site_label
_atom_site_fract_x
_atom_site_fract_y
_atom_site_fract_z
Si Si1 0.675080 0.545260 0.282582
Si Si2 0.296956 0.957898 0.844998
Si Si3 0.412311 0.917907 0.127354
Si Si4 0.021273 0.262286 0.391055
Si Si5 0.173730 0.244617 0.153506
Si Si6 0.603141 0.324418 0.339545
Si Si7 0.927127 0.737443 0.129314
Si Si8 0.401205 0.610071 0.241369
O O1 0.850698 0.666608 0.517020
O O2 0.478749 0.609520 0.215443
O O3 0.897269 0.399653 0.428494
O O4 0.500000 0.500000 0.000000
O O5 0.216368 0.810696 0.633854
O O6 0.040577 0.097173 0.705387
O O7 0.426893 0.921606 0.040571
O O8 0.500000 0.000000 0.000000
O O9 0.738340 0.863226 0.424374
O O10 0.283345 0.073580 0.149891
O O11 0.239045 0.811171 0.930691
O O12 0.430547 0.309609 0.475444
O O13 0.055698 0.296499 0.979398
O O14 0.919082 0.306060 0.012974
O O15 0.450689 0.447192 0.211327
O O16 0.823395 0.370957 0.652301
O O17 0.372770 0.276633 0.141055
#
# Coordination Sequence:
#
# PCOD8018906 Si02
#       8
#     2   2   2   2   2   2   2   2
#     4  11  26  47  73 102 137 162 210 291 353 390
#     4   9  21  38  62  98 134 169 216 279 326 379
#     4  11  23  44  69  97 134 179 226 262 329 399
#     4  11  24  43  75 100 125 171 215 271 350 393
#     4  11  26  45  65  94 139 184 219 267 315 392
#     4  11  22  37  64  96 126 172 224 270 322 389
#     4  10  22  41  62  91 136 175 215 266 326 377
#     4  12  27  43  67  97 132 175 228 271 329 397
#
# _framework density 22.765802999999998
#
# number of rings (size 3 to 8) (size 9 to 14) (size 15 to 20)
#    0.000    1.250    1.250    3.375    3.500   12.000 
#    0.000    3.750    0.000    0.000    0.000    0.000 
#    0.000    0.000    0.000    0.000    0.000    0.000 
#
# Total GULP energy -198272.735719 kJ/mol
# GULP energy per Si atom -12392.045982 kJ/mol
# Density = 2.271399 g / cm^3
# Si number density = 22.765803 Si / 1000 Ang^3
#
#
#
# Elastic Constant Matrix: (Units=GPa)
#
#
# Indices 1 2 3 4 5 6 
#
# 1 86.7996 26.1957 -2.9865 12.9492 6.7300 -7.7552
# 2 26.1957 34.5906 0.2923 15.0517 -19.9196 4.3186
# 3 -2.9865 0.2923 61.3680 -1.4071 2.8061 0.6207
# 4 12.9492 15.0517 -1.4071 36.9896 6.0554 1.6231
# 5 6.7300 -19.9196 2.8061 6.0554 25.2612 -0.7504
# 6 -7.7552 4.3186 0.6207 1.6231 -0.7504 21.0217
#
#
#
# Elastic Compliance Matrix: (Units=1/GPa)
#
#
# Indices 1 2 3 4 5 6 
#
# 1 -0.055916 0.203324 -0.014415 -0.094025 0.197953 -0.047647
# 2 0.203324 -0.601591 0.044365 0.265473 -0.592494 0.155641
# 3 -0.014415 0.044365 0.013174 -0.018779 0.041510 -0.011890
# 4 -0.094025 0.265473 -0.018779 -0.087382 0.255257 -0.072812
# 5 0.197953 -0.592494 0.041510 0.255257 -0.541571 0.154481
# 6 -0.047647 0.155641 -0.011890 -0.072812 0.154481 0.009505
#
#
# Mechanical properties :
#
#
# Convention : Reuss Voigt Hill
#
# Bulk Modulus (GPa) = -5.62481 25.52902 9.95211
# Shear Modulus (GPa) = -2.79393 27.27162 12.23884
#
# Velocity S-wave (km/s) = -1.10902 3.46485 2.32113
# Velocity P-wave (km/s) = 2.02879 5.21968 3.40067
#
# Compressibility (1/GPa) = -0.17778385
#
# Stress axis : x y z
#
# Youngs Moduli (GPa) = -17.88405 -1.66226 75.90766
#
# Poissons Ratio (x) = 0.33798 1.09422
# Poissons Ratio (y) = 3.63627 -3.36767
# Poissons Ratio (z) = -0.25780 0.07375
#
# Static dielectric constant tensor:
#      x y z
#    x 3.970820 -0.043690 0.060610 
#    y -0.043690 4.560900 0.024820 
#    z 0.060610 0.024820 4.001440 
# 
# 
# High freq. dielectric constant tensor:
#      x y z
#    x 1.889300 -0.000330 0.009640 
#    y -0.000330 1.916500 -0.006520 
#    z 0.009640 -0.006520 1.893890 
# 
# From -- ./inp_files/534478.got.cif
#   From: 2010.06.25/outbox.cif.g09.slc.cpg/sg2_268_cif.got.tgz:534478.got - 2010.06.27 13:26:56.
