data_PCOD8018422
_publ_section_title
;
Structure prediction by ZEFSAII (Michael W. Deem and Ramdas Pophale) SiO2 
 PCOD8018422
Probable space group: P -1
;
_chemical_formula_sum "Si O2"
_cell_formula_units_Z 16
_cell_length_a 11.749818
_cell_length_b 11.740932
_cell_length_c 12.726577
_cell_angle_alpha 137.139601
_cell_angle_beta 61.688231
_cell_angle_gamma 86.537411
_cell_volume 769.539458
_symmetry_space_group_name_H-M "P -1"
_symmetry_group_IT_number 2
_symmetry_cell_setting 'triclinic'
loop_
_space_group_symop_operation_xyz
x,y,z
-x,-y,-z
loop_
_atom_site_type_symbol
_atom_site_label
_atom_site_fract_x
_atom_site_fract_y
_atom_site_fract_z
Si Si1 0.817945 0.956397 0.524172
Si Si2 0.722716 0.412377 0.236377
Si Si3 0.109950 0.420695 0.629131
Si Si4 0.514369 0.837899 0.302211
Si Si5 0.721179 0.749011 0.953886
Si Si6 0.205726 0.682066 0.097272
Si Si7 0.606003 0.204089 0.247991
Si Si8 0.634186 0.731531 0.763414
O O1 0.794088 0.816780 0.515009
O O2 0.011159 0.782809 0.271353
O O3 0.679958 0.069118 0.564451
O O4 0.772210 0.162164 0.748511
O O5 0.863450 0.432228 0.217048
O O6 0.741540 0.236518 0.188688
O O7 0.520199 0.658516 0.501923
O O8 0.765018 0.311812 0.033855
O O9 0.189161 0.373625 0.446997
O O10 0.905595 0.553964 0.798081
O O11 0.500000 0.000000 0.500000
O O12 0.568391 0.862695 0.182219
O O13 0.650878 0.576807 0.101424
O O14 0.688938 0.644940 0.801852
O O15 0.718621 0.937322 0.033069
O O16 0.468898 0.326445 0.290560
O O17 0.500000 0.000000 0.000000
#
# Coordination Sequence:
#
# PCOD8018422 Si02
#       8
#     2   2   2   2   2   2   2   2
#     4  11  25  44  66  94 134 167 224 265 322 386
#     4  10  22  40  66  88 128 166 212 265 327 374
#     4  11  22  40  63  94 128 169 210 267 320 388
#     4  12  25  43  70  97 130 173 217 267 324 388
#     4  11  22  37  65  95 127 164 217 260 325 385
#     4  11  25  44  66  98 126 175 214 273 322 379
#     4   9  20  40  61  95 124 163 213 265 319 389
#     4   9  19  36  62  91 119 165 207 258 321 373
#
# _framework density 20.791654000000001
#
# number of rings (size 3 to 8) (size 9 to 14) (size 15 to 20)
#    0.000    1.500    1.250    4.500    7.000    1.500 
#    0.000    0.000    0.000    0.000    0.000    0.000 
#    0.000    0.000    0.000    0.000    0.000    0.000 
#
# Total GULP energy -198376.359250 kJ/mol
# GULP energy per Si atom -12398.522453 kJ/mol
# Density = 2.074433 g / cm^3
# Si number density = 20.791654 Si / 1000 Ang^3
#
#
#
# Elastic Constant Matrix: (Units=GPa)
#
#
# Indices 1 2 3 4 5 6 
#
# 1 107.5676 27.2587 47.7825 -1.7602 -2.6721 -7.5879
# 2 27.2587 70.3715 34.9317 -2.1107 3.8185 -0.2782
# 3 47.7825 34.9317 96.1048 -4.4868 8.5057 -17.5209
# 4 -1.7602 -2.1107 -4.4868 41.5463 -8.1559 4.6469
# 5 -2.6721 3.8185 8.5057 -8.1559 32.9565 2.6747
# 6 -7.5879 -0.2782 -17.5209 4.6469 2.6747 31.0951
#
#
#
# Elastic Compliance Matrix: (Units=1/GPa)
#
#
# Indices 1 2 3 4 5 6 
#
# 1 0.012422 -0.002107 -0.005743 0.000425 0.002882 -0.000535
# 2 -0.002107 0.018121 -0.006208 0.000557 -0.000213 -0.003915
# 3 -0.005743 -0.006208 0.017585 -0.000684 -0.005185 0.008999
# 4 0.000425 0.000557 -0.000684 0.025938 0.006951 -0.004751
# 5 0.002882 -0.000213 -0.005185 0.006951 0.034163 -0.006197
# 6 -0.000535 -0.003915 0.008999 -0.004751 -0.006197 0.038308
#
#
# Mechanical properties :
#
#
# Convention : Reuss Voigt Hill
#
# Bulk Modulus (GPa) = 49.96982 54.88773 52.42877
# Shear Modulus (GPa) = 27.57517 32.05764 29.81640
#
# Velocity S-wave (km/s) = 3.64574 3.93090 3.79100
# Velocity P-wave (km/s) = 6.46588 6.85995 6.66583
#
# Compressibility (1/GPa) = 0.02001208
#
# Stress axis : x y z
#
# Youngs Moduli (GPa) = 80.49979 55.18579 56.86706
#
# Poissons Ratio (x) = 0.11626 0.32661
# Poissons Ratio (y) = 0.16959 0.35302
# Poissons Ratio (z) = 0.46234 0.34258
#
# Static dielectric constant tensor:
#      x y z
#    x 4.142960 -0.121720 0.184100 
#    y -0.121720 3.621160 -0.122050 
#    z 0.184100 -0.122050 3.785380 
# 
# 
# High freq. dielectric constant tensor:
#      x y z
#    x 1.819640 0.003270 0.006210 
#    y 0.003270 1.801610 -0.008080 
#    z 0.006210 -0.008080 1.822540 
# 
# From -- ./inp_files/278737.got.cif
#   From: 2010.06.25/outbox.cif.g09.slc.cpg/sg2_140_cif.got.tgz:278737.got - 2010.06.27 13:26:56.
