data_PCOD8018696
_publ_section_title
;
Structure prediction by ZEFSAII (Michael W. Deem and Ramdas Pophale) SiO2 
 PCOD8018696
Probable space group: P -1
;
_chemical_formula_sum "Si O2"
_cell_formula_units_Z 16
_cell_length_a 5.418815
_cell_length_b 8.827368
_cell_length_c 18.256795
_cell_angle_alpha 117.746210
_cell_angle_beta 59.047900
_cell_angle_gamma 119.704368
_cell_volume 623.954777
_symmetry_space_group_name_H-M "P -1"
_symmetry_group_IT_number 2
_symmetry_cell_setting 'triclinic'
loop_
_space_group_symop_operation_xyz
x,y,z
-x,-y,-z
loop_
_atom_site_type_symbol
_atom_site_label
_atom_site_fract_x
_atom_site_fract_y
_atom_site_fract_z
Si Si1 0.300587 0.552412 0.267502
Si Si2 0.313204 0.650743 0.896445
Si Si3 0.305909 0.632745 0.059886
Si Si4 0.762496 0.924921 0.281984
Si Si5 0.403965 0.016763 0.172445
Si Si6 0.226473 0.078341 0.557933
Si Si7 0.406324 0.161599 0.368696
Si Si8 0.616907 0.536068 0.369401
O O1 0.392141 0.413131 0.169744
O O2 0.470026 0.759703 0.261034
O O3 0.408500 0.522305 0.326085
O O4 0.942689 0.509389 0.300392
O O5 0.016715 0.480279 0.877109
O O6 0.366977 0.834541 0.882499
O O7 0.256816 0.691986 0.998103
O O8 0.473951 0.825828 0.118726
O O9 0.500000 0.500000 0.000000
O O10 0.855293 0.873851 0.336305
O O11 0.045598 0.963984 0.190989
O O12 0.681961 0.109440 0.350449
O O13 0.414230 0.098972 0.269709
O O14 0.339389 0.278999 0.549287
O O15 0.500000 0.000000 0.500000
O O16 0.888013 0.939267 0.555187
O O17 0.435134 0.370954 0.413041
#
# Coordination Sequence:
#
# PCOD8018696 Si02
#       8
#     2   2   2   2   2   2   2   2
#     4  11  22  43  71  97 133 174 224 281 331 392
#     4  11  24  41  63  92 129 175 220 278 342 390
#     4  11  27  40  60  91 133 176 222 274 340 403
#     4  10  22  40  69  95 128 171 227 274 332 394
#     4  11  23  42  64  92 129 169 226 278 332 394
#     4  10  24  44  64  97 141 178 215 272 337 401
#     4  11  23  39  69  99 125 176 228 276 329 396
#     4  11  24  43  70 103 130 176 225 277 332 397
#
# _framework density 25.642883000000001
#
# number of rings (size 3 to 8) (size 9 to 14) (size 15 to 20)
#    0.000    1.250    3.750    1.125    5.250    2.500 
#    0.000    0.625    0.000    0.000    0.000    0.000 
#    0.000    0.000    0.000    0.000    0.000    0.000 
#
# Total GULP energy -198282.426032 kJ/mol
# GULP energy per Si atom -12392.651627 kJ/mol
# Density = 2.558452 g / cm^3
# Si number density = 25.642883 Si / 1000 Ang^3
#
#
#
# Elastic Constant Matrix: (Units=GPa)
#
#
# Indices 1 2 3 4 5 6 
#
# 1 66.5203 25.0764 16.9835 -3.2186 -19.3983 -7.8723
# 2 25.0764 224.5604 68.7880 3.7209 -2.7795 -11.5379
# 3 16.9835 68.7880 79.8281 -2.7914 -15.5935 -6.4598
# 4 -3.2186 3.7209 -2.7914 52.4980 -10.0278 -5.5009
# 5 -19.3983 -2.7795 -15.5935 -10.0278 46.1432 3.8033
# 6 -7.8723 -11.5379 -6.4598 -5.5009 3.8033 31.5593
#
#
#
# Elastic Compliance Matrix: (Units=1/GPa)
#
#
# Indices 1 2 3 4 5 6 
#
# 1 0.018702 -0.001683 -0.000581 0.003123 0.007953 0.003517
# 2 -0.001683 0.006400 -0.005633 -0.001257 -0.002570 0.000857
# 3 -0.000581 -0.005633 0.018941 0.002718 0.006294 0.001388
# 4 0.003123 -0.001257 0.002718 0.021097 0.006429 0.003778
# 5 0.007953 -0.002570 0.006294 0.006429 0.028382 0.000033
# 6 0.003517 0.000857 0.001388 0.003778 0.000033 0.033816
#
#
# Mechanical properties :
#
#
# Convention : Reuss Voigt Hill
#
# Bulk Modulus (GPa) = 35.39989 65.84497 50.62243
# Shear Modulus (GPa) = 32.77622 43.37749 38.07686
#
# Velocity S-wave (km/s) = 3.57904 4.11737 3.85761
# Velocity P-wave (km/s) = 5.56006 6.95249 6.29489
#
# Compressibility (1/GPa) = 0.02824868
#
# Stress axis : x y z
#
# Youngs Moduli (GPa) = 53.46881 156.25704 52.79440
#
# Poissons Ratio (x) = 0.26298 0.03069
# Poissons Ratio (y) = 0.08999 0.29740
# Poissons Ratio (z) = 0.03108 0.88021
#
# Static dielectric constant tensor:
#      x y z
#    x 4.649780 -0.019430 0.121620 
#    y -0.019430 5.252540 -0.072440 
#    z 0.121620 -0.072440 4.610480 
# 
# 
# High freq. dielectric constant tensor:
#      x y z
#    x 2.015510 -0.005720 0.004660 
#    y -0.005720 2.043550 -0.004310 
#    z 0.004660 -0.004310 2.029300 
# 
# From -- ./inp_files/44074.got.cif
#   From: 2010.06.25/outbox.cif.g09.slc.cpg/sg2_23_cif.got.tgz:44074.got - 2010.06.27 13:26:56.
