data_PCOD8018080
_publ_section_title
;
Structure prediction by ZEFSAII (Michael W. Deem and Ramdas Pophale) SiO2 
 PCOD8018080
Probable space group: P -1
;
_chemical_formula_sum "Si O2"
_cell_formula_units_Z 16
_cell_length_a 11.762576
_cell_length_b 12.175201
_cell_length_c 6.502675
_cell_angle_alpha 110.629820
_cell_angle_beta 75.388044
_cell_angle_gamma 102.613095
_cell_volume 834.689783
_symmetry_space_group_name_H-M "P -1"
_symmetry_group_IT_number 2
_symmetry_cell_setting 'triclinic'
loop_
_space_group_symop_operation_xyz
x,y,z
-x,-y,-z
loop_
_atom_site_type_symbol
_atom_site_label
_atom_site_fract_x
_atom_site_fract_y
_atom_site_fract_z
Si Si1 0.533926 0.391966 0.771614
Si Si2 0.117687 0.474554 0.329077
Si Si3 0.141407 0.118493 0.353543
Si Si4 0.698371 0.719678 0.349838
Si Si5 0.100293 0.213981 0.021419
Si Si6 0.313756 0.531737 0.610678
Si Si7 0.081011 0.850621 0.271971
Si Si8 0.247304 0.655473 0.105884
O O1 0.427257 0.282512 0.711907
O O2 0.564415 0.441582 0.558525
O O3 0.639030 0.332170 0.787354
O O4 0.500000 0.500000 0.000000
O O5 0.105555 0.335867 0.217613
O O6 0.216901 0.519953 0.473819
O O7 0.150028 0.543391 0.144781
O O8 0.000000 0.500000 0.500000
O O9 0.268589 0.197339 0.409640
O O10 0.126797 0.116895 0.112630
O O11 0.027676 0.173024 0.532527
O O12 0.142932 0.986095 0.347081
O O13 0.696973 0.582705 0.316069
O O14 0.798849 0.775314 0.186340
O O15 0.971958 0.177833 0.951094
O O16 0.292820 0.639095 0.842459
O O17 0.183085 0.771742 0.225941
#
# Coordination Sequence:
#
# PCOD8018080 Si02
#       8
#     2   2   2   2   2   2   2   2
#     4  11  23  38  59  89 118 154 192 237 296 354
#     4  11  21  31  53  88 121 151 181 233 296 351
#     4  10  22  40  62  83 117 156 199 240 277 340
#     4  11  21  36  60  87 109 151 201 235 287 343
#     4  11  20  35  59  86 114 147 195 239 285 345
#     4  11  21  36  56  87 120 152 188 237 296 348
#     4  10  23  40  58  86 117 160 195 232 289 346
#     4  11  23  37  56  87 125 151 190 240 294 348
#
# _framework density 19.168799
#
# number of rings (size 3 to 8) (size 9 to 14) (size 15 to 20)
#    0.000    1.250    3.750    3.000    1.750    2.000 
#    0.000    0.625    0.000    1.500    0.000    0.000 
#    0.000    0.000    0.000    0.000    0.000    0.000 
#
# Total GULP energy -198316.260894 kJ/mol
# GULP energy per Si atom -12394.766306 kJ/mol
# Density = 1.912517 g / cm^3
# Si number density = 19.168799 Si / 1000 Ang^3
#
#
#
# Elastic Constant Matrix: (Units=GPa)
#
#
# Indices 1 2 3 4 5 6 
#
# 1 73.8784 16.9952 42.2769 61.2399 0.1304 34.0868
# 2 16.9952 54.6530 31.3522 36.3068 -8.7645 12.6577
# 3 42.2769 31.3522 87.0975 -25.1260 3.1081 -15.9505
# 4 61.2399 36.3068 -25.1260 -41.2873 16.6874 -37.2240
# 5 0.1304 -8.7645 3.1081 16.6874 27.8126 9.4504
# 6 34.0868 12.6577 -15.9505 -37.2240 9.4504 2.1224
#
#
#
# Elastic Compliance Matrix: (Units=1/GPa)
#
#
# Indices 1 2 3 4 5 6 
#
# 1 0.010554 -0.007993 -0.000272 0.005549 -0.006152 0.000838
# 2 -0.007993 0.019709 -0.001639 0.001308 0.003211 0.007168
# 3 -0.000272 -0.001639 0.010250 -0.004809 0.002133 -0.002674
# 4 0.005549 0.001308 -0.004809 0.007291 0.003286 -0.019826
# 5 -0.006152 0.003211 0.002133 0.003286 0.033748 0.003055
# 6 0.000838 0.007168 -0.002674 -0.019826 0.003055 0.033535
#
#
# Mechanical properties :
#
#
# Convention : Reuss Voigt Hill
#
# Bulk Modulus (GPa) = 48.29785 44.09750 46.19768
# Shear Modulus (GPa) = 35.26170 6.06318 20.66244
#
# Velocity S-wave (km/s) = 4.29363 1.78043 3.28673
# Velocity P-wave (km/s) = 7.05912 5.22315 6.20937
#
# Compressibility (1/GPa) = 0.02070486
#
# Stress axis : x y z
#
# Youngs Moduli (GPa) = 94.74721 50.73864 97.55963
#
# Poissons Ratio (x) = 0.40557 0.02653
# Poissons Ratio (y) = 0.75734 0.15991
# Poissons Ratio (z) = 0.02576 0.08317
#
# Static dielectric constant tensor:
#      x y z
#    x 3.567940 0.080100 0.179740 
#    y 0.080100 3.304940 -0.154800 
#    z 0.179740 -0.154800 3.581920 
# 
# 
# High freq. dielectric constant tensor:
#      x y z
#    x 1.747270 0.008050 0.014460 
#    y 0.008050 1.725160 -0.014920 
#    z 0.014460 -0.014920 1.753410 
# 
# From -- ./inp_files/66203.got.cif
#   From: 2010.06.25/outbox.cif.g09.slc.cpg/sg2_34_cif.got.tgz:66203.got - 2010.06.27 13:26:56.
