data_PCOD8018426
_publ_section_title
;
Structure prediction by ZEFSAII (Michael W. Deem and Ramdas Pophale) SiO2 
 PCOD8018426
Probable space group: P -1
;
_chemical_formula_sum "Si O2"
_cell_formula_units_Z 16
_cell_length_a 11.266993
_cell_length_b 14.160505
_cell_length_c 8.578506
_cell_angle_alpha 41.185075
_cell_angle_beta 63.890661
_cell_angle_gamma 48.240277
_cell_volume 667.060707
_symmetry_space_group_name_H-M "P -1"
_symmetry_group_IT_number 2
_symmetry_cell_setting 'triclinic'
loop_
_space_group_symop_operation_xyz
x,y,z
-x,-y,-z
loop_
_atom_site_type_symbol
_atom_site_label
_atom_site_fract_x
_atom_site_fract_y
_atom_site_fract_z
Si Si1 0.362218 0.953437 0.968100
Si Si2 0.982591 0.891347 0.960333
Si Si3 0.778810 0.114895 0.382015
Si Si4 0.533140 0.292150 0.046245
Si Si5 0.211943 0.615996 0.748664
Si Si6 0.899612 0.759710 0.894413
Si Si7 0.754655 0.373927 0.647178
Si Si8 0.670522 0.733286 0.251804
O O1 0.318122 0.148634 0.770800
O O2 0.200775 0.955171 0.080620
O O3 0.433284 0.880452 0.845766
O O4 0.486900 0.829328 0.183273
O O5 0.074298 0.793535 0.188261
O O6 0.076665 0.963912 0.730885
O O7 0.985356 0.754472 0.012304
O O8 0.803782 0.217091 0.374167
O O9 0.783513 0.957414 0.654171
O O10 0.607556 0.242586 0.237784
O O11 0.344745 0.440391 0.981395
O O12 0.608695 0.369365 0.799210
O O13 0.255661 0.605863 0.556740
O O14 0.041523 0.637128 0.842434
O O15 0.782251 0.699688 0.076676
O O16 0.729739 0.547826 0.520259
#
# Coordination Sequence:
#
# PCOD8018426 Si02
#       8
#     2   2   2   2   2   2   2   2
#     4  10  22  40  66  90 127 159 211 259 304 366
#     4   9  21  40  65  96 118 160 212 263 304 359
#     4  10  23  41  65  92 129 163 209 255 315 365
#     4  11  24  40  66  99 120 161 214 263 306 361
#     4  11  22  39  64  95 127 165 201 264 309 369
#     4  10  23  41  63  87 131 171 205 245 318 376
#     4  11  24  38  67  99 124 156 214 260 315 358
#     4  10  23  43  62  93 127 169 200 258 316 371
#
# _framework density 23.985823
#
# number of rings (size 3 to 8) (size 9 to 14) (size 15 to 20)
#    0.000    1.750    1.250    2.250    7.000    4.500 
#    0.000    1.875    8.250    0.000    0.000    0.000 
#    0.000    0.000    0.000    0.000    0.000    0.000 
#
# Total GULP energy -198421.822604 kJ/mol
# GULP energy per Si atom -12401.363913 kJ/mol
# Density = 2.393123 g / cm^3
# Si number density = 23.985823 Si / 1000 Ang^3
#
#
#
# Elastic Constant Matrix: (Units=GPa)
#
#
# Indices 1 2 3 4 5 6 
#
# 1 78.2835 15.7785 43.2911 -4.1651 12.6968 -16.2547
# 2 15.7785 77.7066 26.0320 -12.2748 -6.3470 -15.7745
# 3 43.2911 26.0320 73.5148 -6.8359 12.0270 -6.6406
# 4 -4.1651 -12.2748 -6.8359 19.0401 6.4600 12.9594
# 5 12.6968 -6.3470 12.0270 6.4600 32.8960 -5.5034
# 6 -16.2547 -15.7745 -6.6406 12.9594 -5.5034 38.2696
#
#
#
# Elastic Compliance Matrix: (Units=1/GPa)
#
#
# Indices 1 2 3 4 5 6 
#
# 1 0.021050 0.000669 -0.012099 -0.004702 -0.001221 0.008534
# 2 0.000669 0.017104 -0.006638 0.002544 0.006004 0.006185
# 3 -0.012099 -0.006638 0.024846 0.011030 -0.009306 -0.008637
# 4 -0.004702 0.002544 0.011030 0.087075 -0.024180 -0.031998
# 5 -0.001221 0.006004 -0.009306 -0.024180 0.042632 0.014660
# 6 0.008534 0.006185 -0.008637 -0.031998 0.014660 0.043750
#
#
# Mechanical properties :
#
#
# Convention : Reuss Voigt Hill
#
# Bulk Modulus (GPa) = 37.22424 44.41200 40.81812
# Shear Modulus (GPa) = 17.75897 27.66805 22.71351
#
# Velocity S-wave (km/s) = 2.72397 3.40003 3.08060
# Velocity P-wave (km/s) = 5.04443 5.82836 5.45051
#
# Compressibility (1/GPa) = 0.02686422
#
# Stress axis : x y z
#
# Youngs Moduli (GPa) = 47.50587 58.46426 40.24778
#
# Poissons Ratio (x) = -0.03911 0.48697
# Poissons Ratio (y) = -0.03178 0.26716
# Poissons Ratio (z) = 0.57479 0.38807
#
# Static dielectric constant tensor:
#      x y z
#    x 4.424200 -0.135980 0.008960 
#    y -0.135980 4.485450 -0.055930 
#    z 0.008960 -0.055930 4.005160 
# 
# 
# High freq. dielectric constant tensor:
#      x y z
#    x 1.951940 -0.006300 0.009240 
#    y -0.006300 1.957150 -0.007540 
#    z 0.009240 -0.007540 1.925040 
# 
# From -- ./inp_files/271509.got.cif
#   From: 2010.06.25/outbox.cif.g09.slc.cpg/sg2_136_cif.got.tgz:271509.got - 2010.06.27 13:26:56.
