data_PCOD8018444
_publ_section_title
;
Structure prediction by ZEFSAII (Michael W. Deem and Ramdas Pophale) SiO2 
 PCOD8018444
Probable space group: P -1
;
_chemical_formula_sum "Si O2"
_cell_formula_units_Z 16
_cell_length_a 11.428349
_cell_length_b 12.113330
_cell_length_c 21.783904
_cell_angle_alpha 148.761464
_cell_angle_beta 28.240023
_cell_angle_gamma 141.743512
_cell_volume 733.678970
_symmetry_space_group_name_H-M "P -1"
_symmetry_group_IT_number 2
_symmetry_cell_setting 'triclinic'
loop_
_space_group_symop_operation_xyz
x,y,z
-x,-y,-z
loop_
_atom_site_type_symbol
_atom_site_label
_atom_site_fract_x
_atom_site_fract_y
_atom_site_fract_z
Si Si1 0.303706 0.352441 0.979939
Si Si2 0.489709 0.620158 0.916768
Si Si3 0.445988 0.907329 0.665077
Si Si4 0.837650 0.831228 0.536370
Si Si5 0.026485 0.387268 0.236285
Si Si6 0.614162 0.862567 0.433593
Si Si7 0.714786 0.544488 0.650694
Si Si8 0.186663 0.998818 0.237517
O O1 0.281542 0.455588 0.971358
O O2 0.402990 0.126332 0.821323
O O3 0.500000 0.500000 0.000000
O O4 0.041940 0.340976 0.133254
O O5 0.584205 0.508766 0.760067
O O6 0.723105 0.674549 0.879345
O O7 0.375476 0.833645 0.053385
O O8 0.587076 0.768852 0.582610
O O9 0.185720 0.767015 0.704781
O O10 0.589007 0.958085 0.558858
O O11 0.985184 0.630604 0.385209
O O12 0.781612 0.943585 0.678649
O O13 0.000000 0.000000 0.500000
O O14 0.464853 0.620538 0.387757
O O15 0.909566 0.884053 0.294084
O O16 0.500000 0.000000 0.500000
O O17 0.000000 0.500000 0.500000
O O18 0.723551 0.788085 0.741073
#
# Coordination Sequence:
#
# PCOD8018444 Si02
#       8
#     2   2   2   2   2   2   2   2
#     4  10  22  40  66  93 134 181 217 273 346 408
#     4  11  24  47  67  99 142 182 227 282 357 409
#     4  12  24  43  69 103 137 177 235 289 341 417
#     4  12  22  42  71  99 138 179 229 282 350 409
#     4  11  24  41  69 104 138 181 228 289 348 414
#     4  12  26  44  73 105 136 185 240 283 346 415
#     4  12  25  47  73 100 138 182 235 287 345 411
#     4  12  26  45  72 102 141 183 232 290 346 415
#
# _framework density 21.807903
#
# number of rings (size 3 to 8) (size 9 to 14) (size 15 to 20)
#    0.000    0.500    2.500    7.875    0.000    0.500 
#    2.250    0.000    0.000    0.000    0.000    0.000 
#    0.000    0.000    0.000    0.000    0.000    0.000 
#
# Total GULP energy -198393.988688 kJ/mol
# GULP energy per Si atom -12399.624293 kJ/mol
# Density = 2.175827 g / cm^3
# Si number density = 21.807903 Si / 1000 Ang^3
#
#
#
# Elastic Constant Matrix: (Units=GPa)
#
#
# Indices 1 2 3 4 5 6 
#
# 1 93.7037 20.4733 30.3760 -0.3810 -6.5782 -1.3008
# 2 20.4733 103.6777 25.4976 9.6769 -8.9599 3.4851
# 3 30.3760 25.4976 119.8203 7.4905 -1.4403 -0.4585
# 4 -0.3810 9.6769 7.4905 34.9208 -13.1966 3.9042
# 5 -6.5782 -8.9599 -1.4403 -13.1966 44.7243 -3.8754
# 6 -1.3008 3.4851 -0.4585 3.9042 -3.8754 36.9235
#
#
#
# Elastic Compliance Matrix: (Units=1/GPa)
#
#
# Indices 1 2 3 4 5 6 
#
# 1 0.012108 -0.001730 -0.002794 0.001885 0.001949 0.000560
# 2 -0.001730 0.010727 -0.001701 -0.002107 0.001153 -0.000751
# 3 -0.002794 -0.001701 0.009531 -0.002019 -0.001016 0.000287
# 4 0.001885 -0.002107 -0.002019 0.033514 0.009479 -0.002309
# 5 0.001949 0.001153 -0.001016 0.009479 0.025784 0.001651
# 6 0.000560 -0.000751 0.000287 -0.002309 0.001651 0.027595
#
#
# Mechanical properties :
#
#
# Convention : Reuss Voigt Hill
#
# Bulk Modulus (GPa) = 50.21169 52.21061 51.21115
# Shear Modulus (GPa) = 36.14088 39.37070 37.75579
#
# Velocity S-wave (km/s) = 4.07534 4.25354 4.16539
# Velocity P-wave (km/s) = 6.72451 6.93661 6.83138
#
# Compressibility (1/GPa) = 0.01991568
#
# Stress axis : x y z
#
# Youngs Moduli (GPa) = 82.59129 93.22372 104.91847
#
# Poissons Ratio (x) = 0.16130 0.29309
# Poissons Ratio (y) = 0.14290 0.17850
# Poissons Ratio (z) = 0.23072 0.15861
#
# Static dielectric constant tensor:
#      x y z
#    x 3.134500 -0.075560 0.557040 
#    y -0.075560 4.311580 -0.377010 
#    z 0.557040 -0.377010 3.806560 
# 
# 
# High freq. dielectric constant tensor:
#      x y z
#    x 1.850210 -0.011290 0.006110 
#    y -0.011290 1.868620 -0.007780 
#    z 0.006110 -0.007780 1.867750 
# 
# From -- ./inp_files/259010.got.cif
#   From: 2010.06.25/outbox.cif.g09.slc.cpg/sg2_130_cif.got.tgz:259010.got - 2010.06.27 13:26:56.
