data_PCOD8018960
_publ_section_title
;
Structure prediction by ZEFSAII (Michael W. Deem and Ramdas Pophale) SiO2 
 PCOD8018960
Probable space group: P -1
;
_chemical_formula_sum "Si O2"
_cell_formula_units_Z 12
_cell_length_a 15.318068
_cell_length_b 6.489295
_cell_length_c 7.374031
_cell_angle_alpha 86.302410
_cell_angle_beta 71.771666
_cell_angle_gamma 39.773344
_cell_volume 426.332606
_symmetry_space_group_name_H-M "P -1"
_symmetry_group_IT_number 2
_symmetry_cell_setting 'triclinic'
loop_
_space_group_symop_operation_xyz
x,y,z
-x,-y,-z
loop_
_atom_site_type_symbol
_atom_site_label
_atom_site_fract_x
_atom_site_fract_y
_atom_site_fract_z
Si Si1 0.524500 0.734017 0.303995
Si Si2 0.679734 0.624613 0.888077
Si Si3 0.245067 0.599894 0.547781
Si Si4 0.126295 0.402912 0.067022
Si Si5 0.965466 0.869134 0.850341
Si Si6 0.288991 0.944125 0.646416
O O1 0.636560 0.676877 0.355983
O O2 0.355218 0.015780 0.476094
O O3 0.582126 0.393127 0.292599
O O4 0.525635 0.832440 0.092058
O O5 0.665833 0.606443 0.685172
O O6 0.801896 0.258101 0.921932
O O7 0.742163 0.743593 0.883709
O O8 0.213769 0.902939 0.567189
O O9 0.086730 0.764005 0.648122
O O10 0.006643 0.791440 0.048270
O O11 0.174790 0.250714 0.839812
O O12 0.054077 0.329443 0.209483
#
# Coordination Sequence:
#
# PCOD8018960 Si02
#       6
#     2   2   2   2   2   2
#     4   9  20  42  65  84 127 158 204 251 303 357
#     4  12  23  41  64  93 124 162 200 254 306 358
#     4  10  22  41  63  91 125 163 197 251 312 354
#     4  11  23  38  69  87 123 167 202 248 306 360
#     4  11  23  40  60  93 129 158 202 250 306 365
#     4   9  20  42  64  89 119 165 203 249 304 358
#
# _framework density 28.147040000000001
#
# number of rings (size 3 to 8) (size 9 to 14) (size 15 to 20)
#    1.000    0.667    3.333    1.000    4.667    2.000 
#    3.000    0.833    0.000    0.000    0.000    0.000 
#    0.000    0.000    0.000    0.000    0.000    0.000 
#
# Total GULP energy -148753.136309 kJ/mol
# GULP energy per Si atom -12396.094692 kJ/mol
# Density = 2.808298 g / cm^3
# Si number density = 28.147040 Si / 1000 Ang^3
#
#
#
# Elastic Constant Matrix: (Units=GPa)
#
#
# Indices 1 2 3 4 5 6 
#
# 1 152.0391 27.3079 72.4861 -15.4454 -11.7655 27.8639
# 2 27.3079 64.7840 36.6043 -15.8988 -2.2389 9.0343
# 3 72.4861 36.6043 182.1151 -14.0067 -5.3665 18.7731
# 4 -15.4454 -15.8988 -14.0067 48.6309 0.7297 -1.1540
# 5 -11.7655 -2.2389 -5.3665 0.7297 53.9809 -5.9609
# 6 27.8639 9.0343 18.7731 -1.1540 -5.9609 33.6060
#
#
#
# Elastic Compliance Matrix: (Units=1/GPa)
#
#
# Indices 1 2 3 4 5 6 
#
# 1 0.009396 -0.001164 -0.002761 0.001658 0.001075 -0.005688
# 2 -0.001164 0.019039 -0.002725 0.005012 -0.000076 -0.002472
# 3 -0.002761 -0.002725 0.007265 0.000302 -0.000112 -0.001047
# 4 0.001658 0.005012 0.000302 0.022764 0.000060 -0.002098
# 5 0.001075 -0.000076 -0.000112 0.000060 0.019028 0.002569
# 6 -0.005688 -0.002472 -0.001047 -0.002098 0.002569 0.036106
#
#
# Mechanical properties :
#
#
# Convention : Reuss Voigt Hill
#
# Bulk Modulus (GPa) = 44.64105 74.63720 59.63912
# Shear Modulus (GPa) = 37.21210 44.74622 40.97916
#
# Velocity S-wave (km/s) = 3.63996 3.99147 3.81976
# Velocity P-wave (km/s) = 5.79311 6.91498 6.37875
#
# Compressibility (1/GPa) = 0.02240091
#
# Stress axis : x y z
#
# Youngs Moduli (GPa) = 106.42275 52.52510 137.63930
#
# Poissons Ratio (x) = 0.06113 0.37996
# Poissons Ratio (y) = 0.12386 0.37511
# Poissons Ratio (z) = 0.29379 0.14315
#
# Static dielectric constant tensor:
#      x y z
#    x 5.119130 0.104180 -0.309710 
#    y 0.104180 5.676880 0.220230 
#    z -0.309710 0.220230 4.866550 
# 
# 
# High freq. dielectric constant tensor:
#      x y z
#    x 2.136890 0.010580 -0.027230 
#    y 0.010580 2.174570 0.016690 
#    z -0.027230 0.016690 2.124500 
# 
# From -- ./inp_files/287985.got.cif
#   From: 2010.06.25/outbox.cif.g09.slc.cpg/sg2_144_cif.got.tgz:287985.got - 2010.06.27 13:26:56.
