data_PCOD8018710
_publ_section_title
;
Structure prediction by ZEFSAII (Michael W. Deem and Ramdas Pophale) SiO2 
 PCOD8018710
Probable space group: P -1
;
_chemical_formula_sum "Si O2"
_cell_formula_units_Z 14
_cell_length_a 10.732752
_cell_length_b 9.840412
_cell_length_c 9.453689
_cell_angle_alpha 133.187449
_cell_angle_beta 63.157022
_cell_angle_gamma 101.250450
_cell_volume 639.505681
_symmetry_space_group_name_H-M "P -1"
_symmetry_group_IT_number 2
_symmetry_cell_setting 'triclinic'
loop_
_space_group_symop_operation_xyz
x,y,z
-x,-y,-z
loop_
_atom_site_type_symbol
_atom_site_label
_atom_site_fract_x
_atom_site_fract_y
_atom_site_fract_z
Si Si1 0.652130 0.490715 0.485953
Si Si2 0.812144 0.562931 0.937048
Si Si3 0.790033 0.323684 0.037483
Si Si4 0.504187 0.816845 0.956478
Si Si5 0.966706 0.916668 0.108396
Si Si6 0.519975 0.813307 0.264222
Si Si7 0.754910 0.277588 0.547313
O O1 0.500000 0.500000 0.500000
O O2 0.765411 0.474621 0.288675
O O3 0.704660 0.312326 0.435205
O O4 0.639602 0.673439 0.722559
O O5 0.826777 0.444072 0.698000
O O6 0.861421 0.418758 0.938936
O O7 0.908202 0.721574 0.980317
O O8 0.654317 0.661180 0.133991
O O9 0.641568 0.263868 0.028954
O O10 0.894176 0.133793 0.900593
O O11 0.542748 0.869198 0.131452
O O12 0.500000 0.000000 0.000000
O O13 0.856217 0.074349 0.359832
O O14 0.000000 0.000000 0.000000
O O15 0.382086 0.718101 0.281062
O O16 0.500000 0.000000 0.500000
#
# Coordination Sequence:
#
# PCOD8018710 Si02
#       7
#     2   2   2   2   2   2   2
#     4  10  22  40  69  97 141 179 222 289 353 406
#     4  12  26  47  74 104 143 185 239 296 355 419
#     4  11  25  48  68 102 144 184 236 289 353 424
#     4  11  25  41  70 109 140 181 236 294 354 420
#     4  12  28  48  72 101 143 192 241 285 350 435
#     4  12  24  42  73 105 140 180 233 295 357 408
#     4  12  24  47  71 104 140 188 236 292 356 420
#
# _framework density 21.891909999999999
#
# number of rings (size 3 to 8) (size 9 to 14) (size 15 to 20)
#    0.000    0.571    5.714    2.571    8.000    1.143 
#    2.571    0.000    0.000    0.000    0.000    0.000 
#    0.000    0.000    0.000    0.000    0.000    0.000 
#
# Total GULP energy -173585.274592 kJ/mol
# GULP energy per Si atom -12398.948185 kJ/mol
# Density = 2.184208 g / cm^3
# Si number density = 21.891910 Si / 1000 Ang^3
#
#
#
# Elastic Constant Matrix: (Units=GPa)
#
#
# Indices 1 2 3 4 5 6 
#
# 1 62.4555 31.1537 41.0609 6.1374 -2.0293 -19.1046
# 2 31.1537 138.5309 29.1507 -5.3874 9.8548 -15.9810
# 3 41.0609 29.1507 96.6743 1.3854 18.8427 -13.2468
# 4 6.1374 -5.3874 1.3854 39.4265 -3.8845 4.1173
# 5 -2.0293 9.8548 18.8427 -3.8845 39.1851 3.8851
# 6 -19.1046 -15.9810 -13.2468 4.1173 3.8851 47.0146
#
#
#
# Elastic Compliance Matrix: (Units=1/GPa)
#
#
# Indices 1 2 3 4 5 6 
#
# 1 0.027859 -0.003817 -0.010963 -0.004537 0.006552 0.006790
# 2 -0.003817 0.008512 -0.000370 0.001424 -0.002147 0.001291
# 3 -0.010963 -0.000370 0.016928 0.000111 -0.008693 0.000897
# 4 -0.004537 0.001424 0.000111 0.026903 0.002405 -0.003883
# 5 0.006552 -0.002147 -0.008693 0.002405 0.031145 -0.003301
# 6 0.006790 0.001291 0.000897 -0.003883 -0.003301 0.025333
#
#
# Mechanical properties :
#
#
# Convention : Reuss Voigt Hill
#
# Bulk Modulus (GPa) = 43.48423 55.59905 49.54164
# Shear Modulus (GPa) = 28.62913 38.21158 33.42036
#
# Velocity S-wave (km/s) = 3.62020 4.18241 3.91142
# Velocity P-wave (km/s) = 6.11398 6.98395 6.56340
#
# Compressibility (1/GPa) = 0.02299684
#
# Stress axis : x y z
#
# Youngs Moduli (GPa) = 35.89524 117.48103 59.07464
#
# Poissons Ratio (x) = 0.44846 0.64764
# Poissons Ratio (y) = 0.13702 0.02188
# Poissons Ratio (z) = 0.39352 0.04352
#
# Static dielectric constant tensor:
#      x y z
#    x 4.265070 -0.106490 -0.047710 
#    y -0.106490 3.972130 -0.033250 
#    z -0.047710 -0.033250 4.359110 
# 
# 
# High freq. dielectric constant tensor:
#      x y z
#    x 1.854630 -0.020850 -0.001620 
#    y -0.020850 1.861690 -0.000720 
#    z -0.001620 -0.000720 1.875020 
# 
# From -- ./inp_files/177014.got.cif
#   From: 2010.06.25/outbox.cif.g09.slc.cpg/sg2_89_cif.got.tgz:177014.got - 2010.06.27 13:26:56.
