data_PCOD8018267
_publ_section_title
;
Structure prediction by ZEFSAII (Michael W. Deem and Ramdas Pophale) SiO2 
 PCOD8018267
Probable space group: P -1
;
_chemical_formula_sum "Si O2"
_cell_formula_units_Z 16
_cell_length_a 10.722341
_cell_length_b 11.890250
_cell_length_c 6.742475
_cell_angle_alpha 73.080274
_cell_angle_beta 80.664135
_cell_angle_gamma 61.974421
_cell_volume 725.631146
_symmetry_space_group_name_H-M "P -1"
_symmetry_group_IT_number 2
_symmetry_cell_setting 'triclinic'
loop_
_space_group_symop_operation_xyz
x,y,z
-x,-y,-z
loop_
_atom_site_type_symbol
_atom_site_label
_atom_site_fract_x
_atom_site_fract_y
_atom_site_fract_z
Si Si1 0.784182 0.038268 0.568473
Si Si2 0.050434 0.914340 0.831402
Si Si3 0.109730 0.620999 0.924198
Si Si4 0.479209 0.009382 0.233626
Si Si5 0.430735 0.686099 0.443546
Si Si6 0.939995 0.564449 0.688302
Si Si7 0.420891 0.483761 0.838913
Si Si8 0.625034 0.774251 0.574980
O O1 0.833522 0.049611 0.324303
O O2 0.714127 0.182935 0.605688
O O3 0.666892 0.985631 0.644651
O O4 0.918000 0.946689 0.708158
O O5 0.110921 0.756545 0.928852
O O6 0.000000 0.000000 0.000000
O O7 0.268378 0.503207 0.934649
O O8 0.029640 0.633829 0.728440
O O9 0.038207 0.564808 0.129198
O O10 0.466701 0.147853 0.246800
O O11 0.612236 0.884017 0.357094
O O12 0.500000 0.000000 0.000000
O O13 0.390202 0.582564 0.611757
O O14 0.485535 0.656294 0.217190
O O15 0.550860 0.690439 0.551155
O O16 0.783290 0.679590 0.642584
O O17 0.000000 0.500000 0.500000
O O18 0.500000 0.500000 0.000000
#
# Coordination Sequence:
#
# PCOD8018267 Si02
#       8
#     2   2   2   2   2   2   2   2
#     4  10  23  42  63  97 131 171 223 276 323 401
#     4  11  25  43  67  93 135 180 224 274 332 400
#     4  11  25  44  64 101 129 173 232 267 331 409
#     4  10  23  41  70  98 137 174 223 280 333 402
#     4  10  22  40  64  93 130 161 212 273 328 384
#     4  11  25  43  69  93 137 174 217 280 332 398
#     4  11  23  39  65  93 127 169 213 269 327 396
#     4  10  22  42  65 100 130 175 220 271 337 392
#
# _framework density 22.049772999999998
#
# number of rings (size 3 to 8) (size 9 to 14) (size 15 to 20)
#    0.000    1.500    1.250    2.250    1.750   14.000 
#    0.000    0.000    0.000    0.000    0.000    0.000 
#    0.000    0.000    0.000    0.000    0.000    0.000 
#
# Total GULP energy -198282.490105 kJ/mol
# GULP energy per Si atom -12392.655632 kJ/mol
# Density = 2.199959 g / cm^3
# Si number density = 22.049773 Si / 1000 Ang^3
#
#
#
# Elastic Constant Matrix: (Units=GPa)
#
#
# Indices 1 2 3 4 5 6 
#
# 1 91.7964 15.8115 32.2579 8.9601 1.9653 -3.8571
# 2 15.8115 99.4722 51.8152 23.7905 -3.5552 -7.6539
# 3 32.2579 51.8152 129.2790 31.7571 -1.3981 3.7051
# 4 8.9601 23.7905 31.7571 44.2949 -3.8831 8.0042
# 5 1.9653 -3.5552 -1.3981 -3.8831 31.3099 -3.1758
# 6 -3.8571 -7.6539 3.7051 8.0042 -3.1758 37.2177
#
#
#
# Elastic Compliance Matrix: (Units=1/GPa)
#
#
# Indices 1 2 3 4 5 6 
#
# 1 0.012068 -0.000198 -0.002822 -0.000667 -0.000830 0.001563
# 2 -0.000198 0.013980 -0.004445 -0.004982 0.001237 0.004474
# 3 -0.002822 -0.004445 0.011506 -0.005107 -0.000579 -0.001303
# 4 -0.000667 -0.004982 -0.005107 0.030507 0.002327 -0.006948
# 5 -0.000830 0.001237 -0.000579 0.002327 0.032649 0.002512
# 6 0.001563 0.004474 -0.001303 -0.006948 0.002512 0.029789
#
#
# Mechanical properties :
#
#
# Convention : Reuss Voigt Hill
#
# Bulk Modulus (GPa) = 44.19986 57.81298 51.00642
# Shear Modulus (GPa) = 32.68613 37.27538 34.98075
#
# Velocity S-wave (km/s) = 3.85434 4.11604 3.98734
# Velocity P-wave (km/s) = 6.31641 6.99037 6.66192
#
# Compressibility (1/GPa) = 0.02262451
#
# Stress axis : x y z
#
# Youngs Moduli (GPa) = 82.86414 71.53201 86.90922
#
# Poissons Ratio (x) = 0.01418 0.24523
# Poissons Ratio (y) = 0.01643 0.38629
# Poissons Ratio (z) = 0.23382 0.31794
#
# Static dielectric constant tensor:
#      x y z
#    x 3.917750 0.027230 -0.080020 
#    y 0.027230 4.217070 0.154870 
#    z -0.080020 0.154870 3.989200 
# 
# 
# High freq. dielectric constant tensor:
#      x y z
#    x 1.864180 -0.005160 0.003900 
#    y -0.005160 1.881400 0.003630 
#    z 0.003900 0.003630 1.869250 
# 
# From -- ./inp_files/69859.got.cif
#   From: 2010.06.25/outbox.cif.g09.slc.cpg/sg2_35_cif.got.tgz:69859.got - 2010.06.27 13:26:56.
