data_PCOD8018807
_publ_section_title
;
Structure prediction by ZEFSAII (Michael W. Deem and Ramdas Pophale) SiO2 
 PCOD8018807
Probable space group: P -1
;
_chemical_formula_sum "Si O2"
_cell_formula_units_Z 12
_cell_length_a 17.079574
_cell_length_b 8.636865
_cell_length_c 11.280439
_cell_angle_alpha 139.079593
_cell_angle_beta 41.607782
_cell_angle_gamma 152.082073
_cell_volume 492.640908
_symmetry_space_group_name_H-M "P -1"
_symmetry_group_IT_number 2
_symmetry_cell_setting 'triclinic'
loop_
_space_group_symop_operation_xyz
x,y,z
-x,-y,-z
loop_
_atom_site_type_symbol
_atom_site_label
_atom_site_fract_x
_atom_site_fract_y
_atom_site_fract_z
Si Si1 0.198613 0.220324 0.887540
Si Si2 0.473820 0.447983 0.860884
Si Si3 0.983766 0.305916 0.791893
Si Si4 0.799273 0.185166 0.519959
Si Si5 0.246794 0.487717 0.429184
Si Si6 0.711300 0.133617 0.847465
O O1 0.271992 0.175828 0.892174
O O2 0.233367 0.118537 0.673564
O O3 0.311579 0.620088 0.971876
O O4 0.000000 0.000000 0.000000
O O5 0.561878 0.332154 0.649602
O O6 0.566901 0.805674 0.901953
O O7 0.500000 0.500000 0.000000
O O8 0.169656 0.490595 0.638371
O O9 0.901752 0.336382 0.795042
O O10 0.867692 0.902785 0.715699
O O11 0.000000 0.500000 0.000000
O O12 0.735764 0.302775 0.575851
O O13 0.691229 0.031827 0.674512
O O14 0.000000 0.500000 0.500000
#
# Coordination Sequence:
#
# PCOD8018807 Si02
#       6
#     2   2   2   2   2   2
#     4  12  26  45  78 106 143 201 246 294 377 437
#     4  11  27  49  74 106 153 195 244 315 368 429
#     4  10  22  40  72 104 141 192 242 294 364 439
#     4  12  24  43  73 105 147 187 241 307 358 440
#     4  10  23  43  67 102 149 185 238 303 362 427
#     4  11  25  45  71 107 145 188 246 305 367 435
#
# _framework density 24.358516000000002
#
# number of rings (size 3 to 8) (size 9 to 14) (size 15 to 20)
#    0.000    1.000    3.333    1.500    2.333    6.667 
#    0.000    3.333    0.000    0.000    0.000    0.000 
#    0.000    0.000    0.000    0.000    0.000    0.000 
#
# Total GULP energy -148794.628257 kJ/mol
# GULP energy per Si atom -12399.552355 kJ/mol
# Density = 2.430307 g / cm^3
# Si number density = 24.358516 Si / 1000 Ang^3
#
#
#
# Elastic Constant Matrix: (Units=GPa)
#
#
# Indices 1 2 3 4 5 6 
#
# 1 174.2696 57.6303 93.7104 -16.8629 -12.7982 4.0328
# 2 57.6303 47.8151 57.2148 -16.5975 3.2934 -11.1940
# 3 93.7104 57.2148 222.4982 11.4704 11.3678 -9.6180
# 4 -16.8629 -16.5975 11.4704 40.6898 4.0333 -8.3602
# 5 -12.7982 3.2934 11.3678 4.0333 55.2066 -12.3086
# 6 4.0328 -11.1940 -9.6180 -8.3602 -12.3086 46.4332
#
#
#
# Elastic Compliance Matrix: (Units=1/GPa)
#
#
# Indices 1 2 3 4 5 6 
#
# 1 0.011065 -0.013122 -0.001530 -0.001430 0.002891 -0.003933
# 2 -0.013122 0.065545 -0.011868 0.028790 -0.002367 0.019039
# 3 -0.001530 -0.011868 0.008571 -0.008331 -0.001435 -0.002833
# 4 -0.001430 0.028790 -0.008331 0.040701 -0.000513 0.012531
# 5 0.002891 -0.002367 -0.001435 -0.000513 0.020181 0.004138
# 6 -0.003933 0.019039 -0.002833 0.012531 0.004138 0.029234
#
#
# Mechanical properties :
#
#
# Convention : Reuss Voigt Hill
#
# Bulk Modulus (GPa) = 31.11359 95.74376 63.42867
# Shear Modulus (GPa) = 20.91604 44.20108 32.55856
#
# Velocity S-wave (km/s) = 2.93349 4.26444 3.65997
# Velocity P-wave (km/s) = 4.92694 7.97738 6.62999
#
# Compressibility (1/GPa) = 0.03214029
#
# Stress axis : x y z
#
# Youngs Moduli (GPa) = 90.37218 15.25680 116.67146
#
# Poissons Ratio (x) = 0.20020 0.17852
# Poissons Ratio (y) = 1.18586 1.38468
# Poissons Ratio (z) = 0.13828 0.18107
#
# Static dielectric constant tensor:
#      x y z
#    x 5.059160 0.121340 -0.247060 
#    y 0.121340 4.222430 0.123020 
#    z -0.247060 0.123020 4.788790 
# 
# 
# High freq. dielectric constant tensor:
#      x y z
#    x 1.981790 -0.002800 -0.020470 
#    y -0.002800 1.958900 0.001230 
#    z -0.020470 0.001230 1.982570 
# 
# From -- ./inp_files/266059.got.cif
#   From: 2010.06.25/outbox.cif.g09.slc.cpg/sg2_134_cif.got.tgz:266059.got - 2010.06.27 13:26:56.
