data_PCOD8018511
_publ_section_title
;
Structure prediction by ZEFSAII (Michael W. Deem and Ramdas Pophale) SiO2 
 PCOD8018511
Probable space group: P -1
;
_chemical_formula_sum "Si O2"
_cell_formula_units_Z 16
_cell_length_a 13.839050
_cell_length_b 8.483452
_cell_length_c 13.918251
_cell_angle_alpha 139.314444
_cell_angle_beta 41.483239
_cell_angle_gamma 133.368767
_cell_volume 678.478459
_symmetry_space_group_name_H-M "P -1"
_symmetry_group_IT_number 2
_symmetry_cell_setting 'triclinic'
loop_
_space_group_symop_operation_xyz
x,y,z
-x,-y,-z
loop_
_atom_site_type_symbol
_atom_site_label
_atom_site_fract_x
_atom_site_fract_y
_atom_site_fract_z
Si Si1 0.463364 0.187008 0.688607
Si Si2 0.011191 0.376786 0.303841
Si Si3 0.652808 0.542258 0.847425
Si Si4 0.700045 0.690890 0.478942
Si Si5 0.584869 0.445841 0.258091
Si Si6 0.187911 0.794212 0.801324
Si Si7 0.969935 0.106136 0.404065
Si Si8 0.789293 0.085383 0.947753
O O1 0.616971 0.310277 0.691557
O O2 0.419405 0.413781 0.772958
O O3 0.500000 0.000000 0.500000
O O4 0.325458 0.040413 0.790865
O O5 0.195328 0.454284 0.204518
O O6 0.956685 0.631645 0.473384
O O7 0.950817 0.238814 0.185140
O O8 0.937924 0.184808 0.355563
O O9 0.500000 0.500000 0.000000
O O10 0.675586 0.807720 0.900537
O O11 0.636230 0.648377 0.398649
O O12 0.577448 0.731674 0.666724
O O13 0.754237 0.452885 0.362202
O O14 0.827978 0.953724 0.501412
O O15 0.701330 0.284138 0.074956
O O16 0.133659 0.841001 0.970220
O O17 0.079006 0.919885 0.229263
#
# Coordination Sequence:
#
# PCOD8018511 Si02
#       8
#     2   2   2   2   2   2   2   2
#     4  12  25  43  75 104 136 180 241 285 337 419
#     4  10  25  43  71  99 138 185 233 280 347 407
#     4  11  25  46  69 105 139 179 224 297 345 404
#     4  10  22  40  67 101 141 181 232 281 343 410
#     4  10  23  40  69 104 136 186 225 290 347 403
#     4  11  23  44  68 104 137 180 235 283 340 420
#     4  10  23  42  66  96 138 185 225 283 339 410
#     4  10  24  46  67 101 147 174 229 285 351 409
#
# _framework density 23.582179
#
# number of rings (size 3 to 8) (size 9 to 14) (size 15 to 20)
#    0.000    1.500    2.500    0.750    8.750    5.000 
#    4.500    0.000    0.000    0.000    0.000    0.000 
#    0.000    0.000    0.000    0.000    0.000    0.000 
#
# Total GULP energy -198360.749358 kJ/mol
# GULP energy per Si atom -12397.546835 kJ/mol
# Density = 2.352850 g / cm^3
# Si number density = 23.582179 Si / 1000 Ang^3
#
#
#
# Elastic Constant Matrix: (Units=GPa)
#
#
# Indices 1 2 3 4 5 6 
#
# 1 108.9905 44.6497 18.9100 5.7964 -2.4992 20.5252
# 2 44.6497 120.5258 28.9049 -0.4077 -11.5167 6.0510
# 3 18.9100 28.9049 103.6376 11.2150 -11.2616 0.2190
# 4 5.7964 -0.4077 11.2150 29.9932 6.1006 4.7920
# 5 -2.4992 -11.5167 -11.2616 6.1006 26.4696 6.4585
# 6 20.5252 6.0510 0.2190 4.7920 6.4585 27.1721
#
#
#
# Elastic Compliance Matrix: (Units=1/GPa)
#
#
# Indices 1 2 3 4 5 6 
#
# 1 0.012697 -0.003891 -0.000934 -0.001045 0.001519 -0.008893
# 2 -0.003891 0.010544 -0.001993 0.001041 0.003215 -0.000341
# 3 -0.000934 -0.001993 0.011482 -0.005276 0.004948 0.000812
# 4 -0.001045 0.001041 -0.005276 0.038121 -0.009748 -0.003806
# 5 0.001519 0.003215 0.004948 -0.009748 0.046410 -0.011215
# 6 -0.008893 -0.000341 0.000812 -0.003806 -0.011215 0.046926
#
#
# Mechanical properties :
#
#
# Convention : Reuss Voigt Hill
#
# Bulk Modulus (GPa) = 47.42684 57.56479 52.49581
# Shear Modulus (GPa) = 26.75988 32.77294 29.76641
#
# Velocity S-wave (km/s) = 3.37226 3.73196 3.55666
# Velocity P-wave (km/s) = 5.94288 6.55998 6.25904
#
# Compressibility (1/GPa) = 0.02108511
#
# Stress axis : x y z
#
# Youngs Moduli (GPa) = 78.76112 94.83620 87.09052
#
# Poissons Ratio (x) = 0.36904 0.08138
# Poissons Ratio (y) = 0.30649 0.17361
# Poissons Ratio (z) = 0.07359 0.18905
#
# Static dielectric constant tensor:
#      x y z
#    x 4.576450 0.218450 0.016180 
#    y 0.218450 4.699150 -0.081730 
#    z 0.016180 -0.081730 4.455250 
# 
# 
# High freq. dielectric constant tensor:
#      x y z
#    x 1.917890 0.003530 -0.001770 
#    y 0.003530 1.937650 0.007820 
#    z -0.001770 0.007820 1.938930 
# 
# From -- ./inp_files/529116.got.cif
#   From: 2010.06.25/outbox.cif.g09.slc.cpg/sg2_265_cif.got.tgz:529116.got - 2010.06.27 13:26:56.
