data_PCOD8018914
_publ_section_title
;
Structure prediction by ZEFSAII (Michael W. Deem and Ramdas Pophale) SiO2 
 PCOD8018914
Probable space group: P -1
;
_chemical_formula_sum "Si O2"
_cell_formula_units_Z 16
_cell_length_a 15.767116
_cell_length_b 8.751619
_cell_length_c 21.690591
_cell_angle_alpha 67.627370
_cell_angle_beta 163.358320
_cell_angle_gamma 103.869411
_cell_volume 698.828707
_symmetry_space_group_name_H-M "P -1"
_symmetry_group_IT_number 2
_symmetry_cell_setting 'triclinic'
loop_
_space_group_symop_operation_xyz
x,y,z
-x,-y,-z
loop_
_atom_site_type_symbol
_atom_site_label
_atom_site_fract_x
_atom_site_fract_y
_atom_site_fract_z
Si Si1 0.864196 0.053177 0.032446
Si Si2 0.947402 0.732360 0.060549
Si Si3 0.756732 0.414780 0.837239
Si Si4 0.159614 0.887320 0.493316
Si Si5 0.099904 0.470548 0.830004
Si Si6 0.810015 0.401416 0.348160
Si Si7 0.054880 0.780969 0.308974
Si Si8 0.124073 0.234344 0.467134
O O1 0.878240 0.243566 0.997379
O O2 0.477173 0.104288 0.765092
O O3 0.010949 0.900440 0.103841
O O4 0.062663 0.950819 0.249043
O O5 0.551188 0.806116 0.759163
O O6 0.062380 0.559324 0.215717
O O7 0.196275 0.663319 0.187030
O O8 0.390707 0.582626 0.569456
O O9 0.000000 0.500000 0.000000
O O10 0.090449 0.791994 0.518552
O O11 0.970083 0.854235 0.308350
O O12 0.985970 0.104808 0.358470
O O13 0.218272 0.275445 0.902492
O O14 0.828531 0.644436 0.573816
O O15 0.404217 0.516921 0.050165
O O16 0.000000 0.500000 0.500000
O O17 0.888128 0.372152 0.334419
#
# Coordination Sequence:
#
# PCOD8018914 Si02
#       8
#     2   2   2   2   2   2   2   2
#     4  10  24  41  64  93 135 172 218 270 323 384
#     4   9  21  42  62  93 129 171 217 269 322 380
#     4  12  23  40  68  94 132 173 222 267 327 383
#     4  10  22  41  62  93 134 167 216 273 321 385
#     4  10  22  42  67  95 131 171 216 267 328 390
#     4  11  24  41  69  95 129 170 219 270 324 398
#     4  11  23  44  65  96 135 176 216 270 323 386
#     4  11  22  43  66  96 130 175 216 268 331 385
#
# _framework density 22.895454999999998
#
# number of rings (size 3 to 8) (size 9 to 14) (size 15 to 20)
#    0.000    1.500    2.500    2.625    0.000    4.500 
#    4.500    1.875    0.000    0.000    0.000    0.000 
#    0.000    0.000    0.000    0.000    0.000    0.000 
#
# Total GULP energy -198258.839150 kJ/mol
# GULP energy per Si atom -12391.177447 kJ/mol
# Density = 2.284334 g / cm^3
# Si number density = 22.895455 Si / 1000 Ang^3
#
#
#
# Elastic Constant Matrix: (Units=GPa)
#
#
# Indices 1 2 3 4 5 6 
#
# 1 90.4858 29.1568 13.0154 -18.6130 -15.5469 0.4046
# 2 29.1568 121.8069 36.1943 -14.2792 -11.1117 10.2571
# 3 13.0154 36.1943 49.5369 -11.8953 -15.6789 5.6033
# 4 -18.6130 -14.2792 -11.8953 42.2244 7.1142 -12.8905
# 5 -15.5469 -11.1117 -15.6789 7.1142 33.7646 -5.6192
# 6 0.4046 10.2571 5.6033 -12.8905 -5.6192 38.6510
#
#
#
# Elastic Compliance Matrix: (Units=1/GPa)
#
#
# Indices 1 2 3 4 5 6 
#
# 1 0.013809 -0.002739 0.001017 0.005484 0.005279 0.003031
# 2 -0.002739 0.011190 -0.007690 0.000043 -0.001496 -0.002029
# 3 0.001017 -0.007690 0.030072 0.004718 0.011050 0.000850
# 4 0.005484 0.000043 0.004718 0.030313 -0.000102 0.009342
# 5 0.005279 -0.001496 0.011050 -0.000102 0.037397 0.004143
# 6 0.003031 -0.002029 0.000850 0.009342 0.004143 0.029974
#
#
# Mechanical properties :
#
#
# Convention : Reuss Voigt Hill
#
# Bulk Modulus (GPa) = 27.58715 46.50694 37.04705
# Shear Modulus (GPa) = 27.22418 35.15886 31.19152
#
# Velocity S-wave (km/s) = 3.45202 3.92296 3.69500
# Velocity P-wave (km/s) = 5.28810 6.39346 5.86687
#
# Compressibility (1/GPa) = 0.03624876
#
# Stress axis : x y z
#
# Youngs Moduli (GPa) = 72.41696 89.36774 33.25312
#
# Poissons Ratio (x) = 0.24475 -0.03383
# Poissons Ratio (y) = 0.19832 0.25572
# Poissons Ratio (z) = -0.07368 0.68723
#
# Static dielectric constant tensor:
#      x y z
#    x 3.895420 -0.203140 -0.575770 
#    y -0.203140 4.354800 -0.059740 
#    z -0.575770 -0.059740 3.871250 
# 
# 
# High freq. dielectric constant tensor:
#      x y z
#    x 1.897870 0.004870 -0.021880 
#    y 0.004870 1.917150 -0.003740 
#    z -0.021880 -0.003740 1.885170 
# 
# From -- ./inp_files/356287.got.cif
#   From: 2010.06.25/outbox.cif.g09.slc.cpg/sg2_179_cif.got.tgz:356287.got - 2010.06.27 13:26:56.
