data_PCOD8018111
_publ_section_title
;
Structure prediction by ZEFSAII (Michael W. Deem and Ramdas Pophale) SiO2 
 PCOD8018111
Probable space group: P -1
;
_chemical_formula_sum "Si O2"
_cell_formula_units_Z 14
_cell_length_a 17.660092
_cell_length_b 11.714580
_cell_length_c 8.716608
_cell_angle_alpha 142.489045
_cell_angle_beta 43.305472
_cell_angle_gamma 140.487613
_cell_volume 666.727393
_symmetry_space_group_name_H-M "P -1"
_symmetry_group_IT_number 2
_symmetry_cell_setting 'triclinic'
loop_
_space_group_symop_operation_xyz
x,y,z
-x,-y,-z
loop_
_atom_site_type_symbol
_atom_site_label
_atom_site_fract_x
_atom_site_fract_y
_atom_site_fract_z
Si Si1 0.301063 0.591477 0.742338
Si Si2 0.400272 0.949216 0.723469
Si Si3 0.046236 0.552370 0.160516
Si Si4 0.476371 0.181572 0.154088
Si Si5 0.223235 0.146717 0.454172
Si Si6 0.145029 0.902783 0.015530
Si Si7 0.004295 0.931830 0.749078
O O1 0.360561 0.735512 0.656826
O O2 0.404786 0.610545 0.737888
O O3 0.245353 0.343746 0.519948
O O4 0.195848 0.636918 0.028667
O O5 0.279014 0.931018 0.794015
O O6 0.500000 0.000000 0.500000
O O7 0.463909 0.154529 0.959360
O O8 0.965444 0.324157 0.117128
O O9 0.013123 0.715038 0.476951
O O10 0.000000 0.500000 0.000000
O O11 0.345300 0.166602 0.383992
O O12 0.500000 0.000000 0.000000
O O13 0.126481 0.126867 0.706302
O O14 0.158322 0.936013 0.217570
O O15 0.118034 0.083236 0.171643
O O16 0.000000 0.000000 0.000000
#
# Coordination Sequence:
#
# PCOD8018111 Si02
#       7
#     2   2   2   2   2   2   2
#     4  11  21  38  67  93 122 171 217 268 314 387
#     4  10  22  40  62  92 125 166 211 268 322 377
#     4  12  21  42  72  93 125 178 220 255 320 396
#     4   9  20  38  60  88 124 172 216 256 316 386
#     4  11  21  41  66  93 126 172 228 258 312 398
#     4  11  23  42  68  92 127 176 219 255 318 405
#     4  12  26  40  62 103 136 162 213 281 327 370
#
# _framework density 20.998087000000002
#
# number of rings (size 3 to 8) (size 9 to 14) (size 15 to 20)
#    0.000    1.143    4.286    3.429    0.000    4.000 
#    2.571    2.857    0.000    0.000    0.000    0.000 
#    0.000    0.000    0.000    0.000    0.000    0.000 
#
# Total GULP energy -173438.457784 kJ/mol
# GULP energy per Si atom -12388.461270 kJ/mol
# Density = 2.095029 g / cm^3
# Si number density = 20.998087 Si / 1000 Ang^3
#
#
#
# Elastic Constant Matrix: (Units=GPa)
#
#
# Indices 1 2 3 4 5 6 
#
# 1 122.7252 42.6749 53.6819 -13.9719 -23.9515 21.1054
# 2 42.6749 116.2222 67.3021 -9.4959 -5.3178 7.3304
# 3 53.6819 67.3021 128.9753 -13.7057 -8.9230 2.1258
# 4 -13.9719 -9.4959 -13.7057 43.2086 2.9600 -4.7172
# 5 -23.9515 -5.3178 -8.9230 2.9600 39.3191 1.3425
# 6 21.1054 7.3304 2.1258 -4.7172 1.3425 27.0941
#
#
#
# Elastic Compliance Matrix: (Units=1/GPa)
#
#
# Indices 1 2 3 4 5 6 
#
# 1 0.013881 -0.001630 -0.004109 0.001194 0.007562 -0.010216
# 2 -0.001630 0.012753 -0.005964 0.000245 -0.000584 -0.001641
# 3 -0.004109 -0.005964 0.012657 0.001882 -0.000722 0.004184
# 4 0.001194 0.000245 0.001882 0.024580 -0.000771 0.003174
# 5 0.007562 -0.000584 -0.000722 -0.000771 0.030104 -0.007302
# 6 -0.010216 -0.001641 0.004184 0.003174 -0.007302 0.045897
#
#
# Mechanical properties :
#
#
# Convention : Reuss Voigt Hill
#
# Bulk Modulus (GPa) = 62.94806 77.24894 70.09850
# Shear Modulus (GPa) = 29.66129 35.54193 32.60161
#
# Velocity S-wave (km/s) = 3.76250 4.11862 3.94458
# Velocity P-wave (km/s) = 6.99416 7.71270 7.36220
#
# Compressibility (1/GPa) = 0.01588611
#
# Stress axis : x y z
#
# Youngs Moduli (GPa) = 72.04245 78.41342 79.01022
#
# Poissons Ratio (x) = 0.12779 0.32462
# Poissons Ratio (y) = 0.11740 0.47120
# Poissons Ratio (z) = 0.29600 0.46764
#
# Static dielectric constant tensor:
#      x y z
#    x 4.401220 0.693480 -0.231760 
#    y 0.693480 4.286850 0.253040 
#    z -0.231760 0.253040 3.780130 
# 
# 
# High freq. dielectric constant tensor:
#      x y z
#    x 1.823500 0.019690 -0.029660 
#    y 0.019690 1.818140 0.015880 
#    z -0.029660 0.015880 1.814280 
# 
# From -- ./inp_files/260430.got.cif
#   From: 2010.06.25/outbox.cif.g09.slc.cpg/sg2_131_cif.got.tgz:260430.got - 2010.06.27 13:26:56.
