data_PCOD8018282
_publ_section_title
;
Structure prediction by ZEFSAII (Michael W. Deem and Ramdas Pophale) SiO2 
 PCOD8018282
Probable space group: P -1
;
_chemical_formula_sum "Si O2"
_cell_formula_units_Z 14
_cell_length_a 11.655704
_cell_length_b 5.193700
_cell_length_c 14.151128
_cell_angle_alpha 59.434571
_cell_angle_beta 128.182369
_cell_angle_gamma 110.367885
_cell_volume 579.087294
_symmetry_space_group_name_H-M "P -1"
_symmetry_group_IT_number 2
_symmetry_cell_setting 'triclinic'
loop_
_space_group_symop_operation_xyz
x,y,z
-x,-y,-z
loop_
_atom_site_type_symbol
_atom_site_label
_atom_site_fract_x
_atom_site_fract_y
_atom_site_fract_z
Si Si1 0.633419 0.917359 0.521256
Si Si2 0.026482 0.302819 0.898753
Si Si3 0.670168 0.714134 0.873199
Si Si4 0.169091 0.237125 0.633462
Si Si5 0.272133 0.586695 0.231905
Si Si6 0.644295 0.228494 0.276653
Si Si7 0.077138 0.715204 0.362350
O O1 0.656499 0.562603 0.611753
O O2 0.500000 0.000000 0.500000
O O3 0.607178 0.991013 0.385498
O O4 0.774551 0.088985 0.605577
O O5 0.902759 0.512365 0.839930
O O6 0.002996 0.281073 0.779058
O O7 0.194953 0.426364 0.975428
O O8 0.000000 0.000000 0.000000
O O9 0.649830 0.532325 0.799322
O O10 0.515889 0.675646 0.859257
O O11 0.706525 0.061988 0.808243
O O12 0.263324 0.483938 0.694436
O O13 0.112935 0.378940 0.479782
O O14 0.028475 0.134695 0.642919
O O15 0.264061 0.946574 0.721366
#
# Coordination Sequence:
#
# PCOD8018282 Si02
#       7
#     2   2   2   2   2   2   2
#     4  11  22  37  66 101 133 163 212 275 340 388
#     4  10  22  40  64  95 133 174 214 263 326 399
#     4  11  23  39  61  93 133 171 214 262 323 389
#     4  10  24  45  68  91 127 177 224 268 313 383
#     4  11  22  39  60  94 136 172 207 261 333 398
#     4  11  23  41  65  94 131 169 219 270 323 378
#     4  10  23  44  67  95 130 172 223 267 323 382
#
# _framework density 24.175978000000001
#
# number of rings (size 3 to 8) (size 9 to 14) (size 15 to 20)
#    0.000    1.429    1.429    3.857    2.000    9.143 
#    0.000    1.429    0.000    0.000    0.000    0.000 
#    0.000    0.000    0.000    0.000    0.000    0.000 
#
# Total GULP energy -173541.844855 kJ/mol
# GULP energy per Si atom -12395.846061 kJ/mol
# Density = 2.412095 g / cm^3
# Si number density = 24.175978 Si / 1000 Ang^3
#
#
#
# Elastic Constant Matrix: (Units=GPa)
#
#
# Indices 1 2 3 4 5 6 
#
# 1 143.5549 31.0022 42.2281 1.7694 36.2309 -9.7603
# 2 31.0022 65.9087 10.7026 -1.5076 4.0455 -20.0650
# 3 42.2281 10.7026 77.2131 2.8187 24.4014 1.5696
# 4 1.7694 -1.5076 2.8187 23.0608 -2.0095 9.5407
# 5 36.2309 4.0455 24.4014 -2.0095 51.2397 -3.1497
# 6 -9.7603 -20.0650 1.5696 9.5407 -3.1497 31.5126
#
#
#
# Elastic Compliance Matrix: (Units=1/GPa)
#
#
# Indices 1 2 3 4 5 6 
#
# 1 0.010157 -0.003677 -0.003334 -0.001437 -0.005307 0.000875
# 2 -0.003677 0.021159 -0.001869 -0.003580 0.002525 0.013763
# 3 -0.003334 -0.001869 0.016982 -0.001074 -0.005829 -0.003326
# 4 -0.001437 -0.003580 -0.001074 0.050987 0.002713 -0.017837
# 5 -0.005307 0.002525 -0.005829 0.002713 0.026077 0.002039
# 6 0.000875 0.013763 -0.003326 -0.017837 0.002039 0.046537
#
#
# Mechanical properties :
#
#
# Convention : Reuss Voigt Hill
#
# Bulk Modulus (GPa) = 32.74494 50.50469 41.62482
# Shear Modulus (GPa) = 25.02025 34.67888 29.84956
#
# Velocity S-wave (km/s) = 3.22051 3.79150 3.51761
# Velocity P-wave (km/s) = 5.23476 6.33270 5.80973
#
# Compressibility (1/GPa) = 0.03053907
#
# Stress axis : x y z
#
# Youngs Moduli (GPa) = 98.45167 47.26207 58.88456
#
# Poissons Ratio (x) = 0.17379 0.19630
# Poissons Ratio (y) = 0.36202 0.11005
# Poissons Ratio (z) = 0.32820 0.08833
#
# Static dielectric constant tensor:
#      x y z
#    x 4.808710 0.027870 0.643920 
#    y 0.027870 3.947910 -0.058550 
#    z 0.643920 -0.058550 5.033990 
# 
# 
# High freq. dielectric constant tensor:
#      x y z
#    x 1.972160 -0.004130 0.033010 
#    y -0.004130 1.938050 -0.000540 
#    z 0.033010 -0.000540 1.959770 
# 
# From -- ./inp_files/75319.got.cif
#   From: 2010.06.25/outbox.cif.g09.slc.cpg/sg2_38_cif.got.tgz:75319.got - 2010.06.27 13:26:56.
