data_PCOD8018660
_publ_section_title
;
Structure prediction by ZEFSAII (Michael W. Deem and Ramdas Pophale) SiO2 
 PCOD8018660
Probable space group: P -1
;
_chemical_formula_sum "Si O2"
_cell_formula_units_Z 16
_cell_length_a 8.938516
_cell_length_b 20.456270
_cell_length_c 13.237028
_cell_angle_alpha 21.799064
_cell_angle_beta 115.900436
_cell_angle_gamma 105.033467
_cell_volume 726.995567
_symmetry_space_group_name_H-M "P -1"
_symmetry_group_IT_number 2
_symmetry_cell_setting 'triclinic'
loop_
_space_group_symop_operation_xyz
x,y,z
-x,-y,-z
loop_
_atom_site_type_symbol
_atom_site_label
_atom_site_fract_x
_atom_site_fract_y
_atom_site_fract_z
Si Si1 0.776452 0.914911 0.424740
Si Si2 0.960837 0.915612 0.209571
Si Si3 0.347244 0.690028 0.737042
Si Si4 0.661551 0.225765 0.794238
Si Si5 0.511335 0.364265 0.794569
Si Si6 0.195124 0.679235 0.915005
Si Si7 0.495221 0.996904 0.380773
Si Si8 0.703195 0.752742 0.429249
O O1 0.729013 0.802144 0.482072
O O2 0.993812 0.849066 0.588918
O O3 0.701518 0.880517 0.559686
O O4 0.669818 0.152089 0.022184
O O5 0.809081 0.833068 0.267781
O O6 0.150080 0.743794 0.551240
O O7 0.869218 0.094115 0.006149
O O8 0.000000 0.000000 0.000000
O O9 0.337630 0.636206 0.926738
O O10 0.382147 0.883954 0.466819
O O11 0.500000 0.500000 0.000000
O O12 0.610883 0.450328 0.434313
O O13 0.513632 0.165239 0.781299
O O14 0.500000 0.500000 0.500000
O O15 0.719073 0.254506 0.059896
O O16 0.414979 0.215634 0.992388
O O17 0.185546 0.478255 0.224650
O O18 0.500000 0.000000 0.500000
#
# Coordination Sequence:
#
# PCOD8018660 Si02
#       8
#     2   2   2   2   2   2   2   2
#     4  11  21  41  71  96 137 180 235 286 338 416
#     4  11  25  39  64 103 143 175 229 284 353 411
#     4  12  27  44  70 104 143 181 226 297 355 403
#     4  10  22  43  70  97 136 183 232 281 341 420
#     4  11  24  47  70  95 134 188 235 282 348 418
#     4  11  23  43  70  99 133 180 245 282 342 419
#     4  12  27  45  70 102 142 181 233 290 359 402
#     4  10  22  40  69 102 133 179 231 283 347 416
#
# _framework density 22.008388
#
# number of rings (size 3 to 8) (size 9 to 14) (size 15 to 20)
#    0.000    1.000    5.000    2.625    8.750    0.500 
#    2.250    0.625    0.000    0.000    0.000    0.000 
#    0.000    0.000    0.000    0.000    0.000    0.000 
#
# Total GULP energy -198232.649561 kJ/mol
# GULP energy per Si atom -12389.540598 kJ/mol
# Density = 2.195830 g / cm^3
# Si number density = 22.008388 Si / 1000 Ang^3
#
#
#
# Elastic Constant Matrix: (Units=GPa)
#
#
# Indices 1 2 3 4 5 6 
#
# 1 138.3768 45.0938 54.4646 0.4535 -7.4344 -12.5022
# 2 45.0938 92.7116 41.1748 6.8469 -2.6855 4.2568
# 3 54.4646 41.1748 111.8607 3.1069 4.0283 9.1647
# 4 0.4535 6.8469 3.1069 41.4001 9.6701 -13.4471
# 5 -7.4344 -2.6855 4.0283 9.6701 50.9712 7.8608
# 6 -12.5022 4.2568 9.1647 -13.4471 7.8608 31.4125
#
#
#
# Elastic Compliance Matrix: (Units=1/GPa)
#
#
# Indices 1 2 3 4 5 6 
#
# 1 0.011014 -0.003899 -0.004654 0.003406 -0.000072 0.007746
# 2 -0.003899 0.014629 -0.003034 -0.004230 0.002010 -0.004963
# 3 -0.004654 -0.003034 0.012899 -0.002265 -0.000495 -0.006050
# 4 0.003406 -0.004230 -0.002265 0.033209 -0.008778 0.019003
# 5 -0.000072 0.002010 -0.000495 -0.008778 0.022907 -0.009646
# 6 0.007746 -0.004963 -0.006050 0.019003 -0.009646 0.047904
#
#
# Mechanical properties :
#
#
# Convention : Reuss Voigt Hill
#
# Bulk Modulus (GPa) = 65.07750 69.37952 67.22851
# Shear Modulus (GPa) = 29.26384 38.23782 33.75083
#
# Velocity S-wave (km/s) = 3.65042 4.17276 3.92030
# Velocity P-wave (km/s) = 6.88484 7.40327 7.14876
#
# Compressibility (1/GPa) = 0.01536629
#
# Stress axis : x y z
#
# Youngs Moduli (GPa) = 90.79359 68.35772 77.52535
#
# Poissons Ratio (x) = 0.26656 0.36080
# Poissons Ratio (y) = 0.35405 0.23524
# Poissons Ratio (z) = 0.42255 0.20742
#
# Static dielectric constant tensor:
#      x y z
#    x 3.959790 -0.248220 -0.096180 
#    y -0.248220 4.531690 -0.358570 
#    z -0.096180 -0.358570 4.393420 
# 
# 
# High freq. dielectric constant tensor:
#      x y z
#    x 1.859310 -0.012620 -0.004760 
#    y -0.012620 1.873280 -0.013320 
#    z -0.004760 -0.013320 1.882840 
# 
# From -- ./inp_files/508569.got.cif
#   From: 2010.06.25/outbox.cif.g09.slc.cpg/sg2_255_cif.got.tgz:508569.got - 2010.06.27 13:26:56.
