data_PCOD8018622
_publ_section_title
;
Structure prediction by ZEFSAII (Michael W. Deem and Ramdas Pophale) SiO2 
 PCOD8018622
Probable space group: P -1
;
_chemical_formula_sum "Si O2"
_cell_formula_units_Z 14
_cell_length_a 8.892117
_cell_length_b 14.553627
_cell_length_c 8.713181
_cell_angle_alpha 106.256076
_cell_angle_beta 96.266621
_cell_angle_gamma 35.846642
_cell_volume 619.878344
_symmetry_space_group_name_H-M "P -1"
_symmetry_group_IT_number 2
_symmetry_cell_setting 'triclinic'
loop_
_space_group_symop_operation_xyz
x,y,z
-x,-y,-z
loop_
_atom_site_type_symbol
_atom_site_label
_atom_site_fract_x
_atom_site_fract_y
_atom_site_fract_z
Si Si1 0.283137 0.546290 0.417995
Si Si2 0.601423 0.253264 0.103382
Si Si3 0.016486 0.788377 0.967850
Si Si4 0.251788 0.343574 0.858347
Si Si5 0.074233 0.576068 0.701602
Si Si6 0.545189 0.105141 0.200035
Si Si7 0.875989 0.806524 0.273603
O O1 0.500000 0.500000 0.500000
O O2 0.386743 0.440170 0.227813
O O3 0.165878 0.526206 0.511649
O O4 0.035428 0.737178 0.418333
O O5 0.658380 0.153776 0.207870
O O6 0.863849 0.170653 0.040763
O O7 0.501123 0.245263 0.941357
O O8 0.083970 0.716705 0.114686
O O9 0.140170 0.649026 0.798981
O O10 0.694315 0.965368 0.015326
O O11 0.239556 0.409460 0.728857
O O12 0.261353 0.226422 0.766872
O O13 0.000000 0.500000 0.000000
O O14 0.765062 0.726182 0.768793
O O15 0.644596 0.007797 0.328060
#
# Coordination Sequence:
#
# PCOD8018622 Si02
#       7
#     2   2   2   2   2   2   2
#     4  12  26  43  64  97 132 172 207 263 325 385
#     4  12  23  42  69  96 133 163 218 265 321 374
#     4  10  22  40  68  95 125 167 215 273 311 366
#     4  12  21  40  67 101 122 164 222 270 306 375
#     4  12  23  40  69  92 133 170 209 264 321 381
#     4  10  23  42  67  94 126 170 219 263 313 378
#     4  10  24  43  65  94 130 165 221 259 318 376
#
# _framework density 22.585077999999999
#
# number of rings (size 3 to 8) (size 9 to 14) (size 15 to 20)
#    0.857    0.000    5.714    0.857    4.000    4.000 
#    0.000    0.714    0.000    0.000    0.000    0.000 
#    0.000    0.000    0.000    0.000    0.000    0.000 
#
# Total GULP energy -173433.759334 kJ/mol
# GULP energy per Si atom -12388.125667 kJ/mol
# Density = 2.253367 g / cm^3
# Si number density = 22.585078 Si / 1000 Ang^3
#
#
#
# Elastic Constant Matrix: (Units=GPa)
#
#
# Indices 1 2 3 4 5 6 
#
# 1 152.8138 61.7051 35.8408 -24.8488 -9.5165 11.3352
# 2 61.7051 114.2127 25.7430 -31.9061 -0.4103 12.7755
# 3 35.8408 25.7430 65.9450 -18.1880 -10.9631 -5.1805
# 4 -24.8488 -31.9061 -18.1880 35.5948 -3.7134 -6.4973
# 5 -9.5165 -0.4103 -10.9631 -3.7134 34.5944 -4.5544
# 6 11.3352 12.7755 -5.1805 -6.4973 -4.5544 34.0739
#
#
#
# Elastic Compliance Matrix: (Units=1/GPa)
#
#
# Indices 1 2 3 4 5 6 
#
# 1 0.009195 -0.003697 -0.003066 0.001381 0.001441 -0.001683
# 2 -0.003697 0.013708 -0.001321 0.008486 -0.000703 -0.002586
# 3 -0.003066 -0.001321 0.022216 0.010355 0.008344 0.007983
# 4 0.001381 0.008486 0.010355 0.044349 0.009532 0.007664
# 5 0.001441 -0.000703 0.008344 0.009532 0.033937 0.007406
# 6 -0.001683 -0.002586 0.007983 0.007664 0.007406 0.034543
#
#
# Mechanical properties :
#
#
# Convention : Reuss Voigt Hill
#
# Bulk Modulus (GPa) = 34.54140 64.39436 49.46788
# Shear Modulus (GPa) = 27.20818 34.83145 31.01981
#
# Velocity S-wave (km/s) = 3.47464 3.93139 3.71005
# Velocity P-wave (km/s) = 5.60577 7.01296 6.34847
#
# Compressibility (1/GPa) = 0.02895076
#
# Stress axis : x y z
#
# Youngs Moduli (GPa) = 108.75288 72.94769 45.01173
#
# Poissons Ratio (x) = 0.26972 0.13800
# Poissons Ratio (y) = 0.40211 0.05948
# Poissons Ratio (z) = 0.33341 0.09639
#
# Static dielectric constant tensor:
#      x y z
#    x 4.143600 0.285970 -0.123960 
#    y 0.285970 4.127840 -0.204640 
#    z -0.123960 -0.204640 3.875020 
# 
# 
# High freq. dielectric constant tensor:
#      x y z
#    x 1.895520 0.017940 -0.020090 
#    y 0.017940 1.890730 -0.009980 
#    z -0.020090 -0.009980 1.861040 
# 
# From -- ./inp_files/207748.got.cif
#   From: 2010.06.25/outbox.cif.g09.slc.cpg/sg2_104_cif.got.tgz:207748.got - 2010.06.27 13:26:56.
