data_PCOD8018811
_publ_section_title
;
Structure prediction by ZEFSAII (Michael W. Deem and Ramdas Pophale) SiO2 
 PCOD8018811
Probable space group: P -1
;
_chemical_formula_sum "Si O2"
_cell_formula_units_Z 16
_cell_length_a 21.385525
_cell_length_b 8.926907
_cell_length_c 9.638316
_cell_angle_alpha 76.249846
_cell_angle_beta 119.607323
_cell_angle_gamma 51.181323
_cell_volume 734.257957
_symmetry_space_group_name_H-M "P -1"
_symmetry_group_IT_number 2
_symmetry_cell_setting 'triclinic'
loop_
_space_group_symop_operation_xyz
x,y,z
-x,-y,-z
loop_
_atom_site_type_symbol
_atom_site_label
_atom_site_fract_x
_atom_site_fract_y
_atom_site_fract_z
Si Si1 0.908437 0.570678 0.122376
Si Si2 0.908140 0.399414 0.880252
Si Si3 0.209403 0.686628 0.274957
Si Si4 0.508234 0.370328 0.915865
Si Si5 0.631093 0.315375 0.590648
Si Si6 0.347225 0.374517 0.780406
Si Si7 0.848943 0.648384 0.482710
Si Si8 0.116022 0.650928 0.645328
O O1 0.848846 0.540738 0.155216
O O2 0.049759 0.386462 0.395952
O O3 0.954878 0.415188 0.058074
O O4 0.780668 0.938310 0.874483
O O5 0.817539 0.415238 0.827035
O O6 0.814516 0.668312 0.600802
O O7 0.059739 0.072291 0.034401
O O8 0.340673 0.552063 0.388742
O O9 0.237980 0.563814 0.486453
O O10 0.428229 0.601419 0.646803
O O11 0.393453 0.461676 0.831388
O O12 0.500000 0.500000 0.000000
O O13 0.682137 0.990682 0.155258
O O14 0.500000 0.500000 0.500000
O O15 0.267422 0.459926 0.812529
O O16 0.500000 0.000000 0.000000
O O17 0.932102 0.357538 0.543959
O O18 0.000000 0.000000 0.500000
#
# Coordination Sequence:
#
# PCOD8018811 Si02
#       8
#     2   2   2   2   2   2   2   2
#     4  12  27  43  73 104 143 175 237 293 355 414
#     4  11  22  43  71 103 132 179 238 286 342 412
#     4  10  22  40  72  95 134 177 233 277 342 412
#     4  11  25  43  74 102 138 182 237 282 352 422
#     4  11  25  45  66  99 141 183 219 288 359 412
#     4  11  22  45  70  96 138 189 235 287 342 423
#     4  12  24  47  72 106 141 188 236 291 347 427
#     4  12  27  45  69 106 144 185 236 295 354 409
#
# _framework density 21.790707999999999
#
# number of rings (size 3 to 8) (size 9 to 14) (size 15 to 20)
#    0.000    0.750    3.750    3.000    8.750    0.000 
#    2.250    0.625    0.000    0.000    0.000    0.000 
#    0.000    0.000    0.000    0.000    0.000    0.000 
#
# Total GULP energy -198259.654566 kJ/mol
# GULP energy per Si atom -12391.228410 kJ/mol
# Density = 2.174111 g / cm^3
# Si number density = 21.790708 Si / 1000 Ang^3
#
#
#
# Elastic Constant Matrix: (Units=GPa)
#
#
# Indices 1 2 3 4 5 6 
#
# 1 173.4623 45.7904 42.5255 6.5283 2.7447 -7.5701
# 2 45.7904 109.0193 20.3849 15.7281 9.6696 7.6438
# 3 42.5255 20.3849 93.8864 0.9198 1.6501 2.0741
# 4 6.5283 15.7281 0.9198 36.7402 3.7046 6.2679
# 5 2.7447 9.6696 1.6501 3.7046 40.1342 1.3140
# 6 -7.5701 7.6438 2.0741 6.2679 1.3140 26.3557
#
#
#
# Elastic Compliance Matrix: (Units=1/GPa)
#
#
# Indices 1 2 3 4 5 6 
#
# 1 0.007330 -0.002709 -0.002801 -0.000650 0.000220 0.003255
# 2 -0.002709 0.011446 -0.001119 -0.003662 -0.002089 -0.003035
# 3 -0.002801 -0.001119 0.012192 0.000963 -0.000075 -0.001665
# 4 -0.000650 -0.003662 0.000963 0.030119 -0.001687 -0.006279
# 5 0.000220 -0.002089 -0.000075 -0.001687 0.025570 -0.000199
# 6 0.003255 -0.003035 -0.001665 -0.006279 -0.000199 0.041392
#
#
# Mechanical properties :
#
#
# Convention : Reuss Voigt Hill
#
# Bulk Modulus (GPa) = 56.46540 65.97437 61.21988
# Shear Modulus (GPa) = 33.96545 38.49051 36.22798
#
# Velocity S-wave (km/s) = 3.95234 4.20738 4.08185
# Velocity P-wave (km/s) = 6.84082 7.34472 7.09724
#
# Compressibility (1/GPa) = 0.01770996
#
# Stress axis : x y z
#
# Youngs Moduli (GPa) = 136.42930 87.36664 82.02418
#
# Poissons Ratio (x) = 0.23666 0.22977
# Poissons Ratio (y) = 0.36956 0.09175
# Poissons Ratio (z) = 0.38217 0.09773
#
# Static dielectric constant tensor:
#      x y z
#    x 3.917530 0.176240 0.115040 
#    y 0.176240 3.907740 0.255020 
#    z 0.115040 0.255020 2.972590 
# 
# 
# High freq. dielectric constant tensor:
#      x y z
#    x 1.877240 0.019360 -0.000060 
#    y 0.019360 1.839760 0.004720 
#    z -0.000060 0.004720 1.860250 
# 
# From -- ./inp_files/263369.got.cif
#   From: 2010.06.25/outbox.cif.g09.slc.cpg/sg2_132_cif.got.tgz:263369.got - 2010.06.27 13:26:56.
