data_PCOD8018846
_publ_section_title
;
Structure prediction by ZEFSAII (Michael W. Deem and Ramdas Pophale) SiO2 
 PCOD8018846
Probable space group: P -1
;
_chemical_formula_sum "Si O2"
_cell_formula_units_Z 14
_cell_length_a 10.010417
_cell_length_b 12.178949
_cell_length_c 8.311568
_cell_angle_alpha 116.393277
_cell_angle_beta 134.944499
_cell_angle_gamma 48.226679
_cell_volume 534.237052
_symmetry_space_group_name_H-M "P -1"
_symmetry_group_IT_number 2
_symmetry_cell_setting 'triclinic'
loop_
_space_group_symop_operation_xyz
x,y,z
-x,-y,-z
loop_
_atom_site_type_symbol
_atom_site_label
_atom_site_fract_x
_atom_site_fract_y
_atom_site_fract_z
Si Si1 0.806808 0.712237 0.756221
Si Si2 0.193465 0.873898 0.245006
Si Si3 0.695893 0.098140 0.984114
Si Si4 0.431905 0.303589 0.159624
Si Si5 0.728737 0.872782 0.485506
Si Si6 0.759708 0.380519 0.737374
Si Si7 0.003005 0.604312 0.345307
O O1 0.628022 0.761713 0.782708
O O2 0.683151 0.853538 0.621603
O O3 0.833748 0.570775 0.593772
O O4 0.055064 0.664295 0.993131
O O5 0.280328 0.822819 0.102258
O O6 0.329047 0.728419 0.380743
O O7 0.218064 0.003934 0.409530
O O8 0.926794 0.935659 0.079580
O O9 0.485121 0.081798 0.778106
O O10 0.659961 0.184548 0.178158
O O11 0.445382 0.444469 0.312279
O O12 0.225313 0.370659 0.903868
O O13 0.947169 0.710199 0.519534
O O14 0.883439 0.344708 0.650569
#
# Coordination Sequence:
#
# PCOD8018846 Si02
#       7
#     2   2   2   2   2   2   2
#     4   9  16  33  62  89 116 153 197 246 291 339
#     4  11  23  38  59  87 123 156 189 241 298 348
#     4  10  22  41  60  86 118 155 200 241 288 347
#     4   8  17  36  62  87 113 154 202 242 288 344
#     4  11  21  37  61  89 119 154 196 238 291 354
#     4   9  18  36  59  87 121 154 194 242 292 348
#     4   8  17  34  59  89 118 153 197 243 290 342
#
# _framework density 26.205597999999998
#
# number of rings (size 3 to 8) (size 9 to 14) (size 15 to 20)
#    0.000    2.571    0.000    4.286    0.000    1.143 
#    0.000   17.143    0.000    7.714    0.000    5.000 
#    0.000    0.000    0.000    0.000    0.000    0.000 
#
# Total GULP energy -173540.965558 kJ/mol
# GULP energy per Si atom -12395.783254 kJ/mol
# Density = 2.614595 g / cm^3
# Si number density = 26.205598 Si / 1000 Ang^3
#
#
#
# Elastic Constant Matrix: (Units=GPa)
#
#
# Indices 1 2 3 4 5 6 
#
# 1 115.5494 68.4849 6.4359 23.3011 -8.4447 -10.6341
# 2 68.4849 133.5580 13.8310 23.6402 -4.6677 22.9778
# 3 6.4359 13.8310 41.3961 4.8184 7.2433 0.5869
# 4 23.3011 23.6402 4.8184 36.5275 -14.3306 -7.6619
# 5 -8.4447 -4.6677 7.2433 -14.3306 19.3891 0.9288
# 6 -10.6341 22.9778 0.5869 -7.6619 0.9288 61.1469
#
#
#
# Elastic Compliance Matrix: (Units=1/GPa)
#
#
# Indices 1 2 3 4 5 6 
#
# 1 0.014339 -0.007796 0.000082 -0.002015 0.002603 0.005131
# 2 -0.007796 0.014066 -0.001813 -0.007115 -0.004234 -0.007452
# 3 0.000082 -0.001813 0.029261 -0.010276 -0.018899 -0.000586
# 4 -0.002015 -0.007115 -0.010276 0.051685 0.039051 0.008305
# 5 0.002603 -0.004234 -0.018899 0.039051 0.087336 0.005792
# 6 0.005131 -0.007452 -0.000586 0.008305 0.005792 0.021005
#
#
# Mechanical properties :
#
#
# Convention : Reuss Voigt Hill
#
# Bulk Modulus (GPa) = 25.89878 52.00082 38.94980
# Shear Modulus (GPa) = 20.03059 36.86281 28.44670
#
# Velocity S-wave (km/s) = 2.76771 3.75464 3.29830
# Velocity P-wave (km/s) = 4.48531 6.21956 5.42222
#
# Compressibility (1/GPa) = 0.03861185
#
# Stress axis : x y z
#
# Youngs Moduli (GPa) = 69.73851 71.09180 34.17489
#
# Poissons Ratio (x) = 0.55426 -0.00280
# Poissons Ratio (y) = 0.54371 0.06196
# Poissons Ratio (z) = -0.00571 0.12889
#
# Static dielectric constant tensor:
#      x y z
#    x 4.740350 -0.402590 -0.059320 
#    y -0.402590 5.271580 0.236490 
#    z -0.059320 0.236490 4.799650 
# 
# 
# High freq. dielectric constant tensor:
#      x y z
#    x 2.043310 -0.005440 0.009000 
#    y -0.005440 2.059640 0.004850 
#    z 0.009000 0.004850 2.052110 
# 
# From -- ./inp_files/189595.got.cif
#   From: 2010.06.25/outbox.cif.g09.slc.cpg/sg2_95_cif.got.tgz:189595.got - 2010.06.27 13:26:56.
