data_PCOD8018996
_publ_section_title
;
Structure prediction by ZEFSAII (Michael W. Deem and Ramdas Pophale) SiO2 
 PCOD8018996
Probable space group: P -1
;
_chemical_formula_sum "Si O2"
_cell_formula_units_Z 16
_cell_length_a 9.045897
_cell_length_b 22.890767
_cell_length_c 12.524369
_cell_angle_alpha 36.806598
_cell_angle_beta 45.789391
_cell_angle_gamma 28.656818
_cell_volume 744.989269
_symmetry_space_group_name_H-M "P -1"
_symmetry_group_IT_number 2
_symmetry_cell_setting 'triclinic'
loop_
_space_group_symop_operation_xyz
x,y,z
-x,-y,-z
loop_
_atom_site_type_symbol
_atom_site_label
_atom_site_fract_x
_atom_site_fract_y
_atom_site_fract_z
Si Si1 0.156012 0.565722 0.269871
Si Si2 0.331645 0.332616 0.383671
Si Si3 0.340378 0.483758 0.526227
Si Si4 0.613788 0.037537 0.615330
Si Si5 0.483292 0.774751 0.247293
Si Si6 0.179818 0.760665 0.870522
Si Si7 0.682952 0.057722 0.107267
Si Si8 0.839486 0.054276 0.258664
O O1 0.347174 0.403241 0.371978
O O2 0.279151 0.555606 0.337538
O O3 0.794936 0.664676 0.322231
O O4 0.179193 0.646548 0.058815
O O5 0.485248 0.333283 0.206527
O O6 0.977795 0.440430 0.371854
O O7 0.499812 0.168013 0.556102
O O8 0.500000 0.500000 0.500000
O O9 0.573632 0.311929 0.646256
O O10 0.340759 0.052292 0.723775
O O11 0.702572 0.043527 0.443711
O O12 0.917804 0.883765 0.738048
O O13 0.191204 0.900470 0.283442
O O14 0.548442 0.823884 0.041626
O O15 0.143771 0.835987 0.886929
O O16 0.618359 0.112771 0.181668
O O17 0.000000 0.000000 0.000000
#
# Coordination Sequence:
#
# PCOD8018996 Si02
#       8
#     2   2   2   2   2   2   2   2
#     4  11  24  44  68  91 131 172 218 265 320 379
#     4  10  23  44  66  96 131 170 215 262 320 385
#     4  11  27  42  67  90 128 173 218 266 325 386
#     4  11  23  41  69  98 130 171 214 265 320 389
#     4  10  22  43  63  97 126 172 218 267 315 384
#     4  11  24  41  68  99 129 168 217 270 314 389
#     4  10  22  41  63  95 136 165 210 272 319 376
#     4  10  23  38  67  98 134 166 213 265 332 374
#
# _framework density 21.47682
#
# number of rings (size 3 to 8) (size 9 to 14) (size 15 to 20)
#    0.000    1.500    1.250    3.750   12.250    1.500 
#    0.000    0.625    0.000    0.000    0.000    0.000 
#    0.000    0.000    0.000    0.000    0.000    0.000 
#
# Total GULP energy -198280.929404 kJ/mol
# GULP energy per Si atom -12392.558088 kJ/mol
# Density = 2.142794 g / cm^3
# Si number density = 21.476820 Si / 1000 Ang^3
#
#
#
# Elastic Constant Matrix: (Units=GPa)
#
#
# Indices 1 2 3 4 5 6 
#
# 1 138.9774 45.5494 51.9921 2.9816 -9.1094 24.0492
# 2 45.5494 123.1114 48.0672 5.2975 -5.8854 9.0738
# 3 51.9921 48.0672 130.3859 -0.7499 -15.2894 18.0546
# 4 2.9816 5.2975 -0.7499 22.7693 -2.3611 -4.1122
# 5 -9.1094 -5.8854 -15.2894 -2.3611 39.6161 3.4370
# 6 24.0492 9.0738 18.0546 -4.1122 3.4370 20.8198
#
#
#
# Elastic Compliance Matrix: (Units=1/GPa)
#
#
# Indices 1 2 3 4 5 6 
#
# 1 0.010621 -0.002269 -0.001667 -0.002622 0.002235 -0.010720
# 2 -0.002269 0.010160 -0.002941 -0.002128 -0.000306 0.000373
# 3 -0.001667 -0.002941 0.010820 0.000453 0.003967 -0.006741
# 4 -0.002622 -0.002128 0.000453 0.047169 0.000963 0.012721
# 5 0.002235 -0.000306 0.003967 0.000963 0.028198 -0.010354
# 6 -0.010720 0.000373 -0.006741 0.012721 -0.010354 0.070319
#
#
# Mechanical properties :
#
#
# Convention : Reuss Voigt Hill
#
# Bulk Modulus (GPa) = 56.03185 75.96579 65.99882
# Shear Modulus (GPa) = 25.38234 33.09881 29.24057
#
# Velocity S-wave (km/s) = 3.44153 3.93000 3.69385
# Velocity P-wave (km/s) = 6.47598 7.48605 6.99926
#
# Compressibility (1/GPa) = 0.01784699
#
# Stress axis : x y z
#
# Youngs Moduli (GPa) = 94.15733 98.42888 92.42510
#
# Poissons Ratio (x) = 0.22331 0.15408
# Poissons Ratio (y) = 0.21361 0.27178
# Poissons Ratio (z) = 0.15697 0.28943
#
# Static dielectric constant tensor:
#      x y z
#    x 4.027060 0.118190 0.000150 
#    y 0.118190 3.955800 -0.037130 
#    z 0.000150 -0.037130 4.128990 
# 
# 
# High freq. dielectric constant tensor:
#      x y z
#    x 1.844170 0.009120 -0.007700 
#    y 0.009120 1.837430 0.004190 
#    z -0.007700 0.004190 1.854180 
# 
# From -- ./inp_files/399871.got.cif
#   From: 2010.06.25/outbox.cif.g09.slc.cpg/sg2_200_cif.got.tgz:399871.got - 2010.06.27 13:26:56.
