data_PCOD8018165
_publ_section_title
;
Structure prediction by ZEFSAII (Michael W. Deem and Ramdas Pophale) SiO2 
 PCOD8018165
Probable space group: P -1
;
_chemical_formula_sum "Si O2"
_cell_formula_units_Z 16
_cell_length_a 11.917542
_cell_length_b 12.018136
_cell_length_c 5.262527
_cell_angle_alpha 96.963459
_cell_angle_beta 68.249266
_cell_angle_gamma 84.190577
_cell_volume 686.121492
_symmetry_space_group_name_H-M "P -1"
_symmetry_group_IT_number 2
_symmetry_cell_setting 'triclinic'
loop_
_space_group_symop_operation_xyz
x,y,z
-x,-y,-z
loop_
_atom_site_type_symbol
_atom_site_label
_atom_site_fract_x
_atom_site_fract_y
_atom_site_fract_z
Si Si1 0.949109 0.320555 0.443670
Si Si2 0.132044 0.442270 0.584827
Si Si3 0.041814 0.928764 0.696807
Si Si4 0.425624 0.039476 0.825119
Si Si5 0.282917 0.442580 0.935993
Si Si6 0.281436 0.692085 0.058191
Si Si7 0.719703 0.129218 0.271449
Si Si8 0.501838 0.260893 0.787889
O O1 0.935289 0.425728 0.281366
O O2 0.009060 0.192702 0.274004
O O3 0.810996 0.308733 0.631904
O O4 0.029497 0.360769 0.617105
O O5 0.206792 0.396318 0.759407
O O6 0.217798 0.433031 0.259104
O O7 0.190768 0.906242 0.575231
O O8 0.000000 0.000000 0.500000
O O9 0.000000 0.000000 0.000000
O O10 0.403530 0.176278 0.905855
O O11 0.500000 0.000000 0.500000
O O12 0.301211 0.984943 0.896253
O O13 0.500000 0.000000 0.000000
O O14 0.421286 0.377161 0.800862
O O15 0.298664 0.569472 0.878974
O O16 0.414240 0.718212 0.037968
O O17 0.217813 0.789437 0.946079
O O18 0.591033 0.203211 0.477264
#
# Coordination Sequence:
#
# PCOD8018165 Si02
#       8
#     2   2   2   2   2   2   2   2
#     4  10  23  48  72  98 136 185 232 279 348 406
#     4  10  25  46  71  99 138 183 229 283 336 411
#     4  12  27  43  67 101 134 174 229 286 340 398
#     4  10  22  40  63  90 126 173 227 264 320 397
#     4  11  26  41  67 108 137 175 226 281 343 398
#     4  11  22  42  71 100 140 177 227 278 341 416
#     4  11  24  43  69  95 137 183 227 276 346 408
#     4  11  24  42  67 100 138 180 222 277 340 412
#
# _framework density 23.319485
#
# number of rings (size 3 to 8) (size 9 to 14) (size 15 to 20)
#    0.000    1.250    2.500    1.875    3.500   10.000 
#    0.000    0.000    0.000    0.000    0.000    0.000 
#    0.000    0.000    0.000    0.000    0.000    0.000 
#
# Total GULP energy -198279.101219 kJ/mol
# GULP energy per Si atom -12392.443826 kJ/mol
# Density = 2.326641 g / cm^3
# Si number density = 23.319485 Si / 1000 Ang^3
#
#
#
# Elastic Constant Matrix: (Units=GPa)
#
#
# Indices 1 2 3 4 5 6 
#
# 1 117.5199 62.3850 27.6075 7.1839 24.8107 -5.3622
# 2 62.3850 146.6469 34.8200 15.8718 10.4378 12.2607
# 3 27.6075 34.8200 84.4003 3.1826 23.6636 -10.3161
# 4 7.1839 15.8718 3.1826 31.0106 -5.7814 6.8464
# 5 24.8107 10.4378 23.6636 -5.7814 36.7822 -2.2495
# 6 -5.3622 12.2607 -10.3161 6.8464 -2.2495 41.3483
#
#
#
# Elastic Compliance Matrix: (Units=1/GPa)
#
#
# Indices 1 2 3 4 5 6 
#
# 1 0.013100 -0.005134 0.000583 -0.002699 -0.007972 0.003380
# 2 -0.005134 0.010303 -0.003609 -0.002391 0.002235 -0.004104
# 3 0.000583 -0.003609 0.016813 -0.003112 -0.010351 0.005293
# 4 -0.002699 -0.002391 -0.003112 0.037635 0.010043 -0.006103
# 5 -0.007972 0.002235 -0.010351 0.010043 0.039938 -0.003769
# 6 0.003380 -0.004104 0.005293 -0.006103 -0.003769 0.027966
#
#
# Mechanical properties :
#
#
# Convention : Reuss Voigt Hill
#
# Bulk Modulus (GPa) = 41.84882 66.46578 54.15730
# Shear Modulus (GPa) = 29.40472 36.74519 33.07496
#
# Velocity S-wave (km/s) = 3.55484 3.97385 3.77017
# Velocity P-wave (km/s) = 5.90203 7.04411 6.49821
#
# Compressibility (1/GPa) = 0.02389554
#
# Stress axis : x y z
#
# Youngs Moduli (GPa) = 76.33549 97.05801 59.47796
#
# Poissons Ratio (x) = 0.49834 -0.03469
# Poissons Ratio (y) = 0.39194 0.21467
# Poissons Ratio (z) = -0.04453 0.35030
#
# Static dielectric constant tensor:
#      x y z
#    x 4.458360 0.263280 0.218680 
#    y 0.263280 5.005780 0.159470 
#    z 0.218680 0.159470 3.900000 
# 
# 
# High freq. dielectric constant tensor:
#      x y z
#    x 1.925020 0.015300 0.021110 
#    y 0.015300 1.935840 0.007470 
#    z 0.021110 0.007470 1.902660 
# 
# From -- ./inp_files/67137.got.cif
#   From: 2010.06.25/outbox.cif.g09.slc.cpg/sg2_34_cif.got.tgz:67137.got - 2010.06.27 13:26:56.
