data_PCOD8018869
_publ_section_title
;
Structure prediction by ZEFSAII (Michael W. Deem and Ramdas Pophale) SiO2 
 PCOD8018869
Probable space group: P -1
;
_chemical_formula_sum "Si O2"
_cell_formula_units_Z 16
_cell_length_a 20.923950
_cell_length_b 23.268371
_cell_length_c 9.593447
_cell_angle_alpha 34.250768
_cell_angle_beta 145.021231
_cell_angle_gamma 162.168115
_cell_volume 790.557167
_symmetry_space_group_name_H-M "P -1"
_symmetry_group_IT_number 2
_symmetry_cell_setting 'triclinic'
loop_
_space_group_symop_operation_xyz
x,y,z
-x,-y,-z
loop_
_atom_site_type_symbol
_atom_site_label
_atom_site_fract_x
_atom_site_fract_y
_atom_site_fract_z
Si Si1 0.749317 0.203710 0.066824
Si Si2 0.789526 0.947117 0.201963
Si Si3 0.084857 0.298238 0.427576
Si Si4 0.315044 0.616507 0.984746
Si Si5 0.272978 0.365983 0.899020
Si Si6 0.978912 0.006980 0.681296
Si Si7 0.931324 0.398075 0.295416
Si Si8 0.875358 0.627453 0.133513
O O1 0.784433 0.255994 0.186439
O O2 0.861860 0.184926 0.263581
O O3 0.851150 0.375290 0.815209
O O4 0.500000 0.000000 0.000000
O O5 0.797225 0.899604 0.462257
O O6 0.566310 0.827751 0.020184
O O7 0.824649 0.889141 0.261465
O O8 0.972538 0.175109 0.070106
O O9 0.189631 0.378255 0.607079
O O10 0.245766 0.479332 0.248822
O O11 0.057532 0.162104 0.601665
O O12 0.204435 0.637824 0.771712
O O13 0.261152 0.540418 0.885103
O O14 0.286262 0.438258 0.922765
O O15 0.500000 0.500000 0.000000
O O16 0.111861 0.146103 0.066390
O O17 0.981028 0.334679 0.593641
#
# Coordination Sequence:
#
# PCOD8018869 Si02
#       8
#     2   2   2   2   2   2   2   2
#     4  10  23  41  66  94 129 166 200 259 322 367
#     4  10  23  41  62  93 124 166 204 259 309 369
#     4  11  22  42  64  94 125 163 214 257 308 381
#     4  11  24  39  69  90 122 169 208 252 317 368
#     4  11  24  40  63  93 128 166 208 262 312 365
#     4  10  22  41  61  89 130 158 211 258 305 370
#     4  10  23  42  62  95 128 157 213 260 302 382
#     4  11  23  44  61  93 131 159 209 260 305 373
#
# _framework density 20.238889
#
# number of rings (size 3 to 8) (size 9 to 14) (size 15 to 20)
#    0.000    1.500    2.500    1.500    3.500    3.000 
#    0.000    0.000    0.000    0.000    0.000    0.000 
#    0.000    0.000    0.000    0.000    0.000    0.000 
#
# Total GULP energy -198479.053875 kJ/mol
# GULP energy per Si atom -12404.940867 kJ/mol
# Density = 2.019282 g / cm^3
# Si number density = 20.238889 Si / 1000 Ang^3
#
#
#
# Elastic Constant Matrix: (Units=GPa)
#
#
# Indices 1 2 3 4 5 6 
#
# 1 99.5803 34.8486 17.6578 -1.9561 2.6997 5.6593
# 2 34.8486 82.1779 9.8626 23.8968 -2.3192 8.7584
# 3 17.6578 9.8626 85.4179 5.9803 -1.4319 8.5527
# 4 -1.9561 23.8968 5.9803 23.8731 -3.6311 9.1346
# 5 2.6997 -2.3192 -1.4319 -3.6311 31.9337 -0.2373
# 6 5.6593 8.7584 8.5527 9.1346 -0.2373 24.8869
#
#
#
# Elastic Compliance Matrix: (Units=1/GPa)
#
#
# Indices 1 2 3 4 5 6 
#
# 1 0.013941 -0.008662 -0.002349 0.011690 -0.000611 -0.003611
# 2 -0.008662 0.022624 0.000614 -0.024655 -0.000379 0.002843
# 3 -0.002349 0.000614 0.012623 -0.002746 0.000475 -0.003008
# 4 0.011690 -0.024655 -0.002746 0.077248 0.005723 -0.021337
# 5 -0.000611 -0.000379 0.000475 0.005723 0.031998 -0.001686
# 6 -0.003611 0.002843 -0.003008 -0.021337 -0.001686 0.048852
#
#
# Mechanical properties :
#
#
# Convention : Reuss Voigt Hill
#
# Bulk Modulus (GPa) = 35.21844 43.54601 39.38223
# Shear Modulus (GPa) = 21.04852 29.79255 25.42054
#
# Velocity S-wave (km/s) = 3.22841 3.84089 3.54789
# Velocity P-wave (km/s) = 5.59785 6.42126 6.02364
#
# Compressibility (1/GPa) = 0.02839422
#
# Stress axis : x y z
#
# Youngs Moduli (GPa) = 71.72916 44.20046 79.21900
#
# Poissons Ratio (x) = 0.38286 0.18608
# Poissons Ratio (y) = 0.62130 -0.04860
# Poissons Ratio (z) = 0.16849 -0.02712
#
# Static dielectric constant tensor:
#      x y z
#    x 3.914220 0.034800 -0.006600 
#    y 0.034800 3.370950 -0.120620 
#    z -0.006600 -0.120620 3.887270 
# 
# 
# High freq. dielectric constant tensor:
#      x y z
#    x 1.809930 0.000290 0.001660 
#    y 0.000290 1.770120 -0.001400 
#    z 0.001660 -0.001400 1.802760 
# 
# From -- ./inp_files/78044.got.cif
#   From: 2010.06.25/outbox.cif.g09.slc.cpg/sg2_40_cif.got.tgz:78044.got - 2010.06.27 13:26:56.
