data_PCOD8018415
_publ_section_title
;
Structure prediction by ZEFSAII (Michael W. Deem and Ramdas Pophale) SiO2 
 PCOD8018415
Probable space group: P -1
;
_chemical_formula_sum "Si O2"
_cell_formula_units_Z 16
_cell_length_a 14.430545
_cell_length_b 11.954426
_cell_length_c 9.248832
_cell_angle_alpha 49.356602
_cell_angle_beta 132.359372
_cell_angle_gamma 139.130490
_cell_volume 737.508111
_symmetry_space_group_name_H-M "P -1"
_symmetry_group_IT_number 2
_symmetry_cell_setting 'triclinic'
loop_
_space_group_symop_operation_xyz
x,y,z
-x,-y,-z
loop_
_atom_site_type_symbol
_atom_site_label
_atom_site_fract_x
_atom_site_fract_y
_atom_site_fract_z
Si Si1 0.673174 0.692974 0.384890
Si Si2 0.162342 0.969601 0.897793
Si Si3 0.740618 0.929047 0.760013
Si Si4 0.642647 0.169747 0.424875
Si Si5 0.633291 0.151067 0.914143
Si Si6 0.411659 0.668413 0.536376
Si Si7 0.823990 0.745876 0.797187
Si Si8 0.362075 0.642253 0.018016
O O1 0.663878 0.527226 0.441423
O O2 0.701191 0.697180 0.582484
O O3 0.521583 0.685141 0.206373
O O4 0.814807 0.873027 0.312026
O O5 0.985439 0.808685 0.847455
O O6 0.251075 0.891016 0.990407
O O7 0.219945 0.052856 0.046185
O O8 0.573529 0.745232 0.718344
O O9 0.851352 0.904048 0.797853
O O10 0.759659 0.112501 0.572404
O O11 0.702212 0.336474 0.457720
O O12 0.500000 0.000000 0.500000
O O13 0.599712 0.220116 0.187714
O O14 0.555613 0.187089 0.671700
O O15 0.719955 0.323860 0.965510
O O16 0.500000 0.000000 0.000000
O O17 0.754940 0.565545 0.972206
#
# Coordination Sequence:
#
# PCOD8018415 Si02
#       8
#     2   2   2   2   2   2   2   2
#     4  12  24  45  69 101 134 180 229 287 330 395
#     4  12  28  45  69  98 142 185 222 275 348 409
#     4  11  23  44  70  96 139 176 222 279 338 407
#     4  10  22  40  66 106 135 170 223 287 337 388
#     4  12  23  42  70 102 132 177 231 285 336 397
#     4  11  22  41  70 102 135 166 233 294 327 391
#     4  12  27  47  65 102 143 182 224 274 344 412
#     4  12  24  42  73 102 131 180 231 282 338 394
#
# _framework density 21.694676000000001
#
# number of rings (size 3 to 8) (size 9 to 14) (size 15 to 20)
#    0.000    0.500    5.000    4.875    3.500    1.500 
#    0.000    0.625    0.000    0.000    0.000    0.000 
#    0.000    0.000    0.000    0.000    0.000    0.000 
#
# Total GULP energy -198363.041895 kJ/mol
# GULP energy per Si atom -12397.690118 kJ/mol
# Density = 2.164530 g / cm^3
# Si number density = 21.694676 Si / 1000 Ang^3
#
#
#
# Elastic Constant Matrix: (Units=GPa)
#
#
# Indices 1 2 3 4 5 6 
#
# 1 133.5133 49.1560 31.2084 -5.2390 0.2111 -29.3059
# 2 49.1560 76.8779 35.6342 -12.1447 1.7463 -7.9588
# 3 31.2084 35.6342 101.3625 -12.9140 -16.0586 -5.8368
# 4 -5.2390 -12.1447 -12.9140 25.9716 -10.0942 -8.6590
# 5 0.2111 1.7463 -16.0586 -10.0942 27.9988 1.0138
# 6 -29.3059 -7.9588 -5.8368 -8.6590 1.0138 50.5591
#
#
#
# Elastic Compliance Matrix: (Units=1/GPa)
#
#
# Indices 1 2 3 4 5 6 
#
# 1 0.011171 -0.006009 -0.000938 0.000762 -0.000174 0.005555
# 2 -0.006009 0.019926 -0.004919 0.004745 -0.002306 -0.000055
# 3 -0.000938 -0.004919 0.015474 0.010981 0.013072 0.002087
# 4 0.000762 0.004745 0.010981 0.061196 0.027611 0.012384
# 5 -0.000174 -0.002306 0.013072 0.027611 0.053142 0.004709
# 6 0.005555 -0.000055 0.002087 0.012384 0.004709 0.025257
#
#
# Mechanical properties :
#
#
# Convention : Reuss Voigt Hill
#
# Bulk Modulus (GPa) = 43.78278 60.41675 52.09976
# Shear Modulus (GPa) = 22.98743 33.95626 28.47184
#
# Velocity S-wave (km/s) = 3.25866 3.96054 3.62662
# Velocity P-wave (km/s) = 5.86376 6.98739 6.45009
#
# Compressibility (1/GPa) = 0.02284003
#
# Stress axis : x y z
#
# Youngs Moduli (GPa) = 89.51984 50.18605 64.62539
#
# Poissons Ratio (x) = 0.30155 0.06059
# Poissons Ratio (y) = 0.53789 0.31789
# Poissons Ratio (z) = 0.08393 0.24686
#
# Static dielectric constant tensor:
#      x y z
#    x 4.461000 -0.676690 0.031680 
#    y -0.676690 4.061890 -0.256670 
#    z 0.031680 -0.256670 4.088070 
# 
# 
# High freq. dielectric constant tensor:
#      x y z
#    x 1.856000 -0.038600 -0.009260 
#    y -0.038600 1.839680 -0.012440 
#    z -0.009260 -0.012440 1.857520 
# 
# From -- ./inp_files/306603.got.cif
#   From: 2010.06.25/outbox.cif.g09.slc.cpg/sg2_154_cif.got.tgz:306603.got - 2010.06.27 13:26:56.
