data_PCOD8018783
_publ_section_title
;
Structure prediction by ZEFSAII (Michael W. Deem and Ramdas Pophale) SiO2 
 PCOD8018783
Probable space group: P -1
;
_chemical_formula_sum "Si O2"
_cell_formula_units_Z 16
_cell_length_a 9.084402
_cell_length_b 8.114464
_cell_length_c 10.686668
_cell_angle_alpha 76.690508
_cell_angle_beta 71.396805
_cell_angle_gamma 64.280006
_cell_volume 668.742103
_symmetry_space_group_name_H-M "P -1"
_symmetry_group_IT_number 2
_symmetry_cell_setting 'triclinic'
loop_
_space_group_symop_operation_xyz
x,y,z
-x,-y,-z
loop_
_atom_site_type_symbol
_atom_site_label
_atom_site_fract_x
_atom_site_fract_y
_atom_site_fract_z
Si Si1 0.894236 0.465952 0.811654
Si Si2 0.754064 0.844454 0.276300
Si Si3 0.804547 0.164067 0.358175
Si Si4 0.248215 0.965806 0.000822
Si Si5 0.430231 0.614754 0.145583
Si Si6 0.848580 0.874144 0.739205
Si Si7 0.429882 0.788045 0.366770
Si Si8 0.210663 0.665507 0.918613
O O1 0.744915 0.412303 0.807740
O O2 0.859953 0.670996 0.744854
O O3 0.070477 0.329896 0.729797
O O4 0.893927 0.442458 0.968517
O O5 0.604241 0.787532 0.374609
O O6 0.759618 0.005625 0.334631
O O7 0.704699 0.910500 0.134180
O O8 0.669214 0.261333 0.484753
O O9 0.804975 0.318932 0.229188
O O10 0.995024 0.091191 0.372768
O O11 0.412102 0.805093 0.046741
O O12 0.139108 0.094346 0.119871
O O13 0.144532 0.865895 0.969008
O O14 0.467255 0.632695 0.278599
O O15 0.590575 0.443384 0.078073
O O16 0.680709 0.010939 0.694596
#
# Coordination Sequence:
#
# PCOD8018783 Si02
#       8
#     2   2   2   2   2   2   2   2
#     4  11  24  42  67 104 130 159 216 273 334 373
#     4  11  24  42  69  97 131 168 214 271 323 381
#     4  11  24  46  66  92 131 177 219 257 317 388
#     4   9  20  39  64  97 126 165 209 260 329 379
#     4  10  23  42  65  97 135 170 211 267 326 379
#     4  11  25  41  72  96 129 168 217 270 320 383
#     4  11  26  44  68  92 129 179 221 255 315 391
#     4  10  22  40  71  94 133 169 208 273 326 378
#
# _framework density 23.925515000000001
#
# number of rings (size 3 to 8) (size 9 to 14) (size 15 to 20)
#    0.000    1.500    0.000    5.250    8.750    6.000 
#    0.000    1.250    0.000    0.000    0.000    0.000 
#    0.000    0.000    0.000    0.000    0.000    0.000 
#
# Total GULP energy -198372.587662 kJ/mol
# GULP energy per Si atom -12398.286729 kJ/mol
# Density = 2.387106 g / cm^3
# Si number density = 23.925515 Si / 1000 Ang^3
#
#
#
# Elastic Constant Matrix: (Units=GPa)
#
#
# Indices 1 2 3 4 5 6 
#
# 1 87.9362 15.6851 1.9600 11.8107 -25.4551 -3.7061
# 2 15.6851 62.5962 9.3802 11.6855 -4.9328 -6.4088
# 3 1.9600 9.3802 76.9651 5.2829 -15.9256 -0.3472
# 4 11.8107 11.6855 5.2829 26.5402 -8.5252 -4.9734
# 5 -25.4551 -4.9328 -15.9256 -8.5252 36.5402 6.7448
# 6 -3.7061 -6.4088 -0.3472 -4.9734 6.7448 22.8900
#
#
#
# Elastic Compliance Matrix: (Units=1/GPa)
#
#
# Indices 1 2 3 4 5 6 
#
# 1 0.015364 -0.003041 0.002464 -0.002834 0.011114 -0.002217
# 2 -0.003041 0.018486 -0.002312 -0.006490 -0.002900 0.004093
# 3 0.002464 -0.002312 0.014959 -0.000917 0.008196 -0.002636
# 4 -0.002834 -0.006490 -0.000917 0.045037 0.006212 0.005665
# 5 0.011114 -0.002900 0.008196 0.006212 0.041545 -0.009780
# 6 -0.002217 0.004093 -0.002636 0.005665 -0.009780 0.048547
#
#
# Mechanical properties :
#
#
# Convention : Reuss Voigt Hill
#
# Bulk Modulus (GPa) = 23.23936 31.28312 27.26124
# Shear Modulus (GPa) = 24.50266 30.55890 27.53078
#
# Velocity S-wave (km/s) = 3.20366 3.57774 3.39586
# Velocity P-wave (km/s) = 4.83931 5.49278 5.17636
#
# Compressibility (1/GPa) = 0.04303044
#
# Stress axis : x y z
#
# Youngs Moduli (GPa) = 65.08784 54.09507 66.84946
#
# Poissons Ratio (x) = 0.16451 -0.16469
# Poissons Ratio (y) = 0.19794 0.15454
# Poissons Ratio (z) = -0.16035 0.12505
#
# Static dielectric constant tensor:
#      x y z
#    x 4.091560 -0.149410 0.018250 
#    y -0.149410 4.202800 0.034240 
#    z 0.018250 0.034240 4.408680 
# 
# 
# High freq. dielectric constant tensor:
#      x y z
#    x 1.945230 -0.012320 -0.001330 
#    y -0.012320 1.949390 0.011600 
#    z -0.001330 0.011600 1.941410 
# 
# From -- ./inp_files/307159.got.cif
#   From: 2010.06.25/outbox.cif.g09.slc.cpg/sg2_154_cif.got.tgz:307159.got - 2010.06.27 13:26:56.
