data_PCOD8018904
_publ_section_title
;
Structure prediction by ZEFSAII (Michael W. Deem and Ramdas Pophale) SiO2 
 PCOD8018904
Probable space group: P -1
;
_chemical_formula_sum "Si O2"
_cell_formula_units_Z 16
_cell_length_a 13.802192
_cell_length_b 10.314225
_cell_length_c 12.525554
_cell_angle_alpha 144.697253
_cell_angle_beta 134.751700
_cell_angle_gamma 54.227309
_cell_volume 731.580026
_symmetry_space_group_name_H-M "P -1"
_symmetry_group_IT_number 2
_symmetry_cell_setting 'triclinic'
loop_
_space_group_symop_operation_xyz
x,y,z
-x,-y,-z
loop_
_atom_site_type_symbol
_atom_site_label
_atom_site_fract_x
_atom_site_fract_y
_atom_site_fract_z
Si Si1 0.599679 0.681395 0.066225
Si Si2 0.324352 0.454186 0.728490
Si Si3 0.515867 0.130197 0.210527
Si Si4 0.780108 0.394068 0.861145
Si Si5 0.959771 0.714298 0.890318
Si Si6 0.295378 0.471931 0.340394
Si Si7 0.661819 0.015223 0.643498
Si Si8 0.146509 0.812122 0.914082
O O1 0.653745 0.624508 0.186244
O O2 0.575328 0.949713 0.220048
O O3 0.460634 0.550704 0.847335
O O4 0.709259 0.600977 0.009018
O O5 0.275829 0.237630 0.480147
O O6 0.201644 0.638581 0.751190
O O7 0.375494 0.236378 0.220422
O O8 0.612854 0.340557 0.408170
O O9 0.500000 0.000000 0.000000
O O10 0.768458 0.432360 0.752997
O O11 0.709477 0.160740 0.678165
O O12 0.940072 0.373886 0.998365
O O13 0.822918 0.572731 0.695384
O O14 0.922975 0.977212 0.057722
O O15 0.034484 0.690075 0.817981
O O16 0.718941 0.125685 0.869876
O O17 0.500000 0.000000 0.500000
#
# Coordination Sequence:
#
# PCOD8018904 Si02
#       8
#     2   2   2   2   2   2   2   2
#     4  11  20  37  61  91 125 156 203 261 314 361
#     4  11  20  36  64  91 122 162 201 262 318 359
#     4  11  24  42  65  95 125 153 207 271 312 375
#     4  11  21  41  63  89 130 168 209 255 304 378
#     4  10  22  43  64  87 128 175 208 253 309 370
#     4  11  24  42  67  89 123 172 203 252 328 371
#     4  11  20  35  63  98 122 161 206 259 322 369
#     4  10  22  41  62  91 129 161 211 263 304 371
#
# _framework density 21.870471999999999
#
# number of rings (size 3 to 8) (size 9 to 14) (size 15 to 20)
#    0.000    1.250    5.000    2.625    0.000    3.000 
#    0.000    8.750    0.000    0.000    0.000    0.000 
#    0.000    0.000    0.000    0.000    0.000    0.000 
#
# Total GULP energy -198414.604012 kJ/mol
# GULP energy per Si atom -12400.912751 kJ/mol
# Density = 2.182069 g / cm^3
# Si number density = 21.870472 Si / 1000 Ang^3
#
#
#
# Elastic Constant Matrix: (Units=GPa)
#
#
# Indices 1 2 3 4 5 6 
#
# 1 82.7646 24.4235 43.5212 -3.0114 16.3181 -17.6108
# 2 24.4235 105.0864 20.4027 14.7041 -3.9250 -19.9973
# 3 43.5212 20.4027 87.3694 18.6119 6.1847 -17.0679
# 4 -3.0114 14.7041 18.6119 33.6211 -6.5118 -2.1907
# 5 16.3181 -3.9250 6.1847 -6.5118 34.5359 -0.2398
# 6 -17.6108 -19.9973 -17.0679 -2.1907 -0.2398 32.9366
#
#
#
# Elastic Compliance Matrix: (Units=1/GPa)
#
#
# Indices 1 2 3 4 5 6 
#
# 1 0.020921 -0.003449 -0.009920 0.007806 -0.006998 0.004420
# 2 -0.003449 0.012016 0.001039 -0.005418 0.001827 0.005643
# 3 -0.009920 0.001039 0.019726 -0.012145 -0.000984 0.004734
# 4 0.007806 -0.005418 -0.012145 0.040421 0.005473 -0.002681
# 5 -0.006998 0.001827 -0.000984 0.005473 0.033660 -0.002534
# 6 0.004420 0.005643 0.004734 -0.002681 -0.002534 0.038407
#
#
# Mechanical properties :
#
#
# Convention : Reuss Voigt Hill
#
# Bulk Modulus (GPa) = 35.71004 50.21278 42.96141
# Shear Modulus (GPa) = 25.10742 32.67694 28.89218
#
# Velocity S-wave (km/s) = 3.39190 3.86957 3.63858
# Velocity P-wave (km/s) = 5.63058 6.55544 6.11053
#
# Compressibility (1/GPa) = 0.02800333
#
# Stress axis : x y z
#
# Youngs Moduli (GPa) = 47.79930 83.22318 50.69423
#
# Poissons Ratio (x) = 0.28703 0.50289
# Poissons Ratio (y) = 0.16485 -0.05268
# Poissons Ratio (z) = 0.47417 -0.08648
#
# Static dielectric constant tensor:
#      x y z
#    x 3.845550 -0.167900 0.066090 
#    y -0.167900 4.296550 0.304610 
#    z 0.066090 0.304610 4.031820 
# 
# 
# High freq. dielectric constant tensor:
#      x y z
#    x 1.851920 -0.007390 0.008490 
#    y -0.007390 1.875810 0.012660 
#    z 0.008490 0.012660 1.843130 
# 
# From -- ./inp_files/532197.got.cif
#   From: 2010.06.25/outbox.cif.g09.slc.cpg/sg2_267_cif.got.tgz:532197.got - 2010.06.27 13:26:56.
