data_PCOD8018852
_publ_section_title
;
Structure prediction by ZEFSAII (Michael W. Deem and Ramdas Pophale) SiO2 
 PCOD8018852
Probable space group: P -1
;
_chemical_formula_sum "Si O2"
_cell_formula_units_Z 12
_cell_length_a 18.669698
_cell_length_b 15.507074
_cell_length_c 5.154975
_cell_angle_alpha 78.100813
_cell_angle_beta 104.692519
_cell_angle_gamma 160.662381
_cell_volume 475.470002
_symmetry_space_group_name_H-M "P -1"
_symmetry_group_IT_number 2
_symmetry_cell_setting 'triclinic'
loop_
_space_group_symop_operation_xyz
x,y,z
-x,-y,-z
loop_
_atom_site_type_symbol
_atom_site_label
_atom_site_fract_x
_atom_site_fract_y
_atom_site_fract_z
Si Si1 0.273931 0.828444 0.360230
Si Si2 0.060555 0.928393 0.265383
Si Si3 0.533688 0.669066 0.899663
Si Si4 0.824183 0.855711 0.254618
Si Si5 0.823997 0.391153 0.089423
Si Si6 0.346039 0.637239 0.800783
O O1 0.257989 0.767866 0.665275
O O2 0.087021 0.689974 0.193200
O O3 0.511194 0.141163 0.395420
O O4 0.255802 0.732309 0.185021
O O5 0.878451 0.652203 0.353572
O O6 0.293636 0.138436 0.305134
O O7 0.069252 0.017223 0.437419
O O8 0.006490 0.920509 0.952959
O O9 0.289544 0.366374 0.767170
O O10 0.502480 0.730264 0.964314
O O11 0.621727 0.700025 0.179158
O O12 0.727338 0.381921 0.018246
#
# Coordination Sequence:
#
# PCOD8018852 Si02
#       6
#     2   2   2   2   2   2
#     4  10  23  45  65  87 127 164 197 252 317 370
#     4  10  22  41  60  91 126 162 210 252 306 360
#     4   9  22  42  64  89 126 167 211 250 302 364
#     4   9  21  45  61  84 131 174 198 250 313 358
#     4  10  23  45  65  89 124 164 202 250 312 371
#     4  12  23  40  65 102 120 159 211 262 299 368
#
# _framework density 25.238188000000001
#
# number of rings (size 3 to 8) (size 9 to 14) (size 15 to 20)
#    1.000    1.000    0.000    2.500    0.000    4.000 
#   15.000    0.000    0.000    0.000    0.000    0.000 
#    0.000    0.000    0.000    0.000    0.000    0.000 
#
# Total GULP energy -148662.032915 kJ/mol
# GULP energy per Si atom -12388.502743 kJ/mol
# Density = 2.518074 g / cm^3
# Si number density = 25.238188 Si / 1000 Ang^3
#
#
#
# Elastic Constant Matrix: (Units=GPa)
#
#
# Indices 1 2 3 4 5 6 
#
# 1 137.5274 -16.0108 -32.1004 -6.9898 -26.9876 14.8755
# 2 -16.0108 121.2418 -26.0970 -14.5309 -17.4391 47.4523
# 3 -32.1004 -26.0970 43.4672 -5.0245 -14.6469 40.7736
# 4 -6.9898 -14.5309 -5.0245 9.0477 9.4154 0.5071
# 5 -26.9876 -17.4391 -14.6469 9.4154 31.5613 6.6082
# 6 14.8755 47.4523 40.7736 0.5071 6.6082 8.9136
#
#
#
# Elastic Compliance Matrix: (Units=1/GPa)
#
#
# Indices 1 2 3 4 5 6 
#
# 1 0.006350 -0.001982 -0.001858 -0.002730 0.002940 0.006430
# 2 -0.001982 0.004657 -0.005285 0.008191 -0.005307 0.006157
# 3 -0.001858 -0.005285 0.004693 -0.004086 -0.003794 0.012811
# 4 -0.002730 0.008191 -0.004086 0.174832 -0.053879 0.009639
# 5 0.002940 -0.005307 -0.003794 -0.053879 0.043106 0.011808
# 6 0.006430 0.006157 0.012811 0.009639 0.011808 0.000775
#
#
# Mechanical properties :
#
#
# Convention : Reuss Voigt Hill
#
# Bulk Modulus (GPa) = -392.22786 17.09112 -187.56837
# Shear Modulus (GPa) = 19.85600 35.00081 27.42841
#
# Velocity S-wave (km/s) = 2.80794 3.72804 3.30021
# Velocity P-wave (km/s) = 12.05135 5.03167 7.74330
#
# Compressibility (1/GPa) = -0.00254954
#
# Stress axis : x y z
#
# Youngs Moduli (GPa) = 157.49152 214.71701 213.07822
#
# Poissons Ratio (x) = 0.42565 0.39583
# Poissons Ratio (y) = 0.31221 1.12605
# Poissons Ratio (z) = 0.29257 1.13471
#
# Static dielectric constant tensor:
#      x y z
#    x 5.029230 0.368140 -0.170280 
#    y 0.368140 4.646860 -0.026030 
#    z -0.170280 -0.026030 3.904600 
# 
# 
# High freq. dielectric constant tensor:
#      x y z
#    x 2.047680 0.020080 -0.010390 
#    y 0.020080 2.012440 -0.000080 
#    z -0.010390 -0.000080 1.962140 
# 
# From -- ./inp_files/118991.got.cif
#   From: 2010.06.25/outbox.cif.g09.slc.cpg/sg2_60_cif.got.tgz:118991.got - 2010.06.27 13:26:56.
