data_PCOD8018036
_publ_section_title
;
Structure prediction by ZEFSAII (Michael W. Deem and Ramdas Pophale) SiO2 
 PCOD8018036
Probable space group: P -1
;
_chemical_formula_sum "Si O2"
_cell_formula_units_Z 14
_cell_length_a 17.158029
_cell_length_b 28.077790
_cell_length_c 6.547825
_cell_angle_alpha 126.238909
_cell_angle_beta 126.638339
_cell_angle_gamma 15.330844
_cell_volume 667.414378
_symmetry_space_group_name_H-M "P -1"
_symmetry_group_IT_number 2
_symmetry_cell_setting 'triclinic'
loop_
_space_group_symop_operation_xyz
x,y,z
-x,-y,-z
loop_
_atom_site_type_symbol
_atom_site_label
_atom_site_fract_x
_atom_site_fract_y
_atom_site_fract_z
Si Si1 0.898512 0.309754 0.070104
Si Si2 0.327672 0.271530 0.509741
Si Si3 0.798971 0.173629 0.614220
Si Si4 0.289850 0.673187 0.857263
Si Si5 0.032600 0.130859 0.555097
Si Si6 0.095307 0.568474 0.487087
Si Si7 0.998412 0.455525 0.070854
O O1 0.641091 0.478586 0.940389
O O2 0.103956 0.145798 0.851905
O O3 0.786506 0.342698 0.182630
O O4 0.045676 0.286056 0.317341
O O5 0.272488 0.370098 0.757957
O O6 0.075656 0.376597 0.488030
O O7 0.293965 0.287480 0.249939
O O8 0.657867 0.063613 0.560418
O O9 0.450133 0.358327 0.538102
O O10 0.885855 0.159606 0.511334
O O11 0.871353 0.175442 0.921993
O O12 0.000000 0.000000 0.500000
O O13 0.202175 0.714924 0.592049
O O14 0.034127 0.589287 0.203181
O O15 0.000000 0.500000 0.000000
#
# Coordination Sequence:
#
# PCOD8018036 Si02
#       7
#     2   2   2   2   2   2   2
#     4   9  20  39  61  88 122 154 200 244 291 357
#     4  10  23  39  60  88 118 158 201 240 293 360
#     4  10  24  37  59  92 124 148 200 250 291 357
#     4   9  20  40  61  86 123 163 189 241 308 346
#     4  11  23  38  63  90 121 157 198 246 295 351
#     4  10  22  40  61  86 119 161 193 246 296 348
#     4   9  21  39  60  79 120 163 195 235 301 349
#
# _framework density 20.976474
#
# number of rings (size 3 to 8) (size 9 to 14) (size 15 to 20)
#    0.000    2.286    0.000    1.286    8.000    8.000 
#    0.000    1.429    0.000    0.000    0.000    0.000 
#    0.000    0.000    0.000    0.000    0.000    0.000 
#
# Total GULP energy -173453.913845 kJ/mol
# GULP energy per Si atom -12389.565275 kJ/mol
# Density = 2.092873 g / cm^3
# Si number density = 20.976474 Si / 1000 Ang^3
#
#
#
# Elastic Constant Matrix: (Units=GPa)
#
#
# Indices 1 2 3 4 5 6 
#
# 1 80.6099 37.9492 43.8094 -1.3802 -2.4285 0.4377
# 2 37.9492 72.2496 13.4052 6.3480 -5.7110 1.0823
# 3 43.8094 13.4052 130.0352 -3.7632 -2.6357 13.3371
# 4 -1.3802 6.3480 -3.7632 29.7427 10.0671 -0.2972
# 5 -2.4285 -5.7110 -2.6357 10.0671 27.1905 2.2754
# 6 0.4377 1.0823 13.3371 -0.2972 2.2754 34.2009
#
#
#
# Elastic Compliance Matrix: (Units=1/GPa)
#
#
# Indices 1 2 3 4 5 6 
#
# 1 0.020424 -0.010095 -0.006062 0.003126 -0.002259 0.002600
# 2 -0.010095 0.019954 0.001430 -0.006590 0.005995 -0.001516
# 3 -0.006062 0.001430 0.010017 0.000324 0.000939 -0.003934
# 4 0.003126 -0.006590 0.000324 0.040740 -0.016281 0.001480
# 5 -0.002259 0.005995 0.000939 -0.016281 0.044256 -0.003613
# 6 0.002600 -0.001516 -0.003934 0.001480 -0.003613 0.031041
#
#
# Mechanical properties :
#
#
# Convention : Reuss Voigt Hill
#
# Bulk Modulus (GPa) = 47.75360 52.58024 50.16692
# Shear Modulus (GPa) = 24.64686 30.74221 27.69454
#
# Velocity S-wave (km/s) = 3.43151 3.83241 3.63749
# Velocity P-wave (km/s) = 6.20605 6.68610 6.45054
#
# Compressibility (1/GPa) = 0.02094083
#
# Stress axis : x y z
#
# Youngs Moduli (GPa) = 48.96223 50.11630 99.83030
#
# Poissons Ratio (x) = 0.50593 0.60519
# Poissons Ratio (y) = 0.49427 -0.14279
# Poissons Ratio (z) = 0.29682 -0.07168
#
# Static dielectric constant tensor:
#      x y z
#    x 3.605580 0.154590 0.168650 
#    y 0.154590 3.577560 0.204490 
#    z 0.168650 0.204490 4.523010 
# 
# 
# High freq. dielectric constant tensor:
#      x y z
#    x 1.806430 0.014720 -0.000870 
#    y 0.014720 1.803920 0.014600 
#    z -0.000870 0.014600 1.839750 
# 
# From -- ./inp_files/68781.got.cif
#   From: 2010.06.25/outbox.cif.g09.slc.cpg/sg2_35_cif.got.tgz:68781.got - 2010.06.27 13:26:56.
