data_PCOD8018520
_publ_section_title
;
Structure prediction by ZEFSAII (Michael W. Deem and Ramdas Pophale) SiO2 
 PCOD8018520
Probable space group: P -1
;
_chemical_formula_sum "Si O2"
_cell_formula_units_Z 16
_cell_length_a 12.425358
_cell_length_b 5.262109
_cell_length_c 12.573026
_cell_angle_alpha 109.485371
_cell_angle_beta 117.382597
_cell_angle_gamma 71.075762
_cell_volume 673.659666
_symmetry_space_group_name_H-M "P -1"
_symmetry_group_IT_number 2
_symmetry_cell_setting 'triclinic'
loop_
_space_group_symop_operation_xyz
x,y,z
-x,-y,-z
loop_
_atom_site_type_symbol
_atom_site_label
_atom_site_fract_x
_atom_site_fract_y
_atom_site_fract_z
Si Si1 0.812378 0.784188 0.055507
Si Si2 0.371562 0.797270 0.082966
Si Si3 0.285006 0.568709 0.199246
Si Si4 0.631277 0.720543 0.131780
Si Si5 0.079430 0.406340 0.420500
Si Si6 0.485401 0.698117 0.622251
Si Si7 0.656568 0.683929 0.374890
Si Si8 0.938629 0.185118 0.725881
O O1 0.729772 0.866019 0.136579
O O2 0.956536 0.745306 0.139168
O O3 0.793881 0.512890 0.946842
O O4 0.761642 0.027246 0.984420
O O5 0.370171 0.756679 0.205394
O O6 0.495382 0.918314 0.124842
O O7 0.391770 0.511101 0.990887
O O8 0.378297 0.315144 0.263833
O O9 0.195087 0.729334 0.269083
O O10 0.691571 0.615903 0.257823
O O11 0.222399 0.313754 0.501180
O O12 0.059054 0.653834 0.360932
O O13 0.000000 0.500000 0.500000
O O14 0.031665 0.142571 0.318372
O O15 0.500000 0.500000 0.500000
O O16 0.400374 0.572492 0.648299
O O17 0.428351 0.010766 0.607040
#
# Coordination Sequence:
#
# PCOD8018520 Si02
#       8
#     2   2   2   2   2   2   2   2
#     4  11  25  42  72 100 148 193 243 292 363 423
#     4  10  22  41  68 103 144 183 234 298 355 428
#     4  11  25  45  70 110 147 190 239 296 361 437
#     4  10  22  40  67 107 137 185 236 296 360 423
#     4  12  28  51  73 107 143 192 249 303 356 425
#     4  12  26  45  72 105 142 184 235 293 365 429
#     4  12  25  44  75 102 138 187 235 297 365 421
#     4  12  29  48  75 104 147 195 247 297 357 432
#
# _framework density 23.750864
#
# number of rings (size 3 to 8) (size 9 to 14) (size 15 to 20)
#    0.000    0.750    1.250    5.250    8.750    0.500 
#    0.000    0.000    0.000    0.000    0.000    0.000 
#    0.000    0.000    0.000    0.000    0.000    0.000 
#
# Total GULP energy -198323.625832 kJ/mol
# GULP energy per Si atom -12395.226614 kJ/mol
# Density = 2.369681 g / cm^3
# Si number density = 23.750864 Si / 1000 Ang^3
#
#
#
# Elastic Constant Matrix: (Units=GPa)
#
#
# Indices 1 2 3 4 5 6 
#
# 1 73.4876 27.6856 23.8099 9.6953 -1.4603 -2.8604
# 2 27.6856 70.9502 -10.4241 -10.1381 -4.0272 -1.2640
# 3 23.8099 -10.4241 87.7248 -11.4179 6.2850 2.5699
# 4 9.6953 -10.1381 -11.4179 34.2370 -7.2633 1.8035
# 5 -1.4603 -4.0272 6.2850 -7.2633 53.2946 -5.8360
# 6 -2.8604 -1.2640 2.5699 1.8035 -5.8360 32.4414
#
#
#
# Elastic Compliance Matrix: (Units=1/GPa)
#
#
# Indices 1 2 3 4 5 6 
#
# 1 0.023391 -0.012519 -0.009677 -0.013869 -0.000728 0.002981
# 2 -0.012519 0.022071 0.007615 0.013125 0.002084 -0.001202
# 3 -0.009677 0.007615 0.016405 0.010499 -0.000470 -0.002524
# 4 -0.013869 0.013125 0.010499 0.041685 0.004725 -0.003011
# 5 -0.000728 0.002084 -0.000470 0.004725 0.019971 0.003384
# 6 0.002981 -0.001202 -0.002524 -0.003011 0.003384 0.032017
#
#
# Mechanical properties :
#
#
# Convention : Reuss Voigt Hill
#
# Bulk Modulus (GPa) = 30.57718 34.92284 32.75001
# Shear Modulus (GPa) = 25.56208 36.73400 31.14804
#
# Velocity S-wave (km/s) = 3.28420 3.93700 3.62532
# Velocity P-wave (km/s) = 5.22335 5.94999 5.59847
#
# Compressibility (1/GPa) = 0.03270412
#
# Stress axis : x y z
#
# Youngs Moduli (GPa) = 42.75196 45.30914 60.95834
#
# Poissons Ratio (x) = 0.56723 0.58987
# Poissons Ratio (y) = 0.53521 -0.46418
# Poissons Ratio (z) = 0.41369 -0.34502
#
# Static dielectric constant tensor:
#      x y z
#    x 4.616020 0.099200 -0.058070 
#    y 0.099200 4.119820 -0.093700 
#    z -0.058070 -0.093700 4.553150 
# 
# 
# High freq. dielectric constant tensor:
#      x y z
#    x 1.946610 0.000420 -0.003470 
#    y 0.000420 1.932950 -0.003210 
#    z -0.003470 -0.003210 1.958750 
# 
# From -- ./inp_files/410872.got.cif
#   From: 2010.06.25/outbox.cif.g09.slc.cpg/sg2_206_cif.got.tgz:410872.got - 2010.06.27 13:26:56.
