data_PCOD8018834
_publ_section_title
;
Structure prediction by ZEFSAII (Michael W. Deem and Ramdas Pophale) SiO2 
 PCOD8018834
Probable space group: P -1
;
_chemical_formula_sum "Si O2"
_cell_formula_units_Z 14
_cell_length_a 14.404684
_cell_length_b 13.175023
_cell_length_c 12.334353
_cell_angle_alpha 95.843155
_cell_angle_beta 50.001693
_cell_angle_gamma 140.055129
_cell_volume 698.549703
_symmetry_space_group_name_H-M "P -1"
_symmetry_group_IT_number 2
_symmetry_cell_setting 'triclinic'
loop_
_space_group_symop_operation_xyz
x,y,z
-x,-y,-z
loop_
_atom_site_type_symbol
_atom_site_label
_atom_site_fract_x
_atom_site_fract_y
_atom_site_fract_z
Si Si1 0.244562 0.257541 0.529176
Si Si2 0.794624 0.550367 0.122966
Si Si3 0.142836 0.522138 0.145133
Si Si4 0.834540 0.266203 0.567199
Si Si5 0.115842 0.718002 0.096254
Si Si6 0.128289 0.176721 0.838369
Si Si7 0.149968 0.891005 0.285961
O O1 0.425512 0.293339 0.362567
O O2 0.029760 0.072027 0.777239
O O3 0.498350 0.539305 0.404242
O O4 0.048016 0.156515 0.568007
O O5 0.992826 0.805341 0.031237
O O6 0.908763 0.591989 0.929848
O O7 0.867832 0.529921 0.164033
O O8 0.936999 0.316951 0.374315
O O9 0.033012 0.550883 0.203653
O O10 0.497543 0.801908 0.943526
O O11 0.940353 0.255231 0.564679
O O12 0.000000 0.500000 0.500000
O O13 0.465269 0.988706 0.818060
O O14 0.076312 0.780798 0.214820
O O15 0.000000 0.000000 0.000000
#
# Coordination Sequence:
#
# PCOD8018834 Si02
#       7
#     2   2   2   2   2   2   2
#     4   9  20  39  59  87 113 153 197 232 288 347
#     4  10  22  41  58  89 123 144 192 247 294 339
#     4  11  23  39  57  89 123 149 191 247 288 338
#     4  11  21  37  59  87 115 154 201 233 283 341
#     4  11  20  39  63  85 113 158 195 238 284 349
#     4   9  18  37  58  84 115 149 193 232 282 347
#     4  11  20  38  65  83 114 158 199 231 284 353
#
# _framework density 20.041523000000002
#
# number of rings (size 3 to 8) (size 9 to 14) (size 15 to 20)
#    0.857    0.857    4.286    1.286    0.000    3.429 
#    7.714    0.714    0.000    0.000    0.000    0.000 
#    0.000    0.000    0.000    0.000    0.000    0.000 
#
# Total GULP energy -173488.493041 kJ/mol
# GULP energy per Si atom -12392.035217 kJ/mol
# Density = 1.999591 g / cm^3
# Si number density = 20.041523 Si / 1000 Ang^3
#
#
#
# Elastic Constant Matrix: (Units=GPa)
#
#
# Indices 1 2 3 4 5 6 
#
# 1 152.5817 3.3433 48.5520 -9.3549 -5.0734 19.8315
# 2 3.3433 34.8381 9.5263 9.3596 2.2991 18.1904
# 3 48.5520 9.5263 77.0529 -5.3461 21.2162 15.3454
# 4 -9.3549 9.3596 -5.3461 3.4509 -2.8692 25.9738
# 5 -5.0734 2.2991 21.2162 -2.8692 36.4568 5.7489
# 6 19.8315 18.1904 15.3454 25.9738 5.7489 9.0571
#
#
#
# Elastic Compliance Matrix: (Units=1/GPa)
#
#
# Indices 1 2 3 4 5 6 
#
# 1 0.008532 0.000968 -0.007600 -0.004573 0.004827 0.002300
# 2 0.000968 0.043096 -0.005138 -0.023471 0.000618 -0.013052
# 3 -0.007600 -0.005138 0.021682 -0.001125 -0.013788 0.002203
# 4 -0.004573 -0.023471 -0.001125 0.006442 -0.004883 0.043684
# 5 0.004827 0.000618 -0.013788 -0.004883 0.035195 0.003215
# 6 0.002300 -0.013052 0.002203 0.043684 0.003215 0.000536
#
#
# Mechanical properties :
#
#
# Convention : Reuss Voigt Hill
#
# Bulk Modulus (GPa) = 20.09211 43.03511 31.56361
# Shear Modulus (GPa) = 32.13093 23.32968 27.73031
#
# Velocity S-wave (km/s) = 4.00836 3.41554 3.72377
# Velocity P-wave (km/s) = 5.60978 6.08886 5.85422
#
# Compressibility (1/GPa) = 0.04977077
#
# Stress axis : x y z
#
# Youngs Moduli (GPa) = 117.20223 23.20401 46.12135
#
# Poissons Ratio (x) = -0.02247 0.35054
# Poissons Ratio (y) = -0.11349 0.23695
# Poissons Ratio (z) = 0.89079 0.11921
#
# Static dielectric constant tensor:
#      x y z
#    x 5.571200 -1.524880 -3.177810 
#    y -1.524880 4.674000 2.925710 
#    z -3.177810 2.925710 9.315300 
# 
# 
# High freq. dielectric constant tensor:
#      x y z
#    x 1.797470 0.002920 0.003740 
#    y 0.002920 1.754900 0.017130 
#    z 0.003740 0.017130 1.766960 
# 
# From -- ./inp_files/117886.got.cif
#   From: 2010.06.25/outbox.cif.g09.slc.cpg/sg2_59_cif.got.tgz:117886.got - 2010.06.27 13:26:56.
