data_PCOD8018870
_publ_section_title
;
Structure prediction by ZEFSAII (Michael W. Deem and Ramdas Pophale) SiO2 
 PCOD8018870
Probable space group: P -1
;
_chemical_formula_sum "Si O2"
_cell_formula_units_Z 16
_cell_length_a 5.217585
_cell_length_b 16.703370
_cell_length_c 9.123124
_cell_angle_alpha 118.017430
_cell_angle_beta 79.781099
_cell_angle_gamma 90.746800
_cell_volume 688.511110
_symmetry_space_group_name_H-M "P -1"
_symmetry_group_IT_number 2
_symmetry_cell_setting 'triclinic'
loop_
_space_group_symop_operation_xyz
x,y,z
-x,-y,-z
loop_
_atom_site_type_symbol
_atom_site_label
_atom_site_fract_x
_atom_site_fract_y
_atom_site_fract_z
Si Si1 0.689836 0.136788 0.002620
Si Si2 0.888160 0.974102 0.645604
Si Si3 0.585475 0.456645 0.604546
Si Si4 0.388447 0.880021 0.672675
Si Si5 0.167026 0.422445 0.108523
Si Si6 0.899918 0.289317 0.477810
Si Si7 0.161041 0.245191 0.129160
Si Si8 0.839712 0.608103 0.240721
O O1 0.606586 0.098774 0.135951
O O2 0.459413 0.210387 0.033085
O O3 0.964606 0.179717 0.020523
O O4 0.723713 0.058179 0.811517
O O5 0.669918 0.899733 0.590276
O O6 0.000000 0.000000 0.500000
O O7 0.140021 0.940495 0.685273
O O8 0.500000 0.500000 0.500000
O O9 0.596096 0.534220 0.794675
O O10 0.847405 0.390715 0.497328
O O11 0.405822 0.380536 0.617262
O O12 0.340365 0.774866 0.551591
O O13 0.077538 0.344009 0.155005
O O14 0.946975 0.503376 0.169718
O O15 0.250243 0.377355 0.905329
O O16 0.126907 0.244206 0.309281
O O17 0.981410 0.311471 0.656901
#
# Coordination Sequence:
#
# PCOD8018870 Si02
#       8
#     2   2   2   2   2   2   2   2
#     4  11  25  46  71 103 136 181 232 285 350 426
#     4  12  26  48  73 106 140 179 227 286 359 427
#     4  11  22  37  67  94 137 175 239 285 338 400
#     4  11  24  44  76  99 141 182 228 289 345 428
#     4  10  23  40  60  93 133 192 225 287 351 407
#     4  10  24  40  64 104 125 182 234 288 341 401
#     4  11  24  42  69 100 138 175 236 291 343 409
#     4  10  22  41  61  89 139 179 241 276 349 419
#
# _framework density 23.238551000000001
#
# number of rings (size 3 to 8) (size 9 to 14) (size 15 to 20)
#    0.000    1.250    0.000    5.250   10.500    3.000 
#    2.250    0.000    0.000    0.000    0.000    0.000 
#    0.000    0.000    0.000    0.000    0.000    0.000 
#
# Total GULP energy -198276.426974 kJ/mol
# GULP energy per Si atom -12392.276686 kJ/mol
# Density = 2.318566 g / cm^3
# Si number density = 23.238551 Si / 1000 Ang^3
#
#
#
# Elastic Constant Matrix: (Units=GPa)
#
#
# Indices 1 2 3 4 5 6 
#
# 1 99.1799 27.8213 52.0265 -9.5438 11.8318 5.6454
# 2 27.8213 95.9451 58.9593 -5.5879 7.6293 12.2034
# 3 52.0265 58.9593 155.3765 -4.3802 22.7159 13.9699
# 4 -9.5438 -5.5879 -4.3802 31.9013 2.6717 -2.3148
# 5 11.8318 7.6293 22.7159 2.6717 34.3995 0.5184
# 6 5.6454 12.2034 13.9699 -2.3148 0.5184 38.4714
#
#
#
# Elastic Compliance Matrix: (Units=1/GPa)
#
#
# Indices 1 2 3 4 5 6 
#
# 1 0.012793 -0.001255 -0.003401 0.003318 -0.002134 -0.000016
# 2 -0.001255 0.014034 -0.004700 0.001226 0.000365 -0.002492
# 3 -0.003401 -0.004700 0.010152 -0.000193 -0.004452 -0.001648
# 4 0.003318 0.001226 -0.000193 0.032940 -0.003862 0.001228
# 5 -0.002134 0.000365 -0.004452 -0.003862 0.032946 0.001138
# 6 -0.000016 -0.002492 -0.001648 0.001228 0.001138 0.027443
#
#
# Mechanical properties :
#
#
# Convention : Reuss Voigt Hill
#
# Bulk Modulus (GPa) = 54.74047 69.79064 62.26556
# Shear Modulus (GPa) = 32.23552 35.06740 33.65146
#
# Velocity S-wave (km/s) = 3.72850 3.88882 3.80950
# Velocity P-wave (km/s) = 6.49173 7.08953 6.79721
#
# Compressibility (1/GPa) = 0.01826802
#
# Stress axis : x y z
#
# Youngs Moduli (GPa) = 78.16576 71.25547 98.50639
#
# Poissons Ratio (x) = 0.08943 0.33498
# Poissons Ratio (y) = 0.09810 0.46297
# Poissons Ratio (z) = 0.26581 0.33489
#
# Static dielectric constant tensor:
#      x y z
#    x 4.229600 0.073060 0.100490 
#    y 0.073060 4.117390 0.079220 
#    z 0.100490 0.079220 4.192010 
# 
# 
# High freq. dielectric constant tensor:
#      x y z
#    x 1.924130 -0.001110 0.009850 
#    y -0.001110 1.914650 0.010960 
#    z 0.009850 0.010960 1.917100 
# 
# From -- ./inp_files/135654.got.cif
#   From: 2010.06.25/outbox.cif.g09.slc.cpg/sg2_68_cif.got.tgz:135654.got - 2010.06.27 13:26:56.
