data_PCOD8018086
_publ_section_title
;
Structure prediction by ZEFSAII (Michael W. Deem and Ramdas Pophale) SiO2 
 PCOD8018086
Probable space group: P -1
;
_chemical_formula_sum "Si O2"
_cell_formula_units_Z 16
_cell_length_a 23.956989
_cell_length_b 4.724539
_cell_length_c 5.415562
_cell_angle_alpha 94.616291
_cell_angle_beta 67.364839
_cell_angle_gamma 88.443606
_cell_volume 562.787947
_symmetry_space_group_name_H-M "P -1"
_symmetry_group_IT_number 2
_symmetry_cell_setting 'triclinic'
loop_
_space_group_symop_operation_xyz
x,y,z
-x,-y,-z
loop_
_atom_site_type_symbol
_atom_site_label
_atom_site_fract_x
_atom_site_fract_y
_atom_site_fract_z
Si Si1 0.011105 0.742597 0.280083
Si Si2 0.789493 0.205072 0.683413
Si Si3 0.423542 0.794016 0.497420
Si Si4 0.323949 0.395799 0.623398
Si Si5 0.296018 0.265751 0.163093
Si Si6 0.488977 0.258853 0.217621
Si Si7 0.076480 0.207793 0.001650
Si Si8 0.182888 0.572161 0.849047
O O1 0.039106 0.423306 0.287496
O O2 0.068213 0.873031 0.037947
O O3 0.000000 0.000000 0.500000
O O4 0.953085 0.705363 0.204885
O O5 0.726989 0.403101 0.801917
O O6 0.829022 0.239887 0.368271
O O7 0.766346 0.889962 0.718460
O O8 0.830773 0.252581 0.860030
O O9 0.355633 0.696083 0.604049
O O10 0.461856 0.579774 0.209894
O O11 0.453732 0.708955 0.701628
O O12 0.430680 0.130149 0.459210
O O13 0.339997 0.222854 0.326493
O O14 0.252657 0.465734 0.724068
O O15 0.334661 0.198246 0.839363
O O16 0.500000 0.000000 0.000000
O O17 0.145581 0.287744 0.888688
#
# Coordination Sequence:
#
# PCOD8018086 Si02
#       8
#     2   2   2   2   2   2   2   2
#     4  10  22  43  66  91 130 166 225 272 329 384
#     4  10  22  40  62  88 131 174 212 259 316 388
#     4  10  23  40  65  98 124 173 217 272 329 392
#     4  10  23  43  66  99 136 171 218 268 331 401
#     4  10  22  40  62  88 131 174 212 259 316 388
#     4  10  22  43  66  91 130 166 225 272 329 384
#     4  10  23  40  65  98 124 173 217 272 329 392
#     4  10  23  43  66  99 136 171 218 268 331 401
#
# _framework density 28.429891999999999
#
# number of rings (size 3 to 8) (size 9 to 14) (size 15 to 20)
#    0.000    2.000    0.000    1.500    3.500    8.000 
#    4.500    0.000    0.000    0.000    0.000    0.000 
#    0.000    0.000    0.000    0.000    0.000    0.000 
#
# Total GULP energy -198243.112542 kJ/mol
# GULP energy per Si atom -12390.194534 kJ/mol
# Density = 2.836518 g / cm^3
# Si number density = 28.429892 Si / 1000 Ang^3
#
#
#
# Elastic Constant Matrix: (Units=GPa)
#
#
# Indices 1 2 3 4 5 6 
#
# 1 92.6816 42.7589 16.9560 0.9938 11.4839 52.3583
# 2 42.7589 169.3301 17.6680 -6.3632 10.4435 26.3170
# 3 16.9560 17.6680 153.2441 13.5149 39.6973 19.9620
# 4 0.9938 -6.3632 13.5149 37.9504 5.6648 0.4936
# 5 11.4839 10.4435 39.6973 5.6648 46.7195 1.4985
# 6 52.3583 26.3170 19.9620 0.4936 1.4985 62.7006
#
#
#
# Elastic Compliance Matrix: (Units=1/GPa)
#
#
# Indices 1 2 3 4 5 6 
#
# 1 0.022806 -0.002760 0.001732 -0.000572 -0.005804 -0.018294
# 2 -0.002760 0.006805 -0.000374 0.001455 -0.000688 -0.000428
# 3 0.001732 -0.000374 0.009068 -0.002142 -0.007660 -0.003977
# 4 -0.000572 0.001455 -0.002142 0.027625 -0.001726 0.000373
# 5 -0.005804 -0.000688 -0.007660 -0.001726 0.029482 0.006883
# 6 -0.018294 -0.000428 -0.003977 0.000373 0.006883 0.032503
#
#
# Mechanical properties :
#
#
# Convention : Reuss Voigt Hill
#
# Bulk Modulus (GPa) = 27.87353 63.33573 45.60463
# Shear Modulus (GPa) = 34.95233 51.99896 43.47565
#
# Velocity S-wave (km/s) = 3.51012 4.28135 3.91477
# Velocity P-wave (km/s) = 5.12381 6.83858 6.04234
#
# Compressibility (1/GPa) = 0.03587634
#
# Stress axis : x y z
#
# Youngs Moduli (GPa) = 43.84748 146.94860 110.27515
#
# Poissons Ratio (x) = 0.40558 -0.19098
# Poissons Ratio (y) = 0.12102 0.04119
# Poissons Ratio (z) = -0.07594 0.05489
#
# Static dielectric constant tensor:
#      x y z
#    x 5.004680 0.471960 0.270750 
#    y 0.471960 7.182620 -1.099700 
#    z 0.270750 -1.099700 7.502170 
# 
# 
# High freq. dielectric constant tensor:
#      x y z
#    x 2.133620 0.016570 -0.003180 
#    y 0.016570 2.175270 -0.000640 
#    z -0.003180 -0.000640 2.178220 
# 
# From -- ./inp_files/125610.got.cif
#   From: 2010.06.25/outbox.cif.g09.slc.cpg/sg2_63_cif.got.tgz:125610.got - 2010.06.27 13:26:56.
