data_PCOD8018166
_publ_section_title
;
Structure prediction by ZEFSAII (Michael W. Deem and Ramdas Pophale) SiO2 
 PCOD8018166
Probable space group: P -1
;
_chemical_formula_sum "Si O2"
_cell_formula_units_Z 16
_cell_length_a 6.842593
_cell_length_b 14.485823
_cell_length_c 13.262872
_cell_angle_alpha 133.319002
_cell_angle_beta 90.409431
_cell_angle_gamma 117.530640
_cell_volume 733.235979
_symmetry_space_group_name_H-M "P -1"
_symmetry_group_IT_number 2
_symmetry_cell_setting 'triclinic'
loop_
_space_group_symop_operation_xyz
x,y,z
-x,-y,-z
loop_
_atom_site_type_symbol
_atom_site_label
_atom_site_fract_x
_atom_site_fract_y
_atom_site_fract_z
Si Si1 0.967683 0.596361 0.711603
Si Si2 0.378926 0.706753 0.641894
Si Si3 0.766844 0.163609 0.586273
Si Si4 0.414389 0.257732 0.982206
Si Si5 0.564461 0.022200 0.274422
Si Si6 0.998404 0.229276 0.831977
Si Si7 0.810837 0.805472 0.851417
Si Si8 0.015557 0.525262 0.877743
O O1 0.708630 0.416120 0.544377
O O2 0.965054 0.741030 0.786248
O O3 0.194357 0.619521 0.672100
O O4 0.009214 0.608652 0.839933
O O5 0.397928 0.860921 0.725759
O O6 0.643570 0.758132 0.716343
O O7 0.780576 0.133769 0.446139
O O8 0.985154 0.195949 0.685693
O O9 0.794490 0.327426 0.722647
O O10 0.500000 0.000000 0.500000
O O11 0.222607 0.240277 0.888105
O O12 0.385547 0.094420 0.858192
O O13 0.352524 0.277949 0.109458
O O14 0.700902 0.418065 0.072243
O O15 0.275954 0.920013 0.234726
O O16 0.042291 0.400416 0.975301
O O17 0.000000 0.000000 0.000000
#
# Coordination Sequence:
#
# PCOD8018166 Si02
#       8
#     2   2   2   2   2   2   2   2
#     4  11  23  40  63  89 127 168 204 249 308 363
#     4  11  23  40  62  90 128 166 204 250 305 365
#     4  10  22  43  68  92 119 163 206 256 318 365
#     4  11  23  38  61  93 126 161 207 251 306 366
#     4  10  22  40  63  90 127 163 204 255 306 363
#     4  10  22  41  65  91 124 160 207 256 310 361
#     4  12  24  38  62  95 127 166 209 247 301 366
#     4  11  21  42  66  90 124 163 205 257 306 367
#
# _framework density 21.821079999999998
#
# number of rings (size 3 to 8) (size 9 to 14) (size 15 to 20)
#    0.000    1.250    3.750    2.250    1.750    2.000 
#    0.000    3.750    0.000    0.000    0.000    0.000 
#    0.000    0.000    0.000    0.000    0.000    0.000 
#
# Total GULP energy -198379.170427 kJ/mol
# GULP energy per Si atom -12398.698152 kJ/mol
# Density = 2.177141 g / cm^3
# Si number density = 21.821080 Si / 1000 Ang^3
#
#
#
# Elastic Constant Matrix: (Units=GPa)
#
#
# Indices 1 2 3 4 5 6 
#
# 1 100.7995 18.7266 30.0585 0.3933 17.0201 -21.2584
# 2 18.7266 60.6864 17.7738 6.8163 12.1344 -12.8358
# 3 30.0585 17.7738 105.1036 10.8572 13.8488 -4.9619
# 4 0.3933 6.8163 10.8572 48.6526 -9.5962 -0.0564
# 5 17.0201 12.1344 13.8488 -9.5962 34.4236 -5.1549
# 6 -21.2584 -12.8358 -4.9619 -0.0564 -5.1549 30.3950
#
#
#
# Elastic Compliance Matrix: (Units=1/GPa)
#
#
# Indices 1 2 3 4 5 6 
#
# 1 0.013202 -0.000809 -0.002723 -0.000172 -0.004032 0.007763
# 2 -0.000809 0.020262 -0.001704 -0.003642 -0.006073 0.006676
# 3 -0.002723 -0.001704 0.011303 -0.002981 -0.003641 -0.001402
# 4 -0.000172 -0.003642 -0.002981 0.023513 0.009038 -0.000569
# 5 -0.004032 -0.006073 -0.003641 0.009038 0.037221 0.000350
# 6 0.007763 0.006676 -0.001402 -0.000569 0.000350 0.040979
#
#
# Mechanical properties :
#
#
# Convention : Reuss Voigt Hill
#
# Bulk Modulus (GPa) = 29.15817 44.41191 36.78504
# Shear Modulus (GPa) = 29.69438 36.02962 32.86200
#
# Velocity S-wave (km/s) = 3.69292 4.06783 3.88490
# Velocity P-wave (km/s) = 5.61916 6.51613 6.08419
#
# Compressibility (1/GPa) = 0.03429570
#
# Stress axis : x y z
#
# Youngs Moduli (GPa) = 75.74767 49.35323 88.47256
#
# Poissons Ratio (x) = 0.03991 0.24093
# Poissons Ratio (y) = 0.06125 0.15072
# Poissons Ratio (z) = 0.20628 0.08408
#
# Static dielectric constant tensor:
#      x y z
#    x 3.799450 -0.193420 0.329450 
#    y -0.193420 3.999930 -0.222730 
#    z 0.329450 -0.222730 4.515900 
# 
# 
# High freq. dielectric constant tensor:
#      x y z
#    x 1.833970 -0.019270 0.013780 
#    y -0.019270 1.866020 -0.003880 
#    z 0.013780 -0.003880 1.876320 
# 
# From -- ./inp_files/37947.got.cif
#   From: 2010.06.25/outbox.cif.g09.slc.cpg/sg2_19_cif.got.tgz:37947.got - 2010.06.27 13:26:56.
