data_PCOD8018651
_publ_section_title
;
Structure prediction by ZEFSAII (Michael W. Deem and Ramdas Pophale) SiO2 
 PCOD8018651
Probable space group: P -1
;
_chemical_formula_sum "Si O2"
_cell_formula_units_Z 16
_cell_length_a 9.440831
_cell_length_b 12.488255
_cell_length_c 18.287124
_cell_angle_alpha 39.367183
_cell_angle_beta 99.221066
_cell_angle_gamma 131.155379
_cell_volume 703.941136
_symmetry_space_group_name_H-M "P -1"
_symmetry_group_IT_number 2
_symmetry_cell_setting 'triclinic'
loop_
_space_group_symop_operation_xyz
x,y,z
-x,-y,-z
loop_
_atom_site_type_symbol
_atom_site_label
_atom_site_fract_x
_atom_site_fract_y
_atom_site_fract_z
Si Si1 0.967331 0.166147 0.420374
Si Si2 0.208511 0.212609 0.973017
Si Si3 0.688032 0.099224 0.314442
Si Si4 0.184363 0.136962 0.170434
Si Si5 0.758984 0.154891 0.033330
Si Si6 0.304008 0.144911 0.683729
Si Si7 0.517904 0.814030 0.054408
Si Si8 0.348823 0.068012 0.338962
O O1 0.745343 0.018675 0.423742
O O2 0.258101 0.543727 0.229898
O O3 0.872024 0.125553 0.513798
O O4 0.000000 0.000000 0.500000
O O5 0.447865 0.317505 0.921418
O O6 0.365705 0.546577 0.822054
O O7 0.061667 0.005676 0.146324
O O8 0.000000 0.000000 0.000000
O O9 0.428646 0.952222 0.395885
O O10 0.616434 0.921629 0.330509
O O11 0.941115 0.475614 0.115489
O O12 0.188426 0.966160 0.305898
O O13 0.500000 0.500000 0.000000
O O14 0.009484 0.101044 0.220123
O O15 0.662452 0.902972 0.208293
O O16 0.775627 0.102757 0.978172
O O17 0.534515 0.080746 0.059459
O O18 0.500000 0.500000 0.500000
#
# Coordination Sequence:
#
# PCOD8018651 Si02
#       8
#     2   2   2   2   2   2   2   2
#     4  11  22  40  69 100 141 181 229 287 355 416
#     4  11  22  39  69 100 140 180 238 288 351 419
#     4  11  25  43  70 100 137 190 234 286 355 424
#     4  10  24  42  69 103 137 186 237 282 354 430
#     4  10  23  42  67 100 136 180 239 284 341 423
#     4  12  27  45  72 103 145 184 237 295 363 421
#     4  10  22  40  69 100 132 185 234 287 342 421
#     4  11  23  42  68 101 142 181 236 291 352 425
#
# _framework density 22.729171999999998
#
# number of rings (size 3 to 8) (size 9 to 14) (size 15 to 20)
#    0.000    1.250    1.250    4.500   10.500    1.000 
#    0.000    4.375    0.000    0.000    0.000    0.000 
#    0.000    0.000    0.000    0.000    0.000    0.000 
#
# Total GULP energy -198331.010715 kJ/mol
# GULP energy per Si atom -12395.688170 kJ/mol
# Density = 2.267744 g / cm^3
# Si number density = 22.729172 Si / 1000 Ang^3
#
#
#
# Elastic Constant Matrix: (Units=GPa)
#
#
# Indices 1 2 3 4 5 6 
#
# 1 197.5347 50.0965 48.0658 17.8670 6.2917 -12.8782
# 2 50.0965 96.6274 27.6060 16.2960 3.9197 4.4181
# 3 48.0658 27.6060 96.6288 16.2921 8.8641 4.5245
# 4 17.8670 16.2960 16.2921 38.0617 0.7572 10.2938
# 5 6.2917 3.9197 8.8641 0.7572 36.4890 9.7272
# 6 -12.8782 4.4181 4.5245 10.2938 9.7272 39.2433
#
#
#
# Elastic Compliance Matrix: (Units=1/GPa)
#
#
# Indices 1 2 3 4 5 6 
#
# 1 0.006747 -0.002609 -0.002328 -0.002005 -0.001238 0.003609
# 2 -0.002609 0.012799 -0.001757 -0.003165 -0.000102 -0.001239
# 3 -0.002328 -0.001757 0.012828 -0.003446 -0.002302 -0.000571
# 4 -0.002005 -0.003165 -0.003446 0.032479 0.003313 -0.009245
# 5 -0.001238 -0.000102 -0.002302 0.003313 0.030395 -0.008532
# 6 0.003609 -0.001239 -0.000571 -0.009245 -0.008532 0.031412
#
#
# Mechanical properties :
#
#
# Convention : Reuss Voigt Hill
#
# Bulk Modulus (GPa) = 52.67693 71.36972 62.02332
# Shear Modulus (GPa) = 34.15871 40.42698 37.29284
#
# Velocity S-wave (km/s) = 3.88088 4.22197 4.05501
# Velocity P-wave (km/s) = 6.58087 7.43202 7.01936
#
# Compressibility (1/GPa) = 0.01898364
#
# Stress axis : x y z
#
# Youngs Moduli (GPa) = 148.22166 78.13360 77.95586
#
# Poissons Ratio (x) = 0.20388 0.18147
# Poissons Ratio (y) = 0.38677 0.13700
# Poissons Ratio (z) = 0.34504 0.13731
#
# Static dielectric constant tensor:
#      x y z
#    x 4.531150 0.074650 0.211720 
#    y 0.074650 4.222410 0.397320 
#    z 0.211720 0.397320 4.216100 
# 
# 
# High freq. dielectric constant tensor:
#      x y z
#    x 1.919320 0.006910 0.004990 
#    y 0.006910 1.892180 0.018230 
#    z 0.004990 0.018230 1.877870 
# 
# From -- ./inp_files/274704.got.cif
#   From: 2010.06.25/outbox.cif.g09.slc.cpg/sg2_138_cif.got.tgz:274704.got - 2010.06.27 13:26:56.
