data_PCOD8018495
_publ_section_title
;
Structure prediction by ZEFSAII (Michael W. Deem and Ramdas Pophale) SiO2 
 PCOD8018495
Probable space group: P -1
;
_chemical_formula_sum "Si O2"
_cell_formula_units_Z 16
_cell_length_a 11.233357
_cell_length_b 17.393853
_cell_length_c 7.876822
_cell_angle_alpha 118.298586
_cell_angle_beta 54.540446
_cell_angle_gamma 147.740070
_cell_volume 668.643238
_symmetry_space_group_name_H-M "P -1"
_symmetry_group_IT_number 2
_symmetry_cell_setting 'triclinic'
loop_
_space_group_symop_operation_xyz
x,y,z
-x,-y,-z
loop_
_atom_site_type_symbol
_atom_site_label
_atom_site_fract_x
_atom_site_fract_y
_atom_site_fract_z
Si Si1 0.479667 0.091325 0.658914
Si Si2 0.069381 0.880341 0.016740
Si Si3 0.665909 0.322001 0.234477
Si Si4 0.995284 0.622390 0.378064
Si Si5 0.287592 0.385794 0.191022
Si Si6 0.408331 0.612861 0.975232
Si Si7 0.639639 0.805168 0.319155
Si Si8 0.054846 0.709184 0.059734
O O1 0.745834 0.259653 0.624498
O O2 0.337954 0.080604 0.621848
O O3 0.500000 0.000000 0.500000
O O4 0.334544 0.035574 0.897458
O O5 0.903197 0.885617 0.196831
O O6 0.098430 0.830374 0.101250
O O7 0.958476 0.768007 0.843545
O O8 0.588866 0.314267 0.100507
O O9 0.471698 0.258349 0.468089
O O10 0.707326 0.237497 0.114104
O O11 0.923689 0.490857 0.241221
O O12 0.780243 0.555227 0.604637
O O13 0.001683 0.689439 0.282295
O O14 0.387130 0.361535 0.216983
O O15 0.500000 0.500000 0.000000
O O16 0.477404 0.686134 0.178492
O O17 0.161702 0.440385 0.020216
#
# Coordination Sequence:
#
# PCOD8018495 Si02
#       8
#     2   2   2   2   2   2   2   2
#     4  12  24  44  67  93 131 181 223 269 318 395
#     4  11  24  42  66  95 134 172 224 265 324 400
#     4  11  24  40  67 105 130 170 221 275 335 392
#     4  11  24  40  67  96 134 175 216 271 337 382
#     4  11  21  39  66 100 127 170 218 268 335 391
#     4  10  22  40  66  99 141 161 214 284 329 395
#     4  11  25  42  71  96 131 177 219 273 340 381
#     4  11  23  41  65 100 135 168 219 272 331 398
#
# _framework density 23.929054000000001
#
# number of rings (size 3 to 8) (size 9 to 14) (size 15 to 20)
#    0.000    1.000    2.500    5.625    1.750    2.500 
#    0.000    1.250    0.000    3.750    0.000    0.000 
#    0.000    0.000    0.000    0.000    0.000    0.000 
#
# Total GULP energy -198343.267049 kJ/mol
# GULP energy per Si atom -12396.454191 kJ/mol
# Density = 2.387459 g / cm^3
# Si number density = 23.929054 Si / 1000 Ang^3
#
#
#
# Elastic Constant Matrix: (Units=GPa)
#
#
# Indices 1 2 3 4 5 6 
#
# 1 142.3459 24.3340 53.9506 -6.8719 -26.4567 -28.5834
# 2 24.3340 47.8400 24.9221 -11.6152 -12.6292 -10.2795
# 3 53.9506 24.9221 150.2346 -23.4647 -14.6165 -2.1093
# 4 -6.8719 -11.6152 -23.4647 32.5999 -4.5879 0.4683
# 5 -26.4567 -12.6292 -14.6165 -4.5879 39.1152 0.6894
# 6 -28.5834 -10.2795 -2.1093 0.4683 0.6894 35.0572
#
#
#
# Elastic Compliance Matrix: (Units=1/GPa)
#
#
# Indices 1 2 3 4 5 6 
#
# 1 0.011216 -0.000385 -0.003121 0.000732 0.006228 0.008712
# 2 -0.000385 0.028644 -0.002074 0.009821 0.009230 0.007647
# 3 -0.003121 -0.002074 0.009039 0.005326 0.001269 -0.002705
# 4 0.000732 0.009821 0.005326 0.039559 0.010242 0.003067
# 5 0.006228 0.009230 0.001269 0.010242 0.034309 0.007049
# 6 0.008712 0.007647 -0.002705 0.003067 0.007049 0.037528
#
#
# Mechanical properties :
#
#
# Convention : Reuss Voigt Hill
#
# Bulk Modulus (GPa) = 26.49941 60.75933 43.62937
# Shear Modulus (GPa) = 27.16864 37.16871 32.16868
#
# Velocity S-wave (km/s) = 3.37320 3.94545 3.67050
# Velocity P-wave (km/s) = 5.12538 6.79721 6.01962
#
# Compressibility (1/GPa) = 0.03773668
#
# Stress axis : x y z
#
# Youngs Moduli (GPa) = 89.15569 34.91187 110.63619
#
# Poissons Ratio (x) = 0.01346 0.34534
# Poissons Ratio (y) = 0.03436 0.22946
# Poissons Ratio (z) = 0.27829 0.07241
#
# Static dielectric constant tensor:
#      x y z
#    x 4.754870 -0.184430 -0.247660 
#    y -0.184430 4.163110 0.002560 
#    z -0.247660 0.002560 4.229770 
# 
# 
# High freq. dielectric constant tensor:
#      x y z
#    x 1.966470 -0.011230 -0.016860 
#    y -0.011230 1.926190 -0.004820 
#    z -0.016860 -0.004820 1.947590 
# 
# From -- ./inp_files/279683.got.cif
#   From: 2010.06.25/outbox.cif.g09.slc.cpg/sg2_140_cif.got.tgz:279683.got - 2010.06.27 13:26:56.
