data_PCOD8018221
_publ_section_title
;
Structure prediction by ZEFSAII (Michael W. Deem and Ramdas Pophale) SiO2 
 PCOD8018221
Probable space group: P -1
;
_chemical_formula_sum "Si O2"
_cell_formula_units_Z 14
_cell_length_a 9.773518
_cell_length_b 16.113616
_cell_length_c 12.552781
_cell_angle_alpha 154.302659
_cell_angle_beta 115.709313
_cell_angle_gamma 80.846059
_cell_volume 621.710466
_symmetry_space_group_name_H-M "P -1"
_symmetry_group_IT_number 2
_symmetry_cell_setting 'triclinic'
loop_
_space_group_symop_operation_xyz
x,y,z
-x,-y,-z
loop_
_atom_site_type_symbol
_atom_site_label
_atom_site_fract_x
_atom_site_fract_y
_atom_site_fract_z
Si Si1 0.127135 0.700528 0.186351
Si Si2 0.069042 0.215008 0.354443
Si Si3 0.461007 0.997818 0.281461
Si Si4 0.684979 0.812674 0.105647
Si Si5 0.577471 0.663298 0.462030
Si Si6 0.924087 0.350763 0.135501
Si Si7 0.186213 0.205544 0.097833
O O1 0.341716 0.777318 0.339923
O O2 0.139382 0.935701 0.496083
O O3 0.042178 0.623806 0.951103
O O4 0.000000 0.500000 0.000000
O O5 0.293552 0.351844 0.599172
O O6 0.025808 0.399126 0.515687
O O7 0.000000 0.000000 0.000000
O O8 0.960721 0.083204 0.274454
O O9 0.420333 0.109796 0.298904
O O10 0.500755 0.815575 0.037142
O O11 0.289767 0.869163 0.159578
O O12 0.628518 0.591701 0.907823
O O13 0.722400 0.745934 0.928764
O O14 0.653284 0.685675 0.632953
O O15 0.072938 0.320149 0.204323
#
# Coordination Sequence:
#
# PCOD8018221 Si02
#       7
#     2   2   2   2   2   2   2
#     4  10  24  46  70  96 134 174 228 277 332 386
#     4  10  22  40  64 100 132 171 221 267 325 400
#     4  10  24  43  68  96 137 178 217 279 327 395
#     4  10  24  44  64  99 135 178 223 274 333 388
#     4  11  22  43  65 100 136 172 228 266 336 396
#     4  12  23  45  70  98 138 176 220 274 335 393
#     4  11  25  39  69 104 132 177 221 272 335 396
#
# _framework density 22.518521
#
# number of rings (size 3 to 8) (size 9 to 14) (size 15 to 20)
#    0.857    0.571    2.857    1.714    2.000    5.714 
#    2.571    1.429    0.000    0.000    0.000    0.000 
#    0.000    0.000    0.000    0.000    0.000    0.000 
#
# Total GULP energy -173445.645728 kJ/mol
# GULP energy per Si atom -12388.974695 kJ/mol
# Density = 2.246727 g / cm^3
# Si number density = 22.518521 Si / 1000 Ang^3
#
#
#
# Elastic Constant Matrix: (Units=GPa)
#
#
# Indices 1 2 3 4 5 6 
#
# 1 73.3208 28.9391 15.9758 13.6123 -10.5942 5.9276
# 2 28.9391 89.9854 46.7058 27.8471 -3.2649 3.4668
# 3 15.9758 46.7058 103.4750 28.2173 -2.2476 12.9276
# 4 13.6123 27.8471 28.2173 44.7351 0.7779 8.2651
# 5 -10.5942 -3.2649 -2.2476 0.7779 33.8393 15.5388
# 6 5.9276 3.4668 12.9276 8.2651 15.5388 35.7245
#
#
#
# Elastic Compliance Matrix: (Units=1/GPa)
#
#
# Indices 1 2 3 4 5 6 
#
# 1 0.017301 -0.004993 0.000956 -0.001853 0.007620 -0.005618
# 2 -0.004993 0.017528 -0.005897 -0.006281 -0.001707 0.003457
# 3 0.000956 -0.005897 0.014138 -0.004677 0.003048 -0.004946
# 4 -0.001853 -0.006281 -0.004677 0.030592 -0.000185 -0.004387
# 5 0.007620 -0.001707 0.003048 -0.000185 0.041199 -0.020079
# 6 -0.005618 0.003457 -0.004946 -0.004387 -0.020079 0.040127
#
#
# Mechanical properties :
#
#
# Convention : Reuss Voigt Hill
#
# Bulk Modulus (GPa) = 34.36764 50.00253 42.18509
# Shear Modulus (GPa) = 26.25318 34.53714 30.39516
#
# Velocity S-wave (km/s) = 3.41816 3.92052 3.67793
# Velocity P-wave (km/s) = 5.55639 6.53814 6.06716
#
# Compressibility (1/GPa) = 0.02909714
#
# Stress axis : x y z
#
# Youngs Moduli (GPa) = 57.80142 57.05120 70.73213
#
# Poissons Ratio (x) = 0.28488 -0.06759
# Poissons Ratio (y) = 0.28862 0.41710
# Poissons Ratio (z) = -0.05523 0.33643
#
# Static dielectric constant tensor:
#      x y z
#    x 4.254190 0.172230 0.257460 
#    y 0.172230 4.031090 0.540960 
#    z 0.257460 0.540960 4.037700 
# 
# 
# High freq. dielectric constant tensor:
#      x y z
#    x 1.891460 0.008430 0.008690 
#    y 0.008430 1.878290 0.036070 
#    z 0.008690 0.036070 1.881740 
# 
# From -- ./inp_files/432119.got.cif
#   From: 2010.06.25/outbox.cif.g09.slc.cpg/sg2_217_cif.got.tgz:432119.got - 2010.06.27 13:26:56.
