data_PCOD8018858
_publ_section_title
;
Structure prediction by ZEFSAII (Michael W. Deem and Ramdas Pophale) SiO2 
 PCOD8018858
Probable space group: P -1
;
_chemical_formula_sum "Si O2"
_cell_formula_units_Z 12
_cell_length_a 7.386403
_cell_length_b 17.719710
_cell_length_c 6.878452
_cell_angle_alpha 41.967040
_cell_angle_beta 67.514024
_cell_angle_gamma 71.755624
_cell_volume 555.653231
_symmetry_space_group_name_H-M "P -1"
_symmetry_group_IT_number 2
_symmetry_cell_setting 'triclinic'
loop_
_space_group_symop_operation_xyz
x,y,z
-x,-y,-z
loop_
_atom_site_type_symbol
_atom_site_label
_atom_site_fract_x
_atom_site_fract_y
_atom_site_fract_z
Si Si1 0.543075 0.628448 0.767734
Si Si2 0.209427 0.644720 0.135256
Si Si3 0.374175 0.841185 0.222201
Si Si4 0.720191 0.986619 0.741427
Si Si5 0.951235 0.531966 0.745277
Si Si6 0.898424 0.125395 0.088170
O O1 0.442680 0.711661 0.487919
O O2 0.779080 0.632743 0.637575
O O3 0.500000 0.500000 0.000000
O O4 0.443927 0.653999 0.974222
O O5 0.111806 0.582585 0.112969
O O6 0.151049 0.574744 0.484617
O O7 0.117847 0.770144 0.956837
O O8 0.333059 0.900459 0.331725
O O9 0.540367 0.909231 0.916624
O O10 0.189336 0.843279 0.147761
O O11 0.873571 0.912024 0.953799
O O12 0.797040 0.019965 0.433697
O O13 0.000000 0.500000 0.000000
#
# Coordination Sequence:
#
# PCOD8018858 Si02
#       6
#     2   2   2   2   2   2
#     4  10  22  42  62  92 130 167 216 261 313 394
#     4  10  22  41  60  95 127 160 223 258 310 399
#     4  11  22  42  63  92 131 169 209 268 326 373
#     4  10  23  41  63  96 128 159 223 264 315 395
#     4  10  23  42  63  91 129 172 210 268 323 374
#     4  11  22  40  67  93 125 170 208 269 328 375
#
# _framework density 21.596204
#
# number of rings (size 3 to 8) (size 9 to 14) (size 15 to 20)
#    0.000    1.667    1.667    2.000    4.667    0.667 
#    9.000    1.667    0.000    0.000    0.000    0.000 
#    0.000    0.000    0.000    0.000    0.000    0.000 
#
# Total GULP energy -148678.607329 kJ/mol
# GULP energy per Si atom -12389.883944 kJ/mol
# Density = 2.154705 g / cm^3
# Si number density = 21.596204 Si / 1000 Ang^3
#
#
#
# Elastic Constant Matrix: (Units=GPa)
#
#
# Indices 1 2 3 4 5 6 
#
# 1 61.3646 16.9676 22.7972 1.9999 18.3949 -6.7540
# 2 16.9676 78.0571 31.2154 -12.8456 -2.5447 -7.6554
# 3 22.7972 31.2154 91.6250 5.5113 22.4403 6.3737
# 4 1.9999 -12.8456 5.5113 43.0346 -9.9252 -1.3989
# 5 18.3949 -2.5447 22.4403 -9.9252 34.7793 -2.8790
# 6 -6.7540 -7.6554 6.3737 -1.3989 -2.8790 24.6691
#
#
#
# Elastic Compliance Matrix: (Units=1/GPa)
#
#
# Indices 1 2 3 4 5 6 
#
# 1 0.022624 -0.006220 0.000148 -0.006100 -0.014072 0.002238
# 2 -0.006220 0.022780 -0.012027 0.012997 0.017356 0.011236
# 3 0.000148 -0.012027 0.021032 -0.010979 -0.018649 -0.011925
# 4 -0.006100 0.012997 -0.010979 0.034151 0.021808 0.009682
# 5 -0.014072 0.017356 -0.018649 0.021808 0.056899 0.014229
# 6 0.002238 0.011236 -0.011925 0.009682 0.014229 0.049926
#
#
# Mechanical properties :
#
#
# Convention : Reuss Voigt Hill
#
# Bulk Modulus (GPa) = 33.07233 41.44523 37.25878
# Shear Modulus (GPa) = 19.70904 31.16769 25.43837
#
# Velocity S-wave (km/s) = 3.02423 3.80307 3.43579
# Velocity P-wave (km/s) = 5.24803 6.20622 5.74713
#
# Compressibility (1/GPa) = 0.03023676
#
# Stress axis : x y z
#
# Youngs Moduli (GPa) = 44.19995 43.89892 47.54640
#
# Poissons Ratio (x) = 0.27306 -0.00702
# Poissons Ratio (y) = 0.27493 0.57185
# Poissons Ratio (z) = -0.00652 0.52798
#
# Static dielectric constant tensor:
#      x y z
#    x 4.408930 -0.906710 -0.472210 
#    y -0.906710 4.609940 0.148090 
#    z -0.472210 0.148090 4.010780 
# 
# 
# High freq. dielectric constant tensor:
#      x y z
#    x 1.824990 -0.018040 -0.019300 
#    y -0.018040 1.853640 -0.003840 
#    z -0.019300 -0.003840 1.860310 
# 
# From -- ./inp_files/38930.got.cif
#   From: 2010.06.25/outbox.cif.g09.slc.cpg/sg2_20_cif.got.tgz:38930.got - 2010.06.27 13:26:56.
