data_PCOD8018631
_publ_section_title
;
Structure prediction by ZEFSAII (Michael W. Deem and Ramdas Pophale) SiO2 
 PCOD8018631
Probable space group: P -1
;
_chemical_formula_sum "Si O2"
_cell_formula_units_Z 16
_cell_length_a 11.815430
_cell_length_b 8.117676
_cell_length_c 16.264197
_cell_angle_alpha 52.980051
_cell_angle_beta 60.163052
_cell_angle_gamma 102.227483
_cell_volume 728.683196
_symmetry_space_group_name_H-M "P -1"
_symmetry_group_IT_number 2
_symmetry_cell_setting 'triclinic'
loop_
_space_group_symop_operation_xyz
x,y,z
-x,-y,-z
loop_
_atom_site_type_symbol
_atom_site_label
_atom_site_fract_x
_atom_site_fract_y
_atom_site_fract_z
Si Si1 0.635444 0.280727 0.303785
Si Si2 0.043742 0.779894 0.595831
Si Si3 0.335900 0.727734 0.889112
Si Si4 0.786964 0.590930 0.610342
Si Si5 0.235669 0.830870 0.348177
Si Si6 0.044697 0.660587 0.108312
Si Si7 0.328489 0.275802 0.066821
Si Si8 0.607494 0.703872 0.144160
O O1 0.621610 0.167059 0.252621
O O2 0.557386 0.421817 0.283674
O O3 0.859393 0.547502 0.168349
O O4 0.500000 0.000000 0.500000
O O5 0.182634 0.862888 0.446714
O O6 0.833536 0.574650 0.692425
O O7 0.033022 0.590011 0.722484
O O8 0.114217 0.066968 0.533441
O O9 0.537177 0.959708 0.795694
O O10 0.186276 0.725636 0.971355
O O11 0.230229 0.382684 0.047985
O O12 0.870156 0.507632 0.542904
O O13 0.558954 0.339221 0.748222
O O14 0.186744 0.944487 0.260608
O O15 0.172292 0.984920 0.007625
O O16 0.500000 0.500000 0.000000
O O17 0.418413 0.301355 0.941978
#
# Coordination Sequence:
#
# PCOD8018631 Si02
#       8
#     2   2   2   2   2   2   2   2
#     4  11  24  47  71  91 131 170 215 282 342 388
#     4  11  26  39  65 100 139 179 217 267 332 394
#     4  10  22  40  68  96 128 170 224 268 330 397
#     4  11  23  40  65  96 140 175 224 262 330 395
#     4  11  21  42  63  97 141 177 218 267 327 395
#     4  12  24  43  68  98 129 171 224 274 328 390
#     4   9  20  35  63  95 135 173 210 266 324 383
#     4  11  23  42  67  99 127 172 224 274 325 395
#
# _framework density 21.957415000000001
#
# number of rings (size 3 to 8) (size 9 to 14) (size 15 to 20)
#    0.000    1.250    1.250    5.625    7.000    1.000 
#    2.250    0.625    0.000    0.000    0.000    0.000 
#    0.000    0.000    0.000    0.000    0.000    0.000 
#
# Total GULP energy -198243.375355 kJ/mol
# GULP energy per Si atom -12390.210960 kJ/mol
# Density = 2.190744 g / cm^3
# Si number density = 21.957415 Si / 1000 Ang^3
#
#
#
# Elastic Constant Matrix: (Units=GPa)
#
#
# Indices 1 2 3 4 5 6 
#
# 1 77.3204 31.8571 43.1055 9.1304 1.0153 5.0886
# 2 31.8571 122.7346 54.2700 -4.0658 18.5253 -18.4123
# 3 43.1055 54.2700 105.0740 3.0873 22.7206 -3.1122
# 4 9.1304 -4.0658 3.0873 29.0478 12.4859 -3.4909
# 5 1.0153 18.5253 22.7206 12.4859 32.6168 -0.5934
# 6 5.0886 -18.4123 -3.1122 -3.4909 -0.5934 36.7509
#
#
#
# Elastic Compliance Matrix: (Units=1/GPa)
#
#
# Indices 1 2 3 4 5 6 
#
# 1 0.022162 -0.005397 -0.009112 -0.013594 0.013788 -0.007613
# 2 -0.005397 0.013665 -0.002986 0.008615 -0.008665 0.008019
# 3 -0.009112 -0.002986 0.017352 0.006138 -0.012428 0.001618
# 4 -0.013594 0.008615 0.006138 0.053001 -0.028829 0.011287
# 5 0.013788 -0.008665 -0.012428 -0.028829 0.054678 -0.009158
# 6 -0.007613 0.008019 0.001618 0.011287 -0.009158 0.033343
#
#
# Mechanical properties :
#
#
# Convention : Reuss Voigt Hill
#
# Bulk Modulus (GPa) = 54.97423 62.62158 58.79791
# Shear Modulus (GPa) = 21.25374 31.40954 26.33164
#
# Velocity S-wave (km/s) = 3.11457 3.78627 3.46672
# Velocity P-wave (km/s) = 6.16645 6.90622 6.54679
#
# Compressibility (1/GPa) = 0.01819034
#
# Stress axis : x y z
#
# Youngs Moduli (GPa) = 45.12290 73.17975 57.62982
#
# Poissons Ratio (x) = 0.39494 0.52510
# Poissons Ratio (y) = 0.24352 0.17207
# Poissons Ratio (z) = 0.41114 0.21850
#
# Static dielectric constant tensor:
#      x y z
#    x 4.016020 -0.050290 -0.074320 
#    y -0.050290 4.111890 -0.135780 
#    z -0.074320 -0.135780 3.826690 
# 
# 
# High freq. dielectric constant tensor:
#      x y z
#    x 1.870160 -0.004430 -0.005190 
#    y -0.004430 1.869190 -0.007360 
#    z -0.005190 -0.007360 1.855900 
# 
# From -- ./inp_files/515057.got.cif
#   From: 2010.06.25/outbox.cif.g09.slc.cpg/sg2_258_cif.got.tgz:515057.got - 2010.06.27 13:26:56.
