data_PCOD8018266
_publ_section_title
;
Structure prediction by ZEFSAII (Michael W. Deem and Ramdas Pophale) SiO2 
 PCOD8018266
Probable space group: P -1
;
_chemical_formula_sum "Si O2"
_cell_formula_units_Z 14
_cell_length_a 6.953468
_cell_length_b 6.887663
_cell_length_c 16.068805
_cell_angle_alpha 93.394101
_cell_angle_beta 99.922985
_cell_angle_gamma 66.888384
_cell_volume 697.201113
_symmetry_space_group_name_H-M "P -1"
_symmetry_group_IT_number 2
_symmetry_cell_setting 'triclinic'
loop_
_space_group_symop_operation_xyz
x,y,z
-x,-y,-z
loop_
_atom_site_type_symbol
_atom_site_label
_atom_site_fract_x
_atom_site_fract_y
_atom_site_fract_z
Si Si1 0.173046 0.322761 0.760566
Si Si2 0.889519 0.099052 0.683037
Si Si3 0.270356 0.599988 0.024874
Si Si4 0.019277 0.641769 0.619564
Si Si5 0.346730 0.878700 0.173439
Si Si6 0.745935 0.408794 0.532395
Si Si7 0.093177 0.344148 0.118400
O O1 0.183785 0.451974 0.681886
O O2 0.399789 0.218101 0.818264
O O3 0.100635 0.134470 0.725043
O O4 0.001086 0.477936 0.814314
O O5 0.714153 0.190435 0.744196
O O6 0.796493 0.212617 0.592709
O O7 0.945235 0.852037 0.673350
O O8 0.249989 0.789327 0.089793
O O9 0.228199 0.414525 0.064236
O O10 0.500000 0.500000 0.000000
O O11 0.097352 0.697152 0.942040
O O12 0.131483 0.676160 0.546239
O O13 0.814642 0.588854 0.581234
O O14 0.254036 0.130923 0.166730
O O15 0.500000 0.500000 0.500000
#
# Coordination Sequence:
#
# PCOD8018266 Si02
#       7
#     2   2   2   2   2   2   2
#     4  11  23  41  62  95 128 165 213 259 311 375
#     4  11  23  40  64  94 130 167 211 257 315 373
#     4  11  24  44  66  91 127 168 211 265 316 373
#     4  10  22  41  63  91 131 165 206 264 305 368
#     4  12  24  40  67  94 125 173 209 258 325 366
#     4  10  22  40  64  93 128 166 211 254 309 375
#     4  11  24  43  64  91 129 162 214 265 308 381
#
# _framework density 20.080290000000002
#
# number of rings (size 3 to 8) (size 9 to 14) (size 15 to 20)
#    0.000    1.143    4.286    1.714    0.000    4.571 
#    0.000    0.000    0.000    0.000    0.000    0.000 
#    0.000    0.000    0.000    0.000    0.000    0.000 
#
# Total GULP energy -173680.092795 kJ/mol
# GULP energy per Si atom -12405.720914 kJ/mol
# Density = 2.003459 g / cm^3
# Si number density = 20.080290 Si / 1000 Ang^3
#
#
#
# Elastic Constant Matrix: (Units=GPa)
#
#
# Indices 1 2 3 4 5 6 
#
# 1 104.9807 45.3741 32.7043 -8.7703 8.5104 -5.2893
# 2 45.3741 101.4452 31.4870 7.1440 7.0402 -4.5544
# 3 32.7043 31.4870 93.3731 0.4714 0.1132 -3.3879
# 4 -8.7703 7.1440 0.4714 39.2962 2.4096 0.7362
# 5 8.5104 7.0402 0.1132 2.4096 43.2986 -0.3389
# 6 -5.2893 -4.5544 -3.3879 0.7362 -0.3389 22.5013
#
#
#
# Elastic Compliance Matrix: (Units=1/GPa)
#
#
# Indices 1 2 3 4 5 6 
#
# 1 0.013185 -0.005086 -0.002867 0.003994 -0.001968 0.001478
# 2 -0.005086 0.013320 -0.002648 -0.003489 -0.000956 0.001202
# 3 -0.002867 -0.002648 0.012634 -0.000384 0.000988 0.000720
# 4 0.003994 -0.003489 -0.000384 0.027098 -0.001731 -0.000738
# 5 -0.001968 -0.000956 0.000988 -0.001731 0.023731 -0.000093
# 6 0.001478 0.001202 0.000720 -0.000738 -0.000093 0.045164
#
#
# Mechanical properties :
#
#
# Convention : Reuss Voigt Hill
#
# Bulk Modulus (GPa) = 55.75174 57.65887 56.70530
# Shear Modulus (GPa) = 30.80500 33.70145 32.25323
#
# Velocity S-wave (km/s) = 3.92100 4.10119 4.01211
# Velocity P-wave (km/s) = 6.95152 7.15562 7.05431
#
# Compressibility (1/GPa) = 0.01793666
#
# Stress axis : x y z
#
# Youngs Moduli (GPa) = 75.84657 75.07441 79.15273
#
# Poissons Ratio (x) = 0.38180 0.22694
# Poissons Ratio (y) = 0.38573 0.20961
# Poissons Ratio (z) = 0.21746 0.19881
#
# Static dielectric constant tensor:
#      x y z
#    x 3.603340 0.180140 -0.066730 
#    y 0.180140 3.518350 -0.002650 
#    z -0.066730 -0.002650 3.951990 
# 
# 
# High freq. dielectric constant tensor:
#      x y z
#    x 1.783960 0.009900 -0.004300 
#    y 0.009900 1.779660 0.002620 
#    z -0.004300 0.002620 1.804180 
# 
# From -- ./inp_files/7391.got.cif
#   From: 2010.06.25/outbox.cif.g09.slc.cpg/sg2_4_cif.got.tgz:7391.got - 2010.06.27 13:26:56.
