data_PCOD8018691
_publ_section_title
;
Structure prediction by ZEFSAII (Michael W. Deem and Ramdas Pophale) SiO2 
 PCOD8018691
Probable space group: P -1
;
_chemical_formula_sum "Si O2"
_cell_formula_units_Z 16
_cell_length_a 11.710225
_cell_length_b 8.831998
_cell_length_c 12.869900
_cell_angle_alpha 118.666949
_cell_angle_beta 92.271983
_cell_angle_gamma 129.521366
_cell_volume 775.148498
_symmetry_space_group_name_H-M "P -1"
_symmetry_group_IT_number 2
_symmetry_cell_setting 'triclinic'
loop_
_space_group_symop_operation_xyz
x,y,z
-x,-y,-z
loop_
_atom_site_type_symbol
_atom_site_label
_atom_site_fract_x
_atom_site_fract_y
_atom_site_fract_z
Si Si1 0.433124 0.909030 0.084200
Si Si2 0.932381 0.890771 0.847726
Si Si3 0.359030 0.183454 0.254502
Si Si4 0.253016 0.334511 0.623674
Si Si5 0.162099 0.911487 0.357392
Si Si6 0.774779 0.330534 0.355510
Si Si7 0.161152 0.329863 0.838931
Si Si8 0.886085 0.462555 0.630174
O O1 0.331107 0.968579 0.126487
O O2 0.590535 0.058775 0.218493
O O3 0.306486 0.604819 0.992775
O O4 0.500000 0.000000 0.000000
O O5 0.766012 0.819821 0.802385
O O6 0.877162 0.630996 0.746821
O O7 0.082187 0.103402 0.841011
O O8 0.000000 0.000000 0.000000
O O9 0.551944 0.467899 0.341626
O O10 0.322527 0.119990 0.354794
O O11 0.175656 0.428096 0.611423
O O12 0.244929 0.318804 0.743058
O O13 0.142397 0.053562 0.480077
O O14 0.193675 0.772869 0.375967
O O15 0.985383 0.702602 0.216727
O O16 0.768331 0.338639 0.482368
O O17 0.917111 0.354633 0.332612
#
# Coordination Sequence:
#
# PCOD8018691 Si02
#       8
#     2   2   2   2   2   2   2   2
#     4  11  21  42  70  99 124 167 228 270 316 378
#     4  11  28  44  64  93 142 175 208 267 333 394
#     4  10  24  43  67  93 132 171 215 272 320 391
#     4  11  21  43  68 100 122 168 226 270 319 376
#     4  11  23  39  71  97 130 172 218 268 324 392
#     4  10  22  40  69  94 137 163 214 286 311 376
#     4  11  23  41  70  95 126 173 225 263 313 402
#     4  11  24  42  63  99 133 172 215 264 334 379
#
# _framework density 20.641204999999999
#
# number of rings (size 3 to 8) (size 9 to 14) (size 15 to 20)
#    0.000    1.250    3.750    2.250    8.750    2.000 
#    2.250    4.375    0.000    0.000    0.000    0.000 
#    0.000    0.000    0.000    0.000    0.000    0.000 
#
# Total GULP energy -198495.611982 kJ/mol
# GULP energy per Si atom -12405.975749 kJ/mol
# Density = 2.059422 g / cm^3
# Si number density = 20.641205 Si / 1000 Ang^3
#
#
#
# Elastic Constant Matrix: (Units=GPa)
#
#
# Indices 1 2 3 4 5 6 
#
# 1 101.1483 26.8536 57.5583 -3.9926 -6.8878 -4.2784
# 2 26.8536 95.0429 46.8149 -12.8040 9.3100 -6.2968
# 3 57.5583 46.8149 150.3616 -4.5981 0.5690 -11.5666
# 4 -3.9926 -12.8040 -4.5981 41.4933 2.2528 -0.7566
# 5 -6.8878 9.3100 0.5690 2.2528 35.9715 0.9315
# 6 -4.2784 -6.2968 -11.5666 -0.7566 0.9315 32.8769
#
#
#
# Elastic Compliance Matrix: (Units=1/GPa)
#
#
# Indices 1 2 3 4 5 6 
#
# 1 0.013120 -0.001809 -0.004493 0.000035 0.003057 -0.000306
# 2 -0.001809 0.013700 -0.003328 0.003935 -0.004123 0.001425
# 3 -0.004493 -0.003328 0.009561 -0.000351 -0.000184 0.002139
# 4 0.000035 0.003935 -0.000351 0.025445 -0.002633 0.001295
# 5 0.003057 -0.004123 -0.000184 -0.002633 0.029655 -0.001357
# 6 -0.000306 0.001425 0.002139 0.001295 -0.001357 0.031470
#
#
# Mechanical properties :
#
#
# Convention : Reuss Voigt Hill
#
# Bulk Modulus (GPa) = 58.40363 67.66737 63.03550
# Shear Modulus (GPa) = 33.80228 36.42340 35.11284
#
# Velocity S-wave (km/s) = 4.05113 4.20527 4.12892
# Velocity P-wave (km/s) = 7.08790 7.51218 7.30312
#
# Compressibility (1/GPa) = 0.01712222
#
# Stress axis : x y z
#
# Youngs Moduli (GPa) = 76.21837 72.99273 104.58974
#
# Poissons Ratio (x) = 0.13203 0.46995
# Poissons Ratio (y) = 0.13786 0.34802
# Poissons Ratio (z) = 0.34247 0.24288
#
# Static dielectric constant tensor:
#      x y z
#    x 3.708980 0.062220 -0.063760 
#    y 0.062220 3.791090 -0.090360 
#    z -0.063760 -0.090360 3.898160 
# 
# 
# High freq. dielectric constant tensor:
#      x y z
#    x 1.804500 0.008080 -0.006890 
#    y 0.008080 1.809990 -0.002310 
#    z -0.006890 -0.002310 1.816790 
# 
# From -- ./inp_files/224053.got.cif
#   From: 2010.06.25/outbox.cif.g09.slc.cpg/sg2_113_cif.got.tgz:224053.got - 2010.06.27 13:26:56.
