data_PCOD8018519
_publ_section_title
;
Structure prediction by ZEFSAII (Michael W. Deem and Ramdas Pophale) SiO2 
 PCOD8018519
Probable space group: P -1
;
_chemical_formula_sum "Si O2"
_cell_formula_units_Z 14
_cell_length_a 11.236634
_cell_length_b 14.362698
_cell_length_c 5.381580
_cell_angle_alpha 63.222971
_cell_angle_beta 84.751877
_cell_angle_gamma 49.880139
_cell_volume 567.231807
_symmetry_space_group_name_H-M "P -1"
_symmetry_group_IT_number 2
_symmetry_cell_setting 'triclinic'
loop_
_space_group_symop_operation_xyz
x,y,z
-x,-y,-z
loop_
_atom_site_type_symbol
_atom_site_label
_atom_site_fract_x
_atom_site_fract_y
_atom_site_fract_z
Si Si1 0.483686 0.775447 0.845603
Si Si2 0.487086 0.416381 0.300670
Si Si3 0.765087 0.917562 0.456513
Si Si4 0.092041 0.374943 0.328622
Si Si5 0.767327 0.201033 0.820917
Si Si6 0.232372 0.454699 0.569359
Si Si7 0.909621 0.921645 0.920355
O O1 0.497678 0.710299 0.656512
O O2 0.423207 0.932362 0.646406
O O3 0.327198 0.815139 0.950243
O O4 0.652320 0.661547 0.096820
O O5 0.634039 0.354543 0.533284
O O6 0.315298 0.509147 0.367958
O O7 0.500000 0.500000 0.000000
O O8 0.825147 0.909865 0.176555
O O9 0.786091 0.779883 0.637337
O O10 0.873191 0.899147 0.682054
O O11 0.945459 0.404075 0.471143
O O12 0.208260 0.375533 0.475119
O O13 0.000000 0.500000 0.000000
O O14 0.895388 0.198446 0.940653
O O15 0.856677 0.074769 0.752914
#
# Coordination Sequence:
#
# PCOD8018519 Si02
#       7
#     2   2   2   2   2   2   2
#     4  10  22  44  67 101 141 184 238 299 356 432
#     4  11  23  42  69 104 148 190 231 290 366 439
#     4  11  25  43  75 103 142 187 247 303 360 422
#     4  11  26  49  73 101 138 191 244 307 363 427
#     4   9  21  38  64  97 146 186 238 289 355 425
#     4  10  25  47  70 102 143 185 245 296 364 437
#     4  10  22  40  67 105 142 188 238 300 355 426
#
# _framework density 24.681270000000001
#
# number of rings (size 3 to 8) (size 9 to 14) (size 15 to 20)
#    0.000    1.714    1.429    0.857    6.000    8.000 
#    0.000    2.857    0.000    0.000    0.000    0.000 
#    0.000    0.000    0.000    0.000    0.000    0.000 
#
# Total GULP energy -173509.422117 kJ/mol
# GULP energy per Si atom -12393.530151 kJ/mol
# Density = 2.462509 g / cm^3
# Si number density = 24.681270 Si / 1000 Ang^3
#
#
#
# Elastic Constant Matrix: (Units=GPa)
#
#
# Indices 1 2 3 4 5 6 
#
# 1 76.0864 19.6247 31.7882 -4.8196 22.6450 -17.2191
# 2 19.6247 90.7790 13.6974 -17.7708 2.8062 10.9717
# 3 31.7882 13.6974 90.8969 -3.0523 5.2342 -1.3319
# 4 -4.8196 -17.7708 -3.0523 36.9714 6.7253 5.9863
# 5 22.6450 2.8062 5.2342 6.7253 43.0347 -0.5957
# 6 -17.2191 10.9717 -1.3319 5.9863 -0.5957 35.0148
#
#
#
# Elastic Compliance Matrix: (Units=1/GPa)
#
#
# Indices 1 2 3 4 5 6 
#
# 1 0.023395 -0.005287 -0.006570 -0.000101 -0.010975 0.012742
# 2 -0.005287 0.014706 -0.000267 0.007637 0.000544 -0.008515
# 3 -0.006570 -0.000267 0.013204 0.000207 0.001799 -0.002650
# 4 -0.000101 0.007637 0.000207 0.033096 -0.005756 -0.008191
# 5 -0.010975 0.000544 0.001799 -0.005756 0.029602 -0.004011
# 6 0.012742 -0.008515 -0.002650 -0.008191 -0.004011 0.038725
#
#
# Mechanical properties :
#
#
# Convention : Reuss Voigt Hill
#
# Bulk Modulus (GPa) = 36.95715 43.10920 40.03317
# Shear Modulus (GPa) = 26.88275 35.84766 31.36521
#
# Velocity S-wave (km/s) = 3.30388 3.81520 3.56871
# Velocity P-wave (km/s) = 5.43695 6.07552 5.76508
#
# Compressibility (1/GPa) = 0.02705836
#
# Stress axis : x y z
#
# Youngs Moduli (GPa) = 42.74456 67.99841 75.73628
#
# Poissons Ratio (x) = 0.35949 0.49756
# Poissons Ratio (y) = 0.22598 0.02021
# Poissons Ratio (z) = 0.28082 0.01815
#
# Static dielectric constant tensor:
#      x y z
#    x 4.398180 -0.213860 0.269300 
#    y -0.213860 5.038460 -0.161820 
#    z 0.269300 -0.161820 4.651770 
# 
# 
# High freq. dielectric constant tensor:
#      x y z
#    x 1.973860 -0.004570 0.013400 
#    y -0.004570 1.995510 -0.003690 
#    z 0.013400 -0.003690 1.982200 
# 
# From -- ./inp_files/77151.got.cif
#   From: 2010.06.25/outbox.cif.g09.slc.cpg/sg2_39_cif.got.tgz:77151.got - 2010.06.27 13:26:56.
