data_PCOD8018209
_publ_section_title
;
Structure prediction by ZEFSAII (Michael W. Deem and Ramdas Pophale) SiO2 
 PCOD8018209
Probable space group: P -1
;
_chemical_formula_sum "Si O2"
_cell_formula_units_Z 16
_cell_length_a 5.429148
_cell_length_b 11.864683
_cell_length_c 22.886992
_cell_angle_alpha 31.409977
_cell_angle_beta 64.807975
_cell_angle_gamma 60.219096
_cell_volume 666.849943
_symmetry_space_group_name_H-M "P -1"
_symmetry_group_IT_number 2
_symmetry_cell_setting 'triclinic'
loop_
_space_group_symop_operation_xyz
x,y,z
-x,-y,-z
loop_
_atom_site_type_symbol
_atom_site_label
_atom_site_fract_x
_atom_site_fract_y
_atom_site_fract_z
Si Si1 0.705002 0.939960 0.562168
Si Si2 0.590206 0.493343 0.787951
Si Si3 0.855565 0.581993 0.387172
Si Si4 0.431564 0.313461 0.510866
Si Si5 0.807363 0.160459 0.821554
Si Si6 0.292496 0.168256 0.109057
Si Si7 0.968279 0.414879 0.132177
Si Si8 0.826878 0.250070 0.978745
O O1 0.771990 0.671291 0.684051
O O2 0.500000 0.000000 0.500000
O O3 0.551914 0.069251 0.577771
O O4 0.000000 0.000000 0.500000
O O5 0.570875 0.372334 0.780931
O O6 0.287785 0.631315 0.784598
O O7 0.737165 0.272914 0.910071
O O8 0.685482 0.433078 0.435875
O O9 0.667454 0.715541 0.400466
O O10 0.166577 0.445421 0.439610
O O11 0.910955 0.762822 0.255808
O O12 0.691673 0.077550 0.810250
O O13 0.884471 0.949349 0.952727
O O14 0.138446 0.193022 0.177158
O O15 0.118973 0.368096 0.996847
O O16 0.606330 0.192362 0.071878
O O17 0.169042 0.492532 0.123240
#
# Coordination Sequence:
#
# PCOD8018209 Si02
#       8
#     2   2   2   2   2   2   2   2
#     4  12  27  47  72 100 137 179 228 281 343 404
#     4  11  25  41  65  94 132 174 218 275 332 400
#     4  10  23  43  73  99 136 173 226 288 335 403
#     4  10  22  46  69 100 133 176 229 282 341 395
#     4  11  23  39  63  96 130 175 218 268 335 395
#     4   9  20  38  62  89 128 169 217 267 324 395
#     4   9  20  40  61  89 128 168 216 270 327 391
#     4  10  22  40  63  96 131 171 220 270 332 401
#
# _framework density 23.993404999999999
#
# number of rings (size 3 to 8) (size 9 to 14) (size 15 to 20)
#    0.000    1.750    0.000    3.000    5.250    6.500 
#    0.000    0.000    0.000    0.000    0.000    0.000 
#    0.000    0.000    0.000    0.000    0.000    0.000 
#
# Total GULP energy -198269.609700 kJ/mol
# GULP energy per Si atom -12391.850606 kJ/mol
# Density = 2.393879 g / cm^3
# Si number density = 23.993405 Si / 1000 Ang^3
#
#
#
# Elastic Constant Matrix: (Units=GPa)
#
#
# Indices 1 2 3 4 5 6 
#
# 1 112.3982 33.3579 26.2258 -5.3780 -29.6224 4.0267
# 2 33.3579 186.6315 50.0462 -14.0932 -25.1454 17.7927
# 3 26.2258 50.0462 84.3737 -0.9968 -22.2417 -2.4226
# 4 -5.3780 -14.0932 -0.9968 31.3263 0.2702 -7.9541
# 5 -29.6224 -25.1454 -22.2417 0.2702 38.4398 -2.2982
# 6 4.0267 17.7927 -2.4226 -7.9541 -2.2982 26.4919
#
#
#
# Elastic Compliance Matrix: (Units=1/GPa)
#
#
# Indices 1 2 3 4 5 6 
#
# 1 0.011466 -0.000533 -0.001193 0.001532 0.007764 -0.000360
# 2 -0.000533 0.007283 -0.003757 0.001929 0.001903 -0.004410
# 3 -0.001193 -0.003757 0.016243 -0.000249 0.006302 0.004662
# 4 0.001532 0.001929 -0.000249 0.035384 0.002606 0.009298
# 5 0.007764 0.001903 0.006302 0.002606 0.036997 0.002110
# 6 -0.000360 -0.004410 0.004662 0.009298 0.002110 0.044165
#
#
# Mechanical properties :
#
#
# Convention : Reuss Voigt Hill
#
# Bulk Modulus (GPa) = 41.62034 66.96259 54.29146
# Shear Modulus (GPa) = 29.32317 37.50316 33.41317
#
# Velocity S-wave (km/s) = 3.49970 3.95785 3.73580
# Velocity P-wave (km/s) = 5.80644 6.98966 6.42535
#
# Compressibility (1/GPa) = 0.02402671
#
# Stress axis : x y z
#
# Youngs Moduli (GPa) = 87.21335 137.30099 61.56359
#
# Poissons Ratio (x) = 0.07322 0.07345
# Poissons Ratio (y) = 0.04651 0.23127
# Poissons Ratio (z) = 0.10406 0.51578
#
# Static dielectric constant tensor:
#      x y z
#    x 4.269050 0.203320 -0.154410 
#    y 0.203320 4.556350 0.086540 
#    z -0.154410 0.086540 4.073750 
# 
# 
# High freq. dielectric constant tensor:
#      x y z
#    x 1.944080 0.010980 -0.015790 
#    y 0.010980 1.964280 0.003110 
#    z -0.015790 0.003110 1.935020 
# 
# From -- ./inp_files/113282.got.cif
#   From: 2010.06.25/outbox.cif.g09.slc.cpg/sg2_57_cif.got.tgz:113282.got - 2010.06.27 13:26:56.
