data_PCOD8018793
_publ_section_title
;
Structure prediction by ZEFSAII (Michael W. Deem and Ramdas Pophale) SiO2 
 PCOD8018793
Probable space group: P -1
;
_chemical_formula_sum "Si O2"
_cell_formula_units_Z 16
_cell_length_a 8.680980
_cell_length_b 8.108870
_cell_length_c 11.751186
_cell_angle_alpha 105.222905
_cell_angle_beta 77.578619
_cell_angle_gamma 66.545813
_cell_volume 682.834012
_symmetry_space_group_name_H-M "P -1"
_symmetry_group_IT_number 2
_symmetry_cell_setting 'triclinic'
loop_
_space_group_symop_operation_xyz
x,y,z
-x,-y,-z
loop_
_atom_site_type_symbol
_atom_site_label
_atom_site_fract_x
_atom_site_fract_y
_atom_site_fract_z
Si Si1 0.777564 0.857729 0.415820
Si Si2 0.329892 0.382188 0.443325
Si Si3 0.176081 0.558618 0.277709
Si Si4 0.937321 0.653802 0.908919
Si Si5 0.730487 0.220050 0.387558
Si Si6 0.607648 0.315334 0.871715
Si Si7 0.957694 0.982767 0.871412
Si Si8 0.277672 0.285123 0.836893
O O1 0.686650 0.782553 0.510584
O O2 0.704665 0.834021 0.300861
O O3 0.989510 0.737624 0.378829
O O4 0.726949 0.087071 0.471619
O O5 0.243416 0.395544 0.335963
O O6 0.536809 0.319173 0.377040
O O7 0.229660 0.604016 0.551128
O O8 0.149079 0.475034 0.147722
O O9 0.322629 0.629437 0.244332
O O10 0.919999 0.800611 0.839060
O O11 0.149746 0.517814 0.878836
O O12 0.826787 0.770482 0.059692
O O13 0.876557 0.067719 0.248568
O O14 0.477153 0.230586 0.837272
O O15 0.500000 0.500000 0.000000
O O16 0.778979 0.167166 0.890367
O O17 0.000000 0.000000 0.000000
#
# Coordination Sequence:
#
# PCOD8018793 Si02
#       8
#     2   2   2   2   2   2   2   2
#     4  11  23  47  70 101 140 187 237 287 355 406
#     4  11  27  44  74 101 143 188 239 290 343 418
#     4  11  24  45  69 102 141 183 235 288 347 416
#     4  10  22  42  69  99 138 182 224 288 353 412
#     4  11  25  47  68 109 138 184 238 288 356 411
#     4  12  25  43  68 104 142 182 230 285 353 418
#     4  12  26  43  72 105 143 179 229 293 354 417
#     4  10  22  40  71  99 139 179 229 282 352 418
#
# _framework density 23.431757999999999
#
# number of rings (size 3 to 8) (size 9 to 14) (size 15 to 20)
#    0.000    1.000    2.500    3.750    8.750    2.000 
#    2.250    0.000    0.000    0.000    0.000    0.000 
#    0.000    0.000    0.000    0.000    0.000    0.000 
#
# Total GULP energy -198345.739968 kJ/mol
# GULP energy per Si atom -12396.608748 kJ/mol
# Density = 2.337843 g / cm^3
# Si number density = 23.431758 Si / 1000 Ang^3
#
#
#
# Elastic Constant Matrix: (Units=GPa)
#
#
# Indices 1 2 3 4 5 6 
#
# 1 83.1443 37.6479 34.4712 -0.8230 -11.6767 -14.9039
# 2 37.6479 128.0830 40.9205 -15.5501 -6.5780 -1.8197
# 3 34.4712 40.9205 75.9552 -17.1614 -9.4823 -15.7069
# 4 -0.8230 -15.5501 -17.1614 35.3312 -5.1270 -9.5465
# 5 -11.6767 -6.5780 -9.4823 -5.1270 30.0530 -5.9634
# 6 -14.9039 -1.8197 -15.7069 -9.5465 -5.9634 44.2242
#
#
#
# Elastic Compliance Matrix: (Units=1/GPa)
#
#
# Indices 1 2 3 4 5 6 
#
# 1 0.016939 -0.003334 -0.004746 -0.001522 0.004933 0.004222
# 2 -0.003334 0.010253 -0.003945 0.002016 -0.000291 -0.001707
# 3 -0.004746 -0.003945 0.024203 0.014336 0.009602 0.011224
# 4 -0.001522 0.002016 0.014336 0.042542 0.014773 0.015837
# 5 0.004933 -0.000291 0.009602 0.014773 0.043478 0.014112
# 6 0.004222 -0.001707 0.011224 0.015837 0.014112 0.033273
#
#
# Mechanical properties :
#
#
# Convention : Reuss Voigt Hill
#
# Bulk Modulus (GPa) = 36.56805 57.02907 46.79856
# Shear Modulus (GPa) = 24.52745 33.53121 29.02933
#
# Velocity S-wave (km/s) = 3.23888 3.78698 3.52360
# Velocity P-wave (km/s) = 5.44309 6.59643 6.04731
#
# Compressibility (1/GPa) = 0.02734627
#
# Stress axis : x y z
#
# Youngs Moduli (GPa) = 59.03437 97.53051 41.31636
#
# Poissons Ratio (x) = 0.32517 0.19610
# Poissons Ratio (y) = 0.19683 0.16297
# Poissons Ratio (z) = 0.28019 0.38471
#
# Static dielectric constant tensor:
#      x y z
#    x 4.321060 0.056200 -0.148700 
#    y 0.056200 4.398650 -0.107850 
#    z -0.148700 -0.107850 4.063770 
# 
# 
# High freq. dielectric constant tensor:
#      x y z
#    x 1.932320 -0.002130 -0.009960 
#    y -0.002130 1.933960 -0.007410 
#    z -0.009960 -0.007410 1.920310 
# 
# From -- ./inp_files/382261.got.cif
#   From: 2010.06.25/outbox.cif.g09.slc.cpg/sg2_192_cif.got.tgz:382261.got - 2010.06.27 13:26:56.
