data_PCOD8018251
_publ_section_title
;
Structure prediction by ZEFSAII (Michael W. Deem and Ramdas Pophale) SiO2 
 PCOD8018251
Probable space group: P -1
;
_chemical_formula_sum "Si O2"
_cell_formula_units_Z 16
_cell_length_a 12.230947
_cell_length_b 9.237710
_cell_length_c 9.175948
_cell_angle_alpha 46.811878
_cell_angle_beta 93.525646
_cell_angle_gamma 105.558716
_cell_volume 717.125321
_symmetry_space_group_name_H-M "P -1"
_symmetry_group_IT_number 2
_symmetry_cell_setting 'triclinic'
loop_
_space_group_symop_operation_xyz
x,y,z
-x,-y,-z
loop_
_atom_site_type_symbol
_atom_site_label
_atom_site_fract_x
_atom_site_fract_y
_atom_site_fract_z
Si Si1 0.278404 0.822124 0.823975
Si Si2 0.472532 0.023494 0.313318
Si Si3 0.530121 0.305148 0.698993
Si Si4 0.719610 0.894854 0.116743
Si Si5 0.246034 0.467474 0.259630
Si Si6 0.134300 0.382366 0.603665
Si Si7 0.878919 0.175376 0.703234
Si Si8 0.746395 0.941889 0.613245
O O1 0.410414 0.815661 0.851387
O O2 0.260476 0.014139 0.781168
O O3 0.245774 0.864099 0.628273
O O4 0.204492 0.598604 0.039777
O O5 0.360827 0.102174 0.251175
O O6 0.500000 0.000000 0.500000
O O7 0.443374 0.814205 0.357721
O O8 0.500000 0.500000 0.500000
O O9 0.418829 0.171407 0.879381
O O10 0.641171 0.377533 0.760409
O O11 0.768752 0.696945 0.254005
O O12 0.787842 0.077436 0.889547
O O13 0.145939 0.388657 0.424723
O O14 0.269524 0.270055 0.326008
O O15 0.143660 0.613093 0.501480
O O16 0.008561 0.221423 0.741054
O O17 0.859292 0.016227 0.673882
#
# Coordination Sequence:
#
# PCOD8018251 Si02
#       8
#     2   2   2   2   2   2   2   2
#     4  10  22  40  64  91 134 171 210 261 322 385
#     4   9  20  37  58  90 134 166 205 269 312 370
#     4  11  21  37  68  98 131 179 212 257 328 398
#     4  11  22  42  69  98 129 168 219 267 323 395
#     4  12  23  41  65  96 131 178 215 257 327 398
#     4  11  23  46  70  92 130 166 223 275 322 394
#     4  11  26  43  70  97 122 172 223 276 326 372
#     4  11  24  44  60  96 135 169 215 274 319 376
#
# _framework density 22.311302999999999
#
# number of rings (size 3 to 8) (size 9 to 14) (size 15 to 20)
#    0.000    1.250    3.750    2.625    1.750    3.000 
#    2.250    0.625    0.000    0.000    0.000    0.000 
#    0.000    0.000    0.000    0.000    0.000    0.000 
#
# Total GULP energy -198317.973941 kJ/mol
# GULP energy per Si atom -12394.873371 kJ/mol
# Density = 2.226052 g / cm^3
# Si number density = 22.311303 Si / 1000 Ang^3
#
#
#
# Elastic Constant Matrix: (Units=GPa)
#
#
# Indices 1 2 3 4 5 6 
#
# 1 80.2389 33.9163 11.4827 -0.2494 -16.3338 0.1219
# 2 33.9163 123.2123 16.2697 5.6292 -11.5541 -5.0194
# 3 11.4827 16.2697 66.1638 -5.1145 -18.6242 5.3605
# 4 -0.2494 5.6292 -5.1145 24.6046 -3.4451 3.7719
# 5 -16.3338 -11.5541 -18.6242 -3.4451 35.0782 -3.7097
# 6 0.1219 -5.0194 5.3605 3.7719 -3.7097 28.5969
#
#
#
# Elastic Compliance Matrix: (Units=1/GPa)
#
#
# Indices 1 2 3 4 5 6 
#
# 1 0.015279 -0.003750 0.000164 0.001939 0.006135 -0.000214
# 2 -0.003750 0.009696 -0.002087 -0.003038 0.000311 0.002550
# 3 0.000164 -0.002087 0.019136 0.006369 0.009802 -0.003523
# 4 0.001939 -0.003038 0.006369 0.044687 0.006961 -0.006726
# 5 0.006135 0.000311 0.009802 0.006961 0.037581 0.002148
# 6 -0.000214 0.002550 -0.003523 -0.006726 0.002148 0.037243
#
#
# Mechanical properties :
#
#
# Convention : Reuss Voigt Hill
#
# Bulk Modulus (GPa) = 30.52020 43.66138 37.09079
# Shear Modulus (GPa) = 26.89766 31.51903 29.20835
#
# Velocity S-wave (km/s) = 3.47589 3.76266 3.62211
# Velocity P-wave (km/s) = 5.46059 6.20391 5.84408
#
# Compressibility (1/GPa) = 0.03276519
#
# Stress axis : x y z
#
# Youngs Moduli (GPa) = 65.44778 103.13909 52.25881
#
# Poissons Ratio (x) = 0.38673 -0.00859
# Poissons Ratio (y) = 0.24540 0.10908
# Poissons Ratio (z) = -0.01075 0.21529
#
# Static dielectric constant tensor:
#      x y z
#    x 4.222460 -0.001420 -0.262850 
#    y -0.001420 4.159510 0.151640 
#    z -0.262850 0.151640 4.096740 
# 
# 
# High freq. dielectric constant tensor:
#      x y z
#    x 1.869810 -0.013140 -0.012550 
#    y -0.013140 1.871910 0.003310 
#    z -0.012550 0.003310 1.881700 
# 
# From -- ./inp_files/188918.got.cif
#   From: 2010.06.25/outbox.cif.g09.slc.cpg/sg2_95_cif.got.tgz:188918.got - 2010.06.27 13:26:56.
