data_PCOD8018688
_publ_section_title
;
Structure prediction by ZEFSAII (Michael W. Deem and Ramdas Pophale) SiO2 
 PCOD8018688
Probable space group: P -1
;
_chemical_formula_sum "Si O2"
_cell_formula_units_Z 16
_cell_length_a 8.856809
_cell_length_b 24.615456
_cell_length_c 8.820294
_cell_angle_alpha 48.691573
_cell_angle_beta 128.077880
_cell_angle_gamma 148.145693
_cell_volume 754.674153
_symmetry_space_group_name_H-M "P -1"
_symmetry_group_IT_number 2
_symmetry_cell_setting 'triclinic'
loop_
_space_group_symop_operation_xyz
x,y,z
-x,-y,-z
loop_
_atom_site_type_symbol
_atom_site_label
_atom_site_fract_x
_atom_site_fract_y
_atom_site_fract_z
Si Si1 0.010095 0.321665 0.678060
Si Si2 0.609494 0.959491 0.564461
Si Si3 0.145060 0.577011 0.736363
Si Si4 0.599268 0.238170 0.014922
Si Si5 0.166593 0.074917 0.817056
Si Si6 0.190182 0.443984 0.870534
Si Si7 0.511924 0.925200 0.208478
Si Si8 0.466223 0.632120 0.123787
O O1 0.120818 0.398858 0.744338
O O2 0.284806 0.357245 0.709891
O O3 0.835067 0.331767 0.452297
O O4 0.781129 0.195486 0.805328
O O5 0.469957 0.850088 0.760446
O O6 0.547696 0.935572 0.392343
O O7 0.500000 0.000000 0.500000
O O8 0.950691 0.066738 0.609531
O O9 0.187572 0.531342 0.709730
O O10 0.824809 0.480575 0.779673
O O11 0.405343 0.629125 0.914435
O O12 0.465703 0.193734 0.843685
O O13 0.447642 0.266688 0.936810
O O14 0.946341 0.345575 0.018833
O O15 0.221611 0.032629 0.796737
O O16 0.000000 0.000000 0.000000
O O17 0.500000 0.500000 0.000000
O O18 0.500000 0.000000 0.000000
#
# Coordination Sequence:
#
# PCOD8018688 Si02
#       8
#     2   2   2   2   2   2   2   2
#     4  12  24  41  69 100 133 179 231 279 349 411
#     4  11  25  44  69 101 133 177 237 288 347 416
#     4  10  22  43  64  98 134 176 232 278 337 415
#     4  10  22  44  67  99 136 181 226 280 354 410
#     4  10  22  44  69  92 136 174 223 286 345 403
#     4  11  22  44  67  97 142 182 222 287 343 409
#     4  12  26  45  69  99 137 176 231 285 347 418
#     4  10  22  40  69  93 137 177 221 284 342 405
#
# _framework density 21.201205000000002
#
# number of rings (size 3 to 8) (size 9 to 14) (size 15 to 20)
#    0.000    1.250    2.500    3.375    5.250    0.000 
#    6.750    0.000    0.000    0.000    0.000    0.000 
#    0.000    0.000    0.000    0.000    0.000    0.000 
#
# Total GULP energy -198239.647945 kJ/mol
# GULP energy per Si atom -12389.977997 kJ/mol
# Density = 2.115295 g / cm^3
# Si number density = 21.201205 Si / 1000 Ang^3
#
#
#
# Elastic Constant Matrix: (Units=GPa)
#
#
# Indices 1 2 3 4 5 6 
#
# 1 170.7736 45.3895 52.2477 8.0464 19.3959 -15.5233
# 2 45.3895 94.0362 37.4194 5.4157 14.7896 -6.0899
# 3 52.2477 37.4194 82.8249 -0.0485 25.4108 -6.2577
# 4 8.0464 5.4157 -0.0485 37.6850 -5.2393 4.2300
# 5 19.3959 14.7896 25.4108 -5.2393 41.4601 5.1903
# 6 -15.5233 -6.0899 -6.2577 4.2300 5.1903 41.7174
#
#
#
# Elastic Compliance Matrix: (Units=1/GPa)
#
#
# Indices 1 2 3 4 5 6 
#
# 1 0.007919 -0.001935 -0.003495 -0.001897 -0.001426 0.002510
# 2 -0.001935 0.013762 -0.004406 -0.001919 -0.001675 0.001031
# 3 -0.003495 -0.004406 0.019110 -0.000041 -0.008763 0.002017
# 4 -0.001897 -0.001919 -0.000041 0.028537 0.005780 -0.004605
# 5 -0.001426 -0.001675 -0.008763 0.005780 0.032324 -0.006697
# 6 0.002510 0.001031 0.002017 -0.004605 -0.006697 0.026658
#
#
# Mechanical properties :
#
#
# Convention : Reuss Voigt Hill
#
# Bulk Modulus (GPa) = 47.35268 68.63866 57.99567
# Shear Modulus (GPa) = 32.25334 38.34438 35.29886
#
# Velocity S-wave (km/s) = 3.90461 4.25737 4.08480
# Velocity P-wave (km/s) = 6.53540 7.52410 7.04711
#
# Compressibility (1/GPa) = 0.02111813
#
# Stress axis : x y z
#
# Youngs Moduli (GPa) = 126.28034 72.66160 52.32863
#
# Poissons Ratio (x) = 0.14064 0.18289
# Poissons Ratio (y) = 0.24442 0.23057
# Poissons Ratio (z) = 0.44134 0.32016
#
# Static dielectric constant tensor:
#      x y z
#    x 4.094030 -0.110270 0.137700 
#    y -0.110270 4.011940 0.260090 
#    z 0.137700 0.260090 4.029140 
# 
# 
# High freq. dielectric constant tensor:
#      x y z
#    x 1.853920 -0.009210 0.009050 
#    y -0.009210 1.839610 0.010370 
#    z 0.009050 0.010370 1.818030 
# 
# From -- ./inp_files/135188.got.cif
#   From: 2010.06.25/outbox.cif.g09.slc.cpg/sg2_68_cif.got.tgz:135188.got - 2010.06.27 13:26:56.
