data_PCOD8018380
_publ_section_title
;
Structure prediction by ZEFSAII (Michael W. Deem and Ramdas Pophale) SiO2 
 PCOD8018380
Probable space group: P -1
;
_chemical_formula_sum "Si O2"
_cell_formula_units_Z 16
_cell_length_a 18.198421
_cell_length_b 11.968768
_cell_length_c 8.480670
_cell_angle_alpha 63.387848
_cell_angle_beta 131.816370
_cell_angle_gamma 149.899362
_cell_volume 648.093899
_symmetry_space_group_name_H-M "P -1"
_symmetry_group_IT_number 2
_symmetry_cell_setting 'triclinic'
loop_
_space_group_symop_operation_xyz
x,y,z
-x,-y,-z
loop_
_atom_site_type_symbol
_atom_site_label
_atom_site_fract_x
_atom_site_fract_y
_atom_site_fract_z
Si Si1 0.035558 0.899795 0.558351
Si Si2 0.366838 0.722038 0.807007
Si Si3 0.921084 0.412034 0.617006
Si Si4 0.701233 0.264846 0.946614
Si Si5 0.864181 0.910465 0.734923
Si Si6 0.839970 0.631423 0.735526
Si Si7 0.428944 0.282922 0.024613
Si Si8 0.764807 0.994526 0.769819
O O1 0.878251 0.654845 0.587957
O O2 0.016802 0.875385 0.356530
O O3 0.241969 0.073377 0.786794
O O4 0.000000 0.000000 0.500000
O O5 0.194644 0.583182 0.537828
O O6 0.320588 0.691658 0.943591
O O7 0.410505 0.625110 0.891016
O O8 0.547276 0.999251 0.848630
O O9 0.774095 0.141488 0.611276
O O10 0.000000 0.500000 0.500000
O O11 0.099814 0.594920 0.872774
O O12 0.691531 0.366305 0.741118
O O13 0.762903 0.687977 0.635066
O O14 0.719420 0.845880 0.658685
O O15 0.000000 0.000000 0.000000
O O16 0.034081 0.822099 0.985809
O O17 0.500000 0.500000 0.000000
O O18 0.396411 0.191045 0.211479
#
# Coordination Sequence:
#
# PCOD8018380 Si02
#       8
#     2   2   2   2   2   2   2   2
#     4   9  19  40  61  93 130 165 224 269 328 403
#     4  10  22  40  65  95 134 174 224 281 325 398
#     4   9  19  40  64  93 127 168 222 273 337 391
#     4   9  19  39  66  96 128 170 225 277 333 398
#     4   9  17  32  63  95 126 166 213 279 326 389
#     4   8  16  34  61  92 129 163 216 271 334 394
#     4  11  25  44  61  91 143 178 217 277 335 388
#     4   9  19  37  61  90 131 170 224 268 320 410
#
# _framework density 24.687778999999999
#
# number of rings (size 3 to 8) (size 9 to 14) (size 15 to 20)
#    0.000    2.750    0.000    0.750    1.750    3.500 
#   18.000    7.500    0.000    0.000    0.000    0.000 
#    0.000    0.000    0.000    0.000    0.000    0.000 
#
# Total GULP energy -198265.482031 kJ/mol
# GULP energy per Si atom -12391.592627 kJ/mol
# Density = 2.463159 g / cm^3
# Si number density = 24.687779 Si / 1000 Ang^3
#
#
#
# Elastic Constant Matrix: (Units=GPa)
#
#
# Indices 1 2 3 4 5 6 
#
# 1 130.4240 31.4356 53.8987 -8.5888 15.3425 0.6395
# 2 31.4356 110.7520 32.8206 -34.6919 -8.7154 14.2397
# 3 53.8987 32.8206 80.1266 -33.2529 -2.3878 12.2563
# 4 -8.5888 -34.6919 -33.2529 40.1255 7.6402 -3.2258
# 5 15.3425 -8.7154 -2.3878 7.6402 43.6981 -6.9092
# 6 0.6395 14.2397 12.2563 -3.2258 -6.9092 30.4360
#
#
#
# Elastic Compliance Matrix: (Units=1/GPa)
#
#
# Indices 1 2 3 4 5 6 
#
# 1 0.013532 -0.004172 -0.012294 -0.009796 -0.003796 0.004718
# 2 -0.004172 0.014374 0.003684 0.013864 0.001096 -0.006402
# 3 -0.012294 0.003684 0.031720 0.025836 0.000466 -0.011395
# 4 -0.009796 0.013864 0.025836 0.056052 -0.004027 -0.011658
# 5 -0.003796 0.001096 0.000466 -0.004027 0.025930 0.004839
# 6 0.004718 -0.006402 -0.011395 -0.011658 0.004839 0.040204
#
#
# Mechanical properties :
#
#
# Convention : Reuss Voigt Hill
#
# Bulk Modulus (GPa) = 29.35791 61.95692 45.65742
# Shear Modulus (GPa) = 22.85943 36.39508 29.62726
#
# Velocity S-wave (km/s) = 3.04623 3.84372 3.46797
# Velocity P-wave (km/s) = 4.92851 6.69698 5.87961
#
# Compressibility (1/GPa) = 0.03406237
#
# Stress axis : x y z
#
# Youngs Moduli (GPa) = 73.90095 69.57165 31.52591
#
# Poissons Ratio (x) = 0.29022 0.38758
# Poissons Ratio (y) = 0.30828 -0.11614
# Poissons Ratio (z) = 0.90854 -0.25631
#
# Static dielectric constant tensor:
#      x y z
#    x 4.683920 0.231460 0.080940 
#    y 0.231460 4.568490 -0.525830 
#    z 0.080940 -0.525830 4.965930 
# 
# 
# High freq. dielectric constant tensor:
#      x y z
#    x 1.980970 0.004440 0.004150 
#    y 0.004440 1.974590 -0.026080 
#    z 0.004150 -0.026080 1.978000 
# 
# From -- ./inp_files/333065.got.cif
#   From: 2010.06.25/outbox.cif.g09.slc.cpg/sg2_167_cif.got.tgz:333065.got - 2010.06.27 13:26:56.
