data_PCOD8018429
_publ_section_title
;
Structure prediction by ZEFSAII (Michael W. Deem and Ramdas Pophale) SiO2 
 PCOD8018429
Probable space group: P -1
;
_chemical_formula_sum "Si O2"
_cell_formula_units_Z 16
_cell_length_a 16.582539
_cell_length_b 9.839228
_cell_length_c 8.716861
_cell_angle_alpha 92.458514
_cell_angle_beta 96.907450
_cell_angle_gamma 143.860255
_cell_volume 808.522414
_symmetry_space_group_name_H-M "P -1"
_symmetry_group_IT_number 2
_symmetry_cell_setting 'triclinic'
loop_
_space_group_symop_operation_xyz
x,y,z
-x,-y,-z
loop_
_atom_site_type_symbol
_atom_site_label
_atom_site_fract_x
_atom_site_fract_y
_atom_site_fract_z
Si Si1 0.350736 0.550045 0.785279
Si Si2 0.589669 0.645945 0.376015
Si Si3 0.874219 0.689930 0.840705
Si Si4 0.036607 0.160568 0.796230
Si Si5 0.585017 0.103861 0.367338
Si Si6 0.568215 0.353006 0.846056
Si Si7 0.121836 0.538403 0.399039
Si Si8 0.883432 0.164339 0.558204
O O1 0.358934 0.425841 0.682130
O O2 0.186623 0.364622 0.755770
O O3 0.432107 0.779492 0.723364
O O4 0.427775 0.636135 0.969028
O O5 0.500000 0.500000 0.500000
O O6 0.496843 0.595597 0.225336
O O7 0.722845 0.921779 0.460106
O O8 0.724526 0.557771 0.821895
O O9 0.851423 0.512941 0.749028
O O10 0.949974 0.768116 0.023529
O O11 0.970752 0.918739 0.766829
O O12 0.929247 0.114160 0.687128
O O13 0.749250 0.299625 0.445164
O O14 0.500000 0.000000 0.500000
O O15 0.525303 0.902842 0.238274
O O16 0.104492 0.671285 0.351178
O O17 0.979731 0.290378 0.435059
#
# Coordination Sequence:
#
# PCOD8018429 Si02
#       8
#     2   2   2   2   2   2   2   2
#     4  11  25  41  65  92 122 169 204 257 317 366
#     4  12  25  40  64  96 126 163 207 257 311 366
#     4  10  22  40  66  91 122 164 199 257 307 371
#     4  10  22  42  63  92 125 158 208 248 313 373
#     4  12  22  41  66  93 121 164 213 258 306 370
#     4  11  23  43  62  92 131 160 207 256 310 373
#     4  11  23  40  63  90 123 163 208 252 308 360
#     4  11  24  40  62  90 124 162 205 258 300 369
#
# _framework density 19.789186000000001
#
# number of rings (size 3 to 8) (size 9 to 14) (size 15 to 20)
#    0.000    1.000    3.750    3.000    1.750    1.500 
#    0.000    1.250    0.000    0.000    0.000    0.000 
#    0.000    0.000    0.000    0.000    0.000    0.000 
#
# Total GULP energy -198510.493661 kJ/mol
# GULP energy per Si atom -12406.905854 kJ/mol
# Density = 1.974415 g / cm^3
# Si number density = 19.789186 Si / 1000 Ang^3
#
#
#
# Elastic Constant Matrix: (Units=GPa)
#
#
# Indices 1 2 3 4 5 6 
#
# 1 73.5583 14.9242 43.4574 -11.9279 6.2761 -8.5286
# 2 14.9242 101.1983 37.8311 -10.8867 -6.8046 5.0185
# 3 43.4574 37.8311 97.8242 -6.7742 0.8445 -2.4566
# 4 -11.9279 -10.8867 -6.7742 35.6158 -6.1494 2.0177
# 5 6.2761 -6.8046 0.8445 -6.1494 26.0194 6.1660
# 6 -8.5286 5.0185 -2.4566 2.0177 6.1660 35.7629
#
#
#
# Elastic Compliance Matrix: (Units=1/GPa)
#
#
# Indices 1 2 3 4 5 6 
#
# 1 0.020288 0.000107 -0.008609 0.004095 -0.004761 0.004822
# 2 0.000107 0.012582 -0.004757 0.004042 0.005127 -0.003179
# 3 -0.008609 -0.004757 0.015789 -0.001309 0.000067 -0.000238
# 4 0.004095 0.004042 -0.001309 0.032049 0.008382 -0.002934
# 5 -0.004761 0.005127 0.000067 0.008382 0.045302 -0.010134
# 6 0.004822 -0.003179 -0.000238 -0.002934 -0.010134 0.031454
#
#
# Mechanical properties :
#
#
# Convention : Reuss Voigt Hill
#
# Bulk Modulus (GPa) = 45.16380 51.66733 48.41556
# Shear Modulus (GPa) = 26.12853 31.23750 28.68301
#
# Velocity S-wave (km/s) = 3.63760 3.97736 3.81127
# Velocity P-wave (km/s) = 6.36512 6.87445 6.62468
#
# Compressibility (1/GPa) = 0.02214163
#
# Stress axis : x y z
#
# Youngs Moduli (GPa) = 49.29037 79.48171 63.33402
#
# Poissons Ratio (x) = -0.00854 0.54521
# Poissons Ratio (y) = -0.00530 0.30131
# Poissons Ratio (z) = 0.42432 0.37813
#
# Static dielectric constant tensor:
#      x y z
#    x 3.633360 0.004640 0.045480 
#    y 0.004640 3.751680 0.013040 
#    z 0.045480 0.013040 3.374530 
# 
# 
# High freq. dielectric constant tensor:
#      x y z
#    x 1.778240 -0.000750 0.003240 
#    y -0.000750 1.788440 0.003090 
#    z 0.003240 0.003090 1.772310 
# 
# From -- ./inp_files/180300.got.cif
#   From: 2010.06.25/outbox.cif.g09.slc.cpg/sg2_91_cif.got.tgz:180300.got - 2010.06.27 13:26:56.
