data_PCOD8018635
_publ_section_title
;
Structure prediction by ZEFSAII (Michael W. Deem and Ramdas Pophale) SiO2 
 PCOD8018635
Probable space group: P -1
;
_chemical_formula_sum "Si O2"
_cell_formula_units_Z 14
_cell_length_a 13.392310
_cell_length_b 10.906389
_cell_length_c 8.925221
_cell_angle_alpha 121.621032
_cell_angle_beta 117.326985
_cell_angle_gamma 34.277643
_cell_volume 624.298581
_symmetry_space_group_name_H-M "P -1"
_symmetry_group_IT_number 2
_symmetry_cell_setting 'triclinic'
loop_
_space_group_symop_operation_xyz
x,y,z
-x,-y,-z
loop_
_atom_site_type_symbol
_atom_site_label
_atom_site_fract_x
_atom_site_fract_y
_atom_site_fract_z
Si Si1 0.633116 0.597811 0.237324
Si Si2 0.865821 0.184760 0.653728
Si Si3 0.714834 0.567259 0.595253
Si Si4 0.356759 0.082764 0.630943
Si Si5 0.979758 0.525700 0.177863
Si Si6 0.965018 0.221210 0.043170
Si Si7 0.264079 0.908416 0.274060
O O1 0.721722 0.479917 0.384378
O O2 0.602778 0.800559 0.335188
O O3 0.759783 0.407712 0.074452
O O4 0.444008 0.703270 0.170941
O O5 0.728085 0.437279 0.653773
O O6 0.747505 0.173304 0.633479
O O7 0.983834 0.139296 0.837725
O O8 0.000000 0.000000 0.500000
O O9 0.886372 0.496892 0.669946
O O10 0.534572 0.836287 0.663467
O O11 0.221628 0.228771 0.769551
O O12 0.267566 0.071692 0.433357
O O13 0.021793 0.330685 0.154528
O O14 0.000000 0.500000 0.000000
O O15 0.100782 0.016868 0.125973
#
# Coordination Sequence:
#
# PCOD8018635 Si02
#       7
#     2   2   2   2   2   2   2
#     4  10  22  42  69  98 124 163 213 264 318 378
#     4  12  26  43  64  93 130 174 217 258 315 378
#     4  11  22  42  64  96 133 162 209 263 315 376
#     4  10  22  40  68  97 127 163 211 259 318 383
#     4  11  21  38  65  99 128 163 202 259 330 370
#     4  11  23  43  66  94 127 165 214 268 310 378
#     4  11  23  42  67  91 129 173 213 255 315 374
#
# _framework density 22.425167999999999
#
# number of rings (size 3 to 8) (size 9 to 14) (size 15 to 20)
#    0.000    1.143    1.429    6.429    0.000    5.714 
#    2.571    2.857    0.000    0.000    0.000    0.000 
#    0.000    0.000    0.000    0.000    0.000    0.000 
#
# Total GULP energy -173634.113686 kJ/mol
# GULP energy per Si atom -12402.436692 kJ/mol
# Density = 2.237413 g / cm^3
# Si number density = 22.425168 Si / 1000 Ang^3
#
#
#
# Elastic Constant Matrix: (Units=GPa)
#
#
# Indices 1 2 3 4 5 6 
#
# 1 131.1873 59.0725 43.2113 -1.4015 -14.2034 -16.2032
# 2 59.0725 107.6388 51.9677 -11.7217 -10.2397 1.7399
# 3 43.2113 51.9677 90.4645 -3.8716 -20.1920 -8.4566
# 4 -1.4015 -11.7217 -3.8716 31.7450 -1.6547 -4.6744
# 5 -14.2034 -10.2397 -20.1920 -1.6547 33.2901 -2.9237
# 6 -16.2032 1.7399 -8.4566 -4.6744 -2.9237 35.5314
#
#
#
# Elastic Compliance Matrix: (Units=1/GPa)
#
#
# Indices 1 2 3 4 5 6 
#
# 1 0.011524 -0.005679 -0.001116 -0.000775 0.002929 0.005407
# 2 -0.005679 0.016294 -0.007394 0.004049 -0.002115 -0.004789
# 3 -0.001116 -0.007394 0.018301 0.000652 0.008823 0.005021
# 4 -0.000775 0.004049 0.000652 0.033855 0.003373 0.004335
# 5 0.002929 -0.002115 0.008823 0.003373 0.036773 0.007009
# 6 0.005407 -0.004789 0.005021 0.004335 0.007009 0.033186
#
#
# Mechanical properties :
#
#
# Convention : Reuss Voigt Hill
#
# Bulk Modulus (GPa) = 56.36638 70.86595 63.61617
# Shear Modulus (GPa) = 27.14063 31.78258 29.46160
#
# Velocity S-wave (km/s) = 3.48268 3.76875 3.62853
# Velocity P-wave (km/s) = 6.43132 7.11391 6.78121
#
# Compressibility (1/GPa) = 0.01774107
#
# Stress axis : x y z
#
# Youngs Moduli (GPa) = 86.77451 61.37356 54.64035
#
# Poissons Ratio (x) = 0.34852 0.06100
# Poissons Ratio (y) = 0.49276 0.40401
# Poissons Ratio (z) = 0.09688 0.45380
#
# Static dielectric constant tensor:
#      x y z
#    x 5.319320 -0.866400 0.245480 
#    y -0.866400 4.921000 -0.149590 
#    z 0.245480 -0.149590 3.936060 
# 
# 
# High freq. dielectric constant tensor:
#      x y z
#    x 1.904250 0.002700 -0.000210 
#    y 0.002700 1.879390 0.006060 
#    z -0.000210 0.006060 1.880340 
# 
# From -- ./inp_files/269714.got.cif
#   From: 2010.06.25/outbox.cif.g09.slc.cpg/sg2_135_cif.got.tgz:269714.got - 2010.06.27 13:26:56.
