data_PCOD8018705
_publ_section_title
;
Structure prediction by ZEFSAII (Michael W. Deem and Ramdas Pophale) SiO2 
 PCOD8018705
Probable space group: P -1
;
_chemical_formula_sum "Si O2"
_cell_formula_units_Z 16
_cell_length_a 15.927121
_cell_length_b 11.128304
_cell_length_c 21.940510
_cell_angle_alpha 34.236244
_cell_angle_beta 157.307860
_cell_angle_gamma 146.682409
_cell_volume 794.980405
_symmetry_space_group_name_H-M "P -1"
_symmetry_group_IT_number 2
_symmetry_cell_setting 'triclinic'
loop_
_space_group_symop_operation_xyz
x,y,z
-x,-y,-z
loop_
_atom_site_type_symbol
_atom_site_label
_atom_site_fract_x
_atom_site_fract_y
_atom_site_fract_z
Si Si1 0.517487 0.354105 0.465835
Si Si2 0.646522 0.954807 0.759798
Si Si3 0.093818 0.135933 0.345085
Si Si4 0.068654 0.978350 0.966057
Si Si5 0.764473 0.514779 0.163544
Si Si6 0.942371 0.725966 0.863880
Si Si7 0.017555 0.238624 0.381950
Si Si8 0.842486 0.335904 0.415151
O O1 0.360147 0.305962 0.442741
O O2 0.337796 0.332784 0.297878
O O3 0.723997 0.591588 0.501541
O O4 0.620425 0.150289 0.616487
O O5 0.415697 0.742103 0.699355
O O6 0.727656 0.050648 0.842704
O O7 0.828959 0.854736 0.892497
O O8 0.956030 0.144420 0.186242
O O9 0.984609 0.218065 0.295468
O O10 0.081285 0.880141 0.456698
O O11 0.071620 0.878314 0.943138
O O12 0.093461 0.241116 0.869417
O O13 0.869263 0.484850 0.310692
O O14 0.811670 0.326441 0.230100
O O15 0.500000 0.500000 0.000000
O O16 0.000000 0.500000 0.000000
O O17 0.000000 0.000000 0.500000
O O18 0.000000 0.500000 0.500000
#
# Coordination Sequence:
#
# PCOD8018705 Si02
#       8
#     2   2   2   2   2   2   2   2
#     4   9  22  41  65  98 124 178 224 272 327 402
#     4  10  22  40  69  97 122 178 228 272 328 390
#     4   9  22  42  64  95 128 177 223 273 330 397
#     4  11  23  42  66  95 131 170 231 276 329 404
#     4  12  25  41  65 101 132 174 220 282 342 392
#     4  10  24  39  65  96 135 167 217 280 339 383
#     4  12  23  42  70  97 133 174 232 274 330 415
#     4  11  22  42  64  94 138 172 215 272 338 400
#
# _framework density 20.126280999999999
#
# number of rings (size 3 to 8) (size 9 to 14) (size 15 to 20)
#    0.750    0.750    3.750    1.125    1.750    3.500 
#    0.000    0.000    0.000    2.250    0.000    0.000 
#    0.000    0.000    0.000    0.000    0.000    0.000 
#
# Total GULP energy -198282.586547 kJ/mol
# GULP energy per Si atom -12392.661659 kJ/mol
# Density = 2.008047 g / cm^3
# Si number density = 20.126281 Si / 1000 Ang^3
#
#
#
# Elastic Constant Matrix: (Units=GPa)
#
#
# Indices 1 2 3 4 5 6 
#
# 1 105.5152 30.3310 40.7459 13.3262 5.3190 -16.1004
# 2 30.3310 83.3285 37.3947 7.2931 8.9768 -3.2664
# 3 40.7459 37.3947 121.8448 0.1975 -5.3644 -9.0886
# 4 13.3262 7.2931 0.1975 36.7815 -2.5989 -4.6792
# 5 5.3190 8.9768 -5.3644 -2.5989 34.6401 -0.2835
# 6 -16.1004 -3.2664 -9.0886 -4.6792 -0.2835 29.3647
#
#
#
# Elastic Compliance Matrix: (Units=1/GPa)
#
#
# Indices 1 2 3 4 5 6 
#
# 1 0.012771 -0.002468 -0.003215 -0.003612 -0.002048 0.005138
# 2 -0.002468 0.015450 -0.004214 -0.002642 -0.004487 -0.001403
# 3 -0.003215 -0.004214 0.010838 0.002382 0.003455 0.001536
# 4 -0.003612 -0.002642 0.002382 0.029691 0.003862 0.003231
# 5 -0.002048 -0.004487 0.003455 0.003862 0.031173 0.000364
# 6 0.005138 -0.001403 0.001536 0.003231 0.000364 0.037709
#
#
# Mechanical properties :
#
#
# Convention : Reuss Voigt Hill
#
# Bulk Modulus (GPa) = 51.90473 58.62577 55.26525
# Shear Modulus (GPa) = 30.51589 33.63839 32.07714
#
# Velocity S-wave (km/s) = 3.89809 4.09267 3.99657
# Velocity P-wave (km/s) = 6.79012 7.17812 6.98681
#
# Compressibility (1/GPa) = 0.01926607
#
# Stress axis : x y z
#
# Youngs Moduli (GPa) = 78.29980 64.72553 92.26507
#
# Poissons Ratio (x) = 0.15974 0.29659
# Poissons Ratio (y) = 0.19325 0.38883
# Poissons Ratio (z) = 0.25170 0.27277
#
# Static dielectric constant tensor:
#      x y z
#    x 3.537370 0.241370 -0.086800 
#    y 0.241370 3.611580 -0.028580 
#    z -0.086800 -0.028580 3.760210 
# 
# 
# High freq. dielectric constant tensor:
#      x y z
#    x 1.782730 0.009930 -0.009200 
#    y 0.009930 1.775030 -0.010140 
#    z -0.009200 -0.010140 1.788890 
# 
# From -- ./inp_files/613051.got.cif
#   From: 2010.06.25/outbox.cif.g09.slc.cpg/sg2_307_cif.got.tgz:613051.got - 2010.06.27 13:26:56.
