data_PCOD8018666
_publ_section_title
;
Structure prediction by ZEFSAII (Michael W. Deem and Ramdas Pophale) SiO2 
 PCOD8018666
Probable space group: P -1
;
_chemical_formula_sum "Si O2"
_cell_formula_units_Z 16
_cell_length_a 15.270747
_cell_length_b 8.867565
_cell_length_c 9.021139
_cell_angle_alpha 91.930469
_cell_angle_beta 117.538903
_cell_angle_gamma 129.765031
_cell_volume 728.904262
_symmetry_space_group_name_H-M "P -1"
_symmetry_group_IT_number 2
_symmetry_cell_setting 'triclinic'
loop_
_space_group_symop_operation_xyz
x,y,z
-x,-y,-z
loop_
_atom_site_type_symbol
_atom_site_label
_atom_site_fract_x
_atom_site_fract_y
_atom_site_fract_z
Si Si1 0.096608 0.477041 0.905701
Si Si2 0.374943 0.323819 0.006959
Si Si3 0.510031 0.373598 0.616326
Si Si4 0.796484 0.141701 0.194463
Si Si5 0.264740 0.610682 0.328666
Si Si6 0.236598 0.875308 0.477473
Si Si7 0.119637 0.231285 0.741312
Si Si8 0.929136 0.751800 0.604687
O O1 0.193455 0.692349 0.882241
O O2 0.150717 0.368573 0.911758
O O3 0.921812 0.287089 0.732189
O O4 0.147357 0.551263 0.118189
O O5 0.398740 0.443195 0.177610
O O6 0.500000 0.500000 0.000000
O O7 0.231671 0.222255 0.809175
O O8 0.346167 0.110719 0.989762
O O9 0.500000 0.500000 0.500000
O O10 0.595271 0.318636 0.627072
O O11 0.346969 0.136527 0.530625
O O12 0.786153 0.156632 0.363722
O O13 0.939922 0.213969 0.256598
O O14 0.310848 0.803089 0.476445
O O15 0.190233 0.401088 0.366678
O O16 0.126530 0.349526 0.607957
O O17 0.964200 0.970792 0.633534
#
# Coordination Sequence:
#
# PCOD8018666 Si02
#       8
#     2   2   2   2   2   2   2   2
#     4  12  24  43  71 109 138 181 229 291 350 409
#     4  11  24  48  69  99 135 186 240 284 336 409
#     4  12  30  48  70 101 143 190 228 283 353 420
#     4  11  23  44  75 103 134 177 239 288 336 406
#     4  12  27  46  66 104 148 180 230 278 361 416
#     4  12  25  47  71 103 144 185 229 285 347 416
#     4  10  22  40  71  99 138 171 244 285 339 399
#     4  10  22  40  69 104 130 182 224 297 337 402
#
# _framework density 21.950756999999999
#
# number of rings (size 3 to 8) (size 9 to 14) (size 15 to 20)
#    0.000    0.750    5.000    1.875    5.250    1.500 
#    0.000    1.250    0.000    0.000    0.000    0.000 
#    0.000    0.000    0.000    0.000    0.000    0.000 
#
# Total GULP energy -198250.160805 kJ/mol
# GULP energy per Si atom -12390.635050 kJ/mol
# Density = 2.190080 g / cm^3
# Si number density = 21.950757 Si / 1000 Ang^3
#
#
#
# Elastic Constant Matrix: (Units=GPa)
#
#
# Indices 1 2 3 4 5 6 
#
# 1 80.5304 27.6900 28.2363 8.9515 -16.7911 -3.4929
# 2 27.6900 150.5706 52.8355 -1.3694 -2.6136 8.9399
# 3 28.2363 52.8355 73.3356 7.7038 -9.6156 1.3077
# 4 8.9515 -1.3694 7.7038 34.9877 -0.4601 -2.8675
# 5 -16.7911 -2.6136 -9.6156 -0.4601 32.6394 1.4669
# 6 -3.4929 8.9399 1.3077 -2.8675 1.4669 32.2378
#
#
#
# Elastic Compliance Matrix: (Units=1/GPa)
#
#
# Indices 1 2 3 4 5 6 
#
# 1 0.016205 -0.001643 -0.003848 -0.003126 0.006948 0.001773
# 2 -0.001643 0.009351 -0.006524 0.002014 -0.001889 -0.002241
# 3 -0.003848 -0.006524 0.020676 -0.003772 0.003534 0.000057
# 4 -0.003126 0.002014 -0.003772 0.030431 -0.002222 0.002064
# 5 0.006948 -0.001889 0.003534 -0.002222 0.035100 -0.000661
# 6 0.001773 -0.002241 0.000057 0.002064 -0.000661 0.032044
#
#
# Mechanical properties :
#
#
# Convention : Reuss Voigt Hill
#
# Bulk Modulus (GPa) = 45.03943 57.99558 51.51750
# Shear Modulus (GPa) = 28.53248 33.01799 30.77523
#
# Velocity S-wave (km/s) = 3.60924 3.88259 3.74841
# Velocity P-wave (km/s) = 6.15888 6.82477 6.50035
#
# Compressibility (1/GPa) = 0.02220277
#
# Stress axis : x y z
#
# Youngs Moduli (GPa) = 61.71010 106.93488 48.36414
#
# Poissons Ratio (x) = 0.17569 0.18610
# Poissons Ratio (y) = 0.10139 0.31554
# Poissons Ratio (z) = 0.23745 0.69766
#
# Static dielectric constant tensor:
#      x y z
#    x 3.912120 -0.074490 -0.223900 
#    y -0.074490 4.050150 0.085360 
#    z -0.223900 0.085360 3.713710 
# 
# 
# High freq. dielectric constant tensor:
#      x y z
#    x 1.865200 -0.005470 -0.017460 
#    y -0.005470 1.875690 0.005650 
#    z -0.017460 0.005650 1.859680 
# 
# From -- ./inp_files/180379.got.cif
#   From: 2010.06.25/outbox.cif.g09.slc.cpg/sg2_91_cif.got.tgz:180379.got - 2010.06.27 13:26:56.
