data_PCOD8018799
_publ_section_title
;
Structure prediction by ZEFSAII (Michael W. Deem and Ramdas Pophale) SiO2 
 PCOD8018799
Probable space group: P -1
;
_chemical_formula_sum "Si O2"
_cell_formula_units_Z 16
_cell_length_a 13.147195
_cell_length_b 13.505668
_cell_length_c 8.555387
_cell_angle_alpha 102.534685
_cell_angle_beta 125.492159
_cell_angle_gamma 121.922397
_cell_volume 684.369402
_symmetry_space_group_name_H-M "P -1"
_symmetry_group_IT_number 2
_symmetry_cell_setting 'triclinic'
loop_
_space_group_symop_operation_xyz
x,y,z
-x,-y,-z
loop_
_atom_site_type_symbol
_atom_site_label
_atom_site_fract_x
_atom_site_fract_y
_atom_site_fract_z
Si Si1 0.338188 0.192583 0.792614
Si Si2 0.165619 0.802264 0.735725
Si Si3 0.895575 0.769746 0.298104
Si Si4 0.592514 0.204133 0.198021
Si Si5 0.107488 0.816831 0.041070
Si Si6 0.767003 0.290839 0.723216
Si Si7 0.439041 0.199832 0.544026
Si Si8 0.672848 0.534660 0.714231
O O1 0.293630 0.280672 0.824043
O O2 0.422326 0.245402 0.708355
O O3 0.534497 0.278360 0.106879
O O4 0.113507 0.979686 0.530810
O O5 0.198789 0.706725 0.678410
O O6 0.945123 0.711188 0.444573
O O7 0.172032 0.813018 0.931286
O O8 0.368837 0.993019 0.897172
O O9 0.814020 0.661287 0.032785
O O10 0.640975 0.236560 0.435270
O O11 0.206179 0.811714 0.265618
O O12 0.204273 0.995192 0.209793
O O13 0.843575 0.638384 0.758576
O O14 0.619543 0.230268 0.717560
O O15 0.000000 0.500000 0.000000
O O16 0.531769 0.339015 0.545242
O O17 0.500000 0.500000 0.500000
#
# Coordination Sequence:
#
# PCOD8018799 Si02
#       8
#     2   2   2   2   2   2   2   2
#     4  10  23  43  74 101 139 192 238 289 361 426
#     4  10  22  40  72 101 136 191 234 290 359 418
#     4  10  23  46  69 103 145 182 236 300 352 430
#     4  10  22  41  69 106 140 182 243 290 350 433
#     4  12  25  48  74 103 146 189 241 294 357 432
#     4  12  25  44  72 106 151 183 235 302 359 419
#     4  12  26  46  74 104 137 195 236 290 363 425
#     4  12  29  47  71 105 147 185 244 298 353 429
#
# _framework density 23.379187999999999
#
# number of rings (size 3 to 8) (size 9 to 14) (size 15 to 20)
#    0.000    1.000    3.750    1.875    7.000    2.000 
#    2.250    1.250    0.000    0.000    0.000    0.000 
#    0.000    0.000    0.000    0.000    0.000    0.000 
#
# Total GULP energy -198359.110983 kJ/mol
# GULP energy per Si atom -12397.444436 kJ/mol
# Density = 2.332598 g / cm^3
# Si number density = 23.379188 Si / 1000 Ang^3
#
#
#
# Elastic Constant Matrix: (Units=GPa)
#
#
# Indices 1 2 3 4 5 6 
#
# 1 154.0566 44.7294 29.3658 -15.3427 25.1143 0.2349
# 2 44.7294 93.8899 43.5568 4.0022 17.4220 -4.3190
# 3 29.3658 43.5568 74.6252 -21.9759 14.9639 -14.7252
# 4 -15.3427 4.0022 -21.9759 41.3220 -4.0109 4.5324
# 5 25.1143 17.4220 14.9639 -4.0109 40.0676 -8.2061
# 6 0.2349 -4.3190 -14.7252 4.5324 -8.2061 41.1746
#
#
#
# Elastic Compliance Matrix: (Units=1/GPa)
#
#
# Indices 1 2 3 4 5 6 
#
# 1 0.008465 -0.003692 0.000311 0.003460 -0.003768 -0.001456
# 2 -0.003692 0.018966 -0.012338 -0.009827 -0.002688 -0.001856
# 3 0.000311 -0.012338 0.026342 0.014455 -0.001963 0.006142
# 4 0.003460 -0.009827 0.014455 0.034099 0.000202 0.000406
# 5 -0.003768 -0.002688 -0.001963 0.000202 0.030276 0.005049
# 6 -0.001456 -0.001856 0.006142 0.000406 0.005049 0.027259
#
#
# Mechanical properties :
#
#
# Convention : Reuss Voigt Hill
#
# Bulk Modulus (GPa) = 44.77359 61.98618 53.37989
# Shear Modulus (GPa) = 27.13119 38.17416 32.65268
#
# Velocity S-wave (km/s) = 3.41028 4.04521 3.74124
# Velocity P-wave (km/s) = 5.89061 6.95624 6.44549
#
# Compressibility (1/GPa) = 0.02233459
#
# Stress axis : x y z
#
# Youngs Moduli (GPa) = 118.13358 52.72616 37.96277
#
# Poissons Ratio (x) = 0.19469 -0.01182
# Poissons Ratio (y) = 0.43620 0.46838
# Poissons Ratio (z) = -0.03678 0.65053
#
# Static dielectric constant tensor:
#      x y z
#    x 4.280360 -0.037330 0.481640 
#    y -0.037330 4.411690 -0.313750 
#    z 0.481640 -0.313750 4.443930 
# 
# 
# High freq. dielectric constant tensor:
#      x y z
#    x 1.941440 0.000560 0.012410 
#    y 0.000560 1.918080 -0.001380 
#    z 0.012410 -0.001380 1.914960 
# 
# From -- ./inp_files/273881.got.cif
#   From: 2010.06.25/outbox.cif.g09.slc.cpg/sg2_137_cif.got.tgz:273881.got - 2010.06.27 13:26:56.
