data_PCOD8018068
_publ_section_title
;
Structure prediction by ZEFSAII (Michael W. Deem and Ramdas Pophale) SiO2 
 PCOD8018068
Probable space group: P -1
;
_chemical_formula_sum "Si O2"
_cell_formula_units_Z 16
_cell_length_a 11.519245
_cell_length_b 14.355237
_cell_length_c 11.753182
_cell_angle_alpha 100.906992
_cell_angle_beta 123.509219
_cell_angle_gamma 33.445790
_cell_volume 720.687889
_symmetry_space_group_name_H-M "P -1"
_symmetry_group_IT_number 2
_symmetry_cell_setting 'triclinic'
loop_
_space_group_symop_operation_xyz
x,y,z
-x,-y,-z
loop_
_atom_site_type_symbol
_atom_site_label
_atom_site_fract_x
_atom_site_fract_y
_atom_site_fract_z
Si Si1 0.301370 0.756480 0.073269
Si Si2 0.802415 0.378694 0.906065
Si Si3 0.774407 0.955185 0.131813
Si Si4 0.687253 0.031815 0.583661
Si Si5 0.267672 0.185846 0.755689
Si Si6 0.246245 0.814410 0.795875
Si Si7 0.755604 0.576817 0.435942
Si Si8 0.307030 0.127430 0.274729
O O1 0.231188 0.690658 0.046499
O O2 0.621910 0.587248 0.270530
O O3 0.370277 0.723117 0.969306
O O4 0.000000 0.000000 0.000000
O O5 0.492728 0.629617 0.791741
O O6 0.927552 0.267983 0.825494
O O7 0.045897 0.301060 0.079462
O O8 0.722054 0.923592 0.207107
O O9 0.835655 0.024641 0.224299
O O10 0.467541 0.138501 0.928788
O O11 0.555120 0.184468 0.638506
O O12 0.419147 0.163461 0.382075
O O13 0.804714 0.866212 0.675427
O O14 0.955689 0.923676 0.638138
O O15 0.914271 0.430492 0.598070
O O16 0.408043 0.098275 0.684629
O O17 0.000000 0.500000 0.500000
#
# Coordination Sequence:
#
# PCOD8018068 Si02
#       8
#     2   2   2   2   2   2   2   2
#     4  12  22  40  64  95 139 166 209 274 325 384
#     4  11  23  40  67  98 124 174 222 259 326 387
#     4  10  23  48  66  92 132 175 219 271 314 390
#     4  11  23  38  59 101 136 159 207 272 333 380
#     4  10  23  44  69  91 129 174 216 267 330 378
#     4  12  24  40  68  98 130 175 213 267 331 385
#     4  12  23  37  68  99 123 171 216 266 330 383
#     4  10  22  40  61  94 136 161 209 274 321 388
#
# _framework density 22.201011999999999
#
# number of rings (size 3 to 8) (size 9 to 14) (size 15 to 20)
#    0.000    1.000    5.000    1.125    5.250    0.000 
#    2.250    5.000    0.000    0.000    0.000    0.000 
#    0.000    0.000    0.000    0.000    0.000    0.000 
#
# Total GULP energy -198357.599192 kJ/mol
# GULP energy per Si atom -12397.349949 kJ/mol
# Density = 2.215048 g / cm^3
# Si number density = 22.201012 Si / 1000 Ang^3
#
#
#
# Elastic Constant Matrix: (Units=GPa)
#
#
# Indices 1 2 3 4 5 6 
#
# 1 98.7538 28.0290 37.8122 0.7703 22.3516 12.5906
# 2 28.0290 96.0331 17.0898 -10.3031 16.6952 1.8441
# 3 37.8122 17.0898 88.8494 0.0959 23.6344 9.0851
# 4 0.7703 -10.3031 0.0959 24.5989 0.7802 10.4662
# 5 22.3516 16.6952 23.6344 0.7802 35.8629 3.5925
# 6 12.5906 1.8441 9.0851 10.4662 3.5925 28.0171
#
#
#
# Elastic Compliance Matrix: (Units=1/GPa)
#
#
# Indices 1 2 3 4 5 6 
#
# 1 0.013860 -0.002425 -0.003749 0.000624 -0.004602 -0.004496
# 2 -0.002425 0.012559 -0.000114 0.006078 -0.004250 -0.001426
# 3 -0.003749 -0.000114 0.015103 0.001436 -0.007314 -0.002804
# 4 0.000624 0.006078 0.001436 0.051822 -0.003280 -0.020084
# 5 -0.004602 -0.004250 -0.007314 -0.003280 0.037508 0.001135
# 6 -0.004496 -0.001426 -0.002804 -0.020084 0.001135 0.046073
#
#
# Mechanical properties :
#
#
# Convention : Reuss Voigt Hill
#
# Bulk Modulus (GPa) = 34.54610 49.94427 42.24518
# Shear Modulus (GPa) = 25.10666 31.07614 28.09140
#
# Velocity S-wave (km/s) = 3.36650 3.74540 3.56099
# Velocity P-wave (km/s) = 5.54125 6.42256 5.99811
#
# Compressibility (1/GPa) = 0.02894683
#
# Stress axis : x y z
#
# Youngs Moduli (GPa) = 72.15126 79.62164 66.21180
#
# Poissons Ratio (x) = 0.19306 0.24821
# Poissons Ratio (y) = 0.17495 0.00756
# Poissons Ratio (z) = 0.27048 0.00909
#
# Static dielectric constant tensor:
#      x y z
#    x 3.935250 -0.024670 0.268460 
#    y -0.024670 4.026060 -0.039810 
#    z 0.268460 -0.039810 4.032880 
# 
# 
# High freq. dielectric constant tensor:
#      x y z
#    x 1.864500 -0.000390 0.024800 
#    y -0.000390 1.866940 0.004820 
#    z 0.024800 0.004820 1.865580 
# 
# From -- ./inp_files/240462.got.cif
#   From: 2010.06.25/outbox.cif.g09.slc.cpg/sg2_121_cif.got.tgz:240462.got - 2010.06.27 13:26:56.
