data_PCOD8018763
_publ_section_title
;
Structure prediction by ZEFSAII (Michael W. Deem and Ramdas Pophale) SiO2 
 PCOD8018763
Probable space group: P -1
;
_chemical_formula_sum "Si O2"
_cell_formula_units_Z 16
_cell_length_a 14.227713
_cell_length_b 28.799740
_cell_length_c 9.519372
_cell_angle_alpha 35.967426
_cell_angle_beta 131.235129
_cell_angle_gamma 159.582084
_cell_volume 698.983880
_symmetry_space_group_name_H-M "P -1"
_symmetry_group_IT_number 2
_symmetry_cell_setting 'triclinic'
loop_
_space_group_symop_operation_xyz
x,y,z
-x,-y,-z
loop_
_atom_site_type_symbol
_atom_site_label
_atom_site_fract_x
_atom_site_fract_y
_atom_site_fract_z
Si Si1 0.557689 0.944544 0.913373
Si Si2 0.703790 0.286944 0.039333
Si Si3 0.539862 0.107566 0.585125
Si Si4 0.874122 0.770316 0.822266
Si Si5 0.593135 0.442613 0.321739
Si Si6 0.223172 0.287421 0.804683
Si Si7 0.119343 0.637822 0.446000
Si Si8 0.699613 0.794532 0.133652
O O1 0.490468 0.882995 0.837271
O O2 0.428659 0.956133 0.800673
O O3 0.392345 0.783733 0.244486
O O4 0.919930 0.156574 0.773742
O O5 0.749056 0.265699 0.280045
O O6 0.535299 0.270045 0.955542
O O7 0.027026 0.499904 0.762927
O O8 0.760295 0.231734 0.634716
O O9 0.239992 0.988513 0.616389
O O10 0.679671 0.723205 0.657678
O O11 0.779624 0.629672 0.018399
O O12 0.785824 0.730061 0.995349
O O13 0.439750 0.355436 0.538342
O O14 0.827851 0.504244 0.399308
O O15 0.500000 0.500000 0.500000
O O16 0.233961 0.205437 0.951840
O O17 0.000000 0.000000 0.000000
#
# Coordination Sequence:
#
# PCOD8018763 Si02
#       8
#     2   2   2   2   2   2   2   2
#     4  12  24  44  72 102 138 183 234 280 346 418
#     4  11  26  44  68 101 141 185 225 285 350 413
#     4  12  24  44  74 104 137 177 236 290 338 405
#     4  11  22  42  69 105 136 174 239 288 334 402
#     4  10  22  40  70  97 136 184 223 281 344 406
#     4  12  25  43  70 105 135 183 238 287 339 411
#     4  11  23  46  70 101 140 185 224 282 356 408
#     4  11  22  44  66  91 142 186 225 278 352 412
#
# _framework density 22.890369
#
# number of rings (size 3 to 8) (size 9 to 14) (size 15 to 20)
#    0.000    0.750    5.000    3.000    1.750    0.000 
#    2.250    5.000    0.000    0.000    0.000    0.000 
#    0.000    0.000    0.000    0.000    0.000    0.000 
#
# Total GULP energy -198401.399731 kJ/mol
# GULP energy per Si atom -12400.087483 kJ/mol
# Density = 2.283827 g / cm^3
# Si number density = 22.890369 Si / 1000 Ang^3
#
#
#
# Elastic Constant Matrix: (Units=GPa)
#
#
# Indices 1 2 3 4 5 6 
#
# 1 103.3971 41.5052 22.9927 6.7857 -13.2287 -16.1177
# 2 41.5052 109.7504 24.3014 -0.4909 -8.0682 3.6768
# 3 22.9927 24.3014 104.2652 -7.0403 -17.7133 8.6054
# 4 6.7857 -0.4909 -7.0403 37.2795 -0.6897 -11.3271
# 5 -13.2287 -8.0682 -17.7133 -0.6897 30.9619 -3.3826
# 6 -16.1177 3.6768 8.6054 -11.3271 -3.3826 26.9567
#
#
#
# Elastic Compliance Matrix: (Units=1/GPa)
#
#
# Indices 1 2 3 4 5 6 
#
# 1 0.014395 -0.004989 -0.002050 0.000255 0.004847 0.010657
# 2 -0.004989 0.011402 -0.001297 -0.000530 -0.000395 -0.004396
# 3 -0.002050 -0.001297 0.011601 0.001594 0.005082 -0.003445
# 4 0.000255 -0.000530 0.001594 0.031131 0.003016 0.013175
# 5 0.004847 -0.000395 0.005082 0.003016 0.038046 0.007371
# 6 0.010657 -0.004396 -0.003445 0.013175 0.007371 0.051629
#
#
# Mechanical properties :
#
#
# Convention : Reuss Voigt Hill
#
# Bulk Modulus (GPa) = 48.25477 55.00124 51.62801
# Shear Modulus (GPa) = 27.50508 34.28051 30.89279
#
# Velocity S-wave (km/s) = 3.47017 3.87408 3.67767
# Velocity P-wave (km/s) = 6.09776 6.64015 6.37473
#
# Compressibility (1/GPa) = 0.02072334
#
# Stress axis : x y z
#
# Youngs Moduli (GPa) = 69.46895 87.70728 86.20159
#
# Poissons Ratio (x) = 0.43761 0.17675
# Poissons Ratio (y) = 0.34661 0.11182
# Poissons Ratio (z) = 0.14244 0.11377
#
# Static dielectric constant tensor:
#      x y z
#    x 3.681940 -0.153950 -0.261530 
#    y -0.153950 4.123930 -0.137760 
#    z -0.261530 -0.137760 4.368530 
# 
# 
# High freq. dielectric constant tensor:
#      x y z
#    x 1.890620 -0.009920 -0.015600 
#    y -0.009920 1.903590 -0.010990 
#    z -0.015600 -0.010990 1.911530 
# 
# From -- ./inp_files/320938.got.cif
#   From: 2010.06.25/outbox.cif.g09.slc.cpg/sg2_161_cif.got.tgz:320938.got - 2010.06.27 13:26:56.
