data_PCOD8018454
_publ_section_title
;
Structure prediction by ZEFSAII (Michael W. Deem and Ramdas Pophale) SiO2 
 PCOD8018454
Probable space group: P -1
;
_chemical_formula_sum "Si O2"
_cell_formula_units_Z 16
_cell_length_a 14.968225
_cell_length_b 7.783506
_cell_length_c 11.687429
_cell_angle_alpha 33.829013
_cell_angle_beta 105.557699
_cell_angle_gamma 105.877259
_cell_volume 726.996589
_symmetry_space_group_name_H-M "P -1"
_symmetry_group_IT_number 2
_symmetry_cell_setting 'triclinic'
loop_
_space_group_symop_operation_xyz
x,y,z
-x,-y,-z
loop_
_atom_site_type_symbol
_atom_site_label
_atom_site_fract_x
_atom_site_fract_y
_atom_site_fract_z
Si Si1 0.428311 0.858523 0.147207
Si Si2 0.446752 0.793943 0.837821
Si Si3 0.663273 0.796177 0.552512
Si Si4 0.894815 0.457312 0.346026
Si Si5 0.168050 0.950066 0.661335
Si Si6 0.276575 0.451993 0.063032
Si Si7 0.759675 0.934928 0.956982
Si Si8 0.102217 0.555504 0.384933
O O1 0.411644 0.492231 0.333727
O O2 0.479274 0.931163 0.245389
O O3 0.327015 0.994302 0.031973
O O4 0.500000 0.000000 0.000000
O O5 0.397283 0.904102 0.642661
O O6 0.500000 0.500000 0.000000
O O7 0.368436 0.696364 0.961321
O O8 0.722198 0.768637 0.704003
O O9 0.736194 0.841281 0.449060
O O10 0.877260 0.179732 0.401759
O O11 0.883553 0.330103 0.542370
O O12 0.998947 0.621984 0.272525
O O13 0.821099 0.708290 0.170772
O O14 0.105972 0.181917 0.578540
O O15 0.187124 0.655197 0.912354
O O16 0.280991 0.228720 0.080416
O O17 0.822109 0.253679 0.773915
#
# Coordination Sequence:
#
# PCOD8018454 Si02
#       8
#     2   2   2   2   2   2   2   2
#     4  12  24  42  63  91 128 169 218 265 317 381
#     4  11  23  42  58  88 122 166 212 263 315 371
#     4  11  23  41  63  90 129 163 217 263 316 387
#     4  10  24  42  65 100 131 164 217 268 323 396
#     4  10  22  40  66  94 133 168 211 265 324 388
#     4  10  22  41  61  91 125 170 213 263 319 382
#     4  11  23  43  64  91 131 169 212 267 324 381
#     4  11  22  41  69  97 128 172 213 263 332 385
#
# _framework density 22.008355999999999
#
# number of rings (size 3 to 8) (size 9 to 14) (size 15 to 20)
#    0.000    1.250    3.750    1.875    1.750    0.500 
#    2.250    0.000    0.000    8.250    0.000    0.000 
#    0.000    0.000    0.000    0.000    0.000    0.000 
#
# Total GULP energy -198317.915571 kJ/mol
# GULP energy per Si atom -12394.869723 kJ/mol
# Density = 2.195826 g / cm^3
# Si number density = 22.008356 Si / 1000 Ang^3
#
#
#
# Elastic Constant Matrix: (Units=GPa)
#
#
# Indices 1 2 3 4 5 6 
#
# 1 119.1739 21.8068 35.5041 3.3025 5.4480 6.2905
# 2 21.8068 82.0224 24.9614 -0.1978 5.8537 6.5092
# 3 35.5041 24.9614 97.4213 10.3351 8.6332 5.9257
# 4 3.3025 -0.1978 10.3351 30.7419 3.7750 3.0321
# 5 5.4480 5.8537 8.6332 3.7750 31.8738 -3.8768
# 6 6.2905 6.5092 5.9257 3.0321 -3.8768 30.2412
#
#
#
# Elastic Compliance Matrix: (Units=1/GPa)
#
#
# Indices 1 2 3 4 5 6 
#
# 1 0.009656 -0.001502 -0.003015 0.000175 -0.000725 -0.001205
# 2 -0.001502 0.013804 -0.002837 0.001702 -0.002019 -0.002532
# 3 -0.003015 -0.002837 0.012732 -0.003598 -0.002128 -0.001169
# 4 0.000175 0.001702 -0.003598 0.034572 -0.003908 -0.003665
# 5 -0.000725 -0.002019 -0.002128 -0.003908 0.033601 0.005702
# 6 -0.001205 -0.002532 -0.001169 -0.003665 0.005702 0.035191
#
#
# Mechanical properties :
#
#
# Convention : Reuss Voigt Hill
#
# Bulk Modulus (GPa) = 46.54730 51.46248 49.00489
# Shear Modulus (GPa) = 30.97413 32.99439 31.98426
#
# Velocity S-wave (km/s) = 3.75558 3.87612 3.81632
# Velocity P-wave (km/s) = 6.32468 6.59290 6.46018
#
# Compressibility (1/GPa) = 0.02148352
#
# Stress axis : x y z
#
# Youngs Moduli (GPa) = 103.56125 72.44478 78.54304
#
# Poissons Ratio (x) = 0.10880 0.23683
# Poissons Ratio (y) = 0.15553 0.22283
# Poissons Ratio (z) = 0.31226 0.20553
#
# Static dielectric constant tensor:
#      x y z
#    x 4.089870 0.354000 0.190590 
#    y 0.354000 4.127250 0.040350 
#    z 0.190590 0.040350 3.962510 
# 
# 
# High freq. dielectric constant tensor:
#      x y z
#    x 1.864310 0.016050 0.014230 
#    y 0.016050 1.866410 -0.003970 
#    z 0.014230 -0.003970 1.861200 
# 
# From -- ./inp_files/53235.got.cif
#   From: 2010.06.25/outbox.cif.g09.slc.cpg/sg2_27_cif.got.tgz:53235.got - 2010.06.27 13:26:56.
