data_PCOD8018386
_publ_section_title
;
Structure prediction by ZEFSAII (Michael W. Deem and Ramdas Pophale) SiO2 
 PCOD8018386
Probable space group: P -1
;
_chemical_formula_sum "Si O2"
_cell_formula_units_Z 16
_cell_length_a 11.925931
_cell_length_b 6.245918
_cell_length_c 28.049047
_cell_angle_alpha 47.268265
_cell_angle_beta 27.503637
_cell_angle_gamma 57.919217
_cell_volume 693.136657
_symmetry_space_group_name_H-M "P -1"
_symmetry_group_IT_number 2
_symmetry_cell_setting 'triclinic'
loop_
_space_group_symop_operation_xyz
x,y,z
-x,-y,-z
loop_
_atom_site_type_symbol
_atom_site_label
_atom_site_fract_x
_atom_site_fract_y
_atom_site_fract_z
Si Si1 0.981047 0.783095 0.219188
Si Si2 0.127523 0.799124 0.263788
Si Si3 0.974236 0.867882 0.582754
Si Si4 0.208734 0.393421 0.994383
Si Si5 0.581045 0.926759 0.800973
Si Si6 0.739615 0.175303 0.357908
Si Si7 0.470245 0.930136 0.642219
Si Si8 0.709612 0.587836 0.148595
O O1 0.933278 0.451910 0.265677
O O2 0.168012 0.789703 0.192725
O O3 0.697973 0.823316 0.326767
O O4 0.127581 0.047665 0.090775
O O5 0.121275 0.480210 0.337471
O O6 0.324448 0.021345 0.188199
O O7 0.870135 0.898795 0.347298
O O8 0.793563 0.994303 0.668987
O O9 0.000000 0.000000 0.500000
O O10 0.244480 0.915923 0.498866
O O11 0.991320 0.575066 0.057804
O O12 0.442140 0.580231 0.906978
O O13 0.312120 0.397560 0.901757
O O14 0.385012 0.139339 0.831752
O O15 0.652589 0.280613 0.323563
O O16 0.500000 0.000000 0.500000
O O17 0.464864 0.724048 0.721993
#
# Coordination Sequence:
#
# PCOD8018386 Si02
#       8
#     2   2   2   2   2   2   2   2
#     4  10  23  43  67  96 128 168 217 269 325 380
#     4  11  24  41  62  95 130 167 216 266 324 385
#     4  12  26  44  65  96 137 173 210 266 329 388
#     4  10  23  44  67  94 132 171 217 273 323 382
#     4  12  24  41  65  94 131 175 218 263 324 389
#     4  11  22  39  66  94 126 169 216 267 322 387
#     4  10  22  40  65  96 128 168 217 266 324 386
#     4  10  23  42  67  98 128 170 221 272 325 382
#
# _framework density 23.083472
#
# number of rings (size 3 to 8) (size 9 to 14) (size 15 to 20)
#    0.000    1.250    0.000    5.625    0.000   12.500 
#    0.000    4.375    0.000    0.000    0.000    0.000 
#    0.000    0.000    0.000    0.000    0.000    0.000 
#
# Total GULP energy -198226.446879 kJ/mol
# GULP energy per Si atom -12389.152930 kJ/mol
# Density = 2.303093 g / cm^3
# Si number density = 23.083472 Si / 1000 Ang^3
#
#
#
# Elastic Constant Matrix: (Units=GPa)
#
#
# Indices 1 2 3 4 5 6 
#
# 1 119.3446 35.1962 45.6374 -11.4930 14.0265 12.0626
# 2 35.1962 103.3028 53.7976 -1.8975 12.1253 -3.6196
# 3 45.6374 53.7976 109.7696 -0.8217 -0.7794 8.3800
# 4 -11.4930 -1.8975 -0.8217 38.0482 -1.9385 -0.5779
# 5 14.0265 12.1253 -0.7794 -1.9385 30.4042 -4.0140
# 6 12.0626 -3.6196 8.3800 -0.5779 -4.0140 32.8479
#
#
#
# Elastic Compliance Matrix: (Units=1/GPa)
#
#
# Indices 1 2 3 4 5 6 
#
# 1 0.011567 -0.001428 -0.003817 0.003014 -0.005203 -0.004014
# 2 -0.001428 0.014341 -0.006716 -0.000057 -0.004810 0.003229
# 3 -0.003817 -0.006716 0.014199 -0.000993 0.004418 -0.002438
# 4 0.003014 -0.000057 -0.000993 0.027178 0.000294 -0.000346
# 5 -0.005203 -0.004810 0.004418 0.000294 0.037988 0.004901
# 6 -0.004014 0.003229 -0.002438 -0.000346 0.004901 0.033488
#
#
# Mechanical properties :
#
#
# Convention : Reuss Voigt Hill
#
# Bulk Modulus (GPa) = 61.78647 66.85326 64.31987
# Shear Modulus (GPa) = 29.74806 33.44576 31.59691
#
# Velocity S-wave (km/s) = 3.59377 3.81058 3.70376
# Velocity P-wave (km/s) = 6.63663 6.95594 6.79816
#
# Compressibility (1/GPa) = 0.01618477
#
# Stress axis : x y z
#
# Youngs Moduli (GPa) = 86.44970 69.73069 70.42929
#
# Poissons Ratio (x) = 0.09955 0.26886
# Poissons Ratio (y) = 0.12342 0.47300
# Poissons Ratio (z) = 0.33002 0.46831
#
# Static dielectric constant tensor:
#      x y z
#    x 4.392970 0.007970 -0.015180 
#    y 0.007970 4.255440 0.233750 
#    z -0.015180 0.233750 4.118730 
# 
# 
# High freq. dielectric constant tensor:
#      x y z
#    x 1.922340 -0.005370 -0.007530 
#    y -0.005370 1.914670 0.008430 
#    z -0.007530 0.008430 1.912320 
# 
# From -- ./inp_files/475993.got.cif
#   From: 2010.06.25/outbox.cif.g09.slc.cpg/sg2_238_cif.got.tgz:475993.got - 2010.06.27 13:26:56.
