data_PCOD8018803
_publ_section_title
;
Structure prediction by ZEFSAII (Michael W. Deem and Ramdas Pophale) SiO2 
 PCOD8018803
Probable space group: P -1
;
_chemical_formula_sum "Si O2"
_cell_formula_units_Z 14
_cell_length_a 12.417322
_cell_length_b 8.577438
_cell_length_c 11.450224
_cell_angle_alpha 43.416194
_cell_angle_beta 130.766269
_cell_angle_gamma 125.766153
_cell_volume 620.445302
_symmetry_space_group_name_H-M "P -1"
_symmetry_group_IT_number 2
_symmetry_cell_setting 'triclinic'
loop_
_space_group_symop_operation_xyz
x,y,z
-x,-y,-z
loop_
_atom_site_type_symbol
_atom_site_label
_atom_site_fract_x
_atom_site_fract_y
_atom_site_fract_z
Si Si1 0.455943 0.700625 0.563613
Si Si2 0.964126 0.332599 0.457007
Si Si3 0.578701 0.849442 0.801120
Si Si4 0.202441 0.417773 0.975393
Si Si5 0.763401 0.729684 0.450862
Si Si6 0.404044 0.879878 0.893027
Si Si7 0.209384 0.168163 0.338631
O O1 0.461978 0.695375 0.712161
O O2 0.378106 0.455088 0.589900
O O3 0.617922 0.784185 0.583334
O O4 0.366536 0.892447 0.354305
O O5 0.912051 0.475872 0.236479
O O6 0.000000 0.500000 0.500000
O O7 0.108876 0.252558 0.561476
O O8 0.847264 0.107586 0.536013
O O9 0.507770 0.861756 0.868372
O O10 0.719488 0.734716 0.973792
O O11 0.324097 0.620229 0.011261
O O12 0.131386 0.259478 0.121394
O O13 0.819419 0.687541 0.644375
O O14 0.719294 0.977418 0.299799
O O15 0.500000 0.000000 0.000000
#
# Coordination Sequence:
#
# PCOD8018803 Si02
#       7
#     2   2   2   2   2   2   2
#     4  10  22  42  76 110 137 189 239 300 360 423
#     4  12  30  50  72 100 151 201 238 290 360 438
#     4  10  22  40  72 102 151 177 240 294 362 412
#     4  11  26  46  73 104 143 195 241 289 358 434
#     4  12  26  45  75 105 148 190 239 297 370 417
#     4  12  25  41  71 111 147 183 237 302 365 421
#     4  11  24  50  73 104 147 183 245 302 356 423
#
# _framework density 22.564437000000002
#
# number of rings (size 3 to 8) (size 9 to 14) (size 15 to 20)
#    0.000    0.857    2.857    3.000   12.000    1.143 
#    0.000    0.000    0.000    0.000    0.000    0.000 
#    0.000    0.000    0.000    0.000    0.000    0.000 
#
# Total GULP energy -173593.847623 kJ/mol
# GULP energy per Si atom -12399.560544 kJ/mol
# Density = 2.251308 g / cm^3
# Si number density = 22.564437 Si / 1000 Ang^3
#
#
#
# Elastic Constant Matrix: (Units=GPa)
#
#
# Indices 1 2 3 4 5 6 
#
# 1 137.8403 55.6642 36.8309 -0.6245 -9.6855 -19.7108
# 2 55.6642 119.7058 30.9018 7.2269 -17.5738 -17.7878
# 3 36.8309 30.9018 104.4916 -2.1683 -18.3812 -2.2067
# 4 -0.6245 7.2269 -2.1683 35.0729 -12.1769 -4.9036
# 5 -9.6855 -17.5738 -18.3812 -12.1769 27.4914 7.8743
# 6 -19.7108 -17.7878 -2.2067 -4.9036 7.8743 42.0007
#
#
#
# Elastic Compliance Matrix: (Units=1/GPa)
#
#
# Indices 1 2 3 4 5 6 
#
# 1 0.009773 -0.003638 -0.002474 0.000844 -0.001084 0.003217
# 2 -0.003638 0.011362 -0.001318 -0.000743 0.004150 0.002171
# 3 -0.002474 -0.001318 0.012432 0.003775 0.008929 -0.002299
# 4 0.000844 -0.000743 0.003775 0.035182 0.017619 0.001084
# 5 -0.001084 0.004150 0.008929 0.017619 0.054252 -0.006396
# 6 0.003217 0.002171 -0.002299 0.001084 -0.006396 0.027443
#
#
# Mechanical properties :
#
#
# Convention : Reuss Voigt Hill
#
# Bulk Modulus (GPa) = 53.45220 67.64793 60.55006
# Shear Modulus (GPa) = 29.14783 36.82240 32.98512
#
# Velocity S-wave (km/s) = 3.59801 4.04403 3.82752
# Velocity P-wave (km/s) = 6.40320 7.20073 6.81365
#
# Compressibility (1/GPa) = 0.01870831
#
# Stress axis : x y z
#
# Youngs Moduli (GPa) = 102.32708 88.01144 80.43530
#
# Poissons Ratio (x) = 0.32016 0.19901
# Poissons Ratio (y) = 0.37223 0.10598
# Poissons Ratio (z) = 0.25317 0.11596
#
# Static dielectric constant tensor:
#      x y z
#    x 4.007560 -0.302490 -0.077980 
#    y -0.302490 4.150320 -0.088500 
#    z -0.077980 -0.088500 4.422750 
# 
# 
# High freq. dielectric constant tensor:
#      x y z
#    x 1.883330 -0.024120 -0.004440 
#    y -0.024120 1.892060 -0.006980 
#    z -0.004440 -0.006980 1.899500 
# 
# From -- ./inp_files/416208.got.cif
#   From: 2010.06.25/outbox.cif.g09.slc.cpg/sg2_209_cif.got.tgz:416208.got - 2010.06.27 13:26:56.
