data_PCOD8018285
_publ_section_title
;
Structure prediction by ZEFSAII (Michael W. Deem and Ramdas Pophale) SiO2 
 PCOD8018285
Probable space group: P -1
;
_chemical_formula_sum "Si O2"
_cell_formula_units_Z 16
_cell_length_a 12.146244
_cell_length_b 15.923436
_cell_length_c 8.500759
_cell_angle_alpha 90.301434
_cell_angle_beta 82.623154
_cell_angle_gamma 152.108230
_cell_volume 741.721246
_symmetry_space_group_name_H-M "P -1"
_symmetry_group_IT_number 2
_symmetry_cell_setting 'triclinic'
loop_
_space_group_symop_operation_xyz
x,y,z
-x,-y,-z
loop_
_atom_site_type_symbol
_atom_site_label
_atom_site_fract_x
_atom_site_fract_y
_atom_site_fract_z
Si Si1 0.992554 0.821055 0.158189
Si Si2 0.214961 0.672783 0.760546
Si Si3 0.535743 0.450594 0.114781
Si Si4 0.290723 0.604317 0.029394
Si Si5 0.576797 0.137272 0.572685
Si Si6 0.631605 0.062546 0.819464
Si Si7 0.730372 0.948424 0.181604
Si Si8 0.040466 0.030668 0.307936
O O1 0.139128 0.842025 0.200740
O O2 0.706995 0.604143 0.223840
O O3 0.066463 0.953742 0.240783
O O4 0.044784 0.867145 0.962572
O O5 0.253565 0.686853 0.564527
O O6 0.952185 0.535825 0.834758
O O7 0.421019 0.878981 0.756982
O O8 0.273025 0.631143 0.856612
O O9 0.285785 0.247987 0.231559
O O10 0.500000 0.500000 0.000000
O O11 0.684353 0.477833 0.997765
O O12 0.516058 0.789298 0.092303
O O13 0.721717 0.205875 0.706572
O O14 0.341983 0.032548 0.672735
O O15 0.500000 0.000000 0.500000
O O16 0.500000 0.000000 0.000000
O O17 0.812918 0.919742 0.257446
O O18 0.000000 0.000000 0.500000
#
# Coordination Sequence:
#
# PCOD8018285 Si02
#       8
#     2   2   2   2   2   2   2   2
#     4  12  24  46  74 101 136 188 243 280 350 429
#     4  10  22  40  64  95 141 178 226 281 350 410
#     4  12  25  44  74 103 136 182 239 292 345 419
#     4  11  23  42  71  99 135 186 236 280 350 429
#     4  10  24  37  64 102 137 177 226 289 349 406
#     4  11  19  39  65  98 138 178 229 279 344 418
#     4  12  23  44  72  96 136 191 233 283 350 424
#     4  12  29  49  73 102 143 184 234 304 356 406
#
# _framework density 21.571446999999999
#
# number of rings (size 3 to 8) (size 9 to 14) (size 15 to 20)
#    0.000    0.750    5.000    1.875    7.000    2.000 
#    2.250    0.000    0.000    0.000    0.000    0.000 
#    0.000    0.000    0.000    0.000    0.000    0.000 
#
# Total GULP energy -198289.723134 kJ/mol
# GULP energy per Si atom -12393.107696 kJ/mol
# Density = 2.152235 g / cm^3
# Si number density = 21.571447 Si / 1000 Ang^3
#
#
#
# Elastic Constant Matrix: (Units=GPa)
#
#
# Indices 1 2 3 4 5 6 
#
# 1 166.2559 35.3346 73.1047 -3.7720 10.7659 8.0318
# 2 35.3346 100.3297 31.8397 -14.2473 2.9082 9.2330
# 3 73.1047 31.8397 160.8520 -12.1232 10.4733 -1.3437
# 4 -3.7720 -14.2473 -12.1232 18.5048 0.3410 1.7486
# 5 10.7659 2.9082 10.4733 0.3410 34.7200 6.3619
# 6 8.0318 9.2330 -1.3437 1.7486 6.3619 33.2746
#
#
#
# Elastic Compliance Matrix: (Units=1/GPa)
#
#
# Indices 1 2 3 4 5 6 
#
# 1 0.007962 -0.001867 -0.003331 -0.001860 -0.001063 -0.001238
# 2 -0.001867 0.012538 -0.001016 0.008941 0.000410 -0.003618
# 3 -0.003331 -0.001016 0.008350 0.003895 -0.001723 0.001548
# 4 -0.001860 0.008941 0.003895 0.063590 -0.001053 -0.005015
# 5 -0.001063 0.000410 -0.001723 -0.001053 0.030678 -0.005737
# 6 -0.001238 -0.003618 0.001548 -0.005015 -0.005737 0.032778
#
#
# Mechanical properties :
#
#
# Convention : Reuss Voigt Hill
#
# Bulk Modulus (GPa) = 60.88922 78.66618 69.77770
# Shear Modulus (GPa) = 28.76880 36.44378 32.60629
#
# Velocity S-wave (km/s) = 3.65588 4.11475 3.89208
# Velocity P-wave (km/s) = 6.79034 7.68907 7.25363
#
# Compressibility (1/GPa) = 0.01642327
#
# Stress axis : x y z
#
# Youngs Moduli (GPa) = 125.58881 79.75844 119.75379
#
# Poissons Ratio (x) = 0.14888 0.39885
# Poissons Ratio (y) = 0.23443 0.12173
# Poissons Ratio (z) = 0.41829 0.08107
#
# Static dielectric constant tensor:
#      x y z
#    x 4.204190 0.060280 -0.022700 
#    y 0.060280 4.077980 0.911390 
#    z -0.022700 0.911390 15.022930 
# 
# 
# High freq. dielectric constant tensor:
#      x y z
#    x 1.866890 0.003420 0.010820 
#    y 0.003420 1.839240 -0.001430 
#    z 0.010820 -0.001430 1.850780 
# 
# From -- ./inp_files/273154.got.cif
#   From: 2010.06.25/outbox.cif.g09.slc.cpg/sg2_137_cif.got.tgz:273154.got - 2010.06.27 13:26:56.
