data_PCOD8018513
_publ_section_title
;
Structure prediction by ZEFSAII (Michael W. Deem and Ramdas Pophale) SiO2 
 PCOD8018513
Probable space group: P -1
;
_chemical_formula_sum "Si O2"
_cell_formula_units_Z 16
_cell_length_a 25.755857
_cell_length_b 24.839962
_cell_length_c 12.156404
_cell_angle_alpha 151.378347
_cell_angle_beta 153.639792
_cell_angle_gamma 10.651738
_cell_volume 637.928406
_symmetry_space_group_name_H-M "P -1"
_symmetry_group_IT_number 2
_symmetry_cell_setting 'triclinic'
loop_
_space_group_symop_operation_xyz
x,y,z
-x,-y,-z
loop_
_atom_site_type_symbol
_atom_site_label
_atom_site_fract_x
_atom_site_fract_y
_atom_site_fract_z
Si Si1 0.736693 0.609383 0.368483
Si Si2 0.573232 0.162634 0.148516
Si Si3 0.250794 0.730322 0.071790
Si Si4 0.297291 0.602059 0.156404
Si Si5 0.248719 0.506049 0.582483
Si Si6 0.712504 0.797180 0.417248
Si Si7 0.377122 0.861565 0.556224
Si Si8 0.147453 0.737679 0.357206
O O1 0.675952 0.643182 0.442031
O O2 0.097376 0.318101 0.529537
O O3 0.511673 0.907584 0.428258
O O4 0.660899 0.569971 0.076644
O O5 0.645718 0.060867 0.229193
O O6 0.267931 0.505036 0.183934
O O7 0.517511 0.097565 0.861942
O O8 0.826877 0.019502 0.318457
O O9 0.116580 0.801562 0.061613
O O10 0.446032 0.667132 0.359038
O O11 0.425453 0.470101 0.876566
O O12 0.000000 0.000000 0.000000
O O13 0.110712 0.798582 0.265890
O O14 0.629283 0.365301 0.356124
O O15 0.340343 0.358081 0.380124
O O16 0.903730 0.852786 0.540027
O O17 0.000000 0.500000 0.500000
#
# Coordination Sequence:
#
# PCOD8018513 Si02
#       8
#     2   2   2   2   2   2   2   2
#     4  11  25  47  73 105 142 183 244 291 359 420
#     4  12  26  47  71 103 143 189 243 292 353 426
#     4   9  19  39  65 101 142 187 230 284 344 429
#     4  10  23  43  71 107 147 188 229 296 364 433
#     4  10  22  40  67 102 141 180 229 289 350 419
#     4  12  27  49  75 100 136 192 245 299 347 421
#     4  11  21  41  65 100 141 184 232 284 349 422
#     4  11  25  45  69 108 147 186 231 291 369 432
#
# _framework density 25.081182999999999
#
# number of rings (size 3 to 8) (size 9 to 14) (size 15 to 20)
#    0.000    1.250    1.250    3.750    0.000    6.000 
#    4.500    3.750    0.000    0.000    0.000    0.000 
#    0.000    0.000    0.000    0.000    0.000    0.000 
#
# Total GULP energy -198235.093876 kJ/mol
# GULP energy per Si atom -12389.693367 kJ/mol
# Density = 2.502410 g / cm^3
# Si number density = 25.081183 Si / 1000 Ang^3
#
#
#
# Elastic Constant Matrix: (Units=GPa)
#
#
# Indices 1 2 3 4 5 6 
#
# 1 70.9828 5.4443 29.5949 -12.9677 -25.4657 1.2644
# 2 5.4443 77.4128 7.1725 -4.2219 -3.0827 -9.5019
# 3 29.5949 7.1725 90.2095 -17.3314 -2.3450 -4.4841
# 4 -12.9677 -4.2219 -17.3314 20.0602 -3.7183 4.9955
# 5 -25.4657 -3.0827 -2.3450 -3.7183 45.5842 4.0375
# 6 1.2644 -9.5019 -4.4841 4.9955 4.0375 49.7112
#
#
#
# Elastic Compliance Matrix: (Units=1/GPa)
#
#
# Indices 1 2 3 4 5 6 
#
# 1 0.024317 -0.000313 -0.004838 0.015194 0.014895 -0.003851
# 2 -0.000313 0.013388 -0.000498 0.001732 0.000643 0.002296
# 3 -0.004838 -0.000498 0.014401 0.008828 -0.001324 0.000547
# 4 0.015194 0.001732 0.008828 0.072515 0.015667 -0.007819
# 5 0.014895 0.000643 -0.001324 0.015667 0.031914 -0.004542
# 6 -0.003851 0.002296 0.000547 -0.007819 -0.004542 0.021857
#
#
# Mechanical properties :
#
#
# Convention : Reuss Voigt Hill
#
# Bulk Modulus (GPa) = 24.50502 35.89206 30.19854
# Shear Modulus (GPa) = 24.59512 36.16401 30.37956
#
# Velocity S-wave (km/s) = 3.13488 3.80133 3.48408
# Velocity P-wave (km/s) = 4.78485 5.79726 5.31521
#
# Compressibility (1/GPa) = 0.04080797
#
# Stress axis : x y z
#
# Youngs Moduli (GPa) = 41.12321 74.69497 69.43993
#
# Poissons Ratio (x) = 0.02337 0.33595
# Poissons Ratio (y) = 0.01287 0.03459
# Poissons Ratio (z) = 0.19895 0.03721
#
# Static dielectric constant tensor:
#      x y z
#    x 5.270580 -0.371210 0.355730 
#    y -0.371210 4.645870 -0.286740 
#    z 0.355730 -0.286740 4.879930 
# 
# 
# High freq. dielectric constant tensor:
#      x y z
#    x 2.027730 0.004870 -0.007190 
#    y 0.004870 1.986700 0.014210 
#    z -0.007190 0.014210 1.980850 
# 
# From -- ./inp_files/477240.got.cif
#   From: 2010.06.25/outbox.cif.g09.slc.cpg/sg2_239_cif.got.tgz:477240.got - 2010.06.27 13:26:56.
