data_PCOD8018375
_publ_section_title
;
Structure prediction by ZEFSAII (Michael W. Deem and Ramdas Pophale) SiO2 
 PCOD8018375
Probable space group: P -1
;
_chemical_formula_sum "Si O2"
_cell_formula_units_Z 14
_cell_length_a 14.675030
_cell_length_b 10.361549
_cell_length_c 10.476923
_cell_angle_alpha 151.935158
_cell_angle_beta 58.708585
_cell_angle_gamma 120.100323
_cell_volume 636.764857
_symmetry_space_group_name_H-M "P -1"
_symmetry_group_IT_number 2
_symmetry_cell_setting 'triclinic'
loop_
_space_group_symop_operation_xyz
x,y,z
-x,-y,-z
loop_
_atom_site_type_symbol
_atom_site_label
_atom_site_fract_x
_atom_site_fract_y
_atom_site_fract_z
Si Si1 0.627357 0.237084 0.879074
Si Si2 0.705318 0.845856 0.278282
Si Si3 0.697848 0.478567 0.511582
Si Si4 0.063852 0.657783 0.764122
Si Si5 0.941472 0.122494 0.324967
Si Si6 0.377284 0.951603 0.013723
Si Si7 0.417763 0.345755 0.024983
O O1 0.675980 0.186646 0.938768
O O2 0.638161 0.989462 0.556962
O O3 0.691694 0.517163 0.024192
O O4 0.496100 0.233486 0.977220
O O5 0.826893 0.972426 0.315420
O O6 0.659064 0.883262 0.199714
O O7 0.820058 0.423660 0.358473
O O8 0.658343 0.461376 0.673996
O O9 0.683636 0.783304 0.738049
O O10 0.629798 0.251542 0.278751
O O11 0.061509 0.767942 0.719586
O O12 0.977842 0.389862 0.617776
O O13 0.029110 0.904923 0.092477
O O14 0.500000 0.000000 0.000000
O O15 0.500000 0.500000 0.000000
#
# Coordination Sequence:
#
# PCOD8018375 Si02
#       7
#     2   2   2   2   2   2   2
#     4  11  24  43  62  94 132 173 222 255 313 390
#     4  11  24  40  68  94 133 170 206 269 331 387
#     4  12  26  42  68  95 134 172 214 269 320 376
#     4  10  23  39  64  97 130 164 211 268 323 389
#     4  10  22  40  65  95 131 164 210 264 333 389
#     4  12  26  43  68  90 131 181 225 260 305 371
#     4  10  25  38  63  98 138 168 205 260 328 398
#
# _framework density 21.986139000000001
#
# number of rings (size 3 to 8) (size 9 to 14) (size 15 to 20)
#    0.000    1.143    1.429    3.429   16.000    0.000 
#    0.000    0.000    0.000   17.143    0.000    0.000 
#    0.000    0.000    0.000    0.000    0.000    0.000 
#
# Total GULP energy -173528.268827 kJ/mol
# GULP energy per Si atom -12394.876345 kJ/mol
# Density = 2.193610 g / cm^3
# Si number density = 21.986139 Si / 1000 Ang^3
#
#
#
# Elastic Constant Matrix: (Units=GPa)
#
#
# Indices 1 2 3 4 5 6 
#
# 1 193.1244 -11.3240 42.6327 77.3453 -44.5647 86.3173
# 2 -11.3240 92.7057 21.0787 -40.9897 29.3405 -38.7286
# 3 42.6327 21.0787 113.5496 8.2182 1.7582 -5.1755
# 4 77.3453 -40.9897 8.2182 102.4784 -37.5143 66.2031
# 5 -44.5647 29.3405 1.7582 -37.5143 62.2763 -34.0971
# 6 86.3173 -38.7286 -5.1755 66.2031 -34.0971 91.2249
#
#
#
# Elastic Compliance Matrix: (Units=1/GPa)
#
#
# Indices 1 2 3 4 5 6 
#
# 1 0.012505 -0.004255 -0.004260 -0.002579 0.003703 -0.010625
# 2 -0.004255 0.016555 -0.001429 0.004223 -0.004941 0.006062
# 3 -0.004260 -0.001429 0.011052 -0.001870 -0.001072 0.005008
# 4 -0.002579 0.004223 -0.001870 0.021319 0.003582 -0.010005
# 5 0.003703 -0.004941 -0.001072 0.003582 0.023511 0.000527
# 6 -0.010625 0.006062 0.005008 -0.010005 0.000527 0.031330
#
#
# Mechanical properties :
#
#
# Convention : Reuss Voigt Hill
#
# Bulk Modulus (GPa) = 49.44366 56.01717 52.73042
# Shear Modulus (GPa) = 34.98947 74.32875 54.65911
#
# Velocity S-wave (km/s) = 3.99360 5.82069 4.99146
# Velocity P-wave (km/s) = 6.61835 8.40879 7.56671
#
# Compressibility (1/GPa) = 0.02022504
#
# Stress axis : x y z
#
# Youngs Moduli (GPa) = 79.96822 60.40397 90.48450
#
# Poissons Ratio (x) = 0.25699 0.38548
# Poissons Ratio (y) = 0.34023 0.12927
# Poissons Ratio (z) = 0.34068 0.08630
#
# Static dielectric constant tensor:
#      x y z
#    x 4.474710 -0.361080 0.152090 
#    y -0.361080 4.121260 0.004700 
#    z 0.152090 0.004700 4.428510 
# 
# 
# High freq. dielectric constant tensor:
#      x y z
#    x 1.859250 0.006160 -0.002500 
#    y 0.006160 1.854090 0.007980 
#    z -0.002500 0.007980 1.880530 
# 
# From -- ./inp_files/452674.got.cif
#   From: 2010.06.25/outbox.cif.g09.slc.cpg/sg2_227_cif.got.tgz:452674.got - 2010.06.27 13:26:56.
