data_PCOD8018665
_publ_section_title
;
Structure prediction by ZEFSAII (Michael W. Deem and Ramdas Pophale) SiO2 
 PCOD8018665
Probable space group: P -1
;
_chemical_formula_sum "Si O2"
_cell_formula_units_Z 14
_cell_length_a 11.380750
_cell_length_b 5.622413
_cell_length_c 22.518655
_cell_angle_alpha 69.730368
_cell_angle_beta 154.519594
_cell_angle_gamma 117.640885
_cell_volume 539.146022
_symmetry_space_group_name_H-M "P -1"
_symmetry_group_IT_number 2
_symmetry_cell_setting 'triclinic'
loop_
_space_group_symop_operation_xyz
x,y,z
-x,-y,-z
loop_
_atom_site_type_symbol
_atom_site_label
_atom_site_fract_x
_atom_site_fract_y
_atom_site_fract_z
Si Si1 0.961228 0.724203 0.037853
Si Si2 0.826213 0.064428 0.166626
Si Si3 0.164327 0.360670 0.879395
Si Si4 0.566263 0.440406 0.780272
Si Si5 0.455921 0.156223 0.356463
Si Si6 0.532916 0.411109 0.588406
Si Si7 0.984838 0.932662 0.376618
O O1 0.271662 0.680566 0.184122
O O2 0.826258 0.722942 0.040821
O O3 0.729013 0.481476 0.914170
O O4 0.000000 0.000000 0.000000
O O5 0.983376 0.401643 0.214843
O O6 0.978104 0.919169 0.201738
O O7 0.817535 0.941986 0.238568
O O8 0.500000 0.000000 0.000000
O O9 0.500000 0.500000 0.000000
O O10 0.563547 0.725752 0.728092
O O11 0.240294 0.217918 0.661054
O O12 0.329711 0.312783 0.333663
O O13 0.796211 0.227294 0.523439
O O14 0.297421 0.814944 0.310223
O O15 0.500000 0.500000 0.500000
O O16 0.196824 0.232590 0.471813
#
# Coordination Sequence:
#
# PCOD8018665 Si02
#       7
#     2   2   2   2   2   2   2
#     4  11  28  44  73 104 153 197 243 310 367 440
#     4  10  22  40  69 103 138 184 235 293 356 428
#     4  10  23  43  69  97 140 183 245 289 361 426
#     4  11  25  49  69 108 148 196 250 298 375 444
#     4  10  25  46  75 105 143 195 243 303 371 438
#     4  10  24  47  71 107 145 187 244 307 370 429
#     4  10  25  43  78 105 150 190 247 307 365 442
#
# _framework density 25.966994
#
# number of rings (size 3 to 8) (size 9 to 14) (size 15 to 20)
#    0.857    0.857    0.000    2.571   12.000    2.857 
#    0.000    0.000    0.000    0.000    0.000    0.000 
#    0.000    0.000    0.000    0.000    0.000    0.000 
#
# Total GULP energy -173614.181877 kJ/mol
# GULP energy per Si atom -12401.012991 kJ/mol
# Density = 2.590789 g / cm^3
# Si number density = 25.966994 Si / 1000 Ang^3
#
#
#
# Elastic Constant Matrix: (Units=GPa)
#
#
# Indices 1 2 3 4 5 6 
#
# 1 170.3832 100.7647 55.6555 7.4938 5.5544 5.7241
# 2 100.7647 217.7401 80.3314 8.9677 17.7899 9.9984
# 3 55.6555 80.3314 128.1549 -3.7383 12.9726 -4.5546
# 4 7.4938 8.9677 -3.7383 56.6656 3.6737 -6.7253
# 5 5.5544 17.7899 12.9726 3.6737 44.6756 -7.9644
# 6 5.7241 9.9984 -4.5546 -6.7253 -7.9644 45.7957
#
#
#
# Elastic Compliance Matrix: (Units=1/GPa)
#
#
# Indices 1 2 3 4 5 6 
#
# 1 0.008380 -0.003246 -0.001720 -0.000815 0.000728 -0.000503
# 2 -0.003246 0.007599 -0.003262 -0.001109 -0.001955 -0.002081
# 3 -0.001720 -0.003262 0.010863 0.001793 -0.001429 0.002022
# 4 -0.000815 -0.001109 0.001793 0.018475 -0.000950 0.003070
# 5 0.000728 -0.001955 -0.001429 -0.000950 0.024328 0.004285
# 6 -0.000503 -0.002081 0.002022 0.003070 0.004285 0.023751
#
#
# Mechanical properties :
#
#
# Convention : Reuss Voigt Hill
#
# Bulk Modulus (GPa) = 96.27834 109.97572 103.12703
# Shear Modulus (GPa) = 44.12503 48.06247 46.09375
#
# Velocity S-wave (km/s) = 4.12670 4.30688 4.21775
# Velocity P-wave (km/s) = 7.73717 8.19612 7.96995
#
# Compressibility (1/GPa) = 0.01038655
#
# Stress axis : x y z
#
# Youngs Moduli (GPa) = 119.33612 131.58985 92.05227
#
# Poissons Ratio (x) = 0.42718 0.15829
# Poissons Ratio (y) = 0.38740 0.30028
# Poissons Ratio (z) = 0.20520 0.42926
#
# Static dielectric constant tensor:
#      x y z
#    x 5.463330 -1.638140 -0.606230 
#    y -1.638140 7.580840 1.447080 
#    z -0.606230 1.447080 5.880940 
# 
# 
# High freq. dielectric constant tensor:
#      x y z
#    x 2.043750 -0.000450 0.025180 
#    y -0.000450 2.071680 0.012570 
#    z 0.025180 0.012570 2.073950 
# 
# From -- ./inp_files/609169.got.cif
#   From: 2010.06.25/outbox.cif.g09.slc.cpg/sg2_305_cif.got.tgz:609169.got - 2010.06.27 13:26:56.
