data_PCOD8018248
_publ_section_title
;
Structure prediction by ZEFSAII (Michael W. Deem and Ramdas Pophale) SiO2 
 PCOD8018248
Probable space group: P -1
;
_chemical_formula_sum "Si O2"
_cell_formula_units_Z 12
_cell_length_a 28.113052
_cell_length_b 7.347456
_cell_length_c 25.121671
_cell_angle_alpha 46.079838
_cell_angle_beta 170.909172
_cell_angle_gamma 134.421552
_cell_volume 585.420995
_symmetry_space_group_name_H-M "P -1"
_symmetry_group_IT_number 2
_symmetry_cell_setting 'triclinic'
loop_
_space_group_symop_operation_xyz
x,y,z
-x,-y,-z
loop_
_atom_site_type_symbol
_atom_site_label
_atom_site_fract_x
_atom_site_fract_y
_atom_site_fract_z
Si Si1 0.800083 0.236082 0.348578
Si Si2 0.390288 0.967141 0.228559
Si Si3 0.301004 0.289969 0.713619
Si Si4 0.308178 0.878615 0.361563
Si Si5 0.852837 0.622092 0.196015
Si Si6 0.863459 0.633057 0.771992
O O1 0.000000 0.500000 0.500000
O O2 0.897900 0.215206 0.522470
O O3 0.855723 0.978636 0.430079
O O4 0.442013 0.253930 0.936466
O O5 0.622420 0.807907 0.488963
O O6 0.530708 0.099558 0.409033
O O7 0.102564 0.784573 0.966911
O O8 0.310279 0.175688 0.056867
O O9 0.037539 0.467116 0.390522
O O10 0.590427 0.421856 0.973130
O O11 0.283279 0.580579 0.386208
O O12 0.500000 0.000000 0.500000
O O13 0.000000 0.000000 0.000000
O O14 0.000000 0.500000 0.000000
#
# Coordination Sequence:
#
# PCOD8018248 Si02
#       6
#     2   2   2   2   2   2
#     4   9  21  40  66  94 123 165 206 246 298 358
#     4  12  25  41  61  94 122 160 205 257 308 364
#     4  10  22  40  64  91 125 165 206 244 296 366
#     4  12  23  39  63  86 115 154 200 252 305 363
#     4  11  24  40  61  90 131 160 202 253 306 358
#     4  12  23  41  66  87 120 157 208 257 308 366
#
# _framework density 20.498069999999998
#
# number of rings (size 3 to 8) (size 9 to 14) (size 15 to 20)
#    0.000    1.000    3.333    3.000    0.000   11.333 
#    0.000    0.000    0.000    0.000    0.000    0.000 
#    0.000    0.000    0.000    0.000    0.000    0.000 
#
# Total GULP energy -148691.140080 kJ/mol
# GULP energy per Si atom -12390.928340 kJ/mol
# Density = 2.045142 g / cm^3
# Si number density = 20.498070 Si / 1000 Ang^3
#
#
#
# Elastic Constant Matrix: (Units=GPa)
#
#
# Indices 1 2 3 4 5 6 
#
# 1 99.7283 69.1779 61.1269 0.0792 -1.5326 -8.6282
# 2 69.1779 179.3418 80.2407 1.7645 -6.0417 -25.5213
# 3 61.1269 80.2407 114.8701 -18.2971 10.7467 -8.3035
# 4 0.0792 1.7645 -18.2971 50.2307 -2.4711 -1.5337
# 5 -1.5326 -6.0417 10.7467 -2.4711 51.3120 -2.6164
# 6 -8.6282 -25.5213 -8.3035 -1.5337 -2.6164 38.7774
#
#
#
# Elastic Compliance Matrix: (Units=1/GPa)
#
#
# Indices 1 2 3 4 5 6 
#
# 1 0.016633 -0.003093 -0.007218 -0.002468 0.001532 0.000126
# 2 -0.003093 0.010060 -0.005597 -0.002122 0.002408 0.004813
# 3 -0.007218 -0.005597 0.017777 0.006422 -0.004366 -0.001523
# 4 -0.002468 -0.002122 0.006422 0.022306 -0.000581 0.000273
# 5 0.001532 0.002408 -0.004366 -0.000581 0.020825 0.002373
# 6 0.000126 0.004813 -0.001523 0.000273 0.002373 0.028828
#
#
# Mechanical properties :
#
#
# Convention : Reuss Voigt Hill
#
# Bulk Modulus (GPa) = 79.01806 90.55904 84.78855
# Shear Modulus (GPa) = 32.79482 40.29034 36.54258
#
# Velocity S-wave (km/s) = 4.00421 4.43828 4.22682
# Velocity P-wave (km/s) = 7.74668 8.39879 8.07932
#
# Compressibility (1/GPa) = 0.01265533
#
# Stress axis : x y z
#
# Youngs Moduli (GPa) = 60.12109 99.40537 56.25127
#
# Poissons Ratio (x) = 0.30743 0.40603
# Poissons Ratio (y) = 0.18593 0.31482
# Poissons Ratio (z) = 0.43396 0.55634
#
# Static dielectric constant tensor:
#      x y z
#    x 3.910740 -0.206160 -0.189920 
#    y -0.206160 4.035860 0.163180 
#    z -0.189920 0.163180 3.946970 
# 
# 
# High freq. dielectric constant tensor:
#      x y z
#    x 1.799670 -0.010090 -0.000080 
#    y -0.010090 1.822470 0.003250 
#    z -0.000080 0.003250 1.808740 
# 
# From -- ./inp_files/6774.got.cif
#   From: 2010.06.25/outbox.cif.g09.slc.cpg/sg2_4_cif.got.tgz:6774.got - 2010.06.27 13:26:56.
