data_PCOD8018095
_publ_section_title
;
Structure prediction by ZEFSAII (Michael W. Deem and Ramdas Pophale) SiO2 
 PCOD8018095
Probable space group: P -1
;
_chemical_formula_sum "Si O2"
_cell_formula_units_Z 16
_cell_length_a 14.119167
_cell_length_b 22.753527
_cell_length_c 22.670879
_cell_angle_alpha 167.311653
_cell_angle_beta 148.911121
_cell_angle_gamma 29.740793
_cell_volume 790.709384
_symmetry_space_group_name_H-M "P -1"
_symmetry_group_IT_number 2
_symmetry_cell_setting 'triclinic'
loop_
_space_group_symop_operation_xyz
x,y,z
-x,-y,-z
loop_
_atom_site_type_symbol
_atom_site_label
_atom_site_fract_x
_atom_site_fract_y
_atom_site_fract_z
Si Si1 0.161280 0.895754 0.279342
Si Si2 0.724590 0.247555 0.037012
Si Si3 0.328205 0.673446 0.779342
Si Si4 0.875082 0.740900 0.788087
Si Si5 0.419192 0.182687 0.537012
Si Si6 0.985138 0.813266 0.226586
Si Si7 0.230314 0.614918 0.273415
Si Si8 0.891397 0.568795 0.288087
O O1 0.364656 0.942466 0.448860
O O2 0.057414 0.810632 0.196373
O O3 0.042329 0.199919 0.487997
O O4 0.185545 0.647005 0.002243
O O5 0.710129 0.199272 0.051139
O O6 0.590051 0.553316 0.250000
O O7 0.942425 0.207907 0.096524
O O8 0.641330 0.036223 0.750000
O O9 0.194623 0.477312 0.502243
O O10 0.542393 0.482307 0.696373
O O11 0.279576 0.954170 0.987997
O O12 0.926779 0.607740 0.750000
O O13 0.281001 0.261715 0.596524
O O14 0.167809 0.694066 0.250002
O O15 0.859660 0.122582 0.476819
O O16 0.843392 0.628004 0.976820
#
# Coordination Sequence:
#
# PCOD8018095 Si02
#       8
#     2   2   2   2   2   2   2   2
#     4  12  22  38  64  86 116 160 200 235 292 354
#     4  11  22  37  58  90 125 153 192 240 292 353
#     4  12  22  38  64  86 116 160 200 235 292 354
#     4  11  23  39  57  85 122 160 200 240 281 336
#     4  11  22  37  58  90 125 153 192 240 292 353
#     4  10  22  40  62  90 119 145 184 243 304 355
#     4  10  22  40  62  90 119 145 184 243 304 355
#     4  11  23  39  57  85 122 160 200 240 281 336
#
# _framework density 20.234992999999999
#
# number of rings (size 3 to 8) (size 9 to 14) (size 15 to 20)
#    0.000    1.000    0.000    9.000    0.000    3.000 
#    0.000    0.000    0.000   15.000    0.000    0.000 
#    0.000    0.000    0.000    0.000    0.000    0.000 
#
# Total GULP energy -198454.047360 kJ/mol
# GULP energy per Si atom -12403.377960 kJ/mol
# Density = 2.018894 g / cm^3
# Si number density = 20.234993 Si / 1000 Ang^3
#
#
#
# Elastic Constant Matrix: (Units=GPa)
#
#
# Indices 1 2 3 4 5 6 
#
# 1 82.3922 54.3581 55.7777 -4.9750 14.1510 20.2402
# 2 54.3581 124.5900 67.5589 15.8955 -14.5371 3.7527
# 3 55.7777 67.5589 200.9216 -4.3882 -1.9630 10.4578
# 4 -4.9750 15.8955 -4.3882 56.8032 -9.2785 -4.7225
# 5 14.1510 -14.5371 -1.9630 -9.2785 73.7448 15.9959
# 6 20.2402 3.7527 10.4578 -4.7225 15.9959 21.7493
#
#
#
# Elastic Compliance Matrix: (Units=1/GPa)
#
#
# Indices 1 2 3 4 5 6 
#
# 1 0.025574 -0.009726 -0.002844 0.002802 -0.002592 -0.018240
# 2 -0.009726 0.014340 -0.002418 -0.004164 0.003120 0.004541
# 3 -0.002844 -0.002418 0.006616 0.000989 0.000415 -0.000207
# 4 0.002802 -0.004164 0.000989 0.019330 0.000836 0.001218
# 5 -0.002592 0.003120 0.000415 0.000836 0.017117 -0.010733
# 6 -0.018240 0.004541 -0.000207 0.001218 -0.010733 0.070427
#
#
# Mechanical properties :
#
#
# Convention : Reuss Voigt Hill
#
# Bulk Modulus (GPa) = 60.41254 84.81034 72.61144
# Shear Modulus (GPa) = 26.46915 45.80673 36.13794
#
# Velocity S-wave (km/s) = 3.62067 4.76304 4.23059
# Velocity P-wave (km/s) = 6.88472 8.50014 7.73472
#
# Compressibility (1/GPa) = 0.01655286
#
# Stress axis : x y z
#
# Youngs Moduli (GPa) = 39.10170 69.73609 151.14369
#
# Poissons Ratio (x) = 0.67828 0.42985
# Poissons Ratio (y) = 0.38032 0.36553
# Poissons Ratio (z) = 0.11121 0.16865
#
# Static dielectric constant tensor:
#      x y z
#    x 3.489200 0.243880 0.060820 
#    y 0.243880 3.883010 0.160750 
#    z 0.060820 0.160750 3.849210 
# 
# 
# High freq. dielectric constant tensor:
#      x y z
#    x 1.771610 0.014720 0.002080 
#    y 0.014720 1.795200 0.008260 
#    z 0.002080 0.008260 1.817000 
# 
# From -- ./inp_files/123622.got.cif
#   From: 2010.06.25/outbox.cif.g09.slc.cpg/sg2_62_cif.got.tgz:123622.got - 2010.06.27 13:26:56.
