data_PCOD8018817
_publ_section_title
;
Structure prediction by ZEFSAII (Michael W. Deem and Ramdas Pophale) SiO2 
 PCOD8018817
Probable space group: P -1
;
_chemical_formula_sum "Si O2"
_cell_formula_units_Z 10
_cell_length_a 9.536952
_cell_length_b 13.259865
_cell_length_c 5.100284
_cell_angle_alpha 90.431042
_cell_angle_beta 100.376259
_cell_angle_gamma 35.747714
_cell_volume 359.692975
_symmetry_space_group_name_H-M "P -1"
_symmetry_group_IT_number 2
_symmetry_cell_setting 'triclinic'
loop_
_space_group_symop_operation_xyz
x,y,z
-x,-y,-z
loop_
_atom_site_type_symbol
_atom_site_label
_atom_site_fract_x
_atom_site_fract_y
_atom_site_fract_z
Si Si1 0.085518 0.557403 0.443952
Si Si2 0.451804 0.333338 0.087519
Si Si3 0.310844 0.614046 0.676455
Si Si4 0.252063 0.010970 0.598522
Si Si5 0.545877 0.868215 0.186206
O O1 0.212714 0.483572 0.201841
O O2 0.240693 0.535092 0.719212
O O3 0.000000 0.500000 0.500000
O O4 0.811462 0.771931 0.327149
O O5 0.573537 0.376585 0.062509
O O6 0.671682 0.150692 0.330467
O O7 0.394916 0.289977 0.822622
O O8 0.500000 0.500000 0.500000
O O9 0.048223 0.808321 0.477165
O O10 0.345681 0.997279 0.351329
O O11 0.415963 0.979332 0.871753
#
# Coordination Sequence:
#
# PCOD8018817 Si02
#       5
#     2   2   2   2   2
#     4  11  20  42  68  98 137 174 219 271 332 392
#     4   9  21  41  69  94 134 172 220 266 330 391
#     4  10  23  43  67  98 133 175 225 273 330 394
#     4  10  22  43  71  96 134 171 225 271 332 389
#     4  10  22  40  73  96 135 172 219 270 337 387
#
# _framework density 27.801489
#
# number of rings (size 3 to 8) (size 9 to 14) (size 15 to 20)
#    1.200    0.800    2.000    1.200    0.000    2.400 
#    0.000    6.000    0.000    0.000    0.000    0.000 
#    0.000    0.000    0.000    0.000    0.000    0.000 
#
# Total GULP energy -123929.437382 kJ/mol
# GULP energy per Si atom -12392.943738 kJ/mol
# Density = 2.773821 g / cm^3
# Si number density = 27.801489 Si / 1000 Ang^3
#
#
#
# Elastic Constant Matrix: (Units=GPa)
#
#
# Indices 1 2 3 4 5 6 
#
# 1 180.9566 68.3103 85.8518 -13.0203 32.0285 -7.4174
# 2 68.3103 184.5867 59.1269 -5.5705 17.0190 -35.1597
# 3 85.8518 59.1269 190.7744 2.2306 43.0916 -23.2772
# 4 -13.0203 -5.5705 2.2306 40.0902 -14.3305 -6.6953
# 5 32.0285 17.0190 43.0916 -14.3305 60.6686 -3.2756
# 6 -7.4174 -35.1597 -23.2772 -6.6953 -3.2756 49.6363
#
#
#
# Elastic Compliance Matrix: (Units=1/GPa)
#
#
# Indices 1 2 3 4 5 6 
#
# 1 0.007976 -0.002163 -0.002841 0.001745 -0.001256 -0.001520
# 2 -0.002163 0.007392 -0.000796 0.001220 0.000177 0.004715
# 3 -0.002841 -0.000796 0.008089 -0.002757 -0.004558 0.002132
# 4 0.001745 0.001220 -0.002757 0.029364 0.007864 0.004312
# 5 -0.001256 0.000177 -0.004558 0.007864 0.022209 0.000326
# 6 -0.001520 0.004715 0.002132 0.004312 0.000326 0.024862
#
#
# Mechanical properties :
#
#
# Convention : Reuss Voigt Hill
#
# Bulk Modulus (GPa) = 84.34431 109.21062 96.77747
# Shear Modulus (GPa) = 43.31026 52.94760 48.12893
#
# Velocity S-wave (km/s) = 3.95123 4.36878 4.16524
# Velocity P-wave (km/s) = 7.15683 8.05083 7.61696
#
# Compressibility (1/GPa) = 0.01185616
#
# Stress axis : x y z
#
# Youngs Moduli (GPa) = 125.37371 135.28736 123.62036
#
# Poissons Ratio (x) = 0.29258 0.35125
# Poissons Ratio (y) = 0.27114 0.09846
# Poissons Ratio (z) = 0.35623 0.10775
#
# Static dielectric constant tensor:
#      x y z
#    x 5.537380 0.940070 0.423610 
#    y 0.940070 5.326060 -0.202880 
#    z 0.423610 -0.202880 4.933810 
# 
# 
# High freq. dielectric constant tensor:
#      x y z
#    x 2.161540 0.049490 0.026220 
#    y 0.049490 2.171870 -0.040810 
#    z 0.026220 -0.040810 2.141010 
# 
# From -- ./inp_files/30430.got.cif
#   From: 2010.06.25/outbox.cif.g09.slc.cpg/sg2_16_cif.got.tgz:30430.got - 2010.06.27 13:26:56.
