data_PCOD8018130
_publ_section_title
;
Structure prediction by ZEFSAII (Michael W. Deem and Ramdas Pophale) SiO2 
 PCOD8018130
Probable space group: P -1
;
_chemical_formula_sum "Si O2"
_cell_formula_units_Z 14
_cell_length_a 21.854831
_cell_length_b 11.909685
_cell_length_c 9.369287
_cell_angle_alpha 117.284269
_cell_angle_beta 39.093056
_cell_angle_gamma 147.166769
_cell_volume 687.006352
_symmetry_space_group_name_H-M "P -1"
_symmetry_group_IT_number 2
_symmetry_cell_setting 'triclinic'
loop_
_space_group_symop_operation_xyz
x,y,z
-x,-y,-z
loop_
_atom_site_type_symbol
_atom_site_label
_atom_site_fract_x
_atom_site_fract_y
_atom_site_fract_z
Si Si1 0.917688 0.983507 0.772226
Si Si2 0.776833 0.250793 0.298716
Si Si3 0.101533 0.743825 0.416324
Si Si4 0.681193 0.947740 0.070439
Si Si5 0.220360 0.425850 0.140654
Si Si6 0.408882 0.026730 0.239762
Si Si7 0.283125 0.534348 0.426543
O O1 0.820542 0.769075 0.925902
O O2 0.755532 0.899498 0.970037
O O3 0.000000 0.000000 0.500000
O O4 0.099423 0.260364 0.676561
O O5 0.696815 0.301418 0.455850
O O6 0.654225 0.019534 0.285913
O O7 0.743701 0.169892 0.473784
O O8 0.000000 0.500000 0.000000
O O9 0.000000 0.500000 0.500000
O O10 0.956687 0.696393 0.678806
O O11 0.295327 0.975178 0.292801
O O12 0.162461 0.815976 0.182604
O O13 0.479990 0.687367 0.205670
O O14 0.249974 0.494708 0.293710
O O15 0.416317 0.686656 0.856551
O O16 0.500000 0.000000 0.000000
#
# Coordination Sequence:
#
# PCOD8018130 Si02
#       7
#     2   2   2   2   2   2   2
#     4  10  22  40  62  94 132 170 220 266 311 381
#     4  12  23  43  66  97 137 168 208 274 332 378
#     4  12  21  36  64  95 127 163 212 264 326 372
#     4  12  23  39  67  99 127 173 215 267 327 381
#     4  11  22  40  63  94 129 165 216 267 309 381
#     4  12  23  41  64  96 130 165 214 269 320 385
#     4  11  21  39  63  95 130 163 217 265 318 382
#
# _framework density 20.378270000000001
#
# number of rings (size 3 to 8) (size 9 to 14) (size 15 to 20)
#    0.000    0.571    8.571    1.286    0.000    3.429 
#    2.571    0.714    0.000    1.714    0.000    0.000 
#    0.000    0.000    0.000    0.000    0.000    0.000 
#
# Total GULP energy -173591.818867 kJ/mol
# GULP energy per Si atom -12399.415633 kJ/mol
# Density = 2.033189 g / cm^3
# Si number density = 20.378270 Si / 1000 Ang^3
#
#
#
# Elastic Constant Matrix: (Units=GPa)
#
#
# Indices 1 2 3 4 5 6 
#
# 1 113.0018 54.7172 52.5101 -10.7988 -24.9315 -21.5769
# 2 54.7172 91.3130 32.0140 -8.8752 -16.3409 -23.4647
# 3 52.5101 32.0140 92.5657 -17.1565 -10.0814 -6.1497
# 4 -10.7988 -8.8752 -17.1565 37.5378 3.7097 -0.3051
# 5 -24.9315 -16.3409 -10.0814 3.7097 45.3864 -4.9094
# 6 -21.5769 -23.4647 -6.1497 -0.3051 -4.9094 40.1404
#
#
#
# Elastic Compliance Matrix: (Units=1/GPa)
#
#
# Indices 1 2 3 4 5 6 
#
# 1 0.017116 -0.005140 -0.006810 -0.000016 0.006686 0.005970
# 2 -0.005140 0.017487 -0.001947 0.001458 0.003746 0.007630
# 3 -0.006810 -0.001947 0.015926 0.004996 -0.001585 -0.002515
# 4 -0.000016 0.001458 0.004996 0.029335 -0.000582 0.001761
# 5 0.006686 0.003746 -0.001585 -0.000582 0.027716 0.008927
# 6 0.005970 0.007630 -0.002515 0.001761 0.008927 0.033302
#
#
# Mechanical properties :
#
#
# Convention : Reuss Voigt Hill
#
# Bulk Modulus (GPa) = 43.98486 63.92924 53.95705
# Shear Modulus (GPa) = 28.36809 35.12220 31.74515
#
# Velocity S-wave (km/s) = 3.73510 4.15602 3.95117
# Velocity P-wave (km/s) = 6.34290 7.38034 6.88120
#
# Compressibility (1/GPa) = 0.02273509
#
# Stress axis : x y z
#
# Youngs Moduli (GPa) = 58.42338 57.18634 62.79034
#
# Poissons Ratio (x) = 0.29393 0.42762
# Poissons Ratio (y) = 0.30028 0.12225
# Poissons Ratio (z) = 0.39788 0.11134
#
# Static dielectric constant tensor:
#      x y z
#    x 3.987030 -0.556040 0.009180 
#    y -0.556040 4.661020 -0.510860 
#    z 0.009180 -0.510860 3.823930 
# 
# 
# High freq. dielectric constant tensor:
#      x y z
#    x 1.790850 -0.013730 -0.017750 
#    y -0.013730 1.791280 -0.027000 
#    z -0.017750 -0.027000 1.790650 
# 
# From -- ./inp_files/236793.got.cif
#   From: 2010.06.25/outbox.cif.g09.slc.cpg/sg2_119_cif.got.tgz:236793.got - 2010.06.27 13:26:56.
