data_PCOD8018576
_publ_section_title
;
Structure prediction by ZEFSAII (Michael W. Deem and Ramdas Pophale) SiO2 
 PCOD8018576
Probable space group: P -1
;
_chemical_formula_sum "Si O2"
_cell_formula_units_Z 16
_cell_length_a 12.180951
_cell_length_b 8.366196
_cell_length_c 9.823547
_cell_angle_alpha 87.818775
_cell_angle_beta 73.128020
_cell_angle_gamma 50.109043
_cell_volume 719.944876
_symmetry_space_group_name_H-M "P -1"
_symmetry_group_IT_number 2
_symmetry_cell_setting 'triclinic'
loop_
_space_group_symop_operation_xyz
x,y,z
-x,-y,-z
loop_
_atom_site_type_symbol
_atom_site_label
_atom_site_fract_x
_atom_site_fract_y
_atom_site_fract_z
Si Si1 0.140705 0.461922 0.884340
Si Si2 0.300703 0.502453 0.066106
Si Si3 0.636855 0.020979 0.244165
Si Si4 0.654322 0.255070 0.463248
Si Si5 0.202504 0.060435 0.343802
Si Si6 0.659077 0.173939 0.959610
Si Si7 0.874665 0.325917 0.379363
Si Si8 0.714536 0.668904 0.652415
O O1 0.081230 0.620658 0.774891
O O2 0.262618 0.229497 0.782975
O O3 0.219249 0.503907 0.964691
O O4 0.000000 0.500000 0.000000
O O5 0.263216 0.724099 0.088386
O O6 0.239590 0.468606 0.223117
O O7 0.481040 0.327157 0.986076
O O8 0.652698 0.100425 0.376092
O O9 0.463562 0.126267 0.284076
O O10 0.693549 0.083727 0.101503
O O11 0.500000 0.500000 0.500000
O O12 0.796976 0.231397 0.366905
O O13 0.683612 0.163035 0.608383
O O14 0.195997 0.246886 0.396056
O O15 0.030359 0.151741 0.411948
O O16 0.259970 0.018084 0.169486
O O17 0.752866 0.528818 0.511569
#
# Coordination Sequence:
#
# PCOD8018576 Si02
#       8
#     2   2   2   2   2   2   2   2
#     4  12  26  43  68  99 140 177 225 276 340 402
#     4  10  22  40  67  97 132 175 225 277 330 399
#     4  11  24  43  68 102 133 179 231 280 333 400
#     4  12  27  45  70 100 137 177 232 277 332 404
#     4  12  26  43  68  99 137 177 225 277 345 399
#     4  10  22  40  68  97 134 176 222 275 337 397
#     4  12  26  45  68  98 140 179 222 282 340 399
#     4  11  23  42  69 100 136 177 228 279 340 400
#
# _framework density 22.223924
#
# number of rings (size 3 to 8) (size 9 to 14) (size 15 to 20)
#    0.000    0.750    1.250    6.000    7.000    5.000 
#    0.000    2.500    0.000    0.000    0.000    0.000 
#    0.000    0.000    0.000    0.000    0.000    0.000 
#
# Total GULP energy -198491.013590 kJ/mol
# GULP energy per Si atom -12405.688349 kJ/mol
# Density = 2.217334 g / cm^3
# Si number density = 22.223924 Si / 1000 Ang^3
#
#
#
# Elastic Constant Matrix: (Units=GPa)
#
#
# Indices 1 2 3 4 5 6 
#
# 1 114.7571 24.7109 28.5780 -14.2250 9.7457 2.3790
# 2 24.7109 53.2490 23.1664 -22.2598 8.9920 -5.5986
# 3 28.5780 23.1664 105.9810 -8.0005 4.6709 -4.4932
# 4 -14.2250 -22.2598 -8.0005 34.5905 8.8515 0.8512
# 5 9.7457 8.9920 4.6709 8.8515 38.0240 0.0080
# 6 2.3790 -5.5986 -4.4932 0.8512 0.0080 25.3918
#
#
#
# Elastic Compliance Matrix: (Units=1/GPa)
#
#
# Indices 1 2 3 4 5 6 
#
# 1 0.010363 -0.002540 -0.001999 0.002845 -0.002472 -0.001979
# 2 -0.002540 0.034087 -0.004235 0.022885 -0.012218 0.006241
# 3 -0.001999 -0.004235 0.010842 -0.001187 0.000458 0.001212
# 4 0.002845 0.022885 -0.001187 0.048907 -0.017381 0.002935
# 5 -0.002472 -0.012218 0.000458 -0.017381 0.033812 -0.001809
# 6 -0.001979 0.006241 0.001212 0.002935 -0.001809 0.041061
#
#
# Mechanical properties :
#
#
# Convention : Reuss Voigt Hill
#
# Bulk Modulus (GPa) = 26.49579 47.43308 36.96443
# Shear Modulus (GPa) = 23.90025 32.77008 28.33516
#
# Velocity S-wave (km/s) = 3.28293 3.84414 3.57457
# Velocity P-wave (km/s) = 5.13013 6.41037 5.80565
#
# Compressibility (1/GPa) = 0.03774184
#
# Stress axis : x y z
#
# Youngs Moduli (GPa) = 96.50099 29.33655 92.23289
#
# Poissons Ratio (x) = 0.07453 0.18439
# Poissons Ratio (y) = 0.24515 0.39065
# Poissons Ratio (z) = 0.19292 0.12425
#
# Static dielectric constant tensor:
#      x y z
#    x 4.096980 0.042070 0.015760 
#    y 0.042070 4.008990 -0.081030 
#    z 0.015760 -0.081030 3.984450 
# 
# 
# High freq. dielectric constant tensor:
#      x y z
#    x 1.887510 0.004400 0.002260 
#    y 0.004400 1.874310 -0.004380 
#    z 0.002260 -0.004380 1.882790 
# 
# From -- ./inp_files/184222.got.cif
#   From: 2010.06.25/outbox.cif.g09.slc.cpg/sg2_93_cif.got.tgz:184222.got - 2010.06.27 13:26:56.
