data_PCOD8018334
_publ_section_title
;
Structure prediction by ZEFSAII (Michael W. Deem and Ramdas Pophale) SiO2 
 PCOD8018334
Probable space group: P -1
;
_chemical_formula_sum "Si O2"
_cell_formula_units_Z 12
_cell_length_a 10.605866
_cell_length_b 9.835729
_cell_length_c 8.864585
_cell_angle_alpha 63.409388
_cell_angle_beta 119.093113
_cell_angle_gamma 137.749449
_cell_volume 537.225354
_symmetry_space_group_name_H-M "P -1"
_symmetry_group_IT_number 2
_symmetry_cell_setting 'triclinic'
loop_
_space_group_symop_operation_xyz
x,y,z
-x,-y,-z
loop_
_atom_site_type_symbol
_atom_site_label
_atom_site_fract_x
_atom_site_fract_y
_atom_site_fract_z
Si Si1 0.057892 0.747494 0.332123
Si Si2 0.390425 0.753163 0.194668
Si Si3 0.708585 0.383432 0.466665
Si Si4 0.321100 0.195409 0.176288
Si Si5 0.872634 0.633878 0.961286
Si Si6 0.724915 0.996332 0.055924
O O1 0.222676 0.739227 0.468239
O O2 0.889310 0.624530 0.421536
O O3 0.964514 0.642043 0.167753
O O4 0.158651 0.982663 0.275800
O O5 0.365800 0.648942 0.389800
O O6 0.607284 0.871392 0.200720
O O7 0.230282 0.581752 0.068135
O O8 0.364016 0.914789 0.118184
O O9 0.536805 0.302630 0.293880
O O10 0.285944 0.346697 0.115647
O O11 0.297877 0.154580 0.003930
O O12 0.048303 0.818827 0.865733
#
# Coordination Sequence:
#
# PCOD8018334 Si02
#       6
#     2   2   2   2   2   2
#     4  10  22  40  65  90 120 164 210 246 295 368
#     4  11  23  39  63  94 125 157 203 257 305 356
#     4  11  23  39  63  94 125 157 203 257 305 356
#     4  11  23  42  65  90 124 163 206 249 301 367
#     4  11  23  42  65  90 124 163 206 249 301 367
#     4  10  22  40  65  90 120 164 210 246 295 368
#
# _framework density 22.336995000000002
#
# number of rings (size 3 to 8) (size 9 to 14) (size 15 to 20)
#    0.000    1.333    3.333    4.000    0.000    6.000 
#    0.000    1.667    0.000    0.000    0.000    0.000 
#    0.000    0.000    0.000    0.000    0.000    0.000 
#
# Total GULP energy -148848.486015 kJ/mol
# GULP energy per Si atom -12404.040501 kJ/mol
# Density = 2.228616 g / cm^3
# Si number density = 22.336995 Si / 1000 Ang^3
#
#
#
# Elastic Constant Matrix: (Units=GPa)
#
#
# Indices 1 2 3 4 5 6 
#
# 1 91.5492 36.8806 28.1053 -7.6446 -18.2728 29.5233
# 2 36.8806 57.7591 10.6968 -0.3057 -6.4379 15.5990
# 3 28.1053 10.6968 42.6851 -10.3102 -3.4933 17.3835
# 4 -7.6446 -0.3057 -10.3102 26.4298 16.1344 -5.0193
# 5 -18.2728 -6.4379 -3.4933 16.1344 37.4764 -7.3998
# 6 29.5233 15.5990 17.3835 -5.0193 -7.3998 36.7212
#
#
#
# Elastic Compliance Matrix: (Units=1/GPa)
#
#
# Indices 1 2 3 4 5 6 
#
# 1 0.020928 -0.008757 -0.008610 -0.003769 0.007952 -0.007943
# 2 -0.008757 0.023820 0.000614 -0.002985 0.000436 -0.003689
# 3 -0.008610 0.000614 0.036031 0.015348 -0.009352 -0.010182
# 4 -0.003769 -0.002985 0.015348 0.058661 -0.026221 -0.000233
# 5 0.007952 0.000436 -0.009352 -0.026221 0.041574 0.002643
# 6 -0.007943 -0.003689 -0.010182 -0.000233 0.002643 0.040506
#
#
# Mechanical properties :
#
#
# Convention : Reuss Voigt Hill
#
# Bulk Modulus (GPa) = 21.15411 38.15100 29.65256
# Shear Modulus (GPa) = 18.46485 27.87951 23.17218
#
# Velocity S-wave (km/s) = 2.87827 3.53672 3.22435
# Velocity P-wave (km/s) = 4.53177 5.81332 5.21208
#
# Compressibility (1/GPa) = 0.04727213
#
# Stress axis : x y z
#
# Youngs Moduli (GPa) = 47.78306 41.98106 27.75377
#
# Poissons Ratio (x) = 0.36763 0.23897
# Poissons Ratio (y) = 0.41844 -0.01703
# Poissons Ratio (z) = 0.41142 -0.02576
#
# Static dielectric constant tensor:
#      x y z
#    x 4.143130 0.362860 -0.146400 
#    y 0.362860 4.057640 -0.205150 
#    z -0.146400 -0.205150 3.766900 
# 
# 
# High freq. dielectric constant tensor:
#      x y z
#    x 1.888150 0.022470 -0.003080 
#    y 0.022470 1.880590 -0.011590 
#    z -0.003080 -0.011590 1.853610 
# 
# From -- ./inp_files/149479.got.cif
#   From: 2010.06.25/outbox.cif.g09.slc.cpg/sg2_75_cif.got.tgz:149479.got - 2010.06.27 13:26:56.
