data_PCOD8018310
_publ_section_title
;
Structure prediction by ZEFSAII (Michael W. Deem and Ramdas Pophale) SiO2 
 PCOD8018310
Probable space group: P -1
;
_chemical_formula_sum "Si O2"
_cell_formula_units_Z 16
_cell_length_a 8.601166
_cell_length_b 12.636051
_cell_length_c 9.112457
_cell_angle_alpha 116.600316
_cell_angle_beta 100.888608
_cell_angle_gamma 115.065768
_cell_volume 709.125153
_symmetry_space_group_name_H-M "P -1"
_symmetry_group_IT_number 2
_symmetry_cell_setting 'triclinic'
loop_
_space_group_symop_operation_xyz
x,y,z
-x,-y,-z
loop_
_atom_site_type_symbol
_atom_site_label
_atom_site_fract_x
_atom_site_fract_y
_atom_site_fract_z
Si Si1 0.411419 0.178563 0.726378
Si Si2 0.695093 0.717857 0.682612
Si Si3 0.414158 0.923193 0.091660
Si Si4 0.789084 0.466280 0.953215
Si Si5 0.255836 0.526874 0.469165
Si Si6 0.785693 0.732869 0.038741
Si Si7 0.138397 0.595878 0.785057
Si Si8 0.205294 0.019736 0.299747
O O1 0.428470 0.083662 0.792856
O O2 0.324987 0.256822 0.838613
O O3 0.269582 0.069163 0.508382
O O4 0.617270 0.304412 0.766539
O O5 0.477428 0.643701 0.533467
O O6 0.774332 0.624172 0.590655
O O7 0.832117 0.872355 0.723615
O O8 0.694534 0.734717 0.868751
O O9 0.367063 0.018558 0.237525
O O10 0.220338 0.762360 0.933889
O O11 0.500000 0.000000 0.000000
O O12 0.763129 0.582164 0.948966
O O13 0.768540 0.461228 0.124879
O O14 0.000000 0.500000 0.000000
O O15 0.200961 0.586534 0.629897
O O16 0.099046 0.495297 0.294997
O O17 0.009791 0.861464 0.169005
#
# Coordination Sequence:
#
# PCOD8018310 Si02
#       8
#     2   2   2   2   2   2   2   2
#     4  11  26  44  68 102 136 178 232 277 336 401
#     4  11  24  40  70  95 135 174 223 273 341 392
#     4  11  23  46  70  96 138 184 223 277 346 408
#     4  11  24  42  71  93 139 180 228 273 342 398
#     4  10  22  40  65 100 130 167 229 278 325 397
#     4  12  25  46  68  99 141 182 224 276 348 403
#     4  10  22  42  64  98 130 175 225 272 335 396
#     4  12  26  44  68 101 140 176 228 280 340 405
#
# _framework density 22.563013000000002
#
# number of rings (size 3 to 8) (size 9 to 14) (size 15 to 20)
#    0.000    1.000    0.000    7.500    7.000    1.000 
#    4.500    0.000    0.000    0.000    0.000    0.000 
#    0.000    0.000    0.000    0.000    0.000    0.000 
#
# Total GULP energy -198421.188195 kJ/mol
# GULP energy per Si atom -12401.324262 kJ/mol
# Density = 2.251166 g / cm^3
# Si number density = 22.563013 Si / 1000 Ang^3
#
#
#
# Elastic Constant Matrix: (Units=GPa)
#
#
# Indices 1 2 3 4 5 6 
#
# 1 74.5735 10.0127 18.2845 -0.5609 -2.2350 -9.0729
# 2 10.0127 119.1713 35.2119 -6.7819 11.0842 -7.9464
# 3 18.2845 35.2119 124.8015 -7.0427 6.1374 -6.4814
# 4 -0.5609 -6.7819 -7.0427 28.3352 -5.7198 1.6113
# 5 -2.2350 11.0842 6.1374 -5.7198 42.3380 5.2243
# 6 -9.0729 -7.9464 -6.4814 1.6113 5.2243 31.3614
#
#
#
# Elastic Compliance Matrix: (Units=1/GPa)
#
#
# Indices 1 2 3 4 5 6 
#
# 1 0.014377 -0.000513 -0.001830 -0.000360 0.000671 0.003558
# 2 -0.000513 0.009541 -0.002331 0.001110 -0.002298 0.002113
# 3 -0.001830 -0.002331 0.009098 0.001479 -0.000704 0.000801
# 4 -0.000360 0.001110 0.001479 0.037002 0.004747 -0.002209
# 5 0.000671 -0.002298 -0.000704 0.004747 0.025623 -0.005046
# 6 0.003558 0.002113 0.000801 -0.002209 -0.005046 0.034571
#
#
# Mechanical properties :
#
#
# Convention : Reuss Voigt Hill
#
# Bulk Modulus (GPa) = 42.25137 49.50716 45.87927
# Shear Modulus (GPa) = 33.90971 37.40942 35.65957
#
# Velocity S-wave (km/s) = 3.88092 4.07627 3.97979
# Velocity P-wave (km/s) = 6.23287 6.64409 6.44176
#
# Compressibility (1/GPa) = 0.02366787
#
# Stress axis : x y z
#
# Youngs Moduli (GPa) = 69.55326 104.81048 109.90941
#
# Poissons Ratio (x) = 0.05375 0.20116
# Poissons Ratio (y) = 0.03567 0.25625
# Poissons Ratio (z) = 0.12730 0.24436
#
# Static dielectric constant tensor:
#      x y z
#    x 4.122230 -0.042290 0.170490 
#    y -0.042290 4.158140 -0.140250 
#    z 0.170490 -0.140250 4.405060 
# 
# 
# High freq. dielectric constant tensor:
#      x y z
#    x 1.891760 -0.002500 0.002850 
#    y -0.002500 1.887820 -0.002900 
#    z 0.002850 -0.002900 1.908970 
# 
# From -- ./inp_files/189449.got.cif
#   From: 2010.06.25/outbox.cif.g09.slc.cpg/sg2_95_cif.got.tgz:189449.got - 2010.06.27 13:26:56.
