data_PCOD8018398
_publ_section_title
;
Structure prediction by ZEFSAII (Michael W. Deem and Ramdas Pophale) SiO2 
 PCOD8018398
Probable space group: P -1
;
_chemical_formula_sum "Si O2"
_cell_formula_units_Z 14
_cell_length_a 20.112067
_cell_length_b 6.357872
_cell_length_c 6.398844
_cell_angle_alpha 75.182672
_cell_angle_beta 54.648154
_cell_angle_gamma 66.413172
_cell_volume 611.276635
_symmetry_space_group_name_H-M "P -1"
_symmetry_group_IT_number 2
_symmetry_cell_setting 'triclinic'
loop_
_space_group_symop_operation_xyz
x,y,z
-x,-y,-z
loop_
_atom_site_type_symbol
_atom_site_label
_atom_site_fract_x
_atom_site_fract_y
_atom_site_fract_z
Si Si1 0.631640 0.763154 0.308539
Si Si2 0.481209 0.867638 0.265580
Si Si3 0.764850 0.932311 0.771492
Si Si4 0.107076 0.366431 0.700997
Si Si5 0.168398 0.942622 0.990000
Si Si6 0.053090 0.740806 0.017563
Si Si7 0.326983 0.720563 0.493319
O O1 0.570889 0.717012 0.246522
O O2 0.673496 0.540163 0.432459
O O3 0.576272 0.958187 0.508999
O O4 0.707162 0.834559 0.048915
O O5 0.426666 0.705022 0.336673
O O6 0.500000 0.000000 0.000000
O O7 0.816508 0.722110 0.581760
O O8 0.709296 0.156136 0.689427
O O9 0.830685 0.016417 0.773287
O O10 0.014200 0.390222 0.755690
O O11 0.118204 0.182235 0.912590
O O12 0.104774 0.607728 0.751263
O O13 0.267325 0.857958 0.754328
O O14 0.122236 0.749926 0.068646
O O15 0.000000 0.000000 0.000000
#
# Coordination Sequence:
#
# PCOD8018398 Si02
#       7
#     2   2   2   2   2   2   2
#     4  11  25  43  68  95 138 179 225 284 336 401
#     4  11  23  45  67  96 135 178 231 280 334 406
#     4  11  23  44  67 105 135 179 230 279 340 406
#     4   9  21  42  68  95 138 175 227 282 331 398
#     4  10  22  40  65  98 139 171 226 281 335 405
#     4   9  19  42  67  97 136 179 221 282 332 401
#     4  11  24  43  66  99 135 179 224 280 341 401
#
# _framework density 22.902891
#
# number of rings (size 3 to 8) (size 9 to 14) (size 15 to 20)
#    0.000    1.714    2.857    0.429    2.000    2.286 
#    7.714    6.429    0.000    0.000    0.000    0.000 
#    0.000    0.000    0.000    0.000    0.000    0.000 
#
# Total GULP energy -173542.940134 kJ/mol
# GULP energy per Si atom -12395.924295 kJ/mol
# Density = 2.285076 g / cm^3
# Si number density = 22.902891 Si / 1000 Ang^3
#
#
#
# Elastic Constant Matrix: (Units=GPa)
#
#
# Indices 1 2 3 4 5 6 
#
# 1 138.3471 41.7152 45.1344 6.4000 5.3546 20.9024
# 2 41.7152 110.5845 43.2829 1.4695 1.3450 14.7909
# 3 45.1344 43.2829 95.0600 -1.7550 0.1701 7.3248
# 4 6.4000 1.4695 -1.7550 35.0841 0.6997 6.3320
# 5 5.3546 1.3450 0.1701 0.6997 27.2240 11.9731
# 6 20.9024 14.7909 7.3248 6.3320 11.9731 18.0684
#
#
#
# Elastic Compliance Matrix: (Units=1/GPa)
#
#
# Indices 1 2 3 4 5 6 
#
# 1 0.010355 -0.000952 -0.003566 0.000065 0.003289 -0.011956
# 2 -0.000952 0.012465 -0.004396 0.001251 0.004205 -0.010545
# 3 -0.003566 -0.004396 0.014127 0.001278 0.000164 0.001441
# 4 0.000065 0.001251 0.001278 0.031439 0.006586 -0.016999
# 5 0.003289 0.004205 0.000164 0.006586 0.056366 -0.046973
# 6 -0.011956 -0.010545 0.001441 -0.016999 -0.046973 0.114309
#
#
# Mechanical properties :
#
#
# Convention : Reuss Voigt Hill
#
# Bulk Modulus (GPa) = 52.30422 67.13963 59.72193
# Shear Modulus (GPa) = 18.99251 30.33257 24.66254
#
# Velocity S-wave (km/s) = 2.88282 3.64318 3.28507
# Velocity P-wave (km/s) = 5.82819 6.86116 6.36566
#
# Compressibility (1/GPa) = 0.01911891
#
# Stress axis : x y z
#
# Youngs Moduli (GPa) = 96.57279 80.22441 70.78794
#
# Poissons Ratio (x) = 0.07636 0.25246
# Poissons Ratio (y) = 0.09193 0.31115
# Poissons Ratio (z) = 0.34442 0.35263
#
# Static dielectric constant tensor:
#      x y z
#    x 4.901910 0.139500 -0.049750 
#    y 0.139500 4.056230 0.185680 
#    z -0.049750 0.185680 4.083800 
# 
# 
# High freq. dielectric constant tensor:
#      x y z
#    x 1.921030 0.001000 -0.008820 
#    y 0.001000 1.896220 0.010090 
#    z -0.008820 0.010090 1.890680 
# 
# From -- ./inp_files/10644.got.cif
#   From: 2010.06.25/outbox.cif.g09.slc.cpg/sg2_6_cif.got.tgz:10644.got - 2010.06.27 13:26:56.
