data_PCOD8018325
_publ_section_title
;
Structure prediction by ZEFSAII (Michael W. Deem and Ramdas Pophale) SiO2 
 PCOD8018325
Probable space group: P -1
;
_chemical_formula_sum "Si O2"
_cell_formula_units_Z 12
_cell_length_a 8.620434
_cell_length_b 11.803458
_cell_length_c 9.497326
_cell_angle_alpha 128.188586
_cell_angle_beta 49.532566
_cell_angle_gamma 118.813695
_cell_volume 572.552160
_symmetry_space_group_name_H-M "P -1"
_symmetry_group_IT_number 2
_symmetry_cell_setting 'triclinic'
loop_
_space_group_symop_operation_xyz
x,y,z
-x,-y,-z
loop_
_atom_site_type_symbol
_atom_site_label
_atom_site_fract_x
_atom_site_fract_y
_atom_site_fract_z
Si Si1 0.892801 0.314939 0.753775
Si Si2 0.161405 0.407933 0.405751
Si Si3 0.579218 0.529424 0.133920
Si Si4 0.108292 0.204000 0.807178
Si Si5 0.715168 0.083467 0.476581
Si Si6 0.018418 0.832181 0.851233
O O1 0.722269 0.198317 0.687605
O O2 0.085001 0.373785 0.584221
O O3 0.983795 0.236507 0.769418
O O4 0.772501 0.442003 0.981098
O O5 0.394608 0.490031 0.325060
O O6 0.000000 0.500000 0.500000
O O7 0.168022 0.259929 0.197395
O O8 0.668460 0.698163 0.236142
O O9 0.500000 0.500000 0.000000
O O10 0.135781 0.034378 0.659836
O O11 0.972519 0.234095 0.048658
O O12 0.781317 0.178783 0.370510
O O13 0.500000 0.000000 0.500000
O O14 0.000000 0.000000 0.000000
#
# Coordination Sequence:
#
# PCOD8018325 Si02
#       6
#     2   2   2   2   2   2
#     4  11  24  41  62  91 128 155 199 262 302 346
#     4  11  22  39  62  90 120 161 204 246 297 363
#     4  12  22  39  66  89 121 164 208 240 298 375
#     4  11  22  41  61  91 125 156 199 257 307 345
#     4  10  22  40  65  87 118 162 208 241 300 370
#     4   9  20  37  62  83 117 156 200 241 298 355
#
# _framework density 20.958787999999998
#
# number of rings (size 3 to 8) (size 9 to 14) (size 15 to 20)
#    0.000    1.333    3.333    2.000    4.667    0.667 
#    3.000    0.833    0.000    0.000    0.000    0.000 
#    0.000    0.000    0.000    0.000    0.000    0.000 
#
# Total GULP energy -148719.736280 kJ/mol
# GULP energy per Si atom -12393.311357 kJ/mol
# Density = 2.091108 g / cm^3
# Si number density = 20.958788 Si / 1000 Ang^3
#
#
#
# Elastic Constant Matrix: (Units=GPa)
#
#
# Indices 1 2 3 4 5 6 
#
# 1 70.3013 31.0392 24.2391 -31.9642 5.7334 -5.7680
# 2 31.0392 114.7383 39.0378 -22.0447 4.7920 8.7651
# 3 24.2391 39.0378 78.4924 -19.2177 1.4877 -5.1551
# 4 -31.9642 -22.0447 -19.2177 47.2669 -2.9597 6.5352
# 5 5.7334 4.7920 1.4877 -2.9597 26.8011 1.1547
# 6 -5.7680 8.7651 -5.1551 6.5352 1.1547 42.8653
#
#
#
# Elastic Compliance Matrix: (Units=1/GPa)
#
#
# Indices 1 2 3 4 5 6 
#
# 1 0.022268 -0.002865 -0.002259 0.012421 -0.002819 0.001493
# 2 -0.002865 0.011810 -0.004696 0.002115 -0.000847 -0.003665
# 3 -0.002259 -0.004696 0.016582 0.002756 0.000611 0.002214
# 4 0.012421 0.002115 0.002756 0.032158 0.000507 -0.003346
# 5 -0.002819 -0.000847 0.000611 0.000507 0.038142 -0.001237
# 6 0.001493 -0.003665 0.002214 -0.003346 -0.001237 0.025089
#
#
# Mechanical properties :
#
#
# Convention : Reuss Voigt Hill
#
# Bulk Modulus (GPa) = 32.23713 50.24048 41.23880
# Shear Modulus (GPa) = 28.40458 34.66773 31.53615
#
# Velocity S-wave (km/s) = 3.68538 4.07146 3.88322
# Velocity P-wave (km/s) = 5.78999 6.79158 6.31068
#
# Compressibility (1/GPa) = 0.03102014
#
# Stress axis : x y z
#
# Youngs Moduli (GPa) = 44.90655 84.67501 60.30758
#
# Poissons Ratio (x) = 0.24262 0.13624
# Poissons Ratio (y) = 0.12867 0.28318
# Poissons Ratio (z) = 0.10144 0.39760
#
# Static dielectric constant tensor:
#      x y z
#    x 3.555230 0.079790 0.178600 
#    y 0.079790 4.510530 0.036070 
#    z 0.178600 0.036070 4.788630 
# 
# 
# High freq. dielectric constant tensor:
#      x y z
#    x 1.785130 0.005060 0.009750 
#    y 0.005060 1.850190 0.004460 
#    z 0.009750 0.004460 1.825490 
# 
# From -- ./inp_files/160286.got.cif
#   From: 2010.06.25/outbox.cif.g09.slc.cpg/sg2_81_cif.got.tgz:160286.got - 2010.06.27 13:26:56.
