data_PCOD8018296
_publ_section_title
;
Structure prediction by ZEFSAII (Michael W. Deem and Ramdas Pophale) SiO2 
 PCOD8018296
Probable space group: P -1
;
_chemical_formula_sum "Si O2"
_cell_formula_units_Z 14
_cell_length_a 11.994473
_cell_length_b 8.726654
_cell_length_c 12.291278
_cell_angle_alpha 122.119671
_cell_angle_beta 113.303778
_cell_angle_gamma 34.100417
_cell_volume 608.186234
_symmetry_space_group_name_H-M "P -1"
_symmetry_group_IT_number 2
_symmetry_cell_setting 'triclinic'
loop_
_space_group_symop_operation_xyz
x,y,z
-x,-y,-z
loop_
_atom_site_type_symbol
_atom_site_label
_atom_site_fract_x
_atom_site_fract_y
_atom_site_fract_z
Si Si1 0.960786 0.302137 0.010257
Si Si2 0.776760 0.290686 0.620785
Si Si3 0.329492 0.863487 0.638329
Si Si4 0.073846 0.150521 0.312809
Si Si5 0.729409 0.264093 0.977238
Si Si6 0.299718 0.172686 0.545947
Si Si7 0.033273 0.598850 0.188727
O O1 0.048158 0.369475 0.138191
O O2 0.142168 0.941228 0.942858
O O3 0.892248 0.450800 0.922354
O O4 0.763983 0.437713 0.035613
O O5 0.539661 0.554223 0.652812
O O6 0.800595 0.154805 0.465062
O O7 0.838411 0.429979 0.688652
O O8 0.905667 0.047186 0.674451
O O9 0.353855 0.986916 0.601560
O O10 0.202817 0.082013 0.773660
O O11 0.192424 0.180317 0.416364
O O12 0.841340 0.490954 0.343838
O O13 0.172368 0.973450 0.170222
O O14 0.500000 0.500000 0.000000
O O15 0.500000 0.000000 0.500000
#
# Coordination Sequence:
#
# PCOD8018296 Si02
#       7
#     2   2   2   2   2   2   2
#     4  10  25  41  62 102 121 181 224 264 331 391
#     4  10  22  40  64  97 129 169 215 273 336 385
#     4  10  23  39  64  99 127 171 224 263 338 398
#     4  10  22  41  64  94 128 169 220 267 329 392
#     4  11  24  44  67  93 134 175 226 272 328 390
#     4  10  23  41  65  95 130 170 215 270 333 391
#     4  11  22  42  67  88 141 167 218 280 321 393
#
# _framework density 23.019264
#
# number of rings (size 3 to 8) (size 9 to 14) (size 15 to 20)
#    0.000    1.714    1.429    1.286    2.000   12.571 
#    0.000    2.857    0.000    0.000    0.000    0.000 
#    0.000    0.000    0.000    0.000    0.000    0.000 
#
# Total GULP energy -173484.411216 kJ/mol
# GULP energy per Si atom -12391.743658 kJ/mol
# Density = 2.296687 g / cm^3
# Si number density = 23.019264 Si / 1000 Ang^3
#
#
#
# Elastic Constant Matrix: (Units=GPa)
#
#
# Indices 1 2 3 4 5 6 
#
# 1 155.6214 41.4337 58.3107 7.4525 28.8009 -12.2458
# 2 41.4337 91.6659 23.7476 10.0675 1.7090 -3.8639
# 3 58.3107 23.7476 82.1596 17.8800 13.3312 -5.3516
# 4 7.4525 10.0675 17.8800 26.0661 -3.2624 0.3601
# 5 28.8009 1.7090 13.3312 -3.2624 38.4449 6.0151
# 6 -12.2458 -3.8639 -5.3516 0.3601 6.0151 31.6265
#
#
#
# Elastic Compliance Matrix: (Units=1/GPa)
#
#
# Indices 1 2 3 4 5 6 
#
# 1 0.010938 -0.003294 -0.005732 0.001194 -0.006601 0.004105
# 2 -0.003294 0.012969 -0.001092 -0.003059 0.002046 -0.000230
# 3 -0.005732 -0.001092 0.019956 -0.012143 -0.003905 0.001905
# 4 0.001194 -0.003059 -0.012143 0.048618 0.008217 -0.004082
# 5 -0.006601 0.002046 -0.003905 0.008217 0.034420 -0.009607
# 6 0.004105 -0.000230 0.001905 -0.004082 -0.009607 0.035376
#
#
# Mechanical properties :
#
#
# Convention : Reuss Voigt Hill
#
# Bulk Modulus (GPa) = 42.32606 64.04789 53.18697
# Shear Modulus (GPa) = 26.26175 32.95783 29.60979
#
# Velocity S-wave (km/s) = 3.38133 3.78795 3.59040
# Velocity P-wave (km/s) = 5.80273 6.85678 6.35166
#
# Compressibility (1/GPa) = 0.02362611
#
# Stress axis : x y z
#
# Youngs Moduli (GPa) = 91.42163 77.10586 50.11020
#
# Poissons Ratio (x) = 0.25400 0.28726
# Poissons Ratio (y) = 0.30116 0.05472
# Poissons Ratio (z) = 0.52407 0.08420
#
# Static dielectric constant tensor:
#      x y z
#    x 4.145950 0.070700 0.347950 
#    y 0.070700 4.025650 0.136830 
#    z 0.347950 0.136830 4.374480 
# 
# 
# High freq. dielectric constant tensor:
#      x y z
#    x 1.915460 0.002530 0.015930 
#    y 0.002530 1.898760 0.004960 
#    z 0.015930 0.004960 1.912400 
# 
# From -- ./inp_files/269773.got.cif
#   From: 2010.06.25/outbox.cif.g09.slc.cpg/sg2_135_cif.got.tgz:269773.got - 2010.06.27 13:26:56.
