data_PCOD8018099
_publ_section_title
;
Structure prediction by ZEFSAII (Michael W. Deem and Ramdas Pophale) SiO2 
 PCOD8018099
Probable space group: P -1
;
_chemical_formula_sum "Si O2"
_cell_formula_units_Z 16
_cell_length_a 10.400644
_cell_length_b 13.901284
_cell_length_c 5.208645
_cell_angle_alpha 103.461474
_cell_angle_beta 115.619364
_cell_angle_gamma 57.566657
_cell_volume 573.120321
_symmetry_space_group_name_H-M "P -1"
_symmetry_group_IT_number 2
_symmetry_cell_setting 'triclinic'
loop_
_space_group_symop_operation_xyz
x,y,z
-x,-y,-z
loop_
_atom_site_type_symbol
_atom_site_label
_atom_site_fract_x
_atom_site_fract_y
_atom_site_fract_z
Si Si1 0.731621 0.830857 0.386673
Si Si2 0.461080 0.381528 0.103948
Si Si3 0.999354 0.339958 0.849828
Si Si4 0.956539 0.204219 0.126652
Si Si5 0.729245 0.440559 0.343988
Si Si6 0.688856 0.712375 0.721531
Si Si7 0.309080 0.856885 0.116117
Si Si8 0.587742 0.073820 0.229202
O O1 0.851919 0.722722 0.257716
O O2 0.633021 0.783852 0.448184
O O3 0.594924 0.954152 0.225951
O O4 0.851046 0.865820 0.670608
O O5 0.303276 0.465852 0.843695
O O6 0.569244 0.272262 0.955137
O O7 0.561087 0.447189 0.296651
O O8 0.397723 0.361565 0.315456
O O9 0.942937 0.253170 0.857905
O O10 0.834887 0.453605 0.678804
O O11 0.110142 0.363270 0.168105
O O12 0.875447 0.124341 0.015108
O O13 0.859386 0.312942 0.294150
O O14 0.602734 0.821118 0.919948
O O15 0.350859 0.878901 0.452312
O O16 0.306084 0.942508 0.946929
#
# Coordination Sequence:
#
# PCOD8018099 Si02
#       8
#     2   2   2   2   2   2   2   2
#     4  10  23  40  62  88 129 173 215 261 322 385
#     4   9  20  42  66  96 126 163 218 265 326 383
#     4  10  22  40  62  90 128 173 211 264 320 384
#     4   9  21  40  62  92 130 168 211 267 323 382
#     4   9  19  42  67  94 124 166 213 265 329 383
#     4  10  23  40  61  94 126 168 211 271 316 388
#     4  10  24  41  65  99 131 166 216 276 320 380
#     4  11  25  41  66  96 128 172 220 269 322 378
#
# _framework density 27.917345999999998
#
# number of rings (size 3 to 8) (size 9 to 14) (size 15 to 20)
#    0.000    2.250    0.000    0.375   14.000    2.000 
#    4.500    7.500    0.000    0.000    0.000    0.000 
#    0.000    0.000    0.000    0.000    0.000    0.000 
#
# Total GULP energy -198223.229352 kJ/mol
# GULP energy per Si atom -12388.951834 kJ/mol
# Density = 2.785381 g / cm^3
# Si number density = 27.917346 Si / 1000 Ang^3
#
#
#
# Elastic Constant Matrix: (Units=GPa)
#
#
# Indices 1 2 3 4 5 6 
#
# 1 168.7815 36.0853 56.0009 -32.5421 -13.3708 39.4439
# 2 36.0853 71.1355 26.5108 -26.0015 7.0903 18.4206
# 3 56.0009 26.5108 117.4222 -41.8492 -5.0403 11.4754
# 4 -32.5421 -26.0015 -41.8492 56.7149 -0.5157 -1.2380
# 5 -13.3708 7.0903 -5.0403 -0.5157 52.9890 -11.2506
# 6 39.4439 18.4206 11.4754 -1.2380 -11.2506 41.1094
#
#
#
# Elastic Compliance Matrix: (Units=1/GPa)
#
#
# Indices 1 2 3 4 5 6 
#
# 1 0.009317 -0.000802 -0.002403 0.003044 0.000637 -0.007644
# 2 -0.000802 0.020663 -0.000612 0.008310 -0.004945 -0.009421
# 3 -0.002403 -0.000612 0.012600 0.007632 0.000635 -0.000533
# 4 0.003044 0.008310 0.007632 0.028631 -0.001082 -0.008209
# 5 0.000637 -0.004945 0.000635 -0.001082 0.021277 0.007218
# 6 -0.007644 -0.009421 -0.000533 -0.008209 0.007218 0.037758
#
#
# Mechanical properties :
#
#
# Convention : Reuss Voigt Hill
#
# Bulk Modulus (GPa) = 28.61669 66.05924 47.33797
# Shear Modulus (GPa) = 33.43814 46.07879 39.75847
#
# Velocity S-wave (km/s) = 3.46461 4.06710 3.77788
# Velocity P-wave (km/s) = 5.12616 6.76527 6.00193
#
# Compressibility (1/GPa) = 0.03494464
#
# Stress axis : x y z
#
# Youngs Moduli (GPa) = 107.32629 48.39573 79.36461
#
# Poissons Ratio (x) = 0.03883 0.19074
# Poissons Ratio (y) = 0.08611 0.04859
# Poissons Ratio (z) = 0.25794 0.02963
#
# Static dielectric constant tensor:
#      x y z
#    x 5.409540 -0.075180 0.445870 
#    y -0.075180 4.766290 -0.242910 
#    z 0.445870 -0.242910 5.729580 
# 
# 
# High freq. dielectric constant tensor:
#      x y z
#    x 2.140100 -0.004090 0.013090 
#    y -0.004090 2.118710 -0.005500 
#    z 0.013090 -0.005500 2.151910 
# 
# From -- ./inp_files/76171.got.cif
#   From: 2010.06.25/outbox.cif.g09.slc.cpg/sg2_39_cif.got.tgz:76171.got - 2010.06.27 13:26:56.
