data_PCOD8018287
_publ_section_title
;
Structure prediction by ZEFSAII (Michael W. Deem and Ramdas Pophale) SiO2 
 PCOD8018287
Probable space group: P -1
;
_chemical_formula_sum "Si O2"
_cell_formula_units_Z 16
_cell_length_a 8.765040
_cell_length_b 11.556782
_cell_length_c 10.841879
_cell_angle_alpha 50.207537
_cell_angle_beta 117.116383
_cell_angle_gamma 113.322920
_cell_volume 742.326385
_symmetry_space_group_name_H-M "P -1"
_symmetry_group_IT_number 2
_symmetry_cell_setting 'triclinic'
loop_
_space_group_symop_operation_xyz
x,y,z
-x,-y,-z
loop_
_atom_site_type_symbol
_atom_site_label
_atom_site_fract_x
_atom_site_fract_y
_atom_site_fract_z
Si Si1 0.654739 0.691545 0.707705
Si Si2 0.529833 0.844490 0.343309
Si Si3 0.691677 0.383650 0.034187
Si Si4 0.072246 0.071396 0.608183
Si Si5 0.950540 0.628198 0.707278
Si Si6 0.587314 0.862464 0.786138
Si Si7 0.242766 0.690608 0.161154
Si Si8 0.036484 0.101442 0.062185
O O1 0.545883 0.700210 0.535928
O O2 0.602459 0.534240 0.871883
O O3 0.858680 0.699783 0.741993
O O4 0.618592 0.842467 0.664693
O O5 0.719201 0.922486 0.312618
O O6 0.413139 0.774799 0.234464
O O7 0.441242 0.969854 0.299182
O O8 0.718735 0.295473 0.978807
O O9 0.569321 0.266733 0.151100
O O10 0.873659 0.426425 0.143924
O O11 0.020159 0.242309 0.475820
O O12 0.000000 0.000000 0.500000
O O13 0.988833 0.988029 0.755760
O O14 0.814100 0.486320 0.702169
O O15 0.764861 0.822423 0.936269
O O16 0.079151 0.768358 0.079526
O O17 0.000000 0.000000 0.000000
#
# Coordination Sequence:
#
# PCOD8018287 Si02
#       8
#     2   2   2   2   2   2   2   2
#     4  10  22  40  64  96 128 163 215 265 322 374
#     4  11  24  40  65  97 127 172 212 264 319 386
#     4  11  23  40  70  94 125 172 216 264 315 390
#     4  11  24  44  69  96 127 173 225 264 317 391
#     4  10  22  44  69  95 122 175 217 265 316 384
#     4  12  23  40  64  94 129 167 213 268 321 381
#     4  11  23  44  65  94 133 168 217 260 325 391
#     4  12  25  43  63  95 136 168 211 268 331 378
#
# _framework density 21.553861000000001
#
# number of rings (size 3 to 8) (size 9 to 14) (size 15 to 20)
#    0.000    1.000    1.250    7.500    1.750    6.500 
#    0.000    0.625    0.000    0.000    0.000    0.000 
#    0.000    0.000    0.000    0.000    0.000    0.000 
#
# Total GULP energy -198285.504598 kJ/mol
# GULP energy per Si atom -12392.844037 kJ/mol
# Density = 2.150480 g / cm^3
# Si number density = 21.553861 Si / 1000 Ang^3
#
#
#
# Elastic Constant Matrix: (Units=GPa)
#
#
# Indices 1 2 3 4 5 6 
#
# 1 87.3912 50.3188 28.4322 4.1278 19.4191 5.2299
# 2 50.3188 112.5243 24.9414 11.2249 5.5006 0.7318
# 3 28.4322 24.9414 72.7203 -0.9049 10.4643 4.8004
# 4 4.1278 11.2249 -0.9049 36.5474 5.2123 5.4617
# 5 19.4191 5.5006 10.4643 5.2123 33.1758 2.0003
# 6 5.2299 0.7318 4.8004 5.4617 2.0003 42.1567
#
#
#
# Elastic Compliance Matrix: (Units=1/GPa)
#
#
# Indices 1 2 3 4 5 6 
#
# 1 0.018774 -0.007349 -0.003424 0.001550 -0.008838 -0.001593
# 2 -0.007349 0.012861 -0.002156 -0.003845 0.003376 0.001272
# 3 -0.003424 -0.002156 0.016396 0.002119 -0.003051 -0.001535
# 4 0.001550 -0.003845 0.002119 0.029780 -0.005378 -0.003970
# 5 -0.008838 0.003376 -0.003051 -0.005378 0.036542 0.000348
# 6 -0.001593 0.001272 -0.001535 -0.003970 0.000348 0.024569
#
#
# Mechanical properties :
#
#
# Convention : Reuss Voigt Hill
#
# Bulk Modulus (GPa) = 45.09512 53.33564 49.21538
# Shear Modulus (GPa) = 29.04099 33.63888 31.33994
#
# Velocity S-wave (km/s) = 3.67463 3.95484 3.81731
# Velocity P-wave (km/s) = 6.24271 6.75673 6.50480
#
# Compressibility (1/GPa) = 0.02217535
#
# Stress axis : x y z
#
# Youngs Moduli (GPa) = 53.26486 77.75284 60.99125
#
# Poissons Ratio (x) = 0.57139 0.20880
# Poissons Ratio (y) = 0.39144 0.13147
# Poissons Ratio (z) = 0.18235 0.16760
#
# Static dielectric constant tensor:
#      x y z
#    x 4.250970 0.422250 -0.039950 
#    y 0.422250 4.984330 -0.441110 
#    z -0.039950 -0.441110 4.087500 
# 
# 
# High freq. dielectric constant tensor:
#      x y z
#    x 1.850010 -0.001080 0.013180 
#    y -0.001080 1.849410 -0.008160 
#    z 0.013180 -0.008160 1.845810 
# 
# From -- ./inp_files/389174.got.cif
#   From: 2010.06.25/outbox.cif.g09.slc.cpg/sg2_195_cif.got.tgz:389174.got - 2010.06.27 13:26:56.
