data_PCOD8018058
_publ_section_title
;
Structure prediction by ZEFSAII (Michael W. Deem and Ramdas Pophale) SiO2 
 PCOD8018058
Probable space group: P -1
;
_chemical_formula_sum "Si O2"
_cell_formula_units_Z 14
_cell_length_a 12.782184
_cell_length_b 9.628361
_cell_length_c 11.127510
_cell_angle_alpha 118.810160
_cell_angle_beta 126.847182
_cell_angle_gamma 36.082096
_cell_volume 645.417960
_symmetry_space_group_name_H-M "P -1"
_symmetry_group_IT_number 2
_symmetry_cell_setting 'triclinic'
loop_
_space_group_symop_operation_xyz
x,y,z
-x,-y,-z
loop_
_atom_site_type_symbol
_atom_site_label
_atom_site_fract_x
_atom_site_fract_y
_atom_site_fract_z
Si Si1 0.351370 0.129004 0.843616
Si Si2 0.063883 0.970091 0.893815
Si Si3 0.044859 0.480166 0.163338
Si Si4 0.605123 0.461003 0.176130
Si Si5 0.215907 0.658816 0.336398
Si Si6 0.634795 0.050387 0.836474
Si Si7 0.374502 0.752607 0.661230
O O1 0.454681 0.131135 0.811446
O O2 0.149830 0.397285 0.849875
O O3 0.293283 0.002299 0.717341
O O4 0.500000 0.000000 0.000000
O O5 0.169054 0.727885 0.794433
O O6 0.219799 0.974026 0.992126
O O7 0.871297 0.186265 0.779276
O O8 0.000000 0.000000 0.000000
O O9 0.093724 0.618764 0.281242
O O10 0.222581 0.213565 0.227528
O O11 0.000000 0.500000 0.000000
O O12 0.488034 0.726648 0.248116
O O13 0.585752 0.352199 0.223373
O O14 0.500000 0.500000 0.000000
O O15 0.217198 0.784619 0.497879
O O16 0.431001 0.409028 0.349830
#
# Coordination Sequence:
#
# PCOD8018058 Si02
#       7
#     2   2   2   2   2   2   2
#     4  12  22  38  67  93 131 168 222 275 323 386
#     4  11  23  39  68  97 131 174 221 269 326 395
#     4  12  22  38  66  96 128 171 221 272 325 385
#     4  10  22  40  61  92 133 168 216 270 324 386
#     4  11  22  42  68  97 134 172 226 266 326 399
#     4  11  23  40  62  96 130 164 218 269 328 377
#     4  11  24  42  67  97 133 178 216 277 326 386
#
# _framework density 21.691369999999999
#
# number of rings (size 3 to 8) (size 9 to 14) (size 15 to 20)
#    0.000    0.857    4.286    4.286    2.000    2.286 
#    0.000    0.714    3.143    1.714    0.000    0.000 
#    0.000    0.000    0.000    0.000    0.000    0.000 
#
# Total GULP energy -173440.931565 kJ/mol
# GULP energy per Si atom -12388.637969 kJ/mol
# Density = 2.164200 g / cm^3
# Si number density = 21.691370 Si / 1000 Ang^3
#
#
#
# Elastic Constant Matrix: (Units=GPa)
#
#
# Indices 1 2 3 4 5 6 
#
# 1 118.1775 47.8002 28.7077 1.5403 9.2819 -10.6981
# 2 47.8002 125.0243 12.1509 1.7163 8.2364 -17.3994
# 3 28.7077 12.1509 88.1447 9.9378 13.7174 8.3916
# 4 1.5403 1.7163 9.9378 22.5497 2.4233 -0.1431
# 5 9.2819 8.2364 13.7174 2.4233 27.5312 -2.9971
# 6 -10.6981 -17.3994 8.3916 -0.1431 -2.9971 43.1100
#
#
#
# Elastic Compliance Matrix: (Units=1/GPa)
#
#
# Indices 1 2 3 4 5 6 
#
# 1 0.010904 -0.003556 -0.003214 0.001051 -0.000904 0.001837
# 2 -0.003556 0.009900 -0.000276 -0.000233 -0.001270 0.003078
# 3 -0.003214 -0.000276 0.014369 -0.005478 -0.005962 -0.004139
# 4 0.001051 -0.000233 -0.005478 0.046880 -0.001542 0.001281
# 5 -0.000904 -0.001270 -0.005962 -0.001542 0.040465 0.003232
# 6 0.001837 0.003078 -0.004139 0.001281 0.003232 0.025929
#
#
# Mechanical properties :
#
#
# Convention : Reuss Voigt Hill
#
# Bulk Modulus (GPa) = 47.43334 56.51823 51.97578
# Shear Modulus (GPa) = 29.48690 34.81736 32.15213
#
# Velocity S-wave (km/s) = 3.69098 4.01075 3.85418
# Velocity P-wave (km/s) = 6.33082 6.89640 6.61965
#
# Compressibility (1/GPa) = 0.02108222
#
# Stress axis : x y z
#
# Youngs Moduli (GPa) = 91.70539 101.01036 69.59368
#
# Poissons Ratio (x) = 0.35919 0.22368
# Poissons Ratio (y) = 0.32610 0.01919
# Poissons Ratio (z) = 0.29474 0.02785
#
# Static dielectric constant tensor:
#      x y z
#    x 3.440560 -0.502320 -0.008590 
#    y -0.502320 4.627970 -0.078640 
#    z -0.008590 -0.078640 3.669090 
# 
# 
# High freq. dielectric constant tensor:
#      x y z
#    x 1.850630 -0.013050 0.014120 
#    y -0.013050 1.879140 0.002000 
#    z 0.014120 0.002000 1.811120 
# 
# From -- ./inp_files/255653.got.cif
#   From: 2010.06.25/outbox.cif.g09.slc.cpg/sg2_128_cif.got.tgz:255653.got - 2010.06.27 13:26:56.
