data_PCOD8018309
_publ_section_title
;
Structure prediction by ZEFSAII (Michael W. Deem and Ramdas Pophale) SiO2 
 PCOD8018309
Probable space group: P -1
;
_chemical_formula_sum "Si O2"
_cell_formula_units_Z 16
_cell_length_a 14.917680
_cell_length_b 11.225528
_cell_length_c 5.274348
_cell_angle_alpha 114.270842
_cell_angle_beta 86.683628
_cell_angle_gamma 63.712317
_cell_volume 690.104939
_symmetry_space_group_name_H-M "P -1"
_symmetry_group_IT_number 2
_symmetry_cell_setting 'triclinic'
loop_
_space_group_symop_operation_xyz
x,y,z
-x,-y,-z
loop_
_atom_site_type_symbol
_atom_site_label
_atom_site_fract_x
_atom_site_fract_y
_atom_site_fract_z
Si Si1 0.376777 0.382155 0.484638
Si Si2 0.549548 0.329119 0.743926
Si Si3 0.204737 0.830833 0.409475
Si Si4 0.180921 0.693224 0.774805
Si Si5 0.011462 0.340591 0.295286
Si Si6 0.872666 0.824724 0.373184
Si Si7 0.524735 0.870831 0.126234
Si Si8 0.658866 0.843126 0.503066
O O1 0.491233 0.354218 0.504222
O O2 0.297319 0.554340 0.570514
O O3 0.327653 0.325950 0.664632
O O4 0.386756 0.256763 0.176690
O O5 0.672936 0.249772 0.623642
O O6 0.526257 0.221088 0.820874
O O7 0.500000 0.500000 0.000000
O O8 0.151065 0.812592 0.655347
O O9 0.149981 0.008719 0.531870
O O10 0.180704 0.760998 0.107596
O O11 0.100278 0.634256 0.742886
O O12 0.050303 0.239539 0.455248
O O13 0.000000 0.500000 0.500000
O O14 0.085898 0.270659 0.976559
O O15 0.769481 0.828013 0.484208
O O16 0.591675 0.924365 0.331918
O O17 0.423990 0.028062 0.163083
#
# Coordination Sequence:
#
# PCOD8018309 Si02
#       8
#     2   2   2   2   2   2   2   2
#     4  11  24  39  71  97 147 195 232 305 353 426
#     4  11  22  41  63 103 145 188 241 281 354 429
#     4  12  27  47  75 109 147 194 240 294 365 437
#     4  12  28  48  73 106 145 188 249 298 363 430
#     4  12  29  52  79 110 139 188 246 308 369 430
#     4  12  27  49  79 105 149 190 240 310 361 430
#     4  10  22  40  64  99 143 185 237 288 355 436
#     4  10  23  41  65 104 139 186 237 291 364 425
#
# _framework density 23.18488
#
# number of rings (size 3 to 8) (size 9 to 14) (size 15 to 20)
#    0.000    0.750    2.500    3.750    7.000    5.000 
#    0.000    0.000    0.000    0.000    0.000    0.000 
#    0.000    0.000    0.000    0.000    0.000    0.000 
#
# Total GULP energy -198254.510517 kJ/mol
# GULP energy per Si atom -12390.906907 kJ/mol
# Density = 2.313211 g / cm^3
# Si number density = 23.184880 Si / 1000 Ang^3
#
#
#
# Elastic Constant Matrix: (Units=GPa)
#
#
# Indices 1 2 3 4 5 6 
#
# 1 123.6909 31.0319 38.3940 3.9828 20.6073 -11.0117
# 2 31.0319 104.8277 35.0973 7.7926 7.9344 -8.9716
# 3 38.3940 35.0973 121.7804 8.1592 7.1804 -17.3745
# 4 3.9828 7.7926 8.1592 38.8823 0.9274 3.9391
# 5 20.6073 7.9344 7.1804 0.9274 35.0880 3.7183
# 6 -11.0117 -8.9716 -17.3745 3.9391 3.7183 31.9103
#
#
#
# Elastic Compliance Matrix: (Units=1/GPa)
#
#
# Indices 1 2 3 4 5 6 
#
# 1 0.010312 -0.001695 -0.002026 -0.000431 -0.005531 0.002677
# 2 -0.001695 0.011159 -0.002256 -0.001731 -0.001199 0.001678
# 3 -0.002026 -0.002256 0.010344 -0.001961 -0.000857 0.004641
# 4 -0.000431 -0.001731 -0.001961 0.027021 0.000876 -0.005141
# 5 -0.005531 -0.001199 -0.000857 0.000876 0.032876 -0.006651
# 6 0.002677 0.001678 0.004641 -0.005141 -0.006651 0.036670
#
#
# Mechanical properties :
#
#
# Convention : Reuss Voigt Hill
#
# Bulk Modulus (GPa) = 50.34441 62.14949 56.24695
# Shear Modulus (GPa) = 34.02354 37.56116 35.79235
#
# Velocity S-wave (km/s) = 3.83494 4.02938 3.93336
# Velocity P-wave (km/s) = 6.43199 6.96506 6.70382
#
# Compressibility (1/GPa) = 0.01986318
#
# Stress axis : x y z
#
# Youngs Moduli (GPa) = 96.97126 89.61057 96.67094
#
# Poissons Ratio (x) = 0.15186 0.19585
# Poissons Ratio (y) = 0.16434 0.21808
# Poissons Ratio (z) = 0.19645 0.20215
#
# Static dielectric constant tensor:
#      x y z
#    x 4.105300 0.076740 -0.008770 
#    y 0.076740 4.562430 -0.021450 
#    z -0.008770 -0.021450 4.299290 
# 
# 
# High freq. dielectric constant tensor:
#      x y z
#    x 1.918470 0.005990 0.007930 
#    y 0.005990 1.938830 0.007930 
#    z 0.007930 0.007930 1.922830 
# 
# From -- ./inp_files/95636.got.cif
#   From: 2010.06.25/outbox.cif.g09.slc.cpg/sg2_48_cif.got.tgz:95636.got - 2010.06.27 13:26:56.
