data_PCOD8018431
_publ_section_title
;
Structure prediction by ZEFSAII (Michael W. Deem and Ramdas Pophale) SiO2 
 PCOD8018431
Probable space group: P -1
;
_chemical_formula_sum "Si O2"
_cell_formula_units_Z 16
_cell_length_a 15.137474
_cell_length_b 24.012234
_cell_length_c 7.708715
_cell_angle_alpha 124.461549
_cell_angle_beta 125.422013
_cell_angle_gamma 19.196804
_cell_volume 749.012660
_symmetry_space_group_name_H-M "P -1"
_symmetry_group_IT_number 2
_symmetry_cell_setting 'triclinic'
loop_
_space_group_symop_operation_xyz
x,y,z
-x,-y,-z
loop_
_atom_site_type_symbol
_atom_site_label
_atom_site_fract_x
_atom_site_fract_y
_atom_site_fract_z
Si Si1 0.509026 0.558415 0.989648
Si Si2 0.701120 0.689014 0.059763
Si Si3 0.255577 0.690212 0.591658
Si Si4 0.426703 0.135411 0.066781
Si Si5 0.710489 0.696137 0.472439
Si Si6 0.069136 0.217599 0.833351
Si Si7 0.721616 0.173084 0.273328
Si Si8 0.323212 0.802955 0.335120
O O1 0.254454 0.703014 0.819640
O O2 0.794210 0.397022 0.930605
O O3 0.500000 0.500000 0.000000
O O4 0.477544 0.643814 0.214942
O O5 0.714946 0.717272 0.313260
O O6 0.558460 0.818401 0.985595
O O7 0.514644 0.728288 0.932930
O O8 0.000000 0.500000 0.000000
O O9 0.500000 0.500000 0.500000
O O10 0.298470 0.735267 0.616512
O O11 0.982789 0.808892 0.422686
O O12 0.348879 0.208293 0.297006
O O13 0.725609 0.931644 0.055682
O O14 0.203755 0.207041 0.883835
O O15 0.481766 0.770139 0.357162
O O16 0.000000 0.500000 0.500000
O O17 0.677097 0.178645 0.431459
O O18 0.020284 0.974923 0.211019
#
# Coordination Sequence:
#
# PCOD8018431 Si02
#       8
#     2   2   2   2   2   2   2   2
#     4  11  24  41  65  98 134 176 224 282 338 410
#     4  12  26  42  72 101 138 178 226 286 345 409
#     4  10  22  40  66  91 131 177 218 268 333 405
#     4  11  24  47  69  96 138 181 223 288 330 409
#     4  12  23  43  68 103 135 180 228 277 346 407
#     4  10  24  46  67  92 136 180 226 273 346 398
#     4  11  24  42  69 103 135 178 225 286 349 397
#     4  11  23  41  69 101 139 172 225 291 340 406
#
# _framework density 21.361454999999999
#
# number of rings (size 3 to 8) (size 9 to 14) (size 15 to 20)
#    0.000    1.000    2.500    3.750    7.000    3.000 
#    4.500    1.250    0.000    0.000    0.000    0.000 
#    0.000    0.000    0.000    0.000    0.000    0.000 
#
# Total GULP energy -198427.686925 kJ/mol
# GULP energy per Si atom -12401.730433 kJ/mol
# Density = 2.131284 g / cm^3
# Si number density = 21.361455 Si / 1000 Ang^3
#
#
#
# Elastic Constant Matrix: (Units=GPa)
#
#
# Indices 1 2 3 4 5 6 
#
# 1 103.4944 32.5258 47.5424 -8.6558 5.7952 4.5921
# 2 32.5258 105.5575 31.1831 -6.0822 7.9852 -7.1627
# 3 47.5424 31.1831 103.1036 -13.4715 5.5167 -5.8203
# 4 -8.6558 -6.0822 -13.4715 37.0571 -0.8019 8.9479
# 5 5.7952 7.9852 5.5167 -0.8019 46.0136 -3.2708
# 6 4.5921 -7.1627 -5.8203 8.9479 -3.2708 33.2486
#
#
#
# Elastic Compliance Matrix: (Units=1/GPa)
#
#
# Indices 1 2 3 4 5 6 
#
# 1 0.013271 -0.002633 -0.005279 0.001661 -0.000826 -0.003853
# 2 -0.002633 0.011107 -0.001962 -0.000091 -0.001197 0.002320
# 3 -0.005279 -0.001962 0.013217 0.002800 -0.000401 0.001827
# 4 0.001661 -0.000091 0.002800 0.030287 -0.000567 -0.007966
# 5 -0.000826 -0.001197 -0.000401 -0.000567 0.022234 0.002126
# 6 -0.003853 0.002320 0.001827 -0.007966 0.002126 0.033781
#
#
# Mechanical properties :
#
#
# Convention : Reuss Voigt Hill
#
# Bulk Modulus (GPa) = 56.03305 59.40645 57.71975
# Shear Modulus (GPa) = 33.42343 36.65748 35.04046
#
# Velocity S-wave (km/s) = 3.95987 4.14703 4.05453
# Velocity P-wave (km/s) = 6.86988 7.12748 6.99986
#
# Compressibility (1/GPa) = 0.01784661
#
# Stress axis : x y z
#
# Youngs Moduli (GPa) = 75.35131 90.03204 75.65867
#
# Poissons Ratio (x) = 0.23704 0.39944
# Poissons Ratio (y) = 0.19839 0.14845
# Poissons Ratio (z) = 0.39781 0.17666
#
# Static dielectric constant tensor:
#      x y z
#    x 3.810660 0.007070 0.042420 
#    y 0.007070 4.065080 -0.284030 
#    z 0.042420 -0.284030 4.385760 
# 
# 
# High freq. dielectric constant tensor:
#      x y z
#    x 1.835100 0.004310 0.006040 
#    y 0.004310 1.849400 -0.007920 
#    z 0.006040 -0.007920 1.844880 
# 
# From -- ./inp_files/320178.got.cif
#   From: 2010.06.25/outbox.cif.g09.slc.cpg/sg2_161_cif.got.tgz:320178.got - 2010.06.27 13:26:56.
