data_PCOD8018685
_publ_section_title
;
Structure prediction by ZEFSAII (Michael W. Deem and Ramdas Pophale) SiO2 
 PCOD8018685
Probable space group: P -1
;
_chemical_formula_sum "Si O2"
_cell_formula_units_Z 16
_cell_length_a 10.759660
_cell_length_b 16.593988
_cell_length_c 11.830583
_cell_angle_alpha 71.036265
_cell_angle_beta 131.235869
_cell_angle_gamma 145.650331
_cell_volume 767.361388
_symmetry_space_group_name_H-M "P -1"
_symmetry_group_IT_number 2
_symmetry_cell_setting 'triclinic'
loop_
_space_group_symop_operation_xyz
x,y,z
-x,-y,-z
loop_
_atom_site_type_symbol
_atom_site_label
_atom_site_fract_x
_atom_site_fract_y
_atom_site_fract_z
Si Si1 0.647211 0.560286 0.245276
Si Si2 0.842104 0.340843 0.497692
Si Si3 0.289940 0.064879 0.130691
Si Si4 0.378738 0.516884 0.329274
Si Si5 0.692298 0.297666 0.054572
Si Si6 0.077231 0.632496 0.209299
Si Si7 0.138239 0.278545 0.925462
Si Si8 0.358289 0.183585 0.671959
O O1 0.441786 0.512239 0.242761
O O2 0.787028 0.691117 0.177835
O O3 0.948061 0.642305 0.441094
O O4 0.460455 0.400705 0.136321
O O5 0.496610 0.181376 0.308461
O O6 0.785882 0.306102 0.611392
O O7 0.000000 0.500000 0.500000
O O8 0.480976 0.157091 0.086326
O O9 0.165192 0.913173 0.136969
O O10 0.000000 0.000000 0.000000
O O11 0.500000 0.500000 0.500000
O O12 0.585066 0.694197 0.390574
O O13 0.995377 0.369954 0.172716
O O14 0.827396 0.446265 0.116206
O O15 0.443640 0.208717 0.844240
O O16 0.392951 0.769389 0.259499
O O17 0.903766 0.645314 0.081849
O O18 0.000000 0.000000 0.500000
#
# Coordination Sequence:
#
# PCOD8018685 Si02
#       8
#     2   2   2   2   2   2   2   2
#     4  10  22  40  69  93 130 167 219 262 336 392
#     4  11  22  40  65  95 129 168 212 271 324 395
#     4  12  27  40  66  98 135 168 224 273 330 383
#     4  11  24  43  71  97 131 178 223 267 329 409
#     4  11  24  47  67  96 135 181 219 274 333 399
#     4  10  22  43  69  89 132 174 219 262 338 394
#     4  10  23  41  66  98 125 171 213 276 326 389
#     4  11  26  42  67  98 135 177 220 276 329 395
#
# _framework density 20.850671999999999
#
# number of rings (size 3 to 8) (size 9 to 14) (size 15 to 20)
#    0.000    1.250    1.250    4.500    8.750    5.000 
#    0.000    1.875    0.000    0.000    0.000    0.000 
#    0.000    0.000    0.000    0.000    0.000    0.000 
#
# Total GULP energy -198307.631671 kJ/mol
# GULP energy per Si atom -12394.226979 kJ/mol
# Density = 2.080321 g / cm^3
# Si number density = 20.850672 Si / 1000 Ang^3
#
#
#
# Elastic Constant Matrix: (Units=GPa)
#
#
# Indices 1 2 3 4 5 6 
#
# 1 126.0981 55.3047 40.7075 -5.1494 -3.4857 15.3293
# 2 55.3047 155.1189 60.3795 12.0397 -4.9575 9.4029
# 3 40.7075 60.3795 149.5208 8.8634 -3.2687 -0.0998
# 4 -5.1494 12.0397 8.8634 35.6925 1.5774 0.7166
# 5 -3.4857 -4.9575 -3.2687 1.5774 27.7875 -2.5697
# 6 15.3293 9.4029 -0.0998 0.7166 -2.5697 33.3606
#
#
#
# Elastic Compliance Matrix: (Units=1/GPa)
#
#
# Indices 1 2 3 4 5 6 
#
# 1 0.010451 -0.003014 -0.001812 0.003054 0.000015 -0.004023
# 2 -0.003014 0.008823 -0.002556 -0.002799 0.000964 -0.000975
# 3 -0.001812 -0.002556 0.008316 -0.001521 0.000534 0.001652
# 4 0.003054 -0.002799 -0.001521 0.029902 -0.002124 -0.001425
# 5 0.000015 0.000964 0.000534 -0.002124 0.036584 0.002587
# 6 -0.004023 -0.000975 0.001652 -0.001425 0.002587 0.032334
#
#
# Mechanical properties :
#
#
# Convention : Reuss Voigt Hill
#
# Bulk Modulus (GPa) = 77.95656 82.61346 80.28501
# Shear Modulus (GPa) = 34.37606 37.65784 36.01695
#
# Velocity S-wave (km/s) = 4.06480 4.25440 4.16068
# Velocity P-wave (km/s) = 7.71358 7.99004 7.85303
#
# Compressibility (1/GPa) = 0.01282766
#
# Stress axis : x y z
#
# Youngs Moduli (GPa) = 95.68322 113.33587 120.24307
#
# Poissons Ratio (x) = 0.34156 0.21786
# Poissons Ratio (y) = 0.28836 0.30736
# Poissons Ratio (z) = 0.17336 0.28971
#
# Static dielectric constant tensor:
#      x y z
#    x 3.895250 0.046190 0.085630 
#    y 0.046190 4.246010 0.417030 
#    z 0.085630 0.417030 4.447350 
# 
# 
# High freq. dielectric constant tensor:
#      x y z
#    x 1.828940 0.006750 0.005410 
#    y 0.006750 1.808420 -0.007290 
#    z 0.005410 -0.007290 1.834100 
# 
# From -- ./inp_files/306905.got.cif
#   From: 2010.06.25/outbox.cif.g09.slc.cpg/sg2_154_cif.got.tgz:306905.got - 2010.06.27 13:26:56.
