data_PCOD8018116
_publ_section_title
;
Structure prediction by ZEFSAII (Michael W. Deem and Ramdas Pophale) SiO2 
 PCOD8018116
Probable space group: P -1
;
_chemical_formula_sum "Si O2"
_cell_formula_units_Z 14
_cell_length_a 14.616508
_cell_length_b 11.922378
_cell_length_c 12.045942
_cell_angle_alpha 128.848562
_cell_angle_beta 36.782227
_cell_angle_gamma 148.221563
_cell_volume 652.316072
_symmetry_space_group_name_H-M "P -1"
_symmetry_group_IT_number 2
_symmetry_cell_setting 'triclinic'
loop_
_space_group_symop_operation_xyz
x,y,z
-x,-y,-z
loop_
_atom_site_type_symbol
_atom_site_label
_atom_site_fract_x
_atom_site_fract_y
_atom_site_fract_z
Si Si1 0.564058 0.769727 0.071497
Si Si2 0.113647 0.256649 0.620393
Si Si3 0.261103 0.870279 0.707031
Si Si4 0.619196 0.034195 0.013319
Si Si5 0.785356 0.373258 0.208892
Si Si6 0.952119 0.633075 0.651390
Si Si7 0.055250 0.131688 0.353175
O O1 0.321613 0.533222 0.196395
O O2 0.696210 0.958947 0.152759
O O3 0.499395 0.815435 0.052751
O O4 0.740014 0.769276 0.866504
O O5 0.289777 0.510697 0.636273
O O6 0.158910 0.240603 0.440686
O O7 0.872702 0.167352 0.813457
O O8 0.126272 0.128196 0.612018
O O9 0.171240 0.669722 0.740003
O O10 0.066004 0.763682 0.737728
O O11 0.500000 0.000000 0.500000
O O12 0.500000 0.000000 0.000000
O O13 0.587097 0.144196 0.198711
O O14 0.000000 0.500000 0.000000
O O15 0.059968 0.810526 0.558775
O O16 0.000000 0.500000 0.500000
#
# Coordination Sequence:
#
# PCOD8018116 Si02
#       7
#     2   2   2   2   2   2   2
#     4  10  23  42  59  95 129 165 208 261 322 374
#     4   9  19  38  64  85 127 172 197 260 320 369
#     4  11  23  40  64  99 128 160 215 272 313 374
#     4   9  19  33  63  95 122 155 212 262 305 376
#     4   9  19  36  61  92 121 159 207 261 311 362
#     4  12  24  39  70  91 119 172 217 258 320 386
#     4  10  22  40  62  92 132 165 210 258 322 381
#
# _framework density 21.461988999999999
#
# number of rings (size 3 to 8) (size 9 to 14) (size 15 to 20)
#    0.000    2.000    1.429    2.143    6.000    0.571 
#    0.000    0.000    6.286    3.429    0.000    0.000 
#    0.000    0.000    0.000    0.000    0.000    0.000 
#
# Total GULP energy -173444.433533 kJ/mol
# GULP energy per Si atom -12388.888109 kJ/mol
# Density = 2.141314 g / cm^3
# Si number density = 21.461989 Si / 1000 Ang^3
#
#
#
# Elastic Constant Matrix: (Units=GPa)
#
#
# Indices 1 2 3 4 5 6 
#
# 1 137.2077 56.0929 16.5679 12.0580 18.0869 -27.1593
# 2 56.0929 99.4001 32.3362 18.7564 -1.1145 -21.7880
# 3 16.5679 32.3362 94.6994 15.2737 13.4095 -11.6987
# 4 12.0580 18.7564 15.2737 34.1832 -5.4310 -1.3854
# 5 18.0869 -1.1145 13.4095 -5.4310 23.1546 1.2134
# 6 -27.1593 -21.7880 -11.6987 -1.3854 1.2134 41.8233
#
#
#
# Elastic Compliance Matrix: (Units=1/GPa)
#
#
# Indices 1 2 3 4 5 6 
#
# 1 0.012904 -0.006292 0.003335 -0.004512 -0.013701 0.006283
# 2 -0.006292 0.016494 -0.004679 -0.003439 0.007462 0.002868
# 3 0.003335 -0.004679 0.015199 -0.007391 -0.013582 0.004129
# 4 -0.004512 -0.003439 -0.007391 0.038489 0.016982 -0.006006
# 5 -0.013701 0.007462 -0.013582 0.016982 0.066632 -0.010180
# 6 0.006283 0.002868 0.004129 -0.006006 -0.010180 0.030735
#
#
# Mechanical properties :
#
#
# Convention : Reuss Voigt Hill
#
# Bulk Modulus (GPa) = 34.10033 60.14456 47.12245
# Shear Modulus (GPa) = 24.33063 34.91957 29.62510
#
# Velocity S-wave (km/s) = 3.37064 4.03804 3.71934
# Velocity P-wave (km/s) = 5.57418 7.05872 6.35992
#
# Compressibility (1/GPa) = 0.02932523
#
# Stress axis : x y z
#
# Youngs Moduli (GPa) = 77.49493 60.62723 65.79199
#
# Poissons Ratio (x) = 0.38146 -0.21940
# Poissons Ratio (y) = 0.48759 0.30785
# Poissons Ratio (z) = -0.25843 0.28368
#
# Static dielectric constant tensor:
#      x y z
#    x 3.427900 -0.489710 0.556050 
#    y -0.489710 4.092180 0.645710 
#    z 0.556050 0.645710 3.662780 
# 
# 
# High freq. dielectric constant tensor:
#      x y z
#    x 1.826710 -0.029250 0.021440 
#    y -0.029250 1.849340 0.014430 
#    z 0.021440 0.014430 1.842990 
# 
# From -- ./inp_files/306767.got.cif
#   From: 2010.06.25/outbox.cif.g09.slc.cpg/sg2_154_cif.got.tgz:306767.got - 2010.06.27 13:26:56.
