data_PCOD8018819
_publ_section_title
;
Structure prediction by ZEFSAII (Michael W. Deem and Ramdas Pophale) SiO2 
 PCOD8018819
Probable space group: P -1
;
_chemical_formula_sum "Si O2"
_cell_formula_units_Z 16
_cell_length_a 11.938918
_cell_length_b 8.915507
_cell_length_c 17.912347
_cell_angle_alpha 48.691652
_cell_angle_beta 32.538693
_cell_angle_gamma 59.428612
_cell_volume 764.902071
_symmetry_space_group_name_H-M "P -1"
_symmetry_group_IT_number 2
_symmetry_cell_setting 'triclinic'
loop_
_space_group_symop_operation_xyz
x,y,z
-x,-y,-z
loop_
_atom_site_type_symbol
_atom_site_label
_atom_site_fract_x
_atom_site_fract_y
_atom_site_fract_z
Si Si1 0.999538 0.677372 0.787325
Si Si2 0.538005 0.370346 0.680708
Si Si3 0.677201 0.449494 0.861167
Si Si4 0.555159 0.206843 0.444832
Si Si5 0.872734 0.248943 0.944499
Si Si6 0.040502 0.774222 0.562880
Si Si7 0.575238 0.787348 0.042657
Si Si8 0.316780 0.132963 0.752775
O O1 0.905966 0.442808 0.916064
O O2 0.194376 0.724638 0.718766
O O3 0.076928 0.736877 0.641496
O O4 0.815293 0.803150 0.875688
O O5 0.559628 0.614409 0.587055
O O6 0.760351 0.285999 0.574257
O O7 0.435785 0.280021 0.843606
O O8 0.380446 0.296850 0.726731
O O9 0.802472 0.289709 0.886240
O O10 0.577822 0.372871 0.864873
O O11 0.834195 0.645474 0.688872
O O12 0.500000 0.500000 0.000000
O O13 0.485159 0.166713 0.582082
O O14 0.500000 0.000000 0.500000
O O15 0.088791 0.157510 0.841051
O O16 0.692808 0.092313 0.134852
O O17 0.000000 0.000000 0.500000
O O18 0.500000 0.000000 0.000000
#
# Coordination Sequence:
#
# PCOD8018819 Si02
#       8
#     2   2   2   2   2   2   2   2
#     4  11  23  45  68  97 142 175 232 279 347 412
#     4  12  26  44  72 101 144 181 230 290 347 408
#     4  11  23  42  69  97 137 178 231 275 335 408
#     4  12  27  43  70 103 141 182 230 291 348 410
#     4  10  22  40  74 100 126 186 226 278 340 417
#     4  11  24  42  73 101 132 190 232 277 345 417
#     4  12  27  44  69 105 140 181 231 290 340 405
#     4  11  23  44  72  99 135 177 232 280 347 409
#
# _framework density 20.91771
#
# number of rings (size 3 to 8) (size 9 to 14) (size 15 to 20)
#    0.000    0.750    5.000    3.375    3.500    6.000 
#    0.000    0.000    0.000    0.000    0.000    0.000 
#    0.000    0.000    0.000    0.000    0.000    0.000 
#
# Total GULP energy -198461.368556 kJ/mol
# GULP energy per Si atom -12403.835535 kJ/mol
# Density = 2.087010 g / cm^3
# Si number density = 20.917710 Si / 1000 Ang^3
#
#
#
# Elastic Constant Matrix: (Units=GPa)
#
#
# Indices 1 2 3 4 5 6 
#
# 1 96.3264 32.7259 28.6882 -0.2192 -1.8476 10.5779
# 2 32.7259 129.8452 37.5476 -13.1061 0.1010 -7.1335
# 3 28.6882 37.5476 88.7187 -3.2360 -3.0673 -2.4486
# 4 -0.2192 -13.1061 -3.2360 42.6426 -6.7203 3.8682
# 5 -1.8476 0.1010 -3.0673 -6.7203 38.7234 5.7730
# 6 10.5779 -7.1335 -2.4486 3.8682 5.7730 31.7384
#
#
#
# Elastic Compliance Matrix: (Units=1/GPa)
#
#
# Indices 1 2 3 4 5 6 
#
# 1 0.012815 -0.002645 -0.003144 -0.000335 0.001096 -0.005267
# 2 -0.002645 0.009646 -0.003080 0.002427 -0.000359 0.002581
# 3 -0.003144 -0.003080 0.013656 0.000080 0.000766 0.001260
# 4 -0.000335 0.002427 0.000080 0.025266 0.004861 -0.003300
# 5 0.001096 -0.000359 0.000766 0.004861 0.027678 -0.006014
# 6 -0.005267 0.002581 0.001260 -0.003300 -0.006014 0.035436
#
#
# Mechanical properties :
#
#
# Convention : Reuss Voigt Hill
#
# Bulk Modulus (GPa) = 54.40935 56.97932 55.69433
# Shear Modulus (GPa) = 33.70164 37.01613 35.35888
#
# Velocity S-wave (km/s) = 4.01827 4.21123 4.11588
# Velocity P-wave (km/s) = 6.89901 7.13757 7.01930
#
# Compressibility (1/GPa) = 0.01837919
#
# Stress axis : x y z
#
# Youngs Moduli (GPa) = 78.03430 103.67422 73.22855
#
# Poissons Ratio (x) = 0.27418 0.23025
# Poissons Ratio (y) = 0.20637 0.22552
# Poissons Ratio (z) = 0.24536 0.31929
#
# Static dielectric constant tensor:
#      x y z
#    x 3.385120 -0.304230 0.001400 
#    y -0.304230 3.875380 -0.101630 
#    z 0.001400 -0.101630 3.906550 
# 
# 
# High freq. dielectric constant tensor:
#      x y z
#    x 1.819650 -0.010610 -0.009660 
#    y -0.010610 1.825720 -0.005410 
#    z -0.009660 -0.005410 1.829180 
# 
# From -- ./inp_files/208631.got.cif
#   From: 2010.06.25/outbox.cif.g09.slc.cpg/sg2_105_cif.got.tgz:208631.got - 2010.06.27 13:26:56.
