data_PCOD8018245
_publ_section_title
;
Structure prediction by ZEFSAII (Michael W. Deem and Ramdas Pophale) SiO2 
 PCOD8018245
Probable space group: P -1
;
_chemical_formula_sum "Si O2"
_cell_formula_units_Z 16
_cell_length_a 8.443304
_cell_length_b 24.091618
_cell_length_c 7.555843
_cell_angle_alpha 54.114105
_cell_angle_beta 143.261845
_cell_angle_gamma 126.539933
_cell_volume 719.373772
_symmetry_space_group_name_H-M "P -1"
_symmetry_group_IT_number 2
_symmetry_cell_setting 'triclinic'
loop_
_space_group_symop_operation_xyz
x,y,z
-x,-y,-z
loop_
_atom_site_type_symbol
_atom_site_label
_atom_site_fract_x
_atom_site_fract_y
_atom_site_fract_z
Si Si1 0.792559 0.860196 0.779735
Si Si2 0.915355 0.845519 0.511699
Si Si3 0.211725 0.780962 0.376802
Si Si4 0.731435 0.505598 0.345307
Si Si5 0.672802 0.233676 0.903351
Si Si6 0.212456 0.994836 0.345027
Si Si7 0.895308 0.631613 0.521187
Si Si8 0.667382 0.378593 0.790178
O O1 0.500974 0.811471 0.675633
O O2 0.849522 0.845786 0.657184
O O3 0.780911 0.941238 0.633876
O O4 0.025832 0.836263 0.146565
O O5 0.097922 0.922345 0.481130
O O6 0.622741 0.817169 0.205636
O O7 0.096396 0.790546 0.731895
O O8 0.266933 0.774527 0.231887
O O9 0.083793 0.704814 0.484362
O O10 0.795287 0.580341 0.361842
O O11 0.646709 0.444842 0.529449
O O12 0.000000 0.500000 0.500000
O O13 0.500000 0.500000 0.000000
O O14 0.703354 0.315767 0.814017
O O15 0.500000 0.000000 0.500000
O O16 0.000000 0.000000 0.000000
O O17 0.623463 0.646924 0.327899
O O18 0.076533 0.599864 0.883481
#
# Coordination Sequence:
#
# PCOD8018245 Si02
#       8
#     2   2   2   2   2   2   2   2
#     4  10  22  41  62  86 120 163 209 254 304 371
#     4  10  22  41  62  86 120 163 209 254 304 371
#     4  10  22  40  64  91 121 163 211 253 304 374
#     4  12  26  46  70  94 128 174 218 258 302 374
#     4  10  22  40  64  91 121 163 211 253 304 374
#     4  12  25  38  59  88 122 158 202 258 317 372
#     4  12  25  42  66  98 133 166 205 263 323 373
#     4  12  25  42  66  98 133 166 205 263 323 373
#
# _framework density 22.241567
#
# number of rings (size 3 to 8) (size 9 to 14) (size 15 to 20)
#    0.000    1.000    0.000    6.375    0.000    9.000 
#    0.000    5.000    0.000    0.000    0.000    0.000 
#    0.000    0.000    0.000    0.000    0.000    0.000 
#
# Total GULP energy -198408.982950 kJ/mol
# GULP energy per Si atom -12400.561434 kJ/mol
# Density = 2.219094 g / cm^3
# Si number density = 22.241567 Si / 1000 Ang^3
#
#
#
# Elastic Constant Matrix: (Units=GPa)
#
#
# Indices 1 2 3 4 5 6 
#
# 1 54.9751 49.6609 52.3933 1.2605 32.7524 9.7571
# 2 49.6609 18.3117 -13.9417 -5.7968 -12.0905 9.4872
# 3 52.3933 -13.9417 141.0581 11.6646 11.2435 2.2302
# 4 1.2605 -5.7968 11.6646 42.2544 2.2645 1.7906
# 5 32.7524 -12.0905 11.2435 2.2645 32.5631 0.2434
# 6 9.7571 9.4872 2.2302 1.7906 0.2434 32.5834
#
#
#
# Elastic Compliance Matrix: (Units=1/GPa)
#
#
# Indices 1 2 3 4 5 6 
#
# 1 -0.002602 0.016530 0.001899 0.001574 0.008022 -0.004310
# 2 0.016530 -0.001818 -0.005151 0.001687 -0.015610 -0.004044
# 3 0.001899 -0.005151 0.006525 -0.002275 -0.005922 0.000654
# 4 0.001574 0.001687 -0.002275 0.024670 -0.001871 -0.002149
# 5 0.008022 -0.015610 -0.005922 -0.001871 0.019001 0.002509
# 6 -0.004310 -0.004044 0.000654 -0.002149 0.002509 0.033213
#
#
# Mechanical properties :
#
#
# Convention : Reuss Voigt Hill
#
# Bulk Modulus (GPa) = 34.89079 43.39667 39.14373
# Shear Modulus (GPa) = 80.66216 29.89566 55.27891
#
# Velocity S-wave (km/s) = 6.02869 3.67022 4.99077
# Velocity P-wave (km/s) = 8.01133 6.12491 7.13078
#
# Compressibility (1/GPa) = 0.02866086
#
# Stress axis : x y z
#
# Youngs Moduli (GPa) = -384.32059 -550.06434 153.26369
#
# Poissons Ratio (x) = 9.09259 -0.29102
# Poissons Ratio (y) = 6.35283 0.78943
# Poissons Ratio (z) = 0.72976 -2.83328
#
# Static dielectric constant tensor:
#      x y z
#    x 4.129570 -0.050630 0.270720 
#    y -0.050630 3.755770 0.243750 
#    z 0.270720 0.243750 4.402170 
# 
# 
# High freq. dielectric constant tensor:
#      x y z
#    x 1.888470 0.000330 0.015380 
#    y 0.000330 1.885550 0.002380 
#    z 0.015380 0.002380 1.891720 
# 
# From -- ./inp_files/226231.got.cif
#   From: 2010.06.25/outbox.cif.g09.slc.cpg/sg2_114_cif.got.tgz:226231.got - 2010.06.27 13:26:56.
