data_PCOD8018829
_publ_section_title
;
Structure prediction by ZEFSAII (Michael W. Deem and Ramdas Pophale) SiO2 
 PCOD8018829
Probable space group: P -1
;
_chemical_formula_sum "Si O2"
_cell_formula_units_Z 16
_cell_length_a 8.660326
_cell_length_b 14.097345
_cell_length_c 13.388654
_cell_angle_alpha 119.105903
_cell_angle_beta 87.983900
_cell_angle_gamma 140.756788
_cell_volume 710.357954
_symmetry_space_group_name_H-M "P -1"
_symmetry_group_IT_number 2
_symmetry_cell_setting 'triclinic'
loop_
_space_group_symop_operation_xyz
x,y,z
-x,-y,-z
loop_
_atom_site_type_symbol
_atom_site_label
_atom_site_fract_x
_atom_site_fract_y
_atom_site_fract_z
Si Si1 0.777437 0.955967 0.941096
Si Si2 0.884511 0.616518 0.817162
Si Si3 0.216521 0.989529 0.259106
Si Si4 0.812743 0.173310 0.523846
Si Si5 0.164668 0.590613 0.440282
Si Si6 0.808895 0.386209 0.086889
Si Si7 0.348059 0.829315 0.205566
Si Si8 0.160512 0.202867 0.648247
O O1 0.910348 0.151458 0.074443
O O2 0.769113 0.941526 0.812896
O O3 0.435244 0.732079 0.881194
O O4 0.000000 0.000000 0.000000
O O5 0.930983 0.581266 0.694102
O O6 0.527963 0.424474 0.746068
O O7 0.007543 0.613515 0.898928
O O8 0.468964 0.185279 0.433886
O O9 0.267109 0.893706 0.187290
O O10 0.905064 0.825011 0.245279
O O11 0.953481 0.379841 0.609234
O O12 0.055011 0.244992 0.611172
O O13 0.500000 0.000000 0.500000
O O14 0.691844 0.044163 0.357026
O O15 0.000000 0.500000 0.500000
O O16 0.070755 0.639341 0.196439
O O17 0.634815 0.258113 0.919737
O O18 0.000000 0.000000 0.500000
#
# Coordination Sequence:
#
# PCOD8018829 Si02
#       8
#     2   2   2   2   2   2   2   2
#     4  12  30  48  69 103 147 187 233 295 362 425
#     4  12  26  44  73 103 139 193 229 296 353 413
#     4  11  24  46  69 103 141 186 231 295 356 416
#     4  11  21  41  71 102 140 182 233 288 346 409
#     4  11  24  43  72 104 139 189 236 284 359 419
#     4  11  24  46  71 102 142 181 243 283 350 430
#     4  10  22  40  77 105 130 193 234 283 350 416
#     4  12  24  44  70 108 146 180 240 294 348 423
#
# _framework density 22.523855000000001
#
# number of rings (size 3 to 8) (size 9 to 14) (size 15 to 20)
#    0.000    0.750    5.000    2.625    5.250    4.500 
#    0.000    1.250    0.000    0.000    0.000    0.000 
#    0.000    0.000    0.000    0.000    0.000    0.000 
#
# Total GULP energy -198375.913527 kJ/mol
# GULP energy per Si atom -12398.494595 kJ/mol
# Density = 2.247259 g / cm^3
# Si number density = 22.523855 Si / 1000 Ang^3
#
#
#
# Elastic Constant Matrix: (Units=GPa)
#
#
# Indices 1 2 3 4 5 6 
#
# 1 115.9848 36.8961 27.6878 -7.7672 20.5484 -10.4599
# 2 36.8961 120.1919 14.7854 -20.7226 16.0386 5.0468
# 3 27.6878 14.7854 77.9843 -5.8815 -0.7325 3.1772
# 4 -7.7672 -20.7226 -5.8815 40.9525 0.4208 -1.6014
# 5 20.5484 16.0386 -0.7325 0.4208 41.3392 0.6202
# 6 -10.4599 5.0468 3.1772 -1.6014 0.6202 42.6111
#
#
#
# Elastic Compliance Matrix: (Units=1/GPa)
#
#
# Indices 1 2 3 4 5 6 
#
# 1 0.011529 -0.002468 -0.003770 0.000583 -0.004898 0.003497
# 2 -0.002468 0.010416 -0.000709 0.004669 -0.002851 -0.001570
# 3 -0.003770 -0.000709 0.014465 0.000903 0.002425 -0.001921
# 4 0.000583 0.004669 0.000903 0.027068 -0.002370 0.000575
# 5 -0.004898 -0.002851 0.002425 -0.002370 0.027821 -0.001540
# 6 0.003497 -0.001570 -0.001921 0.000575 -0.001540 0.024700
#
#
# Mechanical properties :
#
#
# Convention : Reuss Voigt Hill
#
# Bulk Modulus (GPa) = 44.41256 52.54438 48.47847
# Shear Modulus (GPa) = 36.39026 40.63332 38.51179
#
# Velocity S-wave (km/s) = 4.02385 4.25197 4.13949
# Velocity P-wave (km/s) = 6.43035 6.89091 6.66461
#
# Compressibility (1/GPa) = 0.02251615
#
# Stress axis : x y z
#
# Youngs Moduli (GPa) = 86.73705 96.00433 69.13123
#
# Poissons Ratio (x) = 0.23694 0.26062
# Poissons Ratio (y) = 0.21407 0.04904
# Poissons Ratio (z) = 0.32699 0.06810
#
# Static dielectric constant tensor:
#      x y z
#    x 3.961830 -0.127880 0.083830 
#    y -0.127880 4.203090 0.334670 
#    z 0.083830 0.334670 5.651310 
# 
# 
# High freq. dielectric constant tensor:
#      x y z
#    x 1.874150 -0.005330 -0.007350 
#    y -0.005330 1.893220 -0.006000 
#    z -0.007350 -0.006000 1.909890 
# 
# From -- ./inp_files/504192.got.cif
#   From: 2010.06.25/outbox.cif.g09.slc.cpg/sg2_253_cif.got.tgz:504192.got - 2010.06.27 13:26:56.
