data_PCOD8018219
_publ_section_title
;
Structure prediction by ZEFSAII (Michael W. Deem and Ramdas Pophale) SiO2 
 PCOD8018219
Probable space group: P -1
;
_chemical_formula_sum "Si O2"
_cell_formula_units_Z 12
_cell_length_a 10.695911
_cell_length_b 7.309818
_cell_length_c 9.083297
_cell_angle_alpha 79.548330
_cell_angle_beta 90.158029
_cell_angle_gamma 134.600893
_cell_volume 489.329540
_symmetry_space_group_name_H-M "P -1"
_symmetry_group_IT_number 2
_symmetry_cell_setting 'triclinic'
loop_
_space_group_symop_operation_xyz
x,y,z
-x,-y,-z
loop_
_atom_site_type_symbol
_atom_site_label
_atom_site_fract_x
_atom_site_fract_y
_atom_site_fract_z
Si Si1 0.089544 0.392934 0.482574
Si Si2 0.904252 0.306071 0.802251
Si Si3 0.377048 0.486800 0.607920
Si Si4 0.474581 0.281421 0.116421
Si Si5 0.004370 0.021564 0.281414
Si Si6 0.839388 0.557547 0.992668
O O1 0.049768 0.555001 0.383992
O O2 0.294103 0.586790 0.514564
O O3 0.079765 0.225958 0.383074
O O4 0.957137 0.161232 0.648951
O O5 0.066292 0.351652 0.859183
O O6 0.714033 0.012019 0.869226
O O7 0.912399 0.492128 0.882892
O O8 0.500000 0.500000 0.500000
O O9 0.502156 0.671100 0.716629
O O10 0.209987 0.179311 0.704629
O O11 0.628911 0.309061 0.051651
O O12 0.500000 0.500000 0.000000
O O13 0.110866 0.184321 0.109818
#
# Coordination Sequence:
#
# PCOD8018219 Si02
#       6
#     2   2   2   2   2   2
#     4   8  18  39  64  91 124 169 222 258 329 386
#     4  10  22  44  68  97 135 174 217 278 334 392
#     4  10  22  40  63  98 132 176 219 270 329 393
#     4  12  27  40  68 103 133 176 226 273 328 400
#     4   8  17  38  66  90 122 171 219 260 324 395
#     4  10  22  45  70  97 135 172 221 273 338 397
#
# _framework density 24.523349
#
# number of rings (size 3 to 8) (size 9 to 14) (size 15 to 20)
#    1.000    1.333    0.000    1.500    4.667    3.333 
#   12.000    0.833    0.000    0.000    0.000    0.000 
#    0.000    0.000    0.000    0.000    0.000    0.000 
#
# Total GULP energy -148707.742119 kJ/mol
# GULP energy per Si atom -12392.311843 kJ/mol
# Density = 2.446753 g / cm^3
# Si number density = 24.523349 Si / 1000 Ang^3
#
#
#
# Elastic Constant Matrix: (Units=GPa)
#
#
# Indices 1 2 3 4 5 6 
#
# 1 111.0408 42.1353 73.9796 -18.2427 23.4177 6.3920
# 2 42.1353 113.9666 55.2762 -10.7051 19.0683 14.6813
# 3 73.9796 55.2762 170.6790 -11.9666 21.3461 -5.2334
# 4 -18.2427 -10.7051 -11.9666 42.3821 6.6626 0.0861
# 5 23.4177 19.0683 21.3461 6.6626 52.7190 -10.8255
# 6 6.3920 14.6813 -5.2334 0.0861 -10.8255 45.7808
#
#
#
# Elastic Compliance Matrix: (Units=1/GPa)
#
#
# Indices 1 2 3 4 5 6 
#
# 1 0.015313 -0.001121 -0.005267 0.005734 -0.005759 -0.003753
# 2 -0.001121 0.012166 -0.002933 0.002410 -0.004055 -0.005044
# 3 -0.005267 -0.002933 0.009098 -0.000500 0.000355 0.002801
# 4 0.005734 0.002410 -0.000500 0.027704 -0.007423 -0.003438
# 5 -0.005759 -0.004055 0.000355 -0.007423 0.025468 0.008181
# 6 -0.003753 -0.005044 0.002801 -0.003438 0.008181 0.026246
#
#
# Mechanical properties :
#
#
# Convention : Reuss Voigt Hill
#
# Bulk Modulus (GPa) = 55.75564 82.05204 68.90384
# Shear Modulus (GPa) = 35.55813 43.12939 39.34376
#
# Velocity S-wave (km/s) = 3.81198 4.19824 4.00977
# Velocity P-wave (km/s) = 6.49307 7.55193 7.04243
#
# Compressibility (1/GPa) = 0.01793541
#
# Stress axis : x y z
#
# Youngs Moduli (GPa) = 65.30504 82.19626 109.91382
#
# Poissons Ratio (x) = 0.09215 0.57891
# Poissons Ratio (y) = 0.07322 0.32234
# Poissons Ratio (z) = 0.34396 0.24105
#
# Static dielectric constant tensor:
#      x y z
#    x 4.656370 -0.174730 0.227500 
#    y -0.174730 4.317950 0.038290 
#    z 0.227500 0.038290 5.393690 
# 
# 
# High freq. dielectric constant tensor:
#      x y z
#    x 1.993790 -0.017870 -0.008810 
#    y -0.017870 1.970970 0.016710 
#    z -0.008810 0.016710 2.015160 
# 
# From -- ./inp_files/237803.got.cif
#   From: 2010.06.25/outbox.cif.g09.slc.cpg/sg2_119_cif.got.tgz:237803.got - 2010.06.27 13:26:56.
