data_PCOD8018572
_publ_section_title
;
Structure prediction by ZEFSAII (Michael W. Deem and Ramdas Pophale) SiO2 
 PCOD8018572
Probable space group: P -1
;
_chemical_formula_sum "Si O2"
_cell_formula_units_Z 16
_cell_length_a 11.618675
_cell_length_b 13.902102
_cell_length_c 16.693737
_cell_angle_alpha 132.558210
_cell_angle_beta 158.182350
_cell_angle_gamma 49.988202
_cell_volume 737.051776
_symmetry_space_group_name_H-M "P -1"
_symmetry_group_IT_number 2
_symmetry_cell_setting 'triclinic'
loop_
_space_group_symop_operation_xyz
x,y,z
-x,-y,-z
loop_
_atom_site_type_symbol
_atom_site_label
_atom_site_fract_x
_atom_site_fract_y
_atom_site_fract_z
Si Si1 0.217201 0.909309 0.763968
Si Si2 0.203819 0.362517 0.887502
Si Si3 0.678415 0.258767 0.401781
Si Si4 0.614413 0.023831 0.348964
Si Si5 0.745429 0.762171 0.674590
Si Si6 0.763946 0.185985 0.106282
Si Si7 0.955386 0.650092 0.904632
Si Si8 0.130310 0.643891 0.178401
O O1 0.341757 0.774812 0.724436
O O2 0.108662 0.884738 0.770673
O O3 0.937718 0.971340 0.565288
O O4 0.500000 0.000000 0.000000
O O5 0.002847 0.323221 0.659683
O O6 0.167837 0.517998 0.959666
O O7 0.067546 0.292292 0.839496
O O8 0.555395 0.313771 0.071143
O O9 0.667114 0.124140 0.368129
O O10 0.408514 0.364275 0.316445
O O11 0.421269 0.095828 0.336616
O O12 0.427697 0.906054 0.126376
O O13 0.977193 0.729602 0.881141
O O14 0.493705 0.650255 0.440109
O O15 0.941393 0.764667 0.721961
O O16 0.082237 0.723499 0.107829
O O17 0.000000 0.500000 0.000000
#
# Coordination Sequence:
#
# PCOD8018572 Si02
#       8
#     2   2   2   2   2   2   2   2
#     4  12  24  38  67  98 132 170 217 272 326 373
#     4  11  21  42  68  96 128 166 222 273 314 384
#     4  11  20  38  68  97 128 164 218 271 320 380
#     4  11  23  42  64  95 132 172 218 262 325 396
#     4  11  26  44  65  95 137 172 214 267 328 395
#     4  12  26  43  63  98 135 175 215 267 326 388
#     4  10  23  40  68  93 127 170 212 266 330 375
#     4  10  22  40  67  97 122 165 222 267 312 383
#
# _framework density 21.708107999999999
#
# number of rings (size 3 to 8) (size 9 to 14) (size 15 to 20)
#    0.000    1.000    5.000    2.625    3.500    2.000 
#    0.000    2.500    0.000    0.000    0.000    0.000 
#    0.000    0.000    0.000    0.000    0.000    0.000 
#
# Total GULP energy -198291.765707 kJ/mol
# GULP energy per Si atom -12393.235357 kJ/mol
# Density = 2.165870 g / cm^3
# Si number density = 21.708108 Si / 1000 Ang^3
#
#
#
# Elastic Constant Matrix: (Units=GPa)
#
#
# Indices 1 2 3 4 5 6 
#
# 1 160.9680 27.9206 49.6454 -1.9242 3.0837 -7.3188
# 2 27.9206 74.0996 26.4204 -9.6944 4.8694 -17.7968
# 3 49.6454 26.4204 85.7533 -3.9978 -8.5088 -8.0041
# 4 -1.9242 -9.6944 -3.9978 27.7038 -6.2426 -3.9559
# 5 3.0837 4.8694 -8.5088 -6.2426 40.3424 -5.2457
# 6 -7.3188 -17.7968 -8.0041 -3.9559 -5.2457 31.3227
#
#
#
# Elastic Compliance Matrix: (Units=1/GPa)
#
#
# Indices 1 2 3 4 5 6 
#
# 1 0.007799 -0.001585 -0.004283 -0.001060 -0.001546 -0.000565
# 2 -0.001585 0.018838 -0.003633 0.007320 -0.000453 0.010253
# 3 -0.004283 -0.003633 0.016024 0.002111 0.004744 0.002091
# 4 -0.001060 0.007320 0.002111 0.042181 0.007607 0.011052
# 5 -0.001546 -0.000453 0.004744 0.007607 0.027949 0.006235
# 6 -0.000565 0.010253 0.002091 0.011052 0.006235 0.040594
#
#
# Mechanical properties :
#
#
# Convention : Reuss Voigt Hill
#
# Bulk Modulus (GPa) = 42.26415 58.75485 50.50950
# Shear Modulus (GPa) = 27.73575 34.32941 31.03258
#
# Velocity S-wave (km/s) = 3.57833 3.98101 3.78503
# Velocity P-wave (km/s) = 6.04848 6.94664 6.51306
#
# Compressibility (1/GPa) = 0.02366071
#
# Stress axis : x y z
#
# Youngs Moduli (GPa) = 128.21590 53.08483 62.40478
#
# Poissons Ratio (x) = 0.08412 0.26725
# Poissons Ratio (y) = 0.20317 0.22673
# Poissons Ratio (z) = 0.54910 0.19287
#
# Static dielectric constant tensor:
#      x y z
#    x 4.332650 -0.184800 -0.454730 
#    y -0.184800 3.855490 -0.207660 
#    z -0.454730 -0.207660 3.918240 
# 
# 
# High freq. dielectric constant tensor:
#      x y z
#    x 1.860820 -0.020830 -0.029490 
#    y -0.020830 1.835620 -0.016130 
#    z -0.029490 -0.016130 1.845240 
# 
# From -- ./inp_files/455523.got.cif
#   From: 2010.06.25/outbox.cif.g09.slc.cpg/sg2_228_cif.got.tgz:455523.got - 2010.06.27 13:26:56.
