data_PCOD8018181
_publ_section_title
;
Structure prediction by ZEFSAII (Michael W. Deem and Ramdas Pophale) SiO2 
 PCOD8018181
Probable space group: P -1
;
_chemical_formula_sum "Si O2"
_cell_formula_units_Z 14
_cell_length_a 8.026784
_cell_length_b 20.183000
_cell_length_c 7.342520
_cell_angle_alpha 66.395517
_cell_angle_beta 143.012206
_cell_angle_gamma 124.991857
_cell_volume 582.278041
_symmetry_space_group_name_H-M "P -1"
_symmetry_group_IT_number 2
_symmetry_cell_setting 'triclinic'
loop_
_space_group_symop_operation_xyz
x,y,z
-x,-y,-z
loop_
_atom_site_type_symbol
_atom_site_label
_atom_site_fract_x
_atom_site_fract_y
_atom_site_fract_z
Si Si1 0.960704 0.568133 0.200807
Si Si2 0.168177 0.076685 0.286539
Si Si3 0.261961 0.101267 0.922630
Si Si4 0.453721 0.601952 0.875512
Si Si5 0.579238 0.725206 0.140937
Si Si6 0.954524 0.689867 0.783882
Si Si7 0.716946 0.142485 0.958981
O O1 0.823362 0.469956 0.169357
O O2 0.314238 0.606879 0.548171
O O3 0.743753 0.582545 0.142079
O O4 0.926058 0.607449 0.939890
O O5 0.432691 0.132357 0.594845
O O6 0.310992 0.097290 0.186025
O O7 0.042265 0.980095 0.317452
O O8 0.875167 0.093238 0.055091
O O9 0.189175 0.178162 0.742555
O O10 0.566309 0.110601 0.063532
O O11 0.592518 0.689477 0.995724
O O12 0.649400 0.676004 0.417552
O O13 0.235799 0.717428 0.857846
O O14 0.036283 0.761358 0.925639
#
# Coordination Sequence:
#
# PCOD8018181 Si02
#       7
#     2   2   2   2   2   2   2
#     4  10  22  40  63  92 125 160 212 251 302 400
#     4  11  25  42  68  93 125 186 211 272 339 379
#     4  10  25  43  64  98 133 162 235 269 318 404
#     4  10  22  40  64  92 123 165 203 257 316 364
#     4  11  24  40  62  92 127 163 204 271 318 368
#     4  11  24  40  62  94 126 163 212 256 320 383
#     4  11  24  42  65  94 132 172 219 271 328 384
#
# _framework density 24.043496999999999
#
# number of rings (size 3 to 8) (size 9 to 14) (size 15 to 20)
#    0.000    1.429    0.000    4.286    4.000    9.143 
#    0.000    0.000    0.000    0.000    0.000    0.000 
#    0.000    0.000    0.000    0.000    0.000    0.000 
#
# Total GULP energy -173541.472682 kJ/mol
# GULP energy per Si atom -12395.819477 kJ/mol
# Density = 2.398877 g / cm^3
# Si number density = 24.043497 Si / 1000 Ang^3
#
#
#
# Elastic Constant Matrix: (Units=GPa)
#
#
# Indices 1 2 3 4 5 6 
#
# 1 101.7775 11.0129 8.9111 -2.0315 -4.9907 -2.9845
# 2 11.0129 51.6120 8.0676 -21.2337 -6.3881 -3.7625
# 3 8.9111 8.0676 85.6878 -6.6306 -4.2320 -7.8353
# 4 -2.0315 -21.2337 -6.6306 29.3027 -1.5604 -7.3595
# 5 -4.9907 -6.3881 -4.2320 -1.5604 20.7118 -6.1495
# 6 -2.9845 -3.7625 -7.8353 -7.3595 -6.1495 32.6602
#
#
#
# Elastic Compliance Matrix: (Units=1/GPa)
#
#
# Indices 1 2 3 4 5 6 
#
# 1 0.010212 -0.002067 -0.000767 -0.000691 0.001822 0.000698
# 2 -0.002067 0.035139 0.001379 0.030108 0.017105 0.014195
# 3 -0.000767 0.001379 0.012760 0.005416 0.004823 0.005279
# 4 -0.000691 0.030108 0.005416 0.064143 0.021975 0.023296
# 5 0.001822 0.017105 0.004823 0.021975 0.062584 0.020030
# 6 0.000698 0.014195 0.005279 0.023296 0.020030 0.042604
#
#
# Mechanical properties :
#
#
# Convention : Reuss Voigt Hill
#
# Bulk Modulus (GPa) = 18.11537 32.78449 25.44993
# Shear Modulus (GPa) = 20.10022 30.60733 25.35377
#
# Velocity S-wave (km/s) = 2.89449 3.57178 3.25082
# Velocity P-wave (km/s) = 4.32684 5.53852 4.96975
#
# Compressibility (1/GPa) = 0.05520176
#
# Stress axis : x y z
#
# Youngs Moduli (GPa) = 97.92219 28.45807 78.36880
#
# Poissons Ratio (x) = 0.05882 0.06011
# Poissons Ratio (y) = 0.20241 -0.10808
# Poissons Ratio (z) = 0.07511 -0.03925
#
# Static dielectric constant tensor:
#      x y z
#    x 4.182110 -0.022780 0.094500 
#    y -0.022780 4.646810 0.077090 
#    z 0.094500 0.077090 4.070870 
# 
# 
# High freq. dielectric constant tensor:
#      x y z
#    x 1.944500 -0.005550 0.006090 
#    y -0.005550 1.961080 0.000100 
#    z 0.006090 0.000100 1.945600 
# 
# From -- ./inp_files/223553.got.cif
#   From: 2010.06.25/outbox.cif.g09.slc.cpg/sg2_112_cif.got.tgz:223553.got - 2010.06.27 13:26:56.
