data_PCOD8018501
_publ_section_title
;
Structure prediction by ZEFSAII (Michael W. Deem and Ramdas Pophale) SiO2 
 PCOD8018501
Probable space group: P -1
;
_chemical_formula_sum "Si O2"
_cell_formula_units_Z 14
_cell_length_a 6.599122
_cell_length_b 5.402316
_cell_length_c 23.137613
_cell_angle_alpha 75.567953
_cell_angle_beta 80.964074
_cell_angle_gamma 47.352628
_cell_volume 587.495093
_symmetry_space_group_name_H-M "P -1"
_symmetry_group_IT_number 2
_symmetry_cell_setting 'triclinic'
loop_
_space_group_symop_operation_xyz
x,y,z
-x,-y,-z
loop_
_atom_site_type_symbol
_atom_site_label
_atom_site_fract_x
_atom_site_fract_y
_atom_site_fract_z
Si Si1 0.000660 0.092945 0.896324
Si Si2 0.497876 0.245106 0.738745
Si Si3 0.512276 0.327492 0.185301
Si Si4 0.017971 0.872816 0.660159
Si Si5 0.698968 0.965887 0.429832
Si Si6 0.673099 0.097263 0.001971
Si Si7 0.133201 0.196611 0.448526
O O1 0.764530 0.442375 0.853321
O O2 0.869440 0.966725 0.945008
O O3 0.225954 0.813640 0.856625
O O4 0.150863 0.137028 0.936280
O O5 0.475300 0.467097 0.778290
O O6 0.244396 0.476023 0.691788
O O7 0.478260 0.968425 0.774759
O O8 0.788687 0.078731 0.707352
O O9 0.862355 0.961669 0.601590
O O10 0.194466 0.984403 0.635904
O O11 0.792779 0.027586 0.483144
O O12 0.834746 0.572575 0.448289
O O13 0.369601 0.218643 0.428845
O O14 0.500000 0.500000 0.000000
O O15 0.500000 0.000000 0.000000
#
# Coordination Sequence:
#
# PCOD8018501 Si02
#       7
#     2   2   2   2   2   2   2
#     4  11  26  50  80 106 156 192 235 302 354 428
#     4  12  30  46  75 101 142 192 254 298 350 420
#     4  12  28  51  72 106 143 198 248 292 356 414
#     4  12  25  44  70  98 138 183 236 310 356 422
#     4  10  22  40  67 100 135 176 225 291 372 445
#     4  11  26  46  77 121 149 188 238 288 369 425
#     4  10  22  40  67 100 135 176 225 291 372 445
#
# _framework density 23.829989000000001
#
# number of rings (size 3 to 8) (size 9 to 14) (size 15 to 20)
#    0.000    0.857    1.429    3.857    8.000    4.571 
#    0.000    5.714    0.000    0.000    0.000    0.000 
#    0.000    0.000    0.000    0.000    0.000    0.000 
#
# Total GULP energy -173513.244534 kJ/mol
# GULP energy per Si atom -12393.803181 kJ/mol
# Density = 2.377575 g / cm^3
# Si number density = 23.829989 Si / 1000 Ang^3
#
#
#
# Elastic Constant Matrix: (Units=GPa)
#
#
# Indices 1 2 3 4 5 6 
#
# 1 116.6551 43.4800 45.4178 7.6547 9.6362 2.4275
# 2 43.4800 108.0331 39.2627 9.0740 -4.8523 -14.2785
# 3 45.4178 39.2627 105.5706 11.5833 -0.2291 -1.7006
# 4 7.6547 9.0740 11.5833 38.9392 -26.7935 -3.1677
# 5 9.6362 -4.8523 -0.2291 -26.7935 28.1389 1.7143
# 6 2.4275 -14.2785 -1.7006 -3.1677 1.7143 49.9213
#
#
#
# Elastic Compliance Matrix: (Units=1/GPa)
#
#
# Indices 1 2 3 4 5 6 
#
# 1 0.013833 -0.004514 -0.002847 -0.013695 -0.018438 -0.002297
# 2 -0.004514 0.012704 -0.003209 0.004591 0.007852 0.003766
# 3 -0.002847 -0.003209 0.012533 -0.006040 -0.005193 -0.000557
# 4 -0.013695 0.004591 -0.006040 0.095753 0.096330 0.004541
# 5 -0.018438 0.007852 -0.005193 0.096330 0.134617 0.004455
# 6 -0.002297 0.003766 -0.000557 0.004541 0.004455 0.021336
#
#
# Mechanical properties :
#
#
# Convention : Reuss Voigt Hill
#
# Bulk Modulus (GPa) = 55.77057 65.17555 60.47306
# Shear Modulus (GPa) = 15.72863 36.87308 26.30086
#
# Velocity S-wave (km/s) = 2.57190 3.93789 3.32578
# Velocity P-wave (km/s) = 5.68101 6.93438 6.33875
#
# Compressibility (1/GPa) = 0.01793060
#
# Stress axis : x y z
#
# Youngs Moduli (GPa) = 72.29339 78.71446 79.79093
#
# Poissons Ratio (x) = 0.35532 0.22713
# Poissons Ratio (y) = 0.32634 0.25603
# Poissons Ratio (z) = 0.20578 0.25258
#
# Static dielectric constant tensor:
#      x y z
#    x 4.353570 -0.477820 0.046780 
#    y -0.477820 4.820150 -0.015100 
#    z 0.046780 -0.015100 4.791240 
# 
# 
# High freq. dielectric constant tensor:
#      x y z
#    x 1.949890 -0.028490 0.000730 
#    y -0.028490 1.939580 0.005130 
#    z 0.000730 0.005130 1.968510 
# 
# From -- ./inp_files/125707.got.cif
#   From: 2010.06.25/outbox.cif.g09.slc.cpg/sg2_63_cif.got.tgz:125707.got - 2010.06.27 13:26:56.
