data_PCOD8018801
_publ_section_title
;
Structure prediction by ZEFSAII (Michael W. Deem and Ramdas Pophale) SiO2 
 PCOD8018801
Probable space group: P -1
;
_chemical_formula_sum "Si O2"
_cell_formula_units_Z 14
_cell_length_a 8.542712
_cell_length_b 13.759007
_cell_length_c 9.020539
_cell_angle_alpha 42.995364
_cell_angle_beta 48.791717
_cell_angle_gamma 67.943269
_cell_volume 532.145270
_symmetry_space_group_name_H-M "P -1"
_symmetry_group_IT_number 2
_symmetry_cell_setting 'triclinic'
loop_
_space_group_symop_operation_xyz
x,y,z
-x,-y,-z
loop_
_atom_site_type_symbol
_atom_site_label
_atom_site_fract_x
_atom_site_fract_y
_atom_site_fract_z
Si Si1 0.421799 0.892296 0.305644
Si Si2 0.675633 0.891761 0.664060
Si Si3 0.324936 0.489633 0.244428
Si Si4 0.794218 0.239133 0.897639
Si Si5 0.285631 0.401123 0.936405
Si Si6 0.856067 0.368405 0.395218
Si Si7 0.188087 0.156593 0.688916
O O1 0.271425 0.739300 0.530536
O O2 0.633918 0.873549 0.279292
O O3 0.275787 0.959326 0.439252
O O4 0.500000 0.000000 0.000000
O O5 0.723001 0.770594 0.886097
O O6 0.806806 0.892325 0.430238
O O7 0.429448 0.858436 0.804963
O O8 0.175599 0.612053 0.186721
O O9 0.178761 0.330401 0.509732
O O10 0.500000 0.500000 0.000000
O O11 0.471432 0.523170 0.261836
O O12 0.788424 0.287437 0.678342
O O13 0.945298 0.115054 0.953921
O O14 0.110898 0.410113 0.165161
O O15 0.223826 0.478815 0.739899
#
# Coordination Sequence:
#
# PCOD8018801 Si02
#       7
#     2   2   2   2   2   2   2
#     4  12  27  46  70 103 143 192 238 286 350 426
#     4  11  24  46  71 105 145 184 237 291 352 414
#     4  11  20  40  71 106 138 170 233 290 353 410
#     4  11  23  41  74 100 141 184 232 287 353 421
#     4  10  22  40  72 102 140 178 230 295 350 408
#     4  11  22  44  70 105 140 184 234 288 352 415
#     4  12  24  46  71 103 141 190 231 296 347 422
#
# _framework density 26.308605
#
# number of rings (size 3 to 8) (size 9 to 14) (size 15 to 20)
#    0.000    0.857    7.143    0.857    0.000    4.571 
#    0.000    2.857    0.000    0.000    0.000    0.000 
#    0.000    0.000    0.000    0.000    0.000    0.000 
#
# Total GULP energy -173449.102341 kJ/mol
# GULP energy per Si atom -12389.221596 kJ/mol
# Density = 2.624873 g / cm^3
# Si number density = 26.308605 Si / 1000 Ang^3
#
#
#
# Elastic Constant Matrix: (Units=GPa)
#
#
# Indices 1 2 3 4 5 6 
#
# 1 83.7557 43.8611 10.6905 -0.6116 5.1501 -19.1889
# 2 43.8611 170.0685 26.6734 23.1222 12.5339 -22.8630
# 3 10.6905 26.6734 70.5107 2.4486 -0.9332 2.6078
# 4 -0.6116 23.1222 2.4486 35.2030 -10.4192 -5.5319
# 5 5.1501 12.5339 -0.9332 -10.4192 32.3140 -0.9582
# 6 -19.1889 -22.8630 2.6078 -5.5319 -0.9582 41.8673
#
#
#
# Elastic Compliance Matrix: (Units=1/GPa)
#
#
# Indices 1 2 3 4 5 6 
#
# 1 0.015230 -0.003460 -0.001331 0.003576 0.000197 0.005651
# 2 -0.003460 0.008817 -0.002731 -0.006786 -0.005065 0.002387
# 3 -0.001331 -0.002731 0.015522 0.000790 0.001888 -0.002920
# 4 0.003576 -0.006786 0.000790 0.037604 0.014304 0.003180
# 5 0.000197 -0.005065 0.001888 0.014304 0.037545 -0.000044
# 6 0.005651 0.002387 -0.002920 0.003180 -0.000044 0.028379
#
#
# Mechanical properties :
#
#
# Convention : Reuss Voigt Hill
#
# Bulk Modulus (GPa) = 40.77170 54.08720 47.42945
# Shear Modulus (GPa) = 30.06315 38.08418 34.07367
#
# Velocity S-wave (km/s) = 3.38407 3.80885 3.60273
# Velocity P-wave (km/s) = 5.54981 6.32033 5.94756
#
# Compressibility (1/GPa) = 0.02452682
#
# Stress axis : x y z
#
# Youngs Moduli (GPa) = 65.65995 113.41341 64.42278
#
# Poissons Ratio (x) = 0.39244 0.08573
# Poissons Ratio (y) = 0.22720 0.17591
# Poissons Ratio (z) = 0.08737 0.30968
#
# Static dielectric constant tensor:
#      x y z
#    x 1.360110 -1.896230 3.157970 
#    y -1.896230 5.000200 1.286080 
#    z 3.157970 1.286080 1.555260 
# 
# 
# High freq. dielectric constant tensor:
#      x y z
#    x 2.042560 -0.026380 -0.010890 
#    y -0.026380 2.077790 -0.007560 
#    z -0.010890 -0.007560 2.062310 
# 
# From -- ./inp_files/199268.got.cif
#   From: 2010.06.25/outbox.cif.g09.slc.cpg/sg2_100_cif.got.tgz:199268.got - 2010.06.27 13:26:56.
