data_PCOD8018724
_publ_section_title
;
Structure prediction by ZEFSAII (Michael W. Deem and Ramdas Pophale) SiO2 
 PCOD8018724
Probable space group: P -1
;
_chemical_formula_sum "Si O2"
_cell_formula_units_Z 14
_cell_length_a 12.558818
_cell_length_b 11.901464
_cell_length_c 10.864438
_cell_angle_alpha 36.622911
_cell_angle_beta 132.869902
_cell_angle_gamma 106.806787
_cell_volume 574.510473
_symmetry_space_group_name_H-M "P -1"
_symmetry_group_IT_number 2
_symmetry_cell_setting 'triclinic'
loop_
_space_group_symop_operation_xyz
x,y,z
-x,-y,-z
loop_
_atom_site_type_symbol
_atom_site_label
_atom_site_fract_x
_atom_site_fract_y
_atom_site_fract_z
Si Si1 0.366826 0.156854 0.441875
Si Si2 0.372632 0.330345 0.550628
Si Si3 0.082380 0.066628 0.105402
Si Si4 0.009881 0.509352 0.229475
Si Si5 0.524084 0.259483 0.261530
Si Si6 0.711719 0.221510 0.028310
Si Si7 0.067982 0.837591 0.532414
O O1 0.439399 0.179224 0.609697
O O2 0.382954 0.294801 0.220356
O O3 0.469658 0.881257 0.731929
O O4 0.149492 0.295218 0.160831
O O5 0.204121 0.348232 0.459369
O O6 0.541042 0.209882 0.885785
O O7 0.310688 0.590178 0.249337
O O8 0.290115 0.919760 0.364291
O O9 0.055298 0.003210 0.274465
O O10 0.000000 0.000000 0.000000
O O11 0.985651 0.344196 0.783258
O O12 0.947184 0.357262 0.368626
O O13 0.500000 0.500000 0.000000
O O14 0.742910 0.277874 0.142150
O O15 0.895620 0.972350 0.366987
#
# Coordination Sequence:
#
# PCOD8018724 Si02
#       7
#     2   2   2   2   2   2   2
#     4  10  22  40  70 100 138 179 228 279 348 409
#     4  11  22  43  71 105 143 179 224 290 351 401
#     4  11  26  46  71  98 139 185 229 285 350 403
#     4  11  23  44  71 102 140 181 222 291 349 409
#     4  10  23  44  67  98 133 184 233 279 336 409
#     4  10  24  40  70 101 145 180 225 283 344 414
#     4  11  23  45  69 102 138 182 232 276 348 416
#
# _framework density 24.368572
#
# number of rings (size 3 to 8) (size 9 to 14) (size 15 to 20)
#    0.000    1.429    2.857    1.286    2.000    2.286 
#    2.571    0.000    0.000    0.000    0.000    0.000 
#    0.000    0.000    0.000    0.000    0.000    0.000 
#
# Total GULP energy -173471.332932 kJ/mol
# GULP energy per Si atom -12390.809495 kJ/mol
# Density = 2.431311 g / cm^3
# Si number density = 24.368572 Si / 1000 Ang^3
#
#
#
# Elastic Constant Matrix: (Units=GPa)
#
#
# Indices 1 2 3 4 5 6 
#
# 1 80.3977 42.3141 37.1392 7.1374 18.7701 16.9960
# 2 42.3141 199.5023 54.9875 8.8294 8.7504 15.8811
# 3 37.1392 54.9875 81.9613 4.6817 16.1598 1.1695
# 4 7.1374 8.8294 4.6817 49.4993 8.7900 -1.0116
# 5 18.7701 8.7504 16.1598 8.7900 31.9760 -6.6499
# 6 16.9960 15.8811 1.1695 -1.0116 -6.6499 25.9509
#
#
#
# Elastic Compliance Matrix: (Units=1/GPa)
#
#
# Indices 1 2 3 4 5 6 
#
# 1 0.022976 -0.000982 -0.006858 -0.000492 -0.013268 -0.017557
# 2 -0.000982 0.006579 -0.003944 -0.000782 0.000329 -0.003152
# 3 -0.006858 -0.003944 0.018500 0.000641 -0.003330 0.005243
# 4 -0.000492 -0.000782 0.000641 0.021360 -0.005661 0.000153
# 5 -0.013268 0.000329 -0.003330 -0.005661 0.046437 0.020318
# 6 -0.017557 -0.003152 0.005243 0.000153 0.020318 0.056938
#
#
# Mechanical properties :
#
#
# Convention : Reuss Voigt Hill
#
# Bulk Modulus (GPa) = 40.83777 70.08255 55.46016
# Shear Modulus (GPa) = 24.44775 36.64660 30.54718
#
# Velocity S-wave (km/s) = 3.17085 3.88215 3.54439
# Velocity P-wave (km/s) = 5.49549 6.99404 6.28956
#
# Compressibility (1/GPa) = 0.02448713
#
# Stress axis : x y z
#
# Youngs Moduli (GPa) = 43.52457 152.00307 54.05543
#
# Poissons Ratio (x) = 0.14921 0.37070
# Poissons Ratio (y) = 0.04272 0.21320
# Poissons Ratio (z) = 0.29848 0.59951
#
# Static dielectric constant tensor:
#      x y z
#    x 4.044530 0.275310 0.375420 
#    y 0.275310 5.061470 0.441080 
#    z 0.375420 0.441080 5.236430 
# 
# 
# High freq. dielectric constant tensor:
#      x y z
#    x 1.952690 0.021450 0.020630 
#    y 0.021450 1.988700 -0.018110 
#    z 0.020630 -0.018110 1.954360 
# 
# From -- ./inp_files/451008.got.cif
#   From: 2010.06.25/outbox.cif.g09.slc.cpg/sg2_226_cif.got.tgz:451008.got - 2010.06.27 13:26:56.
