data_PCOD8018227
_publ_section_title
;
Structure prediction by ZEFSAII (Michael W. Deem and Ramdas Pophale) SiO2 
 PCOD8018227
Probable space group: P -1
;
_chemical_formula_sum "Si O2"
_cell_formula_units_Z 14
_cell_length_a 9.076972
_cell_length_b 5.272811
_cell_length_c 19.282412
_cell_angle_alpha 86.404891
_cell_angle_beta 135.535718
_cell_angle_gamma 103.385127
_cell_volume 621.727193
_symmetry_space_group_name_H-M "P -1"
_symmetry_group_IT_number 2
_symmetry_cell_setting 'triclinic'
loop_
_space_group_symop_operation_xyz
x,y,z
-x,-y,-z
loop_
_atom_site_type_symbol
_atom_site_label
_atom_site_fract_x
_atom_site_fract_y
_atom_site_fract_z
Si Si1 0.317937 0.133760 0.413392
Si Si2 0.512017 0.628213 0.401557
Si Si3 0.055049 0.742479 0.107363
Si Si4 0.229854 0.601158 0.713365
Si Si5 0.820043 0.879418 0.385591
Si Si6 0.042472 0.701978 0.259111
Si Si7 0.267045 0.325698 0.123951
O O1 0.419948 0.312424 0.377928
O O2 0.299222 0.296907 0.475384
O O3 0.500000 0.000000 0.500000
O O4 0.070734 0.965385 0.312077
O O5 0.599785 0.729236 0.354246
O O6 0.300540 0.730099 0.343027
O O7 0.954331 0.712649 0.151695
O O8 0.199360 0.535759 0.148010
O O9 0.202291 0.038465 0.141580
O O10 0.848225 0.676503 0.988722
O O11 0.109699 0.351325 0.629014
O O12 0.476761 0.585388 0.806339
O O13 0.108202 0.552576 0.748213
O O14 0.224530 0.886078 0.679341
O O15 0.000000 0.000000 0.500000
#
# Coordination Sequence:
#
# PCOD8018227 Si02
#       7
#     2   2   2   2   2   2   2
#     4   9  21  36  61  89 122 164 227 264 315 376
#     4  10  22  40  64  84 127 176 220 266 313 393
#     4  10  23  42  74  94 129 168 221 265 325 400
#     4  12  27  42  65  97 139 166 218 274 326 385
#     4  12  28  44  66  94 133 180 220 268 322 380
#     4  11  24  38  64  95 128 171 212 270 325 386
#     4  10  22  46  67 101 126 169 216 270 326 393
#
# _framework density 22.517911000000002
#
# number of rings (size 3 to 8) (size 9 to 14) (size 15 to 20)
#    0.000    1.429    0.000    3.857   16.000    0.571 
#    0.000    0.000    0.000    6.857    0.000    0.000 
#    0.000    0.000    0.000    0.000    0.000    0.000 
#
# Total GULP energy -173473.855661 kJ/mol
# GULP energy per Si atom -12390.989690 kJ/mol
# Density = 2.246666 g / cm^3
# Si number density = 22.517911 Si / 1000 Ang^3
#
#
#
# Elastic Constant Matrix: (Units=GPa)
#
#
# Indices 1 2 3 4 5 6 
#
# 1 84.5532 33.3801 19.2723 -14.1687 -20.2986 29.1402
# 2 33.3801 149.4958 26.2545 -17.9164 -20.4521 13.2757
# 3 19.2723 26.2545 75.5483 -5.7041 -16.1272 14.5348
# 4 -14.1687 -17.9164 -5.7041 29.1021 3.1951 -7.8703
# 5 -20.2986 -20.4521 -16.1272 3.1951 30.2461 -8.0564
# 6 29.1402 13.2757 14.5348 -7.8703 -8.0564 42.8094
#
#
#
# Elastic Compliance Matrix: (Units=1/GPa)
#
#
# Indices 1 2 3 4 5 6 
#
# 1 0.018573 -0.001583 -0.000229 0.004498 0.008213 -0.009701
# 2 -0.001583 0.008180 -0.001511 0.003698 0.003371 0.000368
# 3 -0.000229 -0.001511 0.015873 0.000431 0.006311 -0.003498
# 4 0.004498 0.003698 0.000431 0.039556 0.002471 0.003383
# 5 0.008213 0.003371 0.006311 0.002471 0.043942 -0.000055
# 6 -0.009701 0.000368 -0.003498 0.003383 -0.000055 0.031648
#
#
# Mechanical properties :
#
#
# Convention : Reuss Voigt Hill
#
# Bulk Modulus (GPa) = 27.79274 51.93457 39.86366
# Shear Modulus (GPa) = 28.34312 35.81089 32.07700
#
# Velocity S-wave (km/s) = 3.55165 3.99222 3.77836
# Velocity P-wave (km/s) = 5.40262 6.66064 6.06434
#
# Compressibility (1/GPa) = 0.03598061
#
# Stress axis : x y z
#
# Youngs Moduli (GPa) = 53.84266 122.25612 63.00139
#
# Poissons Ratio (x) = 0.19349 0.01440
# Poissons Ratio (y) = 0.08522 0.09519
# Poissons Ratio (z) = 0.01231 0.18471
#
# Static dielectric constant tensor:
#      x y z
#    x 4.371200 -0.308140 -0.373930 
#    y -0.308140 4.658400 0.198410 
#    z -0.373930 0.198410 4.309600 
# 
# 
# High freq. dielectric constant tensor:
#      x y z
#    x 1.875480 0.003650 -0.012110 
#    y 0.003650 1.908030 0.003140 
#    z -0.012110 0.003140 1.883250 
# 
# From -- ./inp_files/552641.got.cif
#   From: 2010.06.25/outbox.cif.g09.slc.cpg/sg2_277_cif.got.tgz:552641.got - 2010.06.27 13:26:56.
