data_PCOD8018457
_publ_section_title
;
Structure prediction by ZEFSAII (Michael W. Deem and Ramdas Pophale) SiO2 
 PCOD8018457
Probable space group: P -1
;
_chemical_formula_sum "Si O2"
_cell_formula_units_Z 14
_cell_length_a 10.011091
_cell_length_b 11.074476
_cell_length_c 8.867640
_cell_angle_alpha 77.521851
_cell_angle_beta 123.334943
_cell_angle_gamma 129.610978
_cell_volume 618.856666
_symmetry_space_group_name_H-M "P -1"
_symmetry_group_IT_number 2
_symmetry_cell_setting 'triclinic'
loop_
_space_group_symop_operation_xyz
x,y,z
-x,-y,-z
loop_
_atom_site_type_symbol
_atom_site_label
_atom_site_fract_x
_atom_site_fract_y
_atom_site_fract_z
Si Si1 0.480561 0.461893 0.749587
Si Si2 0.909555 0.358660 0.861051
Si Si3 0.734631 0.475848 0.174200
Si Si4 0.464474 0.086446 0.578221
Si Si5 0.599600 0.151862 0.169013
Si Si6 0.839958 0.127591 0.099614
Si Si7 0.271480 0.240809 0.396695
O O1 0.609583 0.442058 0.951196
O O2 0.372798 0.322208 0.598080
O O3 0.631049 0.632932 0.713501
O O4 0.300795 0.442403 0.738554
O O5 0.669598 0.266986 0.698017
O O6 0.924832 0.225790 0.969074
O O7 0.000000 0.500000 0.000000
O O8 0.026888 0.416001 0.757342
O O9 0.665708 0.310560 0.248914
O O10 0.299248 0.108121 0.417118
O O11 0.500000 0.000000 0.500000
O O12 0.377781 0.965963 0.696801
O O13 0.761834 0.211997 0.117348
O O14 0.360908 0.058039 0.996566
O O15 0.025767 0.143450 0.286646
#
# Coordination Sequence:
#
# PCOD8018457 Si02
#       7
#     2   2   2   2   2   2   2
#     4  10  24  38  66 104 129 170 218 291 322 387
#     4  11  21  41  72  96 126 184 224 265 329 412
#     4  11  21  43  68  97 133 169 232 272 324 396
#     4  11  26  45  65  97 138 173 218 282 338 396
#     4  10  23  42  65  96 131 172 224 268 327 400
#     4  10  22  40  66  95 127 177 220 264 335 400
#     4  11  23  44  66  95 137 172 221 270 347 391
#
# _framework density 22.622361999999999
#
# number of rings (size 3 to 8) (size 9 to 14) (size 15 to 20)
#    0.000    1.429    2.857    1.714    6.000    1.714 
#    5.143    4.286    0.000    0.000    0.000    0.000 
#    0.000    0.000    0.000    0.000    0.000    0.000 
#
# Total GULP energy -173543.744771 kJ/mol
# GULP energy per Si atom -12395.981769 kJ/mol
# Density = 2.257087 g / cm^3
# Si number density = 22.622362 Si / 1000 Ang^3
#
#
#
# Elastic Constant Matrix: (Units=GPa)
#
#
# Indices 1 2 3 4 5 6 
#
# 1 122.5052 56.8652 33.7704 3.9316 7.6037 1.3300
# 2 56.8652 103.2658 22.8391 -2.2247 11.5783 -3.4369
# 3 33.7704 22.8391 61.9434 -1.4305 10.9821 -0.3296
# 4 3.9316 -2.2247 -1.4305 19.8544 -4.1025 -1.9762
# 5 7.6037 11.5783 10.9821 -4.1025 42.2664 -3.0629
# 6 1.3300 -3.4369 -0.3296 -1.9762 -3.0629 35.0326
#
#
#
# Elastic Compliance Matrix: (Units=1/GPa)
#
#
# Indices 1 2 3 4 5 6 
#
# 1 0.012289 -0.005876 -0.004652 -0.003517 0.000174 -0.001270
# 2 -0.005876 0.013545 -0.001382 0.002326 -0.001960 0.001499
# 3 -0.004652 -0.001382 0.019899 0.001408 -0.003820 -0.000026
# 4 -0.003517 0.002326 0.001408 0.052843 0.005034 0.003796
# 5 0.000174 -0.001960 -0.003820 0.005034 0.025813 0.002306
# 6 -0.001270 0.001499 -0.000026 0.003796 0.002306 0.029156
#
#
# Mechanical properties :
#
#
# Convention : Reuss Voigt Hill
#
# Bulk Modulus (GPa) = 45.63318 57.18488 51.40903
# Shear Modulus (GPa) = 27.07572 31.04665 29.06119
#
# Velocity S-wave (km/s) = 3.46331 3.70859 3.58805
# Velocity P-wave (km/s) = 6.01733 6.60841 6.31979
#
# Compressibility (1/GPa) = 0.02191388
#
# Stress axis : x y z
#
# Youngs Moduli (GPa) = 81.37661 73.83036 50.25374
#
# Poissons Ratio (x) = 0.43380 0.23378
# Poissons Ratio (y) = 0.47814 0.06943
# Poissons Ratio (z) = 0.37856 0.10200
#
# Static dielectric constant tensor:
#      x y z
#    x 4.130900 0.257360 -0.047900 
#    y 0.257360 4.237880 -0.278000 
#    z -0.047900 -0.278000 4.067070 
# 
# 
# High freq. dielectric constant tensor:
#      x y z
#    x 1.898500 0.008940 -0.001180 
#    y 0.008940 1.894510 -0.010080 
#    z -0.001180 -0.010080 1.875820 
# 
# From -- ./inp_files/180624.got.cif
#   From: 2010.06.25/outbox.cif.g09.slc.cpg/sg2_91_cif.got.tgz:180624.got - 2010.06.27 13:26:56.
