data_PCOD8018610
_publ_section_title
;
Structure prediction by ZEFSAII (Michael W. Deem and Ramdas Pophale) SiO2 
 PCOD8018610
Probable space group: P -1
;
_chemical_formula_sum "Si O2"
_cell_formula_units_Z 14
_cell_length_a 16.218856
_cell_length_b 28.096942
_cell_length_c 17.010948
_cell_angle_alpha 18.265616
_cell_angle_beta 163.142066
_cell_angle_gamma 161.793173
_cell_volume 628.326065
_symmetry_space_group_name_H-M "P -1"
_symmetry_group_IT_number 2
_symmetry_cell_setting 'triclinic'
loop_
_space_group_symop_operation_xyz
x,y,z
-x,-y,-z
loop_
_atom_site_type_symbol
_atom_site_label
_atom_site_fract_x
_atom_site_fract_y
_atom_site_fract_z
Si Si1 0.755059 0.093106 0.518775
Si Si2 0.179459 0.153598 0.481706
Si Si3 0.724066 0.012067 0.885003
Si Si4 0.400561 0.566690 0.688611
Si Si5 0.388598 0.805689 0.046686
Si Si6 0.829143 0.525753 0.727158
Si Si7 0.306273 0.646502 0.644934
O O1 0.988066 0.291565 0.436462
O O2 0.500000 0.000000 0.500000
O O3 0.572747 0.104046 0.257699
O O4 0.950899 0.983682 0.857694
O O5 0.345542 0.324228 0.315175
O O6 0.454342 0.147739 0.796335
O O7 0.000000 0.000000 0.500000
O O8 0.914017 0.157159 0.291491
O O9 0.732853 0.195756 0.604214
O O10 0.663147 0.929525 0.044657
O O11 0.448870 0.677861 0.637555
O O12 0.041946 0.514025 0.416309
O O13 0.452301 0.398378 0.013431
O O14 0.246865 0.609254 0.200665
O O15 0.500000 0.500000 0.500000
O O16 0.000000 0.500000 0.000000
#
# Coordination Sequence:
#
# PCOD8018610 Si02
#       7
#     2   2   2   2   2   2   2
#     4  12  26  44  70 104 141 176 229 304 359 404
#     4  12  26  43  66 102 142 171 231 293 335 404
#     4  12  24  44  69 100 135 178 239 277 351 430
#     4  10  22  42  62  96 134 178 221 281 347 400
#     4  12  25  42  73  99 131 193 229 275 352 422
#     4  12  23  47  71  98 138 181 232 291 339 425
#     4  10  22  40  68  91 131 181 224 273 345 422
#
# _framework density 22.281424999999999
#
# number of rings (size 3 to 8) (size 9 to 14) (size 15 to 20)
#    0.000    0.571    2.857    5.143    0.000    6.857 
#    0.000    0.000    0.000    0.000    0.000    0.000 
#    0.000    0.000    0.000    0.000    0.000    0.000 
#
# Total GULP energy -173601.189880 kJ/mol
# GULP energy per Si atom -12400.084991 kJ/mol
# Density = 2.223071 g / cm^3
# Si number density = 22.281425 Si / 1000 Ang^3
#
#
#
# Elastic Constant Matrix: (Units=GPa)
#
#
# Indices 1 2 3 4 5 6 
#
# 1 92.8186 49.3898 34.8873 -6.3911 16.2816 4.7660
# 2 49.3898 95.6029 27.8122 -5.0008 -3.7751 9.0005
# 3 34.8873 27.8122 104.0889 12.6827 13.9430 4.2793
# 4 -6.3911 -5.0008 12.6827 43.2658 -1.8974 -2.2762
# 5 16.2816 -3.7751 13.9430 -1.8974 44.6391 10.4025
# 6 4.7660 9.0005 4.2793 -2.2762 10.4025 39.8148
#
#
#
# Elastic Compliance Matrix: (Units=1/GPa)
#
#
# Indices 1 2 3 4 5 6 
#
# 1 0.017728 -0.008569 -0.003142 0.002366 -0.006576 0.002006
# 2 -0.008569 0.016242 -0.002300 0.001350 0.006193 -0.003940
# 3 -0.003142 -0.002300 0.012224 -0.004441 -0.003087 0.000135
# 4 0.002366 0.001350 -0.004441 0.025035 0.001485 0.000932
# 5 -0.006576 0.006193 -0.003087 0.001485 0.028109 -0.007540
# 6 0.002006 -0.003940 0.000135 0.000932 -0.007540 0.027776
#
#
# Mechanical properties :
#
#
# Convention : Reuss Voigt Hill
#
# Bulk Modulus (GPa) = 55.03050 57.40986 56.22018
# Shear Modulus (GPa) = 31.01891 37.57201 34.29546
#
# Velocity S-wave (km/s) = 3.73519 4.11085 3.92751
# Velocity P-wave (km/s) = 6.58436 6.95369 6.77154
#
# Compressibility (1/GPa) = 0.01817174
#
# Stress axis : x y z
#
# Youngs Moduli (GPa) = 56.40802 61.56887 81.80692
#
# Poissons Ratio (x) = 0.52760 0.25705
# Poissons Ratio (y) = 0.48337 0.18813
# Poissons Ratio (z) = 0.17724 0.14159
#
# Static dielectric constant tensor:
#      x y z
#    x 3.872730 0.006330 0.064270 
#    y 0.006330 4.160560 0.215790 
#    z 0.064270 0.215790 3.978190 
# 
# 
# High freq. dielectric constant tensor:
#      x y z
#    x 1.877610 0.003140 0.009760 
#    y 0.003140 1.884380 0.010570 
#    z 0.009760 0.010570 1.889280 
# 
# From -- ./inp_files/535718.got.cif
#   From: 2010.06.25/outbox.cif.g09.slc.cpg/sg2_268_cif.got.tgz:535718.got - 2010.06.27 13:26:56.
