data_PCOD8018863
_publ_section_title
;
Structure prediction by ZEFSAII (Michael W. Deem and Ramdas Pophale) SiO2 
 PCOD8018863
Probable space group: P -1
;
_chemical_formula_sum "Si O2"
_cell_formula_units_Z 14
_cell_length_a 18.932997
_cell_length_b 12.635319
_cell_length_c 16.517189
_cell_angle_alpha 157.663768
_cell_angle_beta 159.593810
_cell_angle_gamma 28.068320
_cell_volume 520.011722
_symmetry_space_group_name_H-M "P -1"
_symmetry_group_IT_number 2
_symmetry_cell_setting 'triclinic'
loop_
_space_group_symop_operation_xyz
x,y,z
-x,-y,-z
loop_
_atom_site_type_symbol
_atom_site_label
_atom_site_fract_x
_atom_site_fract_y
_atom_site_fract_z
Si Si1 0.402688 0.600777 0.550195
Si Si2 0.294610 0.184580 0.498979
Si Si3 0.586528 0.610124 0.075670
Si Si4 0.203248 0.069381 0.999785
Si Si5 0.881060 0.667136 0.747667
Si Si6 0.567923 0.450548 0.779341
Si Si7 0.076289 0.087369 0.556470
O O1 0.500000 0.500000 0.500000
O O2 0.240531 0.389014 0.248402
O O3 0.578222 0.592343 0.802184
O O4 0.295985 0.919051 0.654894
O O5 0.503044 0.302804 0.774859
O O6 0.122174 0.222709 0.270939
O O7 0.322801 0.862842 0.326982
O O8 0.239721 0.360889 0.648723
O O9 0.668715 0.627553 0.084100
O O10 0.410711 0.863987 0.084794
O O11 0.095077 0.089139 0.987275
O O12 0.070768 0.971504 0.716492
O O13 0.672667 0.531078 0.443657
O O14 0.077207 0.427179 0.796918
O O15 0.000000 0.000000 0.500000
#
# Coordination Sequence:
#
# PCOD8018863 Si02
#       7
#     2   2   2   2   2   2   2
#     4  11  24  40  57  82 119 157 193 232 282 342
#     4  10  18  28  50  86 119 140 176 242 288 336
#     4  10  17  27  52  86 115 138 181 238 294 323
#     4  11  20  35  59  85 114 150 193 235 285 329
#     4  10  19  30  54  85 115 139 186 237 291 321
#     4  10  18  33  51  78 118 146 182 235 283 330
#     4  12  21  39  59  82 117 149 194 242 281 333
#
# _framework density 26.922470000000001
#
# number of rings (size 3 to 8) (size 9 to 14) (size 15 to 20)
#    0.000    1.429    8.571    2.143    2.000    0.000 
#    0.000    2.857    0.000    0.857    0.000    2.000 
#    0.000    0.000    0.000    0.000    0.000    0.000 
#
# Total GULP energy -173471.872002 kJ/mol
# GULP energy per Si atom -12390.848000 kJ/mol
# Density = 2.686119 g / cm^3
# Si number density = 26.922470 Si / 1000 Ang^3
#
#
#
# Elastic Constant Matrix: (Units=GPa)
#
#
# Indices 1 2 3 4 5 6 
#
# 1 144.1125 57.1542 52.8837 -12.9139 -82.5735 12.9170
# 2 57.1542 149.2439 19.1535 10.2539 -19.2750 7.8699
# 3 52.8837 19.1535 82.5328 4.0966 -50.7527 13.7016
# 4 -12.9139 10.2539 4.0966 40.1111 9.8216 -8.2377
# 5 -82.5735 -19.2750 -50.7527 9.8216 70.3856 -6.4318
# 6 12.9170 7.8699 13.7016 -8.2377 -6.4318 42.9847
#
#
#
# Elastic Compliance Matrix: (Units=1/GPa)
#
#
# Indices 1 2 3 4 5 6 
#
# 1 0.027174 -0.006660 0.005104 0.001087 0.033275 -0.003386
# 2 -0.006660 0.008887 -0.001102 -0.003028 -0.005818 -0.000725
# 3 0.005104 -0.001102 0.026175 -0.008430 0.025046 -0.007543
# 4 0.001087 -0.003028 -0.008430 0.030701 -0.009239 0.007416
# 5 0.033275 -0.005818 0.025046 -0.009239 0.070253 -0.008176
# 6 -0.003386 -0.000725 -0.007543 0.007416 -0.008176 0.027017
#
#
# Mechanical properties :
#
#
# Convention : Reuss Voigt Hill
#
# Bulk Modulus (GPa) = 17.56874 70.47469 44.02172
# Shear Modulus (GPa) = 23.31029 47.14278 35.22653
#
# Velocity S-wave (km/s) = 2.94569 4.18910 3.62117
# Velocity P-wave (km/s) = 4.25550 7.04499 5.81984
#
# Compressibility (1/GPa) = 0.05691927
#
# Stress axis : x y z
#
# Youngs Moduli (GPa) = 36.79939 112.51950 38.20491
#
# Poissons Ratio (x) = 0.74941 -0.19498
# Poissons Ratio (y) = 0.24509 0.04210
# Poissons Ratio (z) = -0.18781 0.12399
#
# Static dielectric constant tensor:
#      x y z
#    x 6.117700 0.521800 -0.772340 
#    y 0.521800 5.195790 -0.104900 
#    z -0.772340 -0.104900 5.085360 
# 
# 
# High freq. dielectric constant tensor:
#      x y z
#    x 2.088890 0.020310 -0.048050 
#    y 0.020310 2.085310 0.005130 
#    z -0.048050 0.005130 2.077250 
# 
# From -- ./inp_files/538365.got.cif
#   From: 2010.06.25/outbox.cif.g09.slc.cpg/sg2_270_cif.got.tgz:538365.got - 2010.06.27 13:26:56.
