data_PCOD8018907
_publ_section_title
;
Structure prediction by ZEFSAII (Michael W. Deem and Ramdas Pophale) SiO2 
 PCOD8018907
Probable space group: P -1
;
_chemical_formula_sum "Si O2"
_cell_formula_units_Z 14
_cell_length_a 9.460464
_cell_length_b 9.096412
_cell_length_c 12.687699
_cell_angle_alpha 69.610928
_cell_angle_beta 125.093954
_cell_angle_gamma 130.683126
_cell_volume 676.851861
_symmetry_space_group_name_H-M "P -1"
_symmetry_group_IT_number 2
_symmetry_cell_setting 'triclinic'
loop_
_space_group_symop_operation_xyz
x,y,z
-x,-y,-z
loop_
_atom_site_type_symbol
_atom_site_label
_atom_site_fract_x
_atom_site_fract_y
_atom_site_fract_z
Si Si1 0.103668 0.531871 0.782722
Si Si2 0.991086 0.658756 0.515235
Si Si3 0.349376 0.689696 0.267289
Si Si4 0.430330 0.788508 0.041768
Si Si5 0.390492 0.427197 0.859905
Si Si6 0.634401 0.949195 0.503382
Si Si7 0.493496 0.432748 0.347438
O O1 0.104937 0.686232 0.669905
O O2 0.172480 0.410973 0.777024
O O3 0.865651 0.368232 0.756118
O O4 0.250982 0.642227 0.918503
O O5 0.000000 0.500000 0.500000
O O6 0.746005 0.578950 0.446011
O O7 0.122347 0.862027 0.457065
O O8 0.333612 0.734879 0.129497
O O9 0.538186 0.877636 0.363314
O O10 0.379196 0.518626 0.332108
O O11 0.630160 0.771361 0.123688
O O12 0.500000 0.000000 0.000000
O O13 0.534153 0.577329 0.789196
O O14 0.500000 0.500000 0.000000
O O15 0.627001 0.783082 0.605909
O O16 0.500000 0.000000 0.500000
#
# Coordination Sequence:
#
# PCOD8018907 Si02
#       7
#     2   2   2   2   2   2   2
#     4  11  20  40  65  88 124 173 208 256 319 368
#     4  12  22  39  66  95 130 170 208 264 315 375
#     4  11  24  42  63  92 132 163 213 271 312 373
#     4  10  22  41  62  92 125 165 213 261 318 373
#     4   9  20  39  67  85 122 170 206 258 312 373
#     4  12  23  39  64  95 125 171 213 254 318 382
#     4  11  23  43  62  95 133 163 212 263 317 371
#
# _framework density 20.683993999999998
#
# number of rings (size 3 to 8) (size 9 to 14) (size 15 to 20)
#    0.000    1.143    4.286    1.714    0.000    1.714 
#    5.143    0.714    0.000    0.000    0.000    0.000 
#    0.000    0.000    0.000    0.000    0.000    0.000 
#
# Total GULP energy -173526.985422 kJ/mol
# GULP energy per Si atom -12394.784673 kJ/mol
# Density = 2.063692 g / cm^3
# Si number density = 20.683994 Si / 1000 Ang^3
#
#
#
# Elastic Constant Matrix: (Units=GPa)
#
#
# Indices 1 2 3 4 5 6 
#
# 1 112.5287 48.5330 20.1207 -18.3742 1.5811 1.9099
# 2 48.5330 141.7432 41.5672 -27.8643 2.0398 4.2523
# 3 20.1207 41.5672 113.8018 -16.4715 -12.0553 0.5331
# 4 -18.3742 -27.8643 -16.4715 34.0032 -6.0090 -1.4092
# 5 1.5811 2.0398 -12.0553 -6.0090 34.1799 2.5998
# 6 1.9099 4.2523 0.5331 -1.4092 2.5998 27.3542
#
#
#
# Elastic Compliance Matrix: (Units=1/GPa)
#
#
# Indices 1 2 3 4 5 6 
#
# 1 0.010746 -0.002938 -0.000340 0.003254 0.000140 -0.000133
# 2 -0.002938 0.009806 -0.002330 0.005229 -0.000277 -0.000978
# 3 -0.000340 -0.002330 0.010761 0.003938 0.004647 -0.000063
# 4 0.003254 0.005229 0.003938 0.038731 0.007725 0.000144
# 5 0.000140 -0.000277 0.004647 0.007725 0.032473 -0.002746
# 6 -0.000133 -0.000978 -0.000063 0.000144 -0.002746 0.036988
#
#
# Mechanical properties :
#
#
# Convention : Reuss Voigt Hill
#
# Bulk Modulus (GPa) = 49.76149 65.39061 57.57605
# Shear Modulus (GPa) = 31.76190 36.29765 34.02978
#
# Velocity S-wave (km/s) = 3.92290 4.19366 4.06053
# Velocity P-wave (km/s) = 6.68050 7.42508 7.06261
#
# Compressibility (1/GPa) = 0.02009586
#
# Stress axis : x y z
#
# Youngs Moduli (GPa) = 93.05590 101.98172 92.92762
#
# Poissons Ratio (x) = 0.29964 0.03163
# Poissons Ratio (y) = 0.27341 0.21652
# Poissons Ratio (z) = 0.03168 0.23762
#
# Static dielectric constant tensor:
#      x y z
#    x 4.158380 -0.246280 0.058410 
#    y -0.246280 3.667470 -0.192470 
#    z 0.058410 -0.192470 3.835880 
# 
# 
# High freq. dielectric constant tensor:
#      x y z
#    x 1.824660 -0.014880 -0.012290 
#    y -0.014880 1.780870 -0.012540 
#    z -0.012290 -0.012540 1.833720 
# 
# From -- ./inp_files/177193.got.cif
#   From: 2010.06.25/outbox.cif.g09.slc.cpg/sg2_89_cif.got.tgz:177193.got - 2010.06.27 13:26:56.
