data_PCOD8018077
_publ_section_title
;
Structure prediction by ZEFSAII (Michael W. Deem and Ramdas Pophale) SiO2 
 PCOD8018077
Probable space group: P -1
;
_chemical_formula_sum "Si O2"
_cell_formula_units_Z 16
_cell_length_a 20.380954
_cell_length_b 21.213687
_cell_length_c 10.971515
_cell_angle_alpha 37.043475
_cell_angle_beta 148.383074
_cell_angle_gamma 160.310400
_cell_volume 837.678484
_symmetry_space_group_name_H-M "P -1"
_symmetry_group_IT_number 2
_symmetry_cell_setting 'triclinic'
loop_
_space_group_symop_operation_xyz
x,y,z
-x,-y,-z
loop_
_atom_site_type_symbol
_atom_site_label
_atom_site_fract_x
_atom_site_fract_y
_atom_site_fract_z
Si Si1 0.187759 0.987746 0.098880
Si Si2 0.011746 0.340617 0.826056
Si Si3 0.324537 0.711090 0.608995
Si Si4 0.932385 0.677965 0.784115
Si Si5 0.501968 0.257056 0.673133
Si Si6 0.971883 0.018313 0.564202
Si Si7 0.454257 0.148831 0.488116
Si Si8 0.569484 0.016074 0.953339
O O1 0.009246 0.773561 0.119529
O O2 0.419513 0.108610 0.215687
O O3 0.226260 0.027982 0.244573
O O4 0.117401 0.049610 0.837145
O O5 0.200923 0.544986 0.756223
O O6 0.783622 0.248714 0.618870
O O7 0.094013 0.351865 0.067270
O O8 0.333856 0.675581 0.536670
O O9 0.934265 0.799529 0.557770
O O10 0.725828 0.478732 0.698462
O O11 0.163272 0.785668 0.940766
O O12 0.474484 0.210897 0.557674
O O13 0.286552 0.171649 0.509761
O O14 0.514115 0.161096 0.925601
O O15 0.000000 0.000000 0.500000
O O16 0.446852 0.015798 0.674761
O O17 0.500000 0.000000 0.000000
#
# Coordination Sequence:
#
# PCOD8018077 Si02
#       8
#     2   2   2   2   2   2   2   2
#     4  10  22  40  62  79 122 156 198 246 288 344
#     4  11  20  37  60  93 116 154 193 237 303 350
#     4   9  22  36  59  92 121 150 192 240 299 354
#     4  11  22  38  63  87 122 152 195 251 292 347
#     4  10  24  39  61  90 120 155 199 244 294 351
#     4  11  24  42  61  88 114 157 206 245 295 349
#     4   9  20  42  58  86 123 154 194 240 295 354
#     4   9  19  39  60  91 121 156 193 231 299 359
#
# _framework density 19.100407000000001
#
# number of rings (size 3 to 8) (size 9 to 14) (size 15 to 20)
#    0.750    1.250    2.500    0.375    1.750    6.000 
#    6.750    0.625    0.000    0.000    0.000    0.000 
#    0.000    0.000    0.000    0.000    0.000    0.000 
#
# Total GULP energy -198227.548604 kJ/mol
# GULP energy per Si atom -12389.221788 kJ/mol
# Density = 1.905693 g / cm^3
# Si number density = 19.100407 Si / 1000 Ang^3
#
#
#
# Elastic Constant Matrix: (Units=GPa)
#
#
# Indices 1 2 3 4 5 6 
#
# 1 83.0046 29.0794 28.1205 3.1124 -5.2266 3.4011
# 2 29.0794 91.9927 38.6240 -0.4464 -8.1791 -9.8370
# 3 28.1205 38.6240 132.9235 -14.1101 -12.1984 -9.3362
# 4 3.1124 -0.4464 -14.1101 20.8185 -0.0046 -1.8810
# 5 -5.2266 -8.1791 -12.1984 -0.0046 26.1086 2.9178
# 6 3.4011 -9.8370 -9.3362 -1.8810 2.9178 28.2360
#
#
#
# Elastic Compliance Matrix: (Units=1/GPa)
#
#
# Indices 1 2 3 4 5 6 
#
# 1 0.014748 -0.003950 -0.002674 -0.004502 0.000961 -0.004436
# 2 -0.003950 0.013902 -0.002816 -0.000644 0.001783 0.004161
# 3 -0.002674 -0.002816 0.010184 0.007504 0.003018 0.002896
# 4 -0.004502 -0.000644 0.007504 0.054344 0.001715 0.006242
# 5 0.000961 0.001783 0.003018 0.001715 0.040753 -0.002593
# 6 -0.004436 0.004161 0.002896 0.006242 -0.002593 0.039041
#
#
# Mechanical properties :
#
#
# Convention : Reuss Voigt Hill
#
# Bulk Modulus (GPa) = 50.11507 55.50763 52.81135
# Shear Modulus (GPa) = 25.18846 29.17240 27.18043
#
# Velocity S-wave (km/s) = 3.63539 3.91233 3.77640
# Velocity P-wave (km/s) = 6.62692 7.03793 6.83552
#
# Compressibility (1/GPa) = 0.01995408
#
# Stress axis : x y z
#
# Youngs Moduli (GPa) = 67.80467 71.93250 98.19286
#
# Poissons Ratio (x) = 0.28415 0.26252
# Poissons Ratio (y) = 0.26785 0.27654
# Poissons Ratio (z) = 0.18128 0.20258
#
# Static dielectric constant tensor:
#      x y z
#    x 3.407420 0.184860 0.037930 
#    y 0.184860 3.555920 -0.428130 
#    z 0.037930 -0.428130 3.916500 
# 
# 
# High freq. dielectric constant tensor:
#      x y z
#    x 1.738960 0.014240 -0.003260 
#    y 0.014240 1.730580 -0.015410 
#    z -0.003260 -0.015410 1.749400 
# 
# From -- ./inp_files/472748.got.cif
#   From: 2010.06.25/outbox.cif.g09.slc.cpg/sg2_237_cif.got.tgz:472748.got - 2010.06.27 13:26:56.
