data_PCOD8018109
_publ_section_title
;
Structure prediction by ZEFSAII (Michael W. Deem and Ramdas Pophale) SiO2 
 PCOD8018109
Probable space group: P -1
;
_chemical_formula_sum "Si O2"
_cell_formula_units_Z 16
_cell_length_a 22.245281
_cell_length_b 6.693392
_cell_length_c 7.391303
_cell_angle_alpha 93.918215
_cell_angle_beta 55.209807
_cell_angle_gamma 61.661808
_cell_volume 702.490823
_symmetry_space_group_name_H-M "P -1"
_symmetry_group_IT_number 2
_symmetry_cell_setting 'triclinic'
loop_
_space_group_symop_operation_xyz
x,y,z
-x,-y,-z
loop_
_atom_site_type_symbol
_atom_site_label
_atom_site_fract_x
_atom_site_fract_y
_atom_site_fract_z
Si Si1 0.367595 0.742540 0.875040
Si Si2 0.057551 0.995856 0.672177
Si Si3 0.296130 0.436944 0.555210
Si Si4 0.747499 0.738580 0.071938
Si Si5 0.889032 0.042359 0.023838
Si Si6 0.524130 0.765745 0.569523
Si Si7 0.944282 0.531722 0.770807
Si Si8 0.261179 0.581155 0.213737
O O1 0.432723 0.821157 0.827442
O O2 0.432097 0.474679 0.648287
O O3 0.315727 0.702015 0.118770
O O4 0.286947 0.980581 0.904493
O O5 0.091081 0.896499 0.811121
O O6 0.017988 0.288938 0.754190
O O7 0.150532 0.811047 0.378692
O O8 0.972917 0.992272 0.751776
O O9 0.403300 0.317881 0.398158
O O10 0.279412 0.452737 0.371229
O O11 0.219329 0.708540 0.812845
O O12 0.284678 0.242177 0.663229
O O13 0.859715 0.534731 0.851917
O O14 0.704212 0.637439 0.010161
O O15 0.898208 0.789108 0.981467
O O16 0.500000 0.000000 0.500000
O O17 0.000000 0.500000 0.500000
#
# Coordination Sequence:
#
# PCOD8018109 Si02
#       8
#     2   2   2   2   2   2   2   2
#     4  11  23  43  71  99 131 170 215 275 325 393
#     4  10  22  40  62  91 131 171 213 272 319 373
#     4  11  23  45  69  92 133 181 209 269 343 382
#     4  12  24  44  66  95 139 170 219 278 323 390
#     4  10  22  42  61  91 130 170 221 265 317 391
#     4  11  22  44  75  98 130 172 214 270 336 391
#     4  12  24  35  63  95 124 178 222 265 327 382
#     4  11  25  44  65  98 135 170 224 272 322 393
#
# _framework density 22.776098000000001
#
# number of rings (size 3 to 8) (size 9 to 14) (size 15 to 20)
#    0.000    1.000    3.750    2.625    1.750    1.500 
#    9.000    2.500    0.000    0.000    0.000    0.000 
#    0.000    0.000    0.000    0.000    0.000    0.000 
#
# Total GULP energy -198255.419658 kJ/mol
# GULP energy per Si atom -12390.963729 kJ/mol
# Density = 2.272426 g / cm^3
# Si number density = 22.776098 Si / 1000 Ang^3
#
#
#
# Elastic Constant Matrix: (Units=GPa)
#
#
# Indices 1 2 3 4 5 6 
#
# 1 84.5949 38.0741 30.4057 -9.2136 -24.9095 -1.8690
# 2 38.0741 123.4812 43.8613 -4.7589 2.6172 -5.3406
# 3 30.4057 43.8613 83.1041 -17.7732 -23.8483 -1.6049
# 4 -9.2136 -4.7589 -17.7732 48.9911 4.7329 -7.0279
# 5 -24.9095 2.6172 -23.8483 4.7329 32.6133 2.5951
# 6 -1.8690 -5.3406 -1.6049 -7.0279 2.5951 34.0585
#
#
#
# Elastic Compliance Matrix: (Units=1/GPa)
#
#
# Indices 1 2 3 4 5 6 
#
# 1 0.019281 -0.006811 0.001577 0.001856 0.016219 -0.000789
# 2 -0.006811 0.013507 -0.008502 -0.001570 -0.012432 0.001967
# 3 0.001577 -0.008502 0.022125 0.005784 0.017252 -0.000325
# 4 0.001856 -0.001570 0.005784 0.023194 0.002029 0.004760
# 5 0.016219 -0.012432 0.017252 0.002029 0.056699 -0.004148
# 6 -0.000789 0.001967 -0.000325 0.004760 -0.004148 0.030909
#
#
# Mechanical properties :
#
#
# Convention : Reuss Voigt Hill
#
# Bulk Modulus (GPa) = 36.44424 57.31803 46.88114
# Shear Modulus (GPa) = 24.71175 35.05516 29.88346
#
# Velocity S-wave (km/s) = 3.29749 3.92742 3.62616
# Velocity P-wave (km/s) = 5.52573 6.76658 6.17739
#
# Compressibility (1/GPa) = 0.02743918
#
# Stress axis : x y z
#
# Youngs Moduli (GPa) = 51.86581 74.03789 45.19815
#
# Poissons Ratio (x) = 0.50430 -0.07127
# Poissons Ratio (y) = 0.35328 0.38427
# Poissons Ratio (z) = -0.08179 0.62946
#
# Static dielectric constant tensor:
#      x y z
#    x 4.070100 0.153590 -0.631720 
#    y 0.153590 4.344730 0.000390 
#    z -0.631720 0.000390 4.267200 
# 
# 
# High freq. dielectric constant tensor:
#      x y z
#    x 1.882170 -0.003810 -0.034440 
#    y -0.003810 1.912510 0.002900 
#    z -0.034440 0.002900 1.897380 
# 
# From -- ./inp_files/55377.got.cif
#   From: 2010.06.25/outbox.cif.g09.slc.cpg/sg2_28_cif.got.tgz:55377.got - 2010.06.27 13:26:56.
