data_PCOD8018319
_publ_section_title
;
Structure prediction by ZEFSAII (Michael W. Deem and Ramdas Pophale) SiO2 
 PCOD8018319
Probable space group: P -1
;
_chemical_formula_sum "Si O2"
_cell_formula_units_Z 16
_cell_length_a 25.007727
_cell_length_b 8.332520
_cell_length_c 12.054354
_cell_angle_alpha 41.896791
_cell_angle_beta 30.449389
_cell_angle_gamma 33.183095
_cell_volume 694.337406
_symmetry_space_group_name_H-M "P -1"
_symmetry_group_IT_number 2
_symmetry_cell_setting 'triclinic'
loop_
_space_group_symop_operation_xyz
x,y,z
-x,-y,-z
loop_
_atom_site_type_symbol
_atom_site_label
_atom_site_fract_x
_atom_site_fract_y
_atom_site_fract_z
Si Si1 0.814292 0.312820 0.685222
Si Si2 0.550018 0.658959 0.104301
Si Si3 0.407419 0.346953 0.512654
Si Si4 0.039891 0.086795 0.995962
Si Si5 0.187707 0.741004 0.543325
Si Si6 0.304751 0.529772 0.845757
Si Si7 0.855699 0.689592 0.702676
Si Si8 0.967127 0.655751 0.740850
O O1 0.804156 0.350752 0.550708
O O2 0.897412 0.435812 0.512975
O O3 0.895186 0.977905 0.757564
O O4 0.673137 0.482959 0.897020
O O5 0.459942 0.548960 0.288468
O O6 0.580015 0.551900 0.234564
O O7 0.500000 0.000000 0.000000
O O8 0.284202 0.467379 0.590778
O O9 0.365557 0.370768 0.702761
O O10 0.500000 0.000000 0.500000
O O11 0.961356 0.081612 0.241942
O O12 0.001643 0.415851 0.894530
O O13 0.194839 0.875191 0.844773
O O14 0.000000 0.000000 0.000000
O O15 0.223172 0.975843 0.369761
O O16 0.233459 0.420442 0.104657
O O17 0.868963 0.668767 0.822947
O O18 0.000000 0.500000 0.500000
#
# Coordination Sequence:
#
# PCOD8018319 Si02
#       8
#     2   2   2   2   2   2   2   2
#     4  10  26  44  69  99 143 188 234 291 356 426
#     4  12  30  51  73 101 145 198 250 294 348 422
#     4  12  30  49  74 101 145 195 250 293 352 424
#     4  12  22  40  71 109 139 175 224 297 369 417
#     4  11  24  42  70 106 136 186 237 294 358 428
#     4  12  26  46  74 106 145 187 238 301 360 425
#     4  11  19  37  70 102 141 180 229 283 360 430
#     4  10  22  40  65 102 148 176 228 287 363 426
#
# _framework density 23.043551000000001
#
# number of rings (size 3 to 8) (size 9 to 14) (size 15 to 20)
#    0.000    0.750    3.750    1.875   12.250    2.000 
#    0.000    0.000    0.000    0.000    0.000    0.000 
#    0.000    0.000    0.000    0.000    0.000    0.000 
#
# Total GULP energy -198262.147950 kJ/mol
# GULP energy per Si atom -12391.384247 kJ/mol
# Density = 2.299110 g / cm^3
# Si number density = 23.043551 Si / 1000 Ang^3
#
#
#
# Elastic Constant Matrix: (Units=GPa)
#
#
# Indices 1 2 3 4 5 6 
#
# 1 79.4270 33.1927 9.0678 2.7650 14.2022 -15.7119
# 2 33.1927 140.2187 40.2160 -8.7821 10.1300 -14.0218
# 3 9.0678 40.2160 105.0684 9.1441 10.7235 10.2775
# 4 2.7650 -8.7821 9.1441 46.3796 5.8920 -1.2058
# 5 14.2022 10.1300 10.7235 5.8920 41.9578 -4.9116
# 6 -15.7119 -14.0218 10.2775 -1.2058 -4.9116 30.5004
#
#
#
# Elastic Compliance Matrix: (Units=1/GPa)
#
#
# Indices 1 2 3 4 5 6 
#
# 1 0.015735 -0.002718 -0.000505 -0.000718 -0.003691 0.006404
# 2 -0.002718 0.009603 -0.004111 0.002937 -0.000236 0.004478
# 3 -0.000505 -0.004111 0.012304 -0.003053 -0.002348 -0.006795
# 4 -0.000718 0.002937 -0.003053 0.023163 -0.002646 0.002499
# 5 -0.003691 -0.000236 -0.002348 -0.002646 0.026455 0.002937
# 6 0.006404 0.004478 -0.006795 0.002499 0.002937 0.041005
#
#
# Mechanical properties :
#
#
# Convention : Reuss Voigt Hill
#
# Bulk Modulus (GPa) = 43.52422 54.40746 48.96584
# Shear Modulus (GPa) = 33.20234 39.91673 36.55953
#
# Velocity S-wave (km/s) = 3.79997 4.16652 3.98746
# Velocity P-wave (km/s) = 6.17915 6.84167 6.51883
#
# Compressibility (1/GPa) = 0.02297571
#
# Stress axis : x y z
#
# Youngs Moduli (GPa) = 63.55116 104.13560 81.27111
#
# Poissons Ratio (x) = 0.28304 0.04104
# Poissons Ratio (y) = 0.17273 0.33407
# Poissons Ratio (z) = 0.03209 0.42805
#
# Static dielectric constant tensor:
#      x y z
#    x 4.043990 -0.178990 -0.014010 
#    y -0.178990 4.252920 -0.036150 
#    z -0.014010 -0.036150 4.165550 
# 
# 
# High freq. dielectric constant tensor:
#      x y z
#    x 1.910700 -0.005980 0.001420 
#    y -0.005980 1.913480 -0.007250 
#    z 0.001420 -0.007250 1.916460 
# 
# From -- ./inp_files/476371.got.cif
#   From: 2010.06.25/outbox.cif.g09.slc.cpg/sg2_239_cif.got.tgz:476371.got - 2010.06.27 13:26:56.
