data_PCOD8018562
_publ_section_title
;
Structure prediction by ZEFSAII (Michael W. Deem and Ramdas Pophale) SiO2 
 PCOD8018562
Probable space group: P -1
;
_chemical_formula_sum "Si O2"
_cell_formula_units_Z 14
_cell_length_a 24.827379
_cell_length_b 14.696229
_cell_length_c 9.618161
_cell_angle_alpha 144.702830
_cell_angle_beta 36.148252
_cell_angle_gamma 160.835698
_cell_volume 653.193305
_symmetry_space_group_name_H-M "P -1"
_symmetry_group_IT_number 2
_symmetry_cell_setting 'triclinic'
loop_
_space_group_symop_operation_xyz
x,y,z
-x,-y,-z
loop_
_atom_site_type_symbol
_atom_site_label
_atom_site_fract_x
_atom_site_fract_y
_atom_site_fract_z
Si Si1 0.880496 0.184886 0.894683
Si Si2 0.412469 0.822437 0.656407
Si Si3 0.729188 0.439250 0.670238
Si Si4 0.611860 0.802788 0.193959
Si Si5 0.898561 0.545546 0.994078
Si Si6 0.932133 0.223623 0.538811
Si Si7 0.157808 0.041470 0.884732
O O1 0.840945 0.046858 0.655890
O O2 0.000000 0.500000 0.000000
O O3 0.983640 0.223510 0.834815
O O4 0.714439 0.006008 0.095998
O O5 0.297457 0.652669 0.547490
O O6 0.495516 0.774613 0.453411
O O7 0.556338 0.162937 0.769572
O O8 0.294663 0.693702 0.872394
O O9 0.872546 0.539200 0.563975
O O10 0.778429 0.692246 0.887975
O O11 0.728585 0.921412 0.226104
O O12 0.500000 0.500000 0.000000
O O13 0.920461 0.390387 0.732643
O O14 0.965911 0.737815 0.958899
O O15 0.837808 0.985134 0.321864
#
# Coordination Sequence:
#
# PCOD8018562 Si02
#       7
#     2   2   2   2   2   2   2
#     4   9  19  36  64  89 117 164 210 244 297 374
#     4  11  23  40  66  94 126 162 215 260 310 369
#     4  11  23  39  66  93 128 164 208 262 314 367
#     4  11  23  42  64  92 127 161 210 261 312 364
#     4  10  22  40  67  95 123 167 214 256 306 371
#     4  11  22  42  65  94 129 167 210 254 315 381
#     4  11  24  42  65  94 128 167 208 261 315 370
#
# _framework density 21.433164000000001
#
# number of rings (size 3 to 8) (size 9 to 14) (size 15 to 20)
#    0.000    1.429    2.857    3.429    6.000    1.714 
#    0.000    5.714    0.000    0.000    0.000    0.000 
#    0.000    0.000    0.000    0.000    0.000    0.000 
#
# Total GULP energy -173568.528730 kJ/mol
# GULP energy per Si atom -12397.752052 kJ/mol
# Density = 2.138438 g / cm^3
# Si number density = 21.433164 Si / 1000 Ang^3
#
#
#
# Elastic Constant Matrix: (Units=GPa)
#
#
# Indices 1 2 3 4 5 6 
#
# 1 74.4094 37.4153 55.2140 -6.5451 -2.1366 4.6804
# 2 37.4153 92.0379 49.4675 -6.3910 -19.8823 2.5957
# 3 55.2140 49.4675 92.4076 -7.9775 -9.5148 0.5691
# 4 -6.5451 -6.3910 -7.9775 33.9512 3.7914 -5.5543
# 5 -2.1366 -19.8823 -9.5148 3.7914 42.1587 7.4541
# 6 4.6804 2.5957 0.5691 -5.5543 7.4541 29.4965
#
#
#
# Elastic Compliance Matrix: (Units=1/GPa)
#
#
# Indices 1 2 3 4 5 6 
#
# 1 0.025401 -0.003628 -0.013454 0.000995 -0.003111 -0.002478
# 2 -0.003628 0.017364 -0.006400 -0.000152 0.007041 -0.002637
# 3 -0.013454 -0.006400 0.022508 0.001795 0.000794 0.002401
# 4 0.000995 -0.000152 0.001795 0.031537 -0.003633 0.006678
# 5 -0.003111 0.007041 0.000794 -0.003633 0.028822 -0.008109
# 6 -0.002478 -0.002637 0.002401 0.006678 -0.008109 0.037788
#
#
# Mechanical properties :
#
#
# Convention : Reuss Voigt Hill
#
# Bulk Modulus (GPa) = 54.61552 60.33872 57.47712
# Shear Modulus (GPa) = 23.09595 28.90516 26.00055
#
# Velocity S-wave (km/s) = 3.28621 3.67634 3.48674
# Velocity P-wave (km/s) = 6.31950 6.79954 6.56391
#
# Compressibility (1/GPa) = 0.01830981
#
# Stress axis : x y z
#
# Youngs Moduli (GPa) = 39.36865 57.58936 44.42778
#
# Poissons Ratio (x) = 0.20893 0.59775
# Poissons Ratio (y) = 0.14282 0.28432
# Poissons Ratio (z) = 0.52968 0.36855
#
# Static dielectric constant tensor:
#      x y z
#    x 4.136250 -0.032890 0.346400 
#    y -0.032890 3.967500 -0.121490 
#    z 0.346400 -0.121490 3.991090 
# 
# 
# High freq. dielectric constant tensor:
#      x y z
#    x 1.835850 -0.001400 -0.003530 
#    y -0.001400 1.840640 -0.007880 
#    z -0.003530 -0.007880 1.829590 
# 
# From -- ./inp_files/237962.got.cif
#   From: 2010.06.25/outbox.cif.g09.slc.cpg/sg2_119_cif.got.tgz:237962.got - 2010.06.27 13:26:56.
