data_PCOD8018065
_publ_section_title
;
Structure prediction by ZEFSAII (Michael W. Deem and Ramdas Pophale) SiO2 
 PCOD8018065
Probable space group: P -1
;
_chemical_formula_sum "Si O2"
_cell_formula_units_Z 16
_cell_length_a 8.021714
_cell_length_b 8.226450
_cell_length_c 10.772261
_cell_angle_alpha 82.359213
_cell_angle_beta 117.358241
_cell_angle_gamma 96.589874
_cell_volume 624.584869
_symmetry_space_group_name_H-M "P -1"
_symmetry_group_IT_number 2
_symmetry_cell_setting 'triclinic'
loop_
_space_group_symop_operation_xyz
x,y,z
-x,-y,-z
loop_
_atom_site_type_symbol
_atom_site_label
_atom_site_fract_x
_atom_site_fract_y
_atom_site_fract_z
Si Si1 0.060287 0.569506 0.148459
Si Si2 0.437123 0.459725 0.232435
Si Si3 0.719641 0.366260 0.061978
Si Si4 0.189022 0.057669 0.492748
Si Si5 0.011478 0.133042 0.751774
Si Si6 0.832413 0.621926 0.423509
Si Si7 0.474974 0.872427 0.775265
Si Si8 0.185194 0.934307 0.009311
O O1 0.268535 0.515079 0.257128
O O2 0.063561 0.764495 0.164702
O O3 0.887269 0.477154 0.178201
O O4 0.000000 0.500000 0.000000
O O5 0.638355 0.517899 0.348837
O O6 0.418601 0.261904 0.253176
O O7 0.422514 0.521487 0.075908
O O8 0.630687 0.237579 0.142467
O O9 0.811328 0.262205 0.989381
O O10 0.200386 0.258245 0.480148
O O11 0.167222 0.978577 0.354538
O O12 0.353214 0.974702 0.630587
O O13 0.000000 0.000000 0.500000
O O14 0.117623 0.256744 0.683210
O O15 0.174935 0.014994 0.859797
O O16 0.000000 0.500000 0.500000
O O17 0.622084 0.005783 0.867805
O O18 0.000000 0.000000 0.000000
#
# Coordination Sequence:
#
# PCOD8018065 Si02
#       8
#     2   2   2   2   2   2   2   2
#     4  10  22  40  61  93 133 170 213 268 327 389
#     4  11  21  38  62  93 130 171 219 274 327 386
#     4  11  21  37  64  96 127 169 220 273 328 392
#     4  10  23  43  65  97 133 168 218 275 326 390
#     4  11  23  43  67  96 134 178 220 271 330 391
#     4  11  23  43  69  96 128 174 223 273 324 391
#     4  12  23  41  66  97 129 172 222 273 328 393
#     4  12  24  41  64  96 135 174 216 275 334 390
#
# _framework density 25.617014999999999
#
# number of rings (size 3 to 8) (size 9 to 14) (size 15 to 20)
#    0.000    1.000    0.000    9.750    0.000    1.000 
#    0.000    5.000    0.000    1.500    0.000    0.875 
#    0.000    0.000    0.000    0.000    0.000    0.000 
#
# Total GULP energy -198240.318367 kJ/mol
# GULP energy per Si atom -12390.019898 kJ/mol
# Density = 2.555871 g / cm^3
# Si number density = 25.617015 Si / 1000 Ang^3
#
#
#
# Elastic Constant Matrix: (Units=GPa)
#
#
# Indices 1 2 3 4 5 6 
#
# 1 51.4652 25.7377 32.6538 11.5324 36.4476 -1.7396
# 2 25.7377 200.2087 79.7515 15.9708 29.4032 -22.0909
# 3 32.6538 79.7515 154.4123 17.1371 44.0387 -9.7105
# 4 11.5324 15.9708 17.1371 41.9315 -5.8854 3.6116
# 5 36.4476 29.4032 44.0387 -5.8854 51.4409 5.2467
# 6 -1.7396 -22.0909 -9.7105 3.6116 5.2467 37.4831
#
#
#
# Elastic Compliance Matrix: (Units=1/GPa)
#
#
# Indices 1 2 3 4 5 6 
#
# 1 0.058460 0.001767 0.005527 -0.027590 -0.051860 0.015104
# 2 0.001767 0.007009 -0.002118 -0.003286 -0.004288 0.004581
# 3 0.005527 -0.002118 0.011543 -0.007796 -0.013960 0.004704
# 4 -0.027590 -0.003286 -0.007796 0.041906 0.034331 -0.014080
# 5 -0.051860 -0.004288 -0.013960 0.034331 0.076820 -0.022611
# 6 0.015104 0.004581 0.004704 -0.014080 -0.022611 0.035820
#
#
# Mechanical properties :
#
#
# Convention : Reuss Voigt Hill
#
# Bulk Modulus (GPa) = 11.44628 75.81912 43.63270
# Shear Modulus (GPa) = 19.97386 44.03398 32.00392
#
# Velocity S-wave (km/s) = 2.79536 4.15050 3.53841
# Velocity P-wave (km/s) = 3.85962 7.25468 5.81063
#
# Compressibility (1/GPa) = 0.08736462
#
# Stress axis : x y z
#
# Youngs Moduli (GPa) = 17.10568 142.68231 86.62888
#
# Poissons Ratio (x) = -0.25207 -0.47882
# Poissons Ratio (y) = -0.03022 0.18345
# Poissons Ratio (z) = -0.09455 0.30215
#
# Static dielectric constant tensor:
#      x y z
#    x 5.002230 0.480430 0.198360 
#    y 0.480430 4.131840 -0.794450 
#    z 0.198360 -0.794450 4.648110 
# 
# 
# High freq. dielectric constant tensor:
#      x y z
#    x 2.027760 -0.008180 0.002520 
#    y -0.008180 2.061260 0.005940 
#    z 0.002520 0.005940 2.016610 
# 
# From -- ./inp_files/283446.got.cif
#   From: 2010.06.25/outbox.cif.g09.slc.cpg/sg2_142_cif.got.tgz:283446.got - 2010.06.27 13:26:56.
