data_PCOD8018037
_publ_section_title
;
Structure prediction by ZEFSAII (Michael W. Deem and Ramdas Pophale) SiO2 
 PCOD8018037
Probable space group: P -1
;
_chemical_formula_sum "Si O2"
_cell_formula_units_Z 14
_cell_length_a 11.540277
_cell_length_b 7.376703
_cell_length_c 11.254803
_cell_angle_alpha 139.542089
_cell_angle_beta 98.128343
_cell_angle_gamma 100.042544
_cell_volume 553.003964
_symmetry_space_group_name_H-M "P -1"
_symmetry_group_IT_number 2
_symmetry_cell_setting 'triclinic'
loop_
_space_group_symop_operation_xyz
x,y,z
-x,-y,-z
loop_
_atom_site_type_symbol
_atom_site_label
_atom_site_fract_x
_atom_site_fract_y
_atom_site_fract_z
Si Si1 0.493251 0.038895 0.284851
Si Si2 0.003669 0.434644 0.806869
Si Si3 0.285625 0.357688 0.629752
Si Si4 0.285100 0.964904 0.837974
Si Si5 0.780206 0.198463 0.819788
Si Si6 0.898354 0.048498 0.394380
Si Si7 0.433529 0.426754 0.273883
O O1 0.435985 0.212067 0.274887
O O2 0.572599 0.265727 0.519164
O O3 0.589270 0.928816 0.178021
O O4 0.354540 0.757689 0.169860
O O5 0.003604 0.107512 0.689075
O O6 0.881678 0.448321 0.865599
O O7 0.141226 0.726557 0.004722
O O8 0.975781 0.390341 0.638752
O O9 0.214124 0.177107 0.646107
O O10 0.438137 0.481717 0.742526
O O11 0.252570 0.642686 0.738748
O O12 0.256896 0.150588 0.402553
O O13 0.158396 0.915554 0.720768
O O14 0.312067 0.232882 0.073511
#
# Coordination Sequence:
#
# PCOD8018037 Si02
#       7
#     2   2   2   2   2   2   2
#     4   9  18  36  62  89 125 154 191 251 303 357
#     4   9  20  40  59  82 119 163 206 244 291 353
#     4   9  19  38  60  87 122 154 194 244 306 361
#     4  11  22  38  62  98 121 151 201 246 302 369
#     4   9  18  37  65  81 113 168 198 240 305 348
#     4  10  22  40  61  86 122 157 200 252 294 351
#     4   9  19  35  57  93 126 156 192 238 308 368
#
# _framework density 25.316275000000001
#
# number of rings (size 3 to 8) (size 9 to 14) (size 15 to 20)
#    0.000    2.571    0.000    2.571    4.000    0.571 
#    7.714   10.714    0.000    0.000    0.000    0.000 
#    0.000    0.000    0.000    0.000    0.000    0.000 
#
# Total GULP energy -173467.116199 kJ/mol
# GULP energy per Si atom -12390.508300 kJ/mol
# Density = 2.525865 g / cm^3
# Si number density = 25.316275 Si / 1000 Ang^3
#
#
#
# Elastic Constant Matrix: (Units=GPa)
#
#
# Indices 1 2 3 4 5 6 
#
# 1 35.0443 -13.1716 -2.9173 -4.8257 -2.6290 5.4793
# 2 -13.1716 24.5828 10.1786 -5.6942 -3.4592 0.3588
# 3 -2.9173 10.1786 194.3487 -27.9144 27.1869 -15.5794
# 4 -4.8257 -5.6942 -27.9144 25.5944 -1.2916 8.0270
# 5 -2.6290 -3.4592 27.1869 -1.2916 30.3059 -10.1681
# 6 5.4793 0.3588 -15.5794 8.0270 -10.1681 20.8319
#
#
#
# Elastic Compliance Matrix: (Units=1/GPa)
#
#
# Indices 1 2 3 4 5 6 
#
# 1 0.046347 0.030275 0.000560 0.022556 0.001070 -0.020462
# 2 0.030275 0.064337 -0.001856 0.023351 0.007297 -0.015895
# 3 0.000560 -0.001856 0.007171 0.007439 -0.006553 -0.000818
# 4 0.022556 0.023351 0.007439 0.065811 -0.009583 -0.030807
# 5 0.001070 0.007297 -0.006553 -0.009583 0.046459 0.021061
# 6 -0.020462 -0.015895 -0.000818 -0.030807 0.021061 0.075198
#
#
# Mechanical properties :
#
#
# Convention : Reuss Voigt Hill
#
# Bulk Modulus (GPa) = 5.68791 26.90612 16.29701
# Shear Modulus (GPa) = 16.34155 32.67218 24.50687
#
# Velocity S-wave (km/s) = 2.54342 3.59633 3.11469
# Velocity P-wave (km/s) = 3.29802 5.28166 4.40300
#
# Compressibility (1/GPa) = 0.17581157
#
# Stress axis : x y z
#
# Youngs Moduli (GPa) = 21.57652 15.54324 139.45763
#
# Poissons Ratio (x) = -0.47057 -0.07808
# Poissons Ratio (y) = -0.65323 0.25885
# Poissons Ratio (z) = -0.01208 0.02885
#
# Static dielectric constant tensor:
#      x y z
#    x 4.779640 0.419980 0.238130 
#    y 0.419980 3.967870 -0.066930 
#    z 0.238130 -0.066930 5.106780 
# 
# 
# High freq. dielectric constant tensor:
#      x y z
#    x 2.001550 0.033890 0.007800 
#    y 0.033890 1.952980 -0.012540 
#    z 0.007800 -0.012540 2.036760 
# 
# From -- ./inp_files/215506.got.cif
#   From: 2010.06.25/outbox.cif.g09.slc.cpg/sg2_108_cif.got.tgz:215506.got - 2010.06.27 13:26:56.
