data_PCOD8018653
_publ_section_title
;
Structure prediction by ZEFSAII (Michael W. Deem and Ramdas Pophale) SiO2 
 PCOD8018653
Probable space group: P -1
;
_chemical_formula_sum "Si O2"
_cell_formula_units_Z 16
_cell_length_a 6.694460
_cell_length_b 20.851143
_cell_length_c 8.479887
_cell_angle_alpha 120.940044
_cell_angle_beta 104.736053
_cell_angle_gamma 44.607762
_cell_volume 700.600687
_symmetry_space_group_name_H-M "P -1"
_symmetry_group_IT_number 2
_symmetry_cell_setting 'triclinic'
loop_
_space_group_symop_operation_xyz
x,y,z
-x,-y,-z
loop_
_atom_site_type_symbol
_atom_site_label
_atom_site_fract_x
_atom_site_fract_y
_atom_site_fract_z
Si Si1 0.505305 0.359115 0.166101
Si Si2 0.447948 0.226825 0.152746
Si Si3 0.326298 0.736103 0.251689
Si Si4 0.245476 0.102135 0.477717
Si Si5 0.592757 0.133509 0.413512
Si Si6 0.125042 0.979529 0.168601
Si Si7 0.868289 0.549288 0.316182
Si Si8 0.138824 0.587668 0.650571
O O1 0.552881 0.286224 0.222393
O O2 0.601264 0.417478 0.326572
O O3 0.164524 0.446882 0.161264
O O4 0.689537 0.286295 0.960407
O O5 0.532874 0.182091 0.289900
O O6 0.102017 0.308217 0.161090
O O7 0.575217 0.142710 0.929235
O O8 0.379457 0.810966 0.375766
O O9 0.598754 0.623902 0.240195
O O10 0.016010 0.796529 0.344458
O O11 0.347601 0.140733 0.430708
O O12 0.500000 0.000000 0.500000
O O13 0.143650 0.063647 0.292325
O O14 0.901033 0.010243 0.300727
O O15 0.000000 0.000000 0.000000
O O16 0.756366 0.516047 0.378986
O O17 0.955399 0.607666 0.484321
#
# Coordination Sequence:
#
# PCOD8018653 Si02
#       8
#     2   2   2   2   2   2   2   2
#     4  11  25  39  71 103 131 176 223 277 331 395
#     4  10  22  41  67  99 135 172 224 273 333 389
#     4  11  25  44  67 100 138 177 216 279 338 396
#     4  11  27  42  69  99 133 179 226 268 340 402
#     4  10  23  45  66  94 135 181 219 275 330 400
#     4   9  22  41  65  95 131 171 220 280 322 389
#     4  10  22  46  65  97 138 176 221 272 342 388
#     4  10  22  40  69 100 135 173 223 275 325 407
#
# _framework density 22.837547000000001
#
# number of rings (size 3 to 8) (size 9 to 14) (size 15 to 20)
#    0.000    1.750    1.250    0.750    5.250    8.500 
#    0.000    0.000    0.000    0.000    0.000    0.000 
#    0.000    0.000    0.000    0.000    0.000    0.000 
#
# Total GULP energy -198220.807049 kJ/mol
# GULP energy per Si atom -12388.800441 kJ/mol
# Density = 2.278557 g / cm^3
# Si number density = 22.837547 Si / 1000 Ang^3
#
#
#
# Elastic Constant Matrix: (Units=GPa)
#
#
# Indices 1 2 3 4 5 6 
#
# 1 155.3285 36.2466 34.0000 -3.5205 -14.6377 10.3081
# 2 36.2466 89.6985 26.9420 6.7669 -14.7776 -2.1935
# 3 34.0000 26.9420 93.7889 6.9864 -6.9992 11.2488
# 4 -3.5205 6.7669 6.9864 37.8929 -7.2644 -2.0136
# 5 -14.6377 -14.7776 -6.9992 -7.2644 24.4673 2.7391
# 6 10.3081 -2.1935 11.2488 -2.0136 2.7391 24.6046
#
#
#
# Elastic Compliance Matrix: (Units=1/GPa)
#
#
# Indices 1 2 3 4 5 6 
#
# 1 0.007958 -0.002293 -0.001733 0.002042 0.003823 -0.003005
# 2 -0.002293 0.014068 -0.003069 -0.000922 0.005647 0.002914
# 3 -0.001733 -0.003069 0.013095 -0.002171 0.000861 -0.005808
# 4 0.002042 -0.000922 -0.002171 0.028841 0.008441 0.001475
# 5 0.003823 0.005647 0.000861 0.008441 0.050034 -0.006371
# 6 -0.003005 0.002914 -0.005808 0.001475 -0.006371 0.045647
#
#
# Mechanical properties :
#
#
# Convention : Reuss Voigt Hill
#
# Bulk Modulus (GPa) = 47.77657 59.24365 53.51011
# Shear Modulus (GPa) = 27.65318 33.50143 30.57731
#
# Velocity S-wave (km/s) = 3.48352 3.83423 3.66307
# Velocity P-wave (km/s) = 6.09471 6.75273 6.43214
#
# Compressibility (1/GPa) = 0.02093076
#
# Stress axis : x y z
#
# Youngs Moduli (GPa) = 125.65488 71.08260 76.36729
#
# Poissons Ratio (x) = 0.16300 0.13232
# Poissons Ratio (y) = 0.28815 0.23440
# Poissons Ratio (z) = 0.21772 0.21818
#
# Static dielectric constant tensor:
#      x y z
#    x 4.143320 -0.399980 -0.311190 
#    y -0.399980 4.395500 0.763380 
#    z -0.311190 0.763380 4.521250 
# 
# 
# High freq. dielectric constant tensor:
#      x y z
#    x 1.896680 -0.011040 -0.012460 
#    y -0.011040 1.897640 0.028970 
#    z -0.012460 0.028970 1.910610 
# 
# From -- ./inp_files/141511.got.cif
#   From: 2010.06.25/outbox.cif.g09.slc.cpg/sg2_71_cif.got.tgz:141511.got - 2010.06.27 13:26:56.
