data_PCOD8018833
_publ_section_title
;
Structure prediction by ZEFSAII (Michael W. Deem and Ramdas Pophale) SiO2 
 PCOD8018833
Probable space group: P -1
;
_chemical_formula_sum "Si O2"
_cell_formula_units_Z 16
_cell_length_a 14.048301
_cell_length_b 7.945774
_cell_length_c 13.753849
_cell_angle_alpha 111.687845
_cell_angle_beta 129.614883
_cell_angle_gamma 44.787257
_cell_volume 823.377696
_symmetry_space_group_name_H-M "P -1"
_symmetry_group_IT_number 2
_symmetry_cell_setting 'triclinic'
loop_
_space_group_symop_operation_xyz
x,y,z
-x,-y,-z
loop_
_atom_site_type_symbol
_atom_site_label
_atom_site_fract_x
_atom_site_fract_y
_atom_site_fract_z
Si Si1 0.009585 0.784005 0.360728
Si Si2 0.860678 0.259873 0.054159
Si Si3 0.093265 0.758198 0.200380
Si Si4 0.377454 0.467624 0.872534
Si Si5 0.940095 0.571931 0.125760
Si Si6 0.264483 0.696129 0.640088
Si Si7 0.603801 0.518779 0.781355
Si Si8 0.569902 0.942339 0.926012
O O1 0.048009 0.864098 0.303506
O O2 0.169125 0.636535 0.502917
O O3 0.976372 0.609358 0.268006
O O4 0.851371 0.013720 0.364804
O O5 0.771925 0.420889 0.126599
O O6 0.958718 0.336060 0.085307
O O7 0.717589 0.331740 0.903286
O O8 0.987122 0.975079 0.098245
O O9 0.287114 0.598918 0.270927
O O10 0.057632 0.573642 0.128286
O O11 0.296455 0.599899 0.747995
O O12 0.476668 0.187543 0.858100
O O13 0.500000 0.500000 0.000000
O O14 0.759610 0.812140 0.028782
O O15 0.437705 0.564779 0.670818
O O16 0.545063 0.778906 0.819587
O O17 0.500000 0.000000 0.000000
#
# Coordination Sequence:
#
# PCOD8018833 Si02
#       8
#     2   2   2   2   2   2   2   2
#     4   9  21  40  59  79 119 159 196 244 284 346
#     4  11  20  35  63  90 116 158 190 238 299 351
#     4  10  22  41  58  85 122 161 190 238 301 342
#     4  12  19  34  59  90 118 146 192 247 299 342
#     4   9  20  37  58  80 123 152 191 239 289 348
#     4  11  21  37  61  86 112 157 202 238 292 344
#     4  11  23  36  59  92 115 154 196 237 299 355
#     4  11  19  33  58  86 118 146 187 246 297 341
#
# _framework density 19.432151999999999
#
# number of rings (size 3 to 8) (size 9 to 14) (size 15 to 20)
#    0.750    0.750    5.000    2.625    0.000    2.500 
#    2.250    1.875    0.000    1.500    0.000    0.000 
#    0.000    0.000    0.000    0.000    0.000    0.000 
#
# Total GULP energy -198286.598661 kJ/mol
# GULP energy per Si atom -12392.912416 kJ/mol
# Density = 1.938792 g / cm^3
# Si number density = 19.432152 Si / 1000 Ang^3
#
#
#
# Elastic Constant Matrix: (Units=GPa)
#
#
# Indices 1 2 3 4 5 6 
#
# 1 94.7637 18.2996 15.9270 -16.4759 9.2034 -8.7380
# 2 18.2996 70.1671 11.5547 -10.2019 6.5939 2.4812
# 3 15.9270 11.5547 90.0003 -18.7644 13.1617 11.7344
# 4 -16.4759 -10.2019 -18.7644 14.2840 -0.2106 2.0306
# 5 9.2034 6.5939 13.1617 -0.2106 21.7461 -5.6996
# 6 -8.7380 2.4812 11.7344 2.0306 -5.6996 35.1549
#
#
#
# Elastic Compliance Matrix: (Units=1/GPa)
#
#
# Indices 1 2 3 4 5 6 
#
# 1 0.014328 -0.000728 0.002502 0.019114 -0.007033 0.000533
# 2 -0.000728 0.017138 0.002938 0.015791 -0.007702 -0.004532
# 3 0.002502 0.002938 0.021705 0.034903 -0.017825 -0.011736
# 4 0.019114 0.015791 0.034903 0.151891 -0.038570 -0.023041
# 5 -0.007033 -0.007702 -0.017825 -0.038570 0.066359 0.017732
# 6 0.000533 -0.004532 -0.011736 -0.023041 0.017732 0.037021
#
#
# Mechanical properties :
#
#
# Convention : Reuss Voigt Hill
#
# Bulk Modulus (GPa) = 15.97567 38.49931 27.23749
# Shear Modulus (GPa) = 15.63073 28.18031 21.90552
#
# Velocity S-wave (km/s) = 2.83923 3.81227 3.36114
# Velocity P-wave (km/s) = 4.35745 6.26363 5.39539
#
# Compressibility (1/GPa) = 0.06259519
#
# Stress axis : x y z
#
# Youngs Moduli (GPa) = 69.79348 58.35124 46.07233
#
# Poissons Ratio (x) = 0.04246 -0.11527
# Poissons Ratio (y) = 0.05078 -0.13536
# Poissons Ratio (z) = -0.17462 -0.17144
#
# Static dielectric constant tensor:
#      x y z
#    x 3.656090 -0.133440 0.038800 
#    y -0.133440 3.651400 -0.043040 
#    z 0.038800 -0.043040 3.410990 
# 
# 
# High freq. dielectric constant tensor:
#      x y z
#    x 1.760040 -0.013690 0.003020 
#    y -0.013690 1.746960 -0.005510 
#    z 0.003020 -0.005510 1.733830 
# 
# From -- ./inp_files/285928.got.cif
#   From: 2010.06.25/outbox.cif.g09.slc.cpg/sg2_143_cif.got.tgz:285928.got - 2010.06.27 13:26:56.
