data_PCOD8018155
_publ_section_title
;
Structure prediction by ZEFSAII (Michael W. Deem and Ramdas Pophale) SiO2 
 PCOD8018155
Probable space group: P -1
;
_chemical_formula_sum "Si O2"
_cell_formula_units_Z 14
_cell_length_a 6.475246
_cell_length_b 18.130825
_cell_length_c 9.063180
_cell_angle_alpha 143.256714
_cell_angle_beta 91.993285
_cell_angle_gamma 81.164860
_cell_volume 621.927491
_symmetry_space_group_name_H-M "P -1"
_symmetry_group_IT_number 2
_symmetry_cell_setting 'triclinic'
loop_
_space_group_symop_operation_xyz
x,y,z
-x,-y,-z
loop_
_atom_site_type_symbol
_atom_site_label
_atom_site_fract_x
_atom_site_fract_y
_atom_site_fract_z
Si Si1 0.279418 0.816729 0.047857
Si Si2 0.476172 0.029300 0.874682
Si Si3 0.095765 0.260620 0.249850
Si Si4 0.272101 0.417064 0.010882
Si Si5 0.658212 0.194687 0.642947
Si Si6 0.653103 0.593780 0.686032
Si Si7 0.064654 0.680999 0.335968
O O1 0.314710 0.928131 0.116990
O O2 0.226963 0.856236 0.280786
O O3 0.509003 0.729388 0.927479
O O4 0.110934 0.742842 0.857990
O O5 0.467696 0.905504 0.582694
O O6 0.261938 0.132617 0.013473
O O7 0.500000 0.000000 0.000000
O O8 0.185806 0.385257 0.406637
O O9 0.044468 0.270624 0.436225
O O10 0.508484 0.334213 0.874055
O O11 0.112113 0.339376 0.815040
O O12 0.211994 0.449112 0.232034
O O13 0.245649 0.553000 0.149762
O O14 0.836043 0.207359 0.548317
O O15 0.500000 0.500000 0.500000
#
# Coordination Sequence:
#
# PCOD8018155 Si02
#       7
#     2   2   2   2   2   2   2
#     4  10  23  41  62  89 121 160 203 248 299 355
#     4  11  24  41  63  90 121 159 202 251 302 353
#     4  11  24  41  62  92 123 155 202 249 300 361
#     4  10  23  40  60  89 123 157 202 247 298 357
#     4  11  23  41  63  87 122 163 203 247 298 356
#     4  10  22  40  63  89 122 161 199 246 300 358
#     4  11  23  38  62  92 123 160 199 248 302 355
#
# _framework density 22.510663999999998
#
# number of rings (size 3 to 8) (size 9 to 14) (size 15 to 20)
#    0.000    1.429    0.000    4.286    0.000   14.286 
#    0.000    0.000    0.000    0.000    0.000    0.000 
#    0.000    0.000    0.000    0.000    0.000    0.000 
#
# Total GULP energy -173565.411244 kJ/mol
# GULP energy per Si atom -12397.529375 kJ/mol
# Density = 2.245943 g / cm^3
# Si number density = 22.510664 Si / 1000 Ang^3
#
#
#
# Elastic Constant Matrix: (Units=GPa)
#
#
# Indices 1 2 3 4 5 6 
#
# 1 87.5587 63.5298 31.5381 -13.8397 20.4968 22.0445
# 2 63.5298 152.6596 47.8981 -28.6228 22.4357 35.4726
# 3 31.5381 47.8981 105.5842 -22.5505 24.3287 17.9489
# 4 -13.8397 -28.6228 -22.5505 43.5401 -6.2559 4.5764
# 5 20.4968 22.4357 24.3287 -6.2559 43.0400 3.8824
# 6 22.0445 35.4726 17.9489 4.5764 3.8824 52.5674
#
#
#
# Elastic Compliance Matrix: (Units=1/GPa)
#
#
# Indices 1 2 3 4 5 6 
#
# 1 0.017815 -0.005442 -0.000968 0.001259 -0.004625 -0.003236
# 2 -0.005442 0.011821 -0.001173 0.005809 -0.001550 -0.005686
# 3 -0.000968 -0.001173 0.013245 0.005373 -0.005327 -0.003400
# 4 0.001259 0.005809 0.005373 0.030698 -0.001405 -0.008851
# 5 -0.004625 -0.001550 -0.005327 -0.001405 0.028799 0.002800
# 6 -0.003236 -0.005686 -0.003400 -0.008851 0.002800 0.025942
#
#
# Mechanical properties :
#
#
# Convention : Reuss Voigt Hill
#
# Bulk Modulus (GPa) = 36.08028 70.19271 53.13650
# Shear Modulus (GPa) = 32.73882 41.35192 37.04537
#
# Velocity S-wave (km/s) = 3.81776 4.29066 4.06110
# Velocity P-wave (km/s) = 5.95790 7.46968 6.75621
#
# Compressibility (1/GPa) = 0.02771597
#
# Stress axis : x y z
#
# Youngs Moduli (GPa) = 56.13372 84.59229 75.49895
#
# Poissons Ratio (x) = 0.46037 0.07305
# Poissons Ratio (y) = 0.30549 0.08854
# Poissons Ratio (z) = 0.05432 0.09921
#
# Static dielectric constant tensor:
#      x y z
#    x 3.942160 0.066320 -0.082030 
#    y 0.066320 4.482640 -0.045550 
#    z -0.082030 -0.045550 3.990630 
# 
# 
# High freq. dielectric constant tensor:
#      x y z
#    x 1.883120 0.003250 0.003540 
#    y 0.003250 1.905840 -0.005770 
#    z 0.003540 -0.005770 1.883550 
# 
# From -- ./inp_files/36903.got.cif
#   From: 2010.06.25/outbox.cif.g09.slc.cpg/sg2_19_cif.got.tgz:36903.got - 2010.06.27 13:26:56.
