data_PCOD8018229
_publ_section_title
;
Structure prediction by ZEFSAII (Michael W. Deem and Ramdas Pophale) SiO2 
 PCOD8018229
Probable space group: P -1
;
_chemical_formula_sum "Si O2"
_cell_formula_units_Z 16
_cell_length_a 5.634398
_cell_length_b 5.930457
_cell_length_c 23.136298
_cell_angle_alpha 100.453094
_cell_angle_beta 53.918310
_cell_angle_gamma 105.703934
_cell_volume 601.231079
_symmetry_space_group_name_H-M "P -1"
_symmetry_group_IT_number 2
_symmetry_cell_setting 'triclinic'
loop_
_space_group_symop_operation_xyz
x,y,z
-x,-y,-z
loop_
_atom_site_type_symbol
_atom_site_label
_atom_site_fract_x
_atom_site_fract_y
_atom_site_fract_z
Si Si1 0.913425 0.339191 0.219376
Si Si2 0.628977 0.642365 0.542787
Si Si3 0.761402 0.634444 0.162034
Si Si4 0.201439 0.643893 0.401551
Si Si5 0.211679 0.069700 0.074078
Si Si6 0.082640 0.773025 0.659959
Si Si7 0.358912 0.927408 0.282176
Si Si8 0.166882 0.721854 0.951718
O O1 0.869416 0.584735 0.209203
O O2 0.020040 0.362286 0.271360
O O3 0.148831 0.238253 0.141955
O O4 0.590075 0.170451 0.256969
O O5 0.500000 0.500000 0.500000
O O6 0.568466 0.450865 0.594506
O O7 0.443748 0.839857 0.598601
O O8 0.975780 0.748855 0.481963
O O9 0.467473 0.749566 0.212947
O O10 0.667219 0.388106 0.129496
O O11 0.040426 0.804292 0.098666
O O12 0.361554 0.838828 0.343209
O O13 0.040378 0.412135 0.379993
O O14 0.587411 0.111270 0.031105
O O15 0.076491 0.143275 0.035628
O O16 0.963164 0.015861 0.685692
O O17 0.000000 0.500000 0.000000
#
# Coordination Sequence:
#
# PCOD8018229 Si02
#       8
#     2   2   2   2   2   2   2   2
#     4  10  24  42  61  95 134 174 226 288 346 414
#     4   9  20  40  60  89 123 174 220 279 348 414
#     4  10  24  46  68 102 146 185 237 295 350 427
#     4  10  22  40  64  86 128 171 223 283 346 419
#     4  10  25  43  74 107 144 193 242 285 368 422
#     4  11  22  38  64  90 129 166 226 286 343 421
#     4  11  23  39  62  97 125 174 227 283 356 416
#     4  11  25  48  74 110 150 189 241 299 349 425
#
# _framework density 26.612065000000001
#
# number of rings (size 3 to 8) (size 9 to 14) (size 15 to 20)
#    0.000    1.750    0.000    2.625    7.000    7.500 
#    2.250    8.750    0.000    0.000    0.000    0.000 
#    0.000    0.000    0.000    0.000    0.000    0.000 
#
# Total GULP energy -198288.819716 kJ/mol
# GULP energy per Si atom -12393.051232 kJ/mol
# Density = 2.655149 g / cm^3
# Si number density = 26.612065 Si / 1000 Ang^3
#
#
#
# Elastic Constant Matrix: (Units=GPa)
#
#
# Indices 1 2 3 4 5 6 
#
# 1 157.3251 63.3946 85.5324 19.2728 3.3550 -30.1044
# 2 63.3946 94.1898 54.3131 5.2877 -6.1133 -29.0184
# 3 85.5324 54.3131 145.2133 -0.0967 1.2148 -30.1877
# 4 19.2728 5.2877 -0.0967 52.4875 -9.7197 -2.0451
# 5 3.3550 -6.1133 1.2148 -9.7197 54.6930 5.8609
# 6 -30.1044 -29.0184 -30.1877 -2.0451 5.8609 42.9960
#
#
#
# Elastic Compliance Matrix: (Units=1/GPa)
#
#
# Indices 1 2 3 4 5 6 
#
# 1 0.011657 -0.004381 -0.004818 -0.004151 -0.002039 0.001903
# 2 -0.004381 0.017077 -0.002463 0.000436 0.001610 0.006531
# 3 -0.004818 -0.002463 0.011273 0.002123 -0.000175 0.003004
# 4 -0.004151 0.000436 0.002123 0.021271 0.004108 -0.000670
# 5 -0.002039 0.001610 -0.000175 0.004108 0.019639 -0.002946
# 6 0.001903 0.006531 0.003004 -0.000670 -0.002946 0.031477
#
#
# Mechanical properties :
#
#
# Convention : Reuss Voigt Hill
#
# Bulk Modulus (GPa) = 59.93400 89.24537 74.58969
# Shear Modulus (GPa) = 35.39153 42.93450 39.16301
#
# Velocity S-wave (km/s) = 3.65074 4.02101 3.84034
# Velocity P-wave (km/s) = 6.35144 7.42741 6.91040
#
# Compressibility (1/GPa) = 0.01668502
#
# Stress axis : x y z
#
# Youngs Moduli (GPa) = 85.78634 58.55738 88.71138
#
# Poissons Ratio (x) = 0.25652 0.42738
# Poissons Ratio (y) = 0.37580 0.21846
# Poissons Ratio (z) = 0.41329 0.14420
#
# Static dielectric constant tensor:
#      x y z
#    x 5.250160 -0.359060 -0.129950 
#    y -0.359060 4.682550 0.425310 
#    z -0.129950 0.425310 6.024670 
# 
# 
# High freq. dielectric constant tensor:
#      x y z
#    x 2.068800 -0.012900 0.002860 
#    y -0.012900 2.058730 0.022910 
#    z 0.002860 0.022910 2.105810 
# 
# From -- ./inp_files/581157.got.cif
#   From: 2010.06.25/outbox.cif.g09.slc.cpg/sg2_291_cif.got.tgz:581157.got - 2010.06.27 13:26:56.
