data_PCOD8018782
_publ_section_title
;
Structure prediction by ZEFSAII (Michael W. Deem and Ramdas Pophale) SiO2 
 PCOD8018782
Probable space group: P -1
;
_chemical_formula_sum "Si O2"
_cell_formula_units_Z 10
_cell_length_a 9.966859
_cell_length_b 8.373310
_cell_length_c 8.353228
_cell_angle_alpha 79.116112
_cell_angle_beta 63.043985
_cell_angle_gamma 120.752275
_cell_volume 446.307829
_symmetry_space_group_name_H-M "P -1"
_symmetry_group_IT_number 2
_symmetry_cell_setting 'triclinic'
loop_
_space_group_symop_operation_xyz
x,y,z
-x,-y,-z
loop_
_atom_site_type_symbol
_atom_site_label
_atom_site_fract_x
_atom_site_fract_y
_atom_site_fract_z
Si Si1 0.136614 0.712247 0.500778
Si Si2 0.419911 0.678698 0.537416
Si Si3 0.231103 0.362818 0.168410
Si Si4 0.412974 0.194800 0.226961
Si Si5 0.767089 0.774021 0.154368
O O1 0.268635 0.706818 0.554155
O O2 0.000000 0.500000 0.500000
O O3 0.992314 0.724596 0.681070
O O4 0.284316 0.944741 0.278327
O O5 0.507093 0.790833 0.642231
O O6 0.609522 0.800234 0.287457
O O7 0.280481 0.413735 0.669100
O O8 0.272782 0.256843 0.301996
O O9 0.398872 0.633183 0.030856
O O10 0.272157 0.300468 0.992571
O O11 0.000000 0.000000 0.000000
#
# Coordination Sequence:
#
# PCOD8018782 Si02
#       5
#     2   2   2   2   2
#     4  12  27  39  66 101 134 164 213 273 323 369
#     4  10  24  42  65  97 129 167 215 264 320 380
#     4  10  24  43  68  93 126 176 216 258 323 382
#     4  10  23  45  69  88 132 173 218 259 317 388
#     4  10  22  40  71  94 127 169 218 261 319 384
#
# _framework density 22.40606
#
# number of rings (size 3 to 8) (size 9 to 14) (size 15 to 20)
#    0.000    1.600    0.000    2.400   14.000    5.600 
#    0.000    0.000    0.000    0.000    0.000    0.000 
#    0.000    0.000    0.000    0.000    0.000    0.000 
#
# Total GULP energy -123978.763698 kJ/mol
# GULP energy per Si atom -12397.876370 kJ/mol
# Density = 2.235506 g / cm^3
# Si number density = 22.406060 Si / 1000 Ang^3
#
#
#
# Elastic Constant Matrix: (Units=GPa)
#
#
# Indices 1 2 3 4 5 6 
#
# 1 192.2773 36.3540 52.5754 -8.5910 -6.0335 -0.0997
# 2 36.3540 105.7767 40.0501 -36.4615 11.3453 9.1301
# 3 52.5754 40.0501 76.7439 -28.9858 -1.1863 9.4949
# 4 -8.5910 -36.4615 -28.9858 47.1590 2.4385 0.3990
# 5 -6.0335 11.3453 -1.1863 2.4385 31.7749 -3.3004
# 6 -0.0997 9.1301 9.4949 0.3990 -3.3004 21.7763
#
#
#
# Elastic Compliance Matrix: (Units=1/GPa)
#
#
# Indices 1 2 3 4 5 6 
#
# 1 0.007098 -0.002381 -0.005657 -0.004200 0.002723 0.003987
# 2 -0.002381 0.016502 -0.001726 0.011747 -0.008102 -0.007620
# 3 -0.005657 -0.001726 0.023705 0.012372 -0.001572 -0.010103
# 4 -0.004200 0.011747 0.012372 0.037681 -0.008705 -0.012349
# 5 0.002723 -0.008102 -0.001572 -0.008705 0.036507 0.009787
# 6 0.003987 -0.007620 -0.010103 -0.012349 0.009787 0.055249
#
#
# Mechanical properties :
#
#
# Convention : Reuss Voigt Hill
#
# Bulk Modulus (GPa) = 36.00251 70.30632 53.15441
# Shear Modulus (GPa) = 24.32727 36.52992 30.42859
#
# Velocity S-wave (km/s) = 3.29864 4.04215 3.68917
# Velocity P-wave (km/s) = 5.53273 7.29601 6.47467
#
# Compressibility (1/GPa) = 0.02777584
#
# Stress axis : x y z
#
# Youngs Moduli (GPa) = 140.88756 60.59920 42.18474
#
# Poissons Ratio (x) = 0.14431 0.23865
# Poissons Ratio (y) = 0.33551 0.07280
# Poissons Ratio (z) = 0.79705 0.10458
#
# Static dielectric constant tensor:
#      x y z
#    x 4.087750 0.067260 -0.094570 
#    y 0.067260 4.245460 -0.412830 
#    z -0.094570 -0.412830 4.157190 
# 
# 
# High freq. dielectric constant tensor:
#      x y z
#    x 1.890350 0.004450 -0.004470 
#    y 0.004450 1.878720 -0.022480 
#    z -0.004470 -0.022480 1.882560 
# 
# From -- ./inp_files/144002.got.cif
#   From: 2010.06.25/outbox.cif.g09.slc.cpg/sg2_73_cif.got.tgz:144002.got - 2010.06.27 13:26:56.
