data_PCOD8018342
_publ_section_title
;
Structure prediction by ZEFSAII (Michael W. Deem and Ramdas Pophale) SiO2 
 PCOD8018342
Probable space group: P -1
;
_chemical_formula_sum "Si O2"
_cell_formula_units_Z 14
_cell_length_a 20.110434
_cell_length_b 13.180807
_cell_length_c 9.503382
_cell_angle_alpha 59.407088
_cell_angle_beta 119.475167
_cell_angle_gamma 161.846960
_cell_volume 675.254587
_symmetry_space_group_name_H-M "P -1"
_symmetry_group_IT_number 2
_symmetry_cell_setting 'triclinic'
loop_
_space_group_symop_operation_xyz
x,y,z
-x,-y,-z
loop_
_atom_site_type_symbol
_atom_site_label
_atom_site_fract_x
_atom_site_fract_y
_atom_site_fract_z
Si Si1 0.875951 0.819032 0.720532
Si Si2 0.021378 0.236485 0.755914
Si Si3 0.360077 0.204822 0.152067
Si Si4 0.262878 0.637566 0.456323
Si Si5 0.596346 0.250813 0.997788
Si Si6 0.218111 0.790251 0.100746
Si Si7 0.278930 0.386504 0.588060
O O1 0.771508 0.734206 0.536020
O O2 0.711643 0.483294 0.828719
O O3 0.920418 0.966764 0.795153
O O4 0.098584 0.077875 0.724978
O O5 0.089202 0.403905 0.566383
O O6 0.240662 0.541455 0.853942
O O7 0.843725 0.037229 0.809798
O O8 0.497051 0.340929 0.321177
O O9 0.268741 0.972353 0.123405
O O10 0.500000 0.500000 0.000000
O O11 0.201175 0.642478 0.269932
O O12 0.258239 0.498845 0.487957
O O13 0.500000 0.000000 0.500000
O O14 0.406450 0.057080 0.995344
O O15 0.500000 0.000000 0.000000
O O16 0.000000 0.500000 0.000000
#
# Coordination Sequence:
#
# PCOD8018342 Si02
#       7
#     2   2   2   2   2   2   2
#     4  10  22  40  65  91 126 170 224 264 324 399
#     4  11  24  40  66  95 127 178 216 267 329 390
#     4  12  25  42  65  96 137 170 218 272 327 388
#     4  11  21  45  69  91 132 171 221 268 325 393
#     4  12  23  40  66  95 130 172 221 269 329 393
#     4  12  26  43  66  98 134 170 215 280 330 379
#     4  10  22  42  69  94 125 179 216 270 329 387
#
# _framework density 20.73292
#
# number of rings (size 3 to 8) (size 9 to 14) (size 15 to 20)
#    0.000    0.857    2.857    4.714    0.000    5.714 
#    0.000    0.000    0.000    0.000    0.000    0.000 
#    0.000    0.000    0.000    0.000    0.000    0.000 
#
# Total GULP energy -173574.474978 kJ/mol
# GULP energy per Si atom -12398.176784 kJ/mol
# Density = 2.068573 g / cm^3
# Si number density = 20.732920 Si / 1000 Ang^3
#
#
#
# Elastic Constant Matrix: (Units=GPa)
#
#
# Indices 1 2 3 4 5 6 
#
# 1 98.6562 54.9641 36.9762 6.4260 -11.4834 -6.4348
# 2 54.9641 145.9087 48.2324 9.9640 1.2290 -1.2896
# 3 36.9762 48.2324 85.2197 2.7359 8.5050 1.1205
# 4 6.4260 9.9640 2.7359 60.7345 -0.0922 -2.7491
# 5 -11.4834 1.2290 8.5050 -0.0922 33.6843 5.7540
# 6 -6.4348 -1.2896 1.1205 -2.7491 5.7540 36.8066
#
#
#
# Elastic Compliance Matrix: (Units=1/GPa)
#
#
# Indices 1 2 3 4 5 6 
#
# 1 0.015108 -0.004076 -0.004873 -0.000627 0.006251 0.001623
# 2 -0.004076 0.009644 -0.003574 -0.001001 -0.000805 -0.000215
# 3 -0.004873 -0.003574 0.016426 0.000327 -0.005578 -0.000581
# 4 -0.000627 -0.001001 0.000327 0.016733 -0.000412 0.001160
# 5 0.006251 -0.000805 -0.005578 -0.000412 0.033956 -0.004105
# 6 0.001623 -0.000215 -0.000581 0.001160 -0.004105 0.028191
#
#
# Mechanical properties :
#
#
# Convention : Reuss Voigt Hill
#
# Bulk Modulus (GPa) = 61.99541 67.79222 64.89381
# Shear Modulus (GPa) = 33.22673 38.88587 36.05630
#
# Velocity S-wave (km/s) = 4.00760 4.33547 4.17476
# Velocity P-wave (km/s) = 7.16808 7.60465 7.38959
#
# Compressibility (1/GPa) = 0.01613023
#
# Stress axis : x y z
#
# Youngs Moduli (GPa) = 66.19161 103.69460 60.87964
#
# Poissons Ratio (x) = 0.42261 0.29669
# Poissons Ratio (y) = 0.26977 0.21761
# Poissons Ratio (z) = 0.32258 0.37066
#
# Static dielectric constant tensor:
#      x y z
#    x 3.421410 0.105540 -0.455290 
#    y 0.105540 4.042670 0.076560 
#    z -0.455290 0.076560 3.681120 
# 
# 
# High freq. dielectric constant tensor:
#      x y z
#    x 1.804420 -0.007460 -0.018390 
#    y -0.007460 1.838810 -0.002070 
#    z -0.018390 -0.002070 1.820040 
# 
# From -- ./inp_files/159525.got.cif
#   From: 2010.06.25/outbox.cif.g09.slc.cpg/sg2_80_cif.got.tgz:159525.got - 2010.06.27 13:26:56.
