data_PCOD8018395
_publ_section_title
;
Structure prediction by ZEFSAII (Michael W. Deem and Ramdas Pophale) SiO2 
 PCOD8018395
Probable space group: P -1
;
_chemical_formula_sum "Si O2"
_cell_formula_units_Z 16
_cell_length_a 9.177682
_cell_length_b 9.158122
_cell_length_c 26.342054
_cell_angle_alpha 131.031428
_cell_angle_beta 25.644915
_cell_angle_gamma 134.367012
_cell_volume 682.571514
_symmetry_space_group_name_H-M "P -1"
_symmetry_group_IT_number 2
_symmetry_cell_setting 'triclinic'
loop_
_space_group_symop_operation_xyz
x,y,z
-x,-y,-z
loop_
_atom_site_type_symbol
_atom_site_label
_atom_site_fract_x
_atom_site_fract_y
_atom_site_fract_z
Si Si1 0.209467 0.714052 0.957748
Si Si2 0.406014 0.526476 0.386310
Si Si3 0.587479 0.850041 0.187365
Si Si4 0.168780 0.404341 0.236020
Si Si5 0.547401 0.919331 0.624842
Si Si6 0.700929 0.972050 0.380000
Si Si7 0.788679 0.571327 0.467725
Si Si8 0.515800 0.828285 0.783716
O O1 0.607762 0.754126 0.863650
O O2 0.218072 0.720596 0.894813
O O3 0.000000 0.500000 0.000000
O O4 0.003733 0.873888 0.073798
O O5 0.661981 0.734815 0.328811
O O6 0.435671 0.547736 0.441937
O O7 0.500597 0.334839 0.291946
O O8 0.000000 0.500000 0.500000
O O9 0.373113 0.610313 0.186625
O O10 0.414518 0.905740 0.305506
O O11 0.557200 0.982252 0.178172
O O12 0.803844 0.274585 0.293184
O O13 0.112418 0.492263 0.330800
O O14 0.881653 0.823076 0.502916
O O15 0.478012 0.966288 0.599207
O O16 0.500000 0.000000 0.500000
O O17 0.113059 0.099513 0.285862
O O18 0.500000 0.500000 0.500000
#
# Coordination Sequence:
#
# PCOD8018395 Si02
#       8
#     2   2   2   2   2   2   2   2
#     4  10  23  47  71  94 130 183 230 288 337 384
#     4  12  25  41  66 100 142 180 217 272 332 412
#     4  11  26  41  73  94 132 178 233 279 338 392
#     4  10  22  42  67  96 135 174 219 280 334 396
#     4  11  24  42  64 105 132 178 228 267 340 414
#     4  12  26  41  68 102 144 183 216 273 344 408
#     4  10  22  40  65  96 142 171 212 272 331 406
#     4  12  25  46  65 103 135 176 231 279 339 400
#
# _framework density 23.440766
#
# number of rings (size 3 to 8) (size 9 to 14) (size 15 to 20)
#    0.000    1.000    3.750    2.625   10.500    1.000 
#    0.000    0.000    0.000    3.750    0.000    0.000 
#    0.000    0.000    0.000    0.000    0.000    0.000 
#
# Total GULP energy -198228.125612 kJ/mol
# GULP energy per Si atom -12389.257851 kJ/mol
# Density = 2.338741 g / cm^3
# Si number density = 23.440766 Si / 1000 Ang^3
#
#
#
# Elastic Constant Matrix: (Units=GPa)
#
#
# Indices 1 2 3 4 5 6 
#
# 1 106.2071 17.4891 29.2555 -6.2229 7.2724 -27.1053
# 2 17.4891 97.0385 12.7684 -2.5030 2.9244 -22.9408
# 3 29.2555 12.7684 118.4485 0.0787 -8.2596 -18.2080
# 4 -6.2229 -2.5030 0.0787 29.7853 -14.5324 3.5804
# 5 7.2724 2.9244 -8.2596 -14.5324 33.4659 2.5470
# 6 -27.1053 -22.9408 -18.2080 3.5804 2.5470 40.3162
#
#
#
# Elastic Compliance Matrix: (Units=1/GPa)
#
#
# Indices 1 2 3 4 5 6 
#
# 1 0.012157 -0.000040 -0.002119 -0.000220 -0.003824 0.007455
# 2 -0.000040 0.012018 -0.000373 -0.000795 -0.001999 0.006840
# 3 -0.002119 -0.000373 0.009588 0.000648 0.002954 0.002449
# 4 -0.000220 -0.000795 0.000648 0.043710 0.019671 -0.005432
# 5 -0.003824 -0.001999 0.002954 0.019671 0.040667 -0.006691
# 6 0.007455 0.006840 0.002449 -0.005432 -0.006691 0.035719
#
#
# Mechanical properties :
#
#
# Convention : Reuss Voigt Hill
#
# Bulk Modulus (GPa) = 34.84406 48.96889 41.90648
# Shear Modulus (GPa) = 29.67509 38.19222 33.93365
#
# Velocity S-wave (km/s) = 3.56189 4.04085 3.80891
# Velocity P-wave (km/s) = 5.64031 6.53507 6.10411
#
# Compressibility (1/GPa) = 0.02869929
#
# Stress axis : x y z
#
# Youngs Moduli (GPa) = 82.25425 83.20619 104.29552
#
# Poissons Ratio (x) = 0.00336 0.22100
# Poissons Ratio (y) = 0.00332 0.03890
# Poissons Ratio (z) = 0.17429 0.03104
#
# Static dielectric constant tensor:
#      x y z
#    x 4.123810 -0.122050 -0.254160 
#    y -0.122050 5.030330 0.579730 
#    z -0.254160 0.579730 5.029260 
# 
# 
# High freq. dielectric constant tensor:
#      x y z
#    x 1.918140 -0.023290 -0.009090 
#    y -0.023290 1.944770 -0.002190 
#    z -0.009090 -0.002190 1.929130 
# 
# From -- ./inp_files/343866.got.cif
#   From: 2010.06.25/outbox.cif.g09.slc.cpg/sg2_172_cif.got.tgz:343866.got - 2010.06.27 13:26:56.
