data_PCOD8018932
_publ_section_title
;
Structure prediction by ZEFSAII (Michael W. Deem and Ramdas Pophale) SiO2 
 PCOD8018932
Probable space group: P -1
;
_chemical_formula_sum "Si O2"
_cell_formula_units_Z 16
_cell_length_a 17.918885
_cell_length_b 8.671830
_cell_length_c 13.187569
_cell_angle_alpha 75.327156
_cell_angle_beta 143.432099
_cell_angle_gamma 75.943309
_cell_volume 747.253852
_symmetry_space_group_name_H-M "P -1"
_symmetry_group_IT_number 2
_symmetry_cell_setting 'triclinic'
loop_
_space_group_symop_operation_xyz
x,y,z
-x,-y,-z
loop_
_atom_site_type_symbol
_atom_site_label
_atom_site_fract_x
_atom_site_fract_y
_atom_site_fract_z
Si Si1 0.499269 0.159835 0.692612
Si Si2 0.100269 0.040228 0.164407
Si Si3 0.581229 0.485376 0.311001
Si Si4 0.846996 0.793366 0.990086
Si Si5 0.155790 0.452979 0.121601
Si Si6 0.853924 0.031125 0.272750
Si Si7 0.135089 0.609318 0.493787
Si Si8 0.669422 0.873332 0.126097
O O1 0.403464 0.412931 0.592461
O O2 0.353866 0.230517 0.439322
O O3 0.697212 0.005885 0.874189
O O4 0.563313 0.976671 0.883208
O O5 0.184871 0.081250 0.169576
O O6 0.285800 0.800059 0.474338
O O7 0.932587 0.280393 0.016517
O O8 0.000000 0.000000 0.000000
O O9 0.666715 0.486897 0.302232
O O10 0.349892 0.667689 0.014174
O O11 0.818374 0.635035 0.951910
O O12 0.061800 0.610403 0.305218
O O13 0.000000 0.500000 0.000000
O O14 0.783248 0.930119 0.261034
O O15 0.000000 0.000000 0.500000
O O16 0.967995 0.885277 0.316262
O O17 0.175755 0.425165 0.647588
O O18 0.500000 0.000000 0.000000
#
# Coordination Sequence:
#
# PCOD8018932 Si02
#       8
#     2   2   2   2   2   2   2   2
#     4  11  21  42  67  97 137 176 234 292 338 423
#     4  11  21  40  67  97 133 186 225 274 359 421
#     4  11  22  44  70  99 140 185 234 282 356 429
#     4  11  23  40  68 100 138 179 229 293 347 419
#     4  10  22  41  62  98 135 171 229 284 341 416
#     4  11  26  48  67 104 143 178 239 304 347 415
#     4  12  22  46  72  98 137 189 236 285 358 425
#     4  11  23  44  76  99 132 192 237 282 355 421
#
# _framework density 21.411733000000002
#
# number of rings (size 3 to 8) (size 9 to 14) (size 15 to 20)
#    0.000    1.000    7.500    1.500    0.000    1.000 
#    9.000    0.000    0.000    0.000    0.000    0.000 
#    0.000    0.000    0.000    0.000    0.000    0.000 
#
# Total GULP energy -198249.232740 kJ/mol
# GULP energy per Si atom -12390.577046 kJ/mol
# Density = 2.136300 g / cm^3
# Si number density = 21.411733 Si / 1000 Ang^3
#
#
#
# Elastic Constant Matrix: (Units=GPa)
#
#
# Indices 1 2 3 4 5 6 
#
# 1 86.7706 38.2631 30.0269 -9.3153 6.3820 -15.7001
# 2 38.2631 111.7279 56.7348 -1.1208 -0.1732 -7.5212
# 3 30.0269 56.7348 159.2031 -3.4922 -2.4301 2.5741
# 4 -9.3153 -1.1208 -3.4922 42.4911 8.0290 -3.5427
# 5 6.3820 -0.1732 -2.4301 8.0290 41.7040 -5.8462
# 6 -15.7001 -7.5212 2.5741 -3.5427 -5.8462 23.3942
#
#
#
# Elastic Compliance Matrix: (Units=1/GPa)
#
#
# Indices 1 2 3 4 5 6 
#
# 1 0.016356 -0.003989 -0.001758 0.004570 -0.002092 0.010057
# 2 -0.003989 0.012286 -0.003660 -0.000868 0.000862 0.001759
# 3 -0.001758 -0.003660 0.007970 -0.000149 0.000301 -0.003181
# 4 0.004570 -0.000868 -0.000149 0.025890 -0.004926 0.005494
# 5 -0.002092 0.000862 0.000301 -0.004926 0.025909 0.004569
# 6 0.010057 0.001759 -0.003181 0.005494 0.004569 0.052384
#
#
# Mechanical properties :
#
#
# Convention : Reuss Voigt Hill
#
# Bulk Modulus (GPa) = 56.18621 67.52791 61.85706
# Shear Modulus (GPa) = 30.20376 37.02965 33.61670
#
# Velocity S-wave (km/s) = 3.75989 4.16313 3.96664
# Velocity P-wave (km/s) = 6.71914 7.39697 7.06619
#
# Compressibility (1/GPa) = 0.01779796
#
# Stress axis : x y z
#
# Youngs Moduli (GPa) = 61.13909 81.39128 125.47142
#
# Poissons Ratio (x) = 0.32470 0.22052
# Poissons Ratio (y) = 0.24391 0.45927
# Poissons Ratio (z) = 0.10745 0.29792
#
# Static dielectric constant tensor:
#      x y z
#    x 3.892680 0.285330 -0.074210 
#    y 0.285330 6.549830 -1.073140 
#    z -0.074210 -1.073140 4.019470 
# 
# 
# High freq. dielectric constant tensor:
#      x y z
#    x 1.826460 -0.013710 0.014310 
#    y -0.013710 1.835880 -0.011450 
#    z 0.014310 -0.011450 1.850270 
# 
# From -- ./inp_files/446475.got.cif
#   From: 2010.06.25/outbox.cif.g09.slc.cpg/sg2_224_cif.got.tgz:446475.got - 2010.06.27 13:26:56.
