data_PCOD8018377
_publ_section_title
;
Structure prediction by ZEFSAII (Michael W. Deem and Ramdas Pophale) SiO2 
 PCOD8018377
Probable space group: P -1
;
_chemical_formula_sum "Si O2"
_cell_formula_units_Z 16
_cell_length_a 8.547531
_cell_length_b 16.087871
_cell_length_c 8.914339
_cell_angle_alpha 114.691335
_cell_angle_beta 39.244646
_cell_angle_gamma 105.836535
_cell_volume 701.857134
_symmetry_space_group_name_H-M "P -1"
_symmetry_group_IT_number 2
_symmetry_cell_setting 'triclinic'
loop_
_space_group_symop_operation_xyz
x,y,z
-x,-y,-z
loop_
_atom_site_type_symbol
_atom_site_label
_atom_site_fract_x
_atom_site_fract_y
_atom_site_fract_z
Si Si1 0.621247 0.006331 0.753498
Si Si2 0.982677 0.146051 0.680116
Si Si3 0.322685 0.154581 0.936250
Si Si4 0.383632 0.708394 0.361022
Si Si5 0.750589 0.547570 0.383469
Si Si6 0.891925 0.718822 0.558229
Si Si7 0.150247 0.395311 0.976176
Si Si8 0.893148 0.217994 0.109378
O O1 0.417110 0.048210 0.817129
O O2 0.827920 0.079187 0.648450
O O3 0.743943 0.907163 0.532221
O O4 0.500000 0.000000 0.000000
O O5 0.012130 0.238283 0.634176
O O6 0.830566 0.166138 0.963947
O O7 0.520459 0.207478 0.737488
O O8 0.283170 0.206387 0.164622
O O9 0.063695 0.150196 0.039389
O O10 0.577283 0.616176 0.155022
O O11 0.346044 0.742087 0.588417
O O12 0.127105 0.681401 0.458452
O O13 0.500000 0.500000 0.500000
O O14 0.725437 0.633965 0.581389
O O15 0.845587 0.585525 0.187449
O O16 0.960032 0.474953 0.248371
O O17 0.054110 0.297370 0.996089
#
# Coordination Sequence:
#
# PCOD8018377 Si02
#       8
#     2   2   2   2   2   2   2   2
#     4  11  23  40  64  98 136 162 219 279 324 390
#     4  11  23  40  67  97 124 175 223 268 327 389
#     4  10  22  40  65  95 132 172 214 271 332 389
#     4  10  22  42  65  93 133 176 218 271 323 397
#     4  11  24  40  66 102 135 166 219 280 324 390
#     4  11  22  42  68  96 129 176 222 264 335 393
#     4  10  22  42  63  95 133 170 217 273 329 385
#     4  10  22  41  66  93 131 172 220 266 330 392
#
# _framework density 22.796659999999999
#
# number of rings (size 3 to 8) (size 9 to 14) (size 15 to 20)
#    0.000    1.500    3.750    0.750    0.000    7.000 
#    0.000   10.000    0.000    0.000    0.000    0.000 
#    0.000    0.000    0.000    0.000    0.000    0.000 
#
# Total GULP energy -198342.352462 kJ/mol
# GULP energy per Si atom -12396.397029 kJ/mol
# Density = 2.274477 g / cm^3
# Si number density = 22.796660 Si / 1000 Ang^3
#
#
#
# Elastic Constant Matrix: (Units=GPa)
#
#
# Indices 1 2 3 4 5 6 
#
# 1 78.0542 39.3554 33.1789 13.8705 -2.4806 -14.6406
# 2 39.3554 70.1514 25.3899 11.3067 -9.1253 -19.5979
# 3 33.1789 25.3899 107.2833 0.7985 1.1181 -12.5131
# 4 13.8705 11.3067 0.7985 33.8769 -6.7662 -5.6523
# 5 -2.4806 -9.1253 1.1181 -6.7662 39.8235 6.8517
# 6 -14.6406 -19.5979 -12.5131 -5.6523 6.8517 42.2757
#
#
#
# Elastic Compliance Matrix: (Units=1/GPa)
#
#
# Indices 1 2 3 4 5 6 
#
# 1 0.020065 -0.008869 -0.003901 -0.005311 -0.001793 0.001263
# 2 -0.008869 0.022325 -0.001869 -0.002143 0.003234 0.005914
# 3 -0.003901 -0.001869 0.011139 0.002029 -0.000897 0.001496
# 4 -0.005311 -0.002143 0.002029 0.033523 0.004557 0.001511
# 5 -0.001793 0.003234 -0.000897 0.004557 0.027085 -0.003167
# 6 0.001263 0.005914 0.001496 0.001511 -0.003167 0.027992
#
#
# Mechanical properties :
#
#
# Convention : Reuss Voigt Hill
#
# Bulk Modulus (GPa) = 41.23445 50.14860 45.69153
# Shear Modulus (GPa) = 27.85676 33.69953 30.77815
#
# Velocity S-wave (km/s) = 3.49946 3.84899 3.67838
# Velocity P-wave (km/s) = 5.86988 6.46521 6.17472
#
# Compressibility (1/GPa) = 0.02425157
#
# Stress axis : x y z
#
# Youngs Moduli (GPa) = 49.83685 44.79247 89.77849
#
# Poissons Ratio (x) = 0.39728 0.35022
# Poissons Ratio (y) = 0.44202 0.16775
# Poissons Ratio (z) = 0.19441 0.08370
#
# Static dielectric constant tensor:
#      x y z
#    x 4.238300 -0.396390 -0.167060 
#    y -0.396390 4.132540 0.128680 
#    z -0.167060 0.128680 4.264800 
# 
# 
# High freq. dielectric constant tensor:
#      x y z
#    x 1.887700 -0.026310 -0.011110 
#    y -0.026310 1.895110 -0.004140 
#    z -0.011110 -0.004140 1.901920 
# 
# From -- ./inp_files/52198.got.cif
#   From: 2010.06.25/outbox.cif.g09.slc.cpg/sg2_27_cif.got.tgz:52198.got - 2010.06.27 13:26:56.
