data_PCOD8018608
_publ_section_title
;
Structure prediction by ZEFSAII (Michael W. Deem and Ramdas Pophale) SiO2 
 PCOD8018608
Probable space group: P -1
;
_chemical_formula_sum "Si O2"
_cell_formula_units_Z 16
_cell_length_a 8.336695
_cell_length_b 14.480796
_cell_length_c 12.575033
_cell_angle_alpha 61.554387
_cell_angle_beta 71.837045
_cell_angle_gamma 121.569413
_cell_volume 753.545146
_symmetry_space_group_name_H-M "P -1"
_symmetry_group_IT_number 2
_symmetry_cell_setting 'triclinic'
loop_
_space_group_symop_operation_xyz
x,y,z
-x,-y,-z
loop_
_atom_site_type_symbol
_atom_site_label
_atom_site_fract_x
_atom_site_fract_y
_atom_site_fract_z
Si Si1 0.503607 0.625813 0.444176
Si Si2 0.078489 0.023856 0.147503
Si Si3 0.828940 0.863605 0.706717
Si Si4 0.952200 0.371030 0.802421
Si Si5 0.823516 0.462647 0.963773
Si Si6 0.810721 0.157535 0.300721
Si Si7 0.432053 0.768545 0.225921
Si Si8 0.786637 0.086654 0.111271
O O1 0.500000 0.500000 0.500000
O O2 0.414125 0.641572 0.345464
O O3 0.810439 0.814736 0.313087
O O4 0.292143 0.552140 0.624781
O O5 0.179190 0.068054 0.224442
O O6 0.019800 0.112290 0.068272
O O7 0.313908 0.091366 0.987429
O O8 0.009295 0.853361 0.703927
O O9 0.497090 0.673653 0.853203
O O10 0.000000 0.000000 0.500000
O O11 0.817516 0.386702 0.902811
O O12 0.850735 0.343835 0.717675
O O13 0.883660 0.216646 0.930301
O O14 0.994538 0.653207 0.795446
O O15 0.000000 0.500000 0.000000
O O16 0.750991 0.136395 0.198678
O O17 0.500000 0.000000 0.500000
O O18 0.494297 0.883344 0.245453
#
# Coordination Sequence:
#
# PCOD8018608 Si02
#       8
#     2   2   2   2   2   2   2   2
#     4  11  24  42  64  97 133 175 218 270 335 403
#     4  10  22  43  67  92 131 171 220 274 334 404
#     4  11  25  45  68 101 131 179 232 278 338 402
#     4  12  24  41  67 100 133 167 221 279 336 394
#     4  12  25  45  69  98 139 175 226 281 342 400
#     4  11  25  44  71  98 135 179 226 279 341 402
#     4  11  22  43  66  95 131 170 220 270 334 400
#     4  10  22  40  68  91 130 174 215 265 341 397
#
# _framework density 21.232966999999999
#
# number of rings (size 3 to 8) (size 9 to 14) (size 15 to 20)
#    0.000    1.000    2.500    4.875    7.000    0.000 
#    2.250    0.000    0.000    0.000    0.000    0.000 
#    0.000    0.000    0.000    0.000    0.000    0.000 
#
# Total GULP energy -198366.276676 kJ/mol
# GULP energy per Si atom -12397.892292 kJ/mol
# Density = 2.118464 g / cm^3
# Si number density = 21.232967 Si / 1000 Ang^3
#
#
#
# Elastic Constant Matrix: (Units=GPa)
#
#
# Indices 1 2 3 4 5 6 
#
# 1 81.0208 40.0654 54.4473 -8.1273 3.0507 12.3416
# 2 40.0654 102.5380 37.3165 -10.0693 9.0270 2.0873
# 3 54.4473 37.3165 132.7697 -20.7570 -7.4359 -3.1014
# 4 -8.1273 -10.0693 -20.7570 33.7049 1.4826 4.3288
# 5 3.0507 9.0270 -7.4359 1.4826 49.7338 1.3850
# 6 12.3416 2.0873 -3.1014 4.3288 1.3850 33.0113
#
#
#
# Elastic Compliance Matrix: (Units=1/GPa)
#
#
# Indices 1 2 3 4 5 6 
#
# 1 0.021336 -0.005321 -0.007509 0.000051 -0.001236 -0.008301
# 2 -0.005321 0.012612 -0.001195 0.001725 -0.002219 0.000947
# 3 -0.007509 -0.001195 0.011871 0.004622 0.002223 0.003299
# 4 0.000051 0.001725 0.004622 0.033589 -0.000513 -0.004077
# 5 -0.001236 -0.002219 0.002223 -0.000513 0.020933 0.000000
# 6 -0.008301 0.000947 0.003299 -0.004077 0.000000 0.034181
#
#
# Mechanical properties :
#
#
# Convention : Reuss Voigt Hill
#
# Bulk Modulus (GPa) = 56.27985 64.44301 60.36143
# Shear Modulus (GPa) = 29.67407 35.58995 32.63201
#
# Velocity S-wave (km/s) = 3.74243 4.09854 3.92453
# Velocity P-wave (km/s) = 6.72591 7.26730 7.00184
#
# Compressibility (1/GPa) = 0.01776835
#
# Stress axis : x y z
#
# Youngs Moduli (GPa) = 46.86829 79.28887 84.23646
#
# Poissons Ratio (x) = 0.42192 0.63256
# Poissons Ratio (y) = 0.24940 0.10067
# Poissons Ratio (z) = 0.35195 0.09476
#
# Static dielectric constant tensor:
#      x y z
#    x 3.867750 0.116210 0.008170 
#    y 0.116210 4.444510 0.098920 
#    z 0.008170 0.098920 3.893000 
# 
# 
# High freq. dielectric constant tensor:
#      x y z
#    x 1.838800 0.003610 0.002070 
#    y 0.003610 1.831990 -0.002840 
#    z 0.002070 -0.002840 1.842690 
# 
# From -- ./inp_files/274344.got.cif
#   From: 2010.06.25/outbox.cif.g09.slc.cpg/sg2_138_cif.got.tgz:274344.got - 2010.06.27 13:26:56.
