data_PCOD8018979
_publ_section_title
;
Structure prediction by ZEFSAII (Michael W. Deem and Ramdas Pophale) SiO2 
 PCOD8018979
Probable space group: P -1
;
_chemical_formula_sum "Si O2"
_cell_formula_units_Z 14
_cell_length_a 9.722842
_cell_length_b 11.921313
_cell_length_c 20.841900
_cell_angle_alpha 150.995843
_cell_angle_beta 45.399791
_cell_angle_gamma 114.563370
_cell_volume 682.558327
_symmetry_space_group_name_H-M "P -1"
_symmetry_group_IT_number 2
_symmetry_cell_setting 'triclinic'
loop_
_space_group_symop_operation_xyz
x,y,z
-x,-y,-z
loop_
_atom_site_type_symbol
_atom_site_label
_atom_site_fract_x
_atom_site_fract_y
_atom_site_fract_z
Si Si1 0.432756 0.284114 0.401580
Si Si2 0.135907 0.564297 0.037769
Si Si3 0.628266 0.094811 0.676936
Si Si4 0.080455 0.364675 0.304760
Si Si5 0.916101 0.892044 0.698165
Si Si6 0.894823 0.327784 0.755970
Si Si7 0.387522 0.142339 0.973794
O O1 0.500000 0.500000 0.500000
O O2 0.154311 0.473616 0.578467
O O3 0.472047 0.069453 0.338456
O O4 0.595210 0.104742 0.197219
O O5 0.102722 0.533058 0.108688
O O6 0.013798 0.894257 0.229911
O O7 0.419182 0.348826 0.828667
O O8 0.000000 0.500000 0.000000
O O9 0.732445 0.205308 0.751324
O O10 0.834719 0.910637 0.466679
O O11 0.070160 0.165543 0.259582
O O12 0.097890 0.598442 0.453709
O O13 0.303049 0.160814 0.083712
O O14 0.651293 0.053473 0.840644
O O15 0.792426 0.554481 0.846485
#
# Coordination Sequence:
#
# PCOD8018979 Si02
#       7
#     2   2   2   2   2   2   2
#     4  11  24  39  61  93 129 163 204 261 322 383
#     4  12  26  41  63  95 138 169 204 264 337 388
#     4  11  23  43  68  97 124 166 225 270 312 377
#     4  10  22  41  63  93 123 167 214 264 312 373
#     4  10  23  40  62  91 131 166 211 261 318 382
#     4  11  22  41  73  96 120 167 227 272 307 376
#     4  11  20  40  68  94 117 165 222 266 312 372
#
# _framework density 20.511067000000001
#
# number of rings (size 3 to 8) (size 9 to 14) (size 15 to 20)
#    0.000    1.143    4.286    2.571    4.000    1.143 
#    2.571    0.000    0.000    0.000    0.000    0.000 
#    0.000    0.000    0.000    0.000    0.000    0.000 
#
# Total GULP energy -173521.663830 kJ/mol
# GULP energy per Si atom -12394.404559 kJ/mol
# Density = 2.046438 g / cm^3
# Si number density = 20.511067 Si / 1000 Ang^3
#
#
#
# Elastic Constant Matrix: (Units=GPa)
#
#
# Indices 1 2 3 4 5 6 
#
# 1 78.0892 19.1136 26.2294 -5.7437 13.0959 1.2305
# 2 19.1136 83.2438 14.7139 5.6285 17.0230 0.6618
# 3 26.2294 14.7139 106.3702 -10.4751 10.3216 3.1465
# 4 -5.7437 5.6285 -10.4751 29.9021 -5.1184 -0.0081
# 5 13.0959 17.0230 10.3216 -5.1184 29.9271 7.9182
# 6 1.2305 0.6618 3.1465 -0.0081 7.9182 30.4790
#
#
#
# Elastic Compliance Matrix: (Units=1/GPa)
#
#
# Indices 1 2 3 4 5 6 
#
# 1 0.015140 -0.002192 -0.002880 0.001568 -0.004346 0.000863
# 2 -0.002192 0.014792 -0.001249 -0.005088 -0.008447 0.002089
# 3 -0.002880 -0.001249 0.010722 0.003270 -0.000981 -0.000708
# 4 0.001568 -0.005088 0.003270 0.037229 0.008077 -0.002379
# 5 -0.004346 -0.008447 -0.000981 0.008077 0.044797 -0.011176
# 6 0.000863 0.002089 -0.000708 -0.002379 -0.011176 0.035705
#
#
# Mechanical properties :
#
#
# Convention : Reuss Voigt Hill
#
# Bulk Modulus (GPa) = 35.69685 43.09079 39.39382
# Shear Modulus (GPa) = 27.72188 31.90474 29.81331
#
# Velocity S-wave (km/s) = 3.68034 3.94825 3.81665
# Velocity P-wave (km/s) = 5.95830 6.46831 6.21854
#
# Compressibility (1/GPa) = 0.02801368
#
# Stress axis : x y z
#
# Youngs Moduli (GPa) = 66.05007 67.60565 93.26538
#
# Poissons Ratio (x) = 0.14816 0.26857
# Poissons Ratio (y) = 0.14475 0.11648
# Poissons Ratio (z) = 0.19020 0.08443
#
# Static dielectric constant tensor:
#      x y z
#    x 3.637350 -0.043660 0.110440 
#    y -0.043660 3.638880 0.256930 
#    z 0.110440 0.256930 4.032460 
# 
# 
# High freq. dielectric constant tensor:
#      x y z
#    x 1.783600 -0.018460 0.002500 
#    y -0.018460 1.789360 0.012960 
#    z 0.002500 0.012960 1.822670 
# 
# From -- ./inp_files/257294.got.cif
#   From: 2010.06.25/outbox.cif.g09.slc.cpg/sg2_129_cif.got.tgz:257294.got - 2010.06.27 13:26:56.
