data_PCOD8018930
_publ_section_title
;
Structure prediction by ZEFSAII (Michael W. Deem and Ramdas Pophale) SiO2 
 PCOD8018930
Probable space group: P -1
;
_chemical_formula_sum "Si O2"
_cell_formula_units_Z 14
_cell_length_a 16.962686
_cell_length_b 11.132141
_cell_length_c 18.632077
_cell_angle_alpha 138.366281
_cell_angle_beta 149.976070
_cell_angle_gamma 21.404369
_cell_volume 608.374743
_symmetry_space_group_name_H-M "P -1"
_symmetry_group_IT_number 2
_symmetry_cell_setting 'triclinic'
loop_
_space_group_symop_operation_xyz
x,y,z
-x,-y,-z
loop_
_atom_site_type_symbol
_atom_site_label
_atom_site_fract_x
_atom_site_fract_y
_atom_site_fract_z
Si Si1 0.563090 0.750640 0.976461
Si Si2 0.631333 0.274207 0.675100
Si Si3 0.836143 0.849732 0.514297
Si Si4 0.116476 0.026096 0.021186
Si Si5 0.189004 0.133607 0.982021
Si Si6 0.337983 0.597167 0.725414
Si Si7 0.401608 0.441069 0.342558
O O1 0.327939 0.821756 0.798087
O O2 0.502011 0.843817 0.055178
O O3 0.906885 0.359717 0.054463
O O4 0.500000 0.000000 0.000000
O O5 0.394315 0.438733 0.622779
O O6 0.495850 0.587442 0.668177
O O7 0.700182 0.046649 0.571368
O O8 0.935203 0.034008 0.849527
O O9 0.000000 0.500000 0.500000
O O10 0.053481 0.791439 0.627823
O O11 0.569970 0.095411 0.352570
O O12 0.378465 0.690418 0.126168
O O13 0.268143 0.990131 0.060043
O O14 0.962336 0.220666 0.798734
O O15 0.000000 0.500000 0.000000
O O16 0.500000 0.500000 0.500000
#
# Coordination Sequence:
#
# PCOD8018930 Si02
#       7
#     2   2   2   2   2   2   2
#     4  11  21  37  62  95 127 162 208 260 320 384
#     4   9  20  42  65  87 127 166 212 265 320 378
#     4  11  25  42  64  92 126 173 219 260 312 384
#     4  10  22  41  62  98 132 163 206 269 326 386
#     4  11  22  38  66  95 128 165 213 271 325 369
#     4  11  24  42  64  94 134 169 209 265 326 380
#     4   9  20  42  63  87 126 169 213 262 313 387
#
# _framework density 23.012132999999999
#
# number of rings (size 3 to 8) (size 9 to 14) (size 15 to 20)
#    0.000    1.714    1.429    4.286    2.000    4.571 
#    0.000    4.286    0.000    0.000    0.000    0.000 
#    0.000    0.000    0.000    0.000    0.000    0.000 
#
# Total GULP energy -173443.613305 kJ/mol
# GULP energy per Si atom -12388.829522 kJ/mol
# Density = 2.295976 g / cm^3
# Si number density = 23.012133 Si / 1000 Ang^3
#
#
#
# Elastic Constant Matrix: (Units=GPa)
#
#
# Indices 1 2 3 4 5 6 
#
# 1 157.3156 48.5502 29.9089 10.4921 -13.7677 -10.9049
# 2 48.5502 84.5953 10.7863 14.1210 -10.7861 1.3102
# 3 29.9089 10.7863 45.7965 -2.1021 -14.3584 4.5982
# 4 10.4921 14.1210 -2.1021 32.0183 5.8826 -5.1403
# 5 -13.7677 -10.7861 -14.3584 5.8826 39.3055 4.4390
# 6 -10.9049 1.3102 4.5982 -5.1403 4.4390 51.7982
#
#
#
# Elastic Compliance Matrix: (Units=1/GPa)
#
#
# Indices 1 2 3 4 5 6 
#
# 1 0.008879 -0.004335 -0.005074 -0.000945 -0.000056 0.002340
# 2 -0.004335 0.015978 0.000336 -0.006772 0.004272 -0.002385
# 3 -0.005074 0.000336 0.028369 0.001038 0.009004 -0.004264
# 4 -0.000945 -0.006772 0.001038 0.036698 -0.007775 0.004188
# 5 -0.000056 0.004272 0.009004 -0.007775 0.031544 -0.004394
# 6 0.002340 -0.002385 -0.004264 0.004188 -0.004394 0.021029
#
#
# Mechanical properties :
#
#
# Convention : Reuss Voigt Hill
#
# Bulk Modulus (GPa) = 28.50587 51.79980 40.15284
# Shear Modulus (GPa) = 29.01298 37.85519 33.43409
#
# Velocity S-wave (km/s) = 3.55458 4.06027 3.81581
# Velocity P-wave (km/s) = 5.40934 6.67381 6.07457
#
# Compressibility (1/GPa) = 0.03508049
#
# Stress axis : x y z
#
# Youngs Moduli (GPa) = 112.61969 62.58660 35.24950
#
# Poissons Ratio (x) = 0.27129 0.17885
# Poissons Ratio (y) = 0.48816 -0.01183
# Poissons Ratio (z) = 0.57142 -0.02100
#
# Static dielectric constant tensor:
#      x y z
#    x 4.647060 0.321480 -0.568700 
#    y 0.321480 4.051560 0.147080 
#    z -0.568700 0.147080 4.047940 
# 
# 
# High freq. dielectric constant tensor:
#      x y z
#    x 1.932560 -0.002560 -0.014070 
#    y -0.002560 1.904610 0.004830 
#    z -0.014070 0.004830 1.879660 
# 
# From -- ./inp_files/575977.got.cif
#   From: 2010.06.25/outbox.cif.g09.slc.cpg/sg2_288_cif.got.tgz:575977.got - 2010.06.27 13:26:56.
