data_PCOD8018106
_publ_section_title
;
Structure prediction by ZEFSAII (Michael W. Deem and Ramdas Pophale) SiO2 
 PCOD8018106
Probable space group: P -1
;
_chemical_formula_sum "Si O2"
_cell_formula_units_Z 16
_cell_length_a 8.428318
_cell_length_b 9.371134
_cell_length_c 14.634685
_cell_angle_alpha 124.516135
_cell_angle_beta 63.930103
_cell_angle_gamma 81.866093
_cell_volume 726.745906
_symmetry_space_group_name_H-M "P -1"
_symmetry_group_IT_number 2
_symmetry_cell_setting 'triclinic'
loop_
_space_group_symop_operation_xyz
x,y,z
-x,-y,-z
loop_
_atom_site_type_symbol
_atom_site_label
_atom_site_fract_x
_atom_site_fract_y
_atom_site_fract_z
Si Si1 0.507500 0.702544 0.892596
Si Si2 0.827147 0.265891 0.703717
Si Si3 0.809783 0.881681 0.302220
Si Si4 0.602106 0.743100 0.436901
Si Si5 0.786236 0.302575 0.182320
Si Si6 0.622554 0.936560 0.820782
Si Si7 0.810803 0.917338 0.105429
Si Si8 0.812582 0.886285 0.573685
O O1 0.649988 0.502209 0.844318
O O2 0.360182 0.662714 0.853471
O O3 0.649025 0.758062 0.815454
O O4 0.362400 0.893387 0.064160
O O5 0.974343 0.193147 0.728760
O O6 0.953884 0.244398 0.571197
O O7 0.726590 0.127257 0.670221
O O8 0.701341 0.763780 0.325444
O O9 0.854546 0.833161 0.166553
O O10 0.649709 0.122847 0.452309
O O11 0.684411 0.506076 0.343113
O O12 0.664065 0.830846 0.538408
O O13 0.809511 0.126911 0.179480
O O14 0.009751 0.246626 0.066709
O O15 0.403079 0.050271 0.865041
O O16 0.808766 0.837572 0.664074
#
# Coordination Sequence:
#
# PCOD8018106 Si02
#       8
#     2   2   2   2   2   2   2   2
#     4  10  24  43  63  90 127 163 205 252 307 362
#     4  10  24  41  61  93 127 163 201 250 310 368
#     4  10  22  40  62  91 124 161 202 253 308 359
#     4  10  22  41  63  92 124 162 203 256 308 360
#     4  10  24  41  66  91 123 162 207 257 303 359
#     4  10  22  44  66  89 123 163 206 258 301 362
#     4  10  22  44  63  93 121 161 210 256 303 358
#     4  10  22  42  62  93 124 163 202 251 309 360
#
# _framework density 22.015947000000001
#
# number of rings (size 3 to 8) (size 9 to 14) (size 15 to 20)
#    0.000    2.000    1.250    0.000   12.250    2.000 
#    0.000    0.000    0.000    0.000    0.000    0.000 
#    0.000    0.000    0.000    0.000    0.000    0.000 
#
# Total GULP energy -198423.829940 kJ/mol
# GULP energy per Si atom -12401.489371 kJ/mol
# Density = 2.196584 g / cm^3
# Si number density = 22.015947 Si / 1000 Ang^3
#
#
#
# Elastic Constant Matrix: (Units=GPa)
#
#
# Indices 1 2 3 4 5 6 
#
# 1 80.9945 15.4622 15.3319 9.1976 15.4739 -3.9366
# 2 15.4622 60.4084 25.6834 3.0057 14.2723 -9.9334
# 3 15.3319 25.6834 38.9801 4.4542 13.3826 -1.8693
# 4 9.1976 3.0057 4.4542 50.2104 -1.5198 3.2473
# 5 15.4739 14.2723 13.3826 -1.5198 27.9123 1.1218
# 6 -3.9366 -9.9334 -1.8693 3.2473 1.1218 25.1970
#
#
#
# Elastic Compliance Matrix: (Units=1/GPa)
#
#
# Indices 1 2 3 4 5 6 
#
# 1 0.014700 -0.000421 -0.002689 -0.002806 -0.006901 0.002600
# 2 -0.000421 0.025792 -0.013951 -0.001046 -0.006704 0.009500
# 3 -0.002689 -0.013951 0.039647 -0.002362 -0.010424 -0.002210
# 4 -0.002806 -0.001046 -0.002362 0.021095 0.004530 -0.003946
# 5 -0.006901 -0.006704 -0.010424 0.004530 0.048616 -0.007243
# 6 0.002600 0.009500 -0.002210 -0.003946 -0.007243 0.044506
#
#
# Mechanical properties :
#
#
# Convention : Reuss Voigt Hill
#
# Bulk Modulus (GPa) = 21.73246 32.59311 27.16279
# Shear Modulus (GPa) = 20.50726 28.92430 24.71578
#
# Velocity S-wave (km/s) = 3.05532 3.62855 3.35420
# Velocity P-wave (km/s) = 4.72644 5.69137 5.23120
#
# Compressibility (1/GPa) = 0.04601412
#
# Stress axis : x y z
#
# Youngs Moduli (GPa) = 68.02924 38.77243 25.22277
#
# Poissons Ratio (x) = 0.01634 0.06783
# Poissons Ratio (y) = 0.02867 0.35188
# Poissons Ratio (z) = 0.18296 0.54092
#
# Static dielectric constant tensor:
#      x y z
#    x 3.806650 0.050820 0.013680 
#    y 0.050820 3.933490 -0.072590 
#    z 0.013680 -0.072590 3.930050 
# 
# 
# High freq. dielectric constant tensor:
#      x y z
#    x 1.860510 0.002630 0.004570 
#    y 0.002630 1.858960 -0.005520 
#    z 0.004570 -0.005520 1.859300 
# 
# From -- ./inp_files/495562.got.cif
#   From: 2010.06.25/outbox.cif.g09.slc.cpg/sg2_248_cif.got.tgz:495562.got - 2010.06.27 13:26:56.
