data_PCOD8018432
_publ_section_title
;
Structure prediction by ZEFSAII (Michael W. Deem and Ramdas Pophale) SiO2 
 PCOD8018432
Probable space group: P -1
;
_chemical_formula_sum "Si O2"
_cell_formula_units_Z 16
_cell_length_a 12.884980
_cell_length_b 18.455076
_cell_length_c 21.774360
_cell_angle_alpha 19.811481
_cell_angle_beta 152.773405
_cell_angle_gamma 140.718894
_cell_volume 734.716717
_symmetry_space_group_name_H-M "P -1"
_symmetry_group_IT_number 2
_symmetry_cell_setting 'triclinic'
loop_
_space_group_symop_operation_xyz
x,y,z
-x,-y,-z
loop_
_atom_site_type_symbol
_atom_site_label
_atom_site_fract_x
_atom_site_fract_y
_atom_site_fract_z
Si Si1 0.492902 0.739297 0.877501
Si Si2 0.264864 0.622272 0.501688
Si Si3 0.257731 0.150420 0.897102
Si Si4 0.537711 0.836024 0.400053
Si Si5 0.477206 0.661296 0.706063
Si Si6 0.032081 0.032412 0.754348
Si Si7 0.905860 0.370627 0.314487
Si Si8 0.023819 0.558895 0.108039
O O1 0.256053 0.756498 0.699975
O O2 0.465363 0.992967 0.682341
O O3 0.516515 0.588848 0.071218
O O4 0.736673 0.615679 0.062652
O O5 0.349205 0.343973 0.765299
O O6 0.340143 0.720284 0.401485
O O7 0.413668 0.692471 0.576548
O O8 0.970246 0.738693 0.263647
O O9 0.184881 0.036291 0.891773
O O10 0.476219 0.958552 0.203579
O O11 0.814259 0.634303 0.701864
O O12 0.263881 0.860981 0.473612
O O13 0.738095 0.673295 0.846274
O O14 0.084553 0.185164 0.605752
O O15 0.122280 0.763644 0.996986
O O16 0.060834 0.437391 0.291426
#
# Coordination Sequence:
#
# PCOD8018432 Si02
#       8
#     2   2   2   2   2   2   2   2
#     4   9  19  39  63  93 126 160 210 256 309 370
#     4  10  22  40  66  92 120 165 212 263 306 360
#     4  10  23  44  64  91 123 167 220 258 300 369
#     4  12  25  39  63 100 130 163 202 262 323 374
#     4   9  19  40  65  92 125 161 211 263 302 371
#     4  10  22  41  67  89 121 170 221 256 297 373
#     4   9  21  39  63  90 124 168 206 254 307 370
#     4  11  25  39  61 100 132 164 200 257 328 376
#
# _framework density 21.777100999999998
#
# number of rings (size 3 to 8) (size 9 to 14) (size 15 to 20)
#    0.000    2.000    1.250    1.500    7.000    5.000 
#    0.000    1.250    0.000    0.000    0.000    0.000 
#    0.000    0.000    0.000    0.000    0.000    0.000 
#
# Total GULP energy -198425.296626 kJ/mol
# GULP energy per Si atom -12401.581039 kJ/mol
# Density = 2.172754 g / cm^3
# Si number density = 21.777101 Si / 1000 Ang^3
#
#
#
# Elastic Constant Matrix: (Units=GPa)
#
#
# Indices 1 2 3 4 5 6 
#
# 1 55.9070 25.8445 26.3783 -20.7132 2.4629 -4.2116
# 2 25.8445 73.3881 43.9730 -24.4934 5.7422 -11.6000
# 3 26.3783 43.9730 78.4072 -20.2375 1.4549 -11.7280
# 4 -20.7132 -24.4934 -20.2375 36.6922 -4.1019 -6.9702
# 5 2.4629 5.7422 1.4549 -4.1019 26.7566 -4.2954
# 6 -4.2116 -11.6000 -11.7280 -6.9702 -4.2954 24.0666
#
#
#
# Elastic Compliance Matrix: (Units=1/GPa)
#
#
# Indices 1 2 3 4 5 6 
#
# 1 0.025336 -0.001976 -0.003444 0.012253 0.001047 0.005539
# 2 -0.001976 0.025936 -0.008607 0.013570 -0.000954 0.011720
# 3 -0.003444 -0.008607 0.021428 0.006007 0.003205 0.008002
# 4 0.012253 0.013570 0.006007 0.052866 0.008298 0.028404
# 5 0.001047 -0.000954 0.003205 0.008298 0.040328 0.010886
# 6 0.005539 0.011720 0.008002 0.028404 0.010886 0.062239
#
#
# Mechanical properties :
#
#
# Convention : Reuss Voigt Hill
#
# Bulk Modulus (GPa) = 22.39873 44.45489 33.42681
# Shear Modulus (GPa) = 18.44557 24.93685 21.69121
#
# Velocity S-wave (km/s) = 2.91351 3.38760 3.15946
# Velocity P-wave (km/s) = 4.65036 5.97988 5.35653
#
# Compressibility (1/GPa) = 0.04464539
#
# Stress axis : x y z
#
# Youngs Moduli (GPa) = 39.46945 38.55698 46.66834
#
# Poissons Ratio (x) = 0.07617 0.16073
# Poissons Ratio (y) = 0.07798 0.40169
# Poissons Ratio (z) = 0.13593 0.33188
#
# Static dielectric constant tensor:
#      x y z
#    x 3.826410 -0.049500 -0.206410 
#    y -0.049500 3.614720 -0.078320 
#    z -0.206410 -0.078320 3.823440 
# 
# 
# High freq. dielectric constant tensor:
#      x y z
#    x 1.848020 -0.005620 -0.017680 
#    y -0.005620 1.844520 -0.010930 
#    z -0.017680 -0.010930 1.848390 
# 
# From -- ./inp_files/428894.got.cif
#   From: 2010.06.25/outbox.cif.g09.slc.cpg/sg2_215_cif.got.tgz:428894.got - 2010.06.27 13:26:56.
