data_PCOD8018472
_publ_section_title
;
Structure prediction by ZEFSAII (Michael W. Deem and Ramdas Pophale) SiO2 
 PCOD8018472
Probable space group: P -1
;
_chemical_formula_sum "Si O2"
_cell_formula_units_Z 14
_cell_length_a 8.475640
_cell_length_b 9.810688
_cell_length_c 17.755789
_cell_angle_alpha 58.852167
_cell_angle_beta 56.996431
_cell_angle_gamma 31.923018
_cell_volume 649.683587
_symmetry_space_group_name_H-M "P -1"
_symmetry_group_IT_number 2
_symmetry_cell_setting 'triclinic'
loop_
_space_group_symop_operation_xyz
x,y,z
-x,-y,-z
loop_
_atom_site_type_symbol
_atom_site_label
_atom_site_fract_x
_atom_site_fract_y
_atom_site_fract_z
Si Si1 0.354245 0.766850 0.952116
Si Si2 0.896484 0.953439 0.767737
Si Si3 0.420619 0.022903 0.426749
Si Si4 0.280169 0.233397 0.046796
Si Si5 0.383504 0.800865 0.762999
Si Si6 0.292867 0.504840 0.512295
Si Si7 0.472472 0.508770 0.312130
O O1 0.526153 0.760899 0.967316
O O2 0.437108 0.774973 0.845149
O O3 0.500000 0.500000 0.000000
O O4 0.000000 0.000000 0.000000
O O5 0.034902 0.969673 0.794776
O O6 0.161075 0.758179 0.690358
O O7 0.824270 0.823699 0.848036
O O8 0.602541 0.251510 0.732122
O O9 0.573906 0.055888 0.326407
O O10 0.057566 0.259608 0.436568
O O11 0.500000 0.000000 0.500000
O O12 0.561857 0.764271 0.433728
O O13 0.000000 0.500000 0.000000
O O14 0.500000 0.000000 0.000000
O O15 0.600566 0.526352 0.740183
O O16 0.500000 0.500000 0.500000
O O17 0.281203 0.544436 0.414549
#
# Coordination Sequence:
#
# PCOD8018472 Si02
#       7
#     2   2   2   2   2   2   2
#     4  12  28  46  71 103 137 175 232 288 335 402
#     4  10  22  40  67  92 134 172 229 262 351 401
#     4  12  24  44  74 100 137 184 232 278 341 411
#     4  12  25  45  69  98 133 179 220 283 350 408
#     4  10  25  41  72  98 137 175 234 280 340 397
#     4  12  26  43  66 103 145 178 226 284 340 403
#     4  10  22  40  66  96 134 181 217 276 340 395
#
# _framework density 21.548950999999999
#
# number of rings (size 3 to 8) (size 9 to 14) (size 15 to 20)
#    0.857    0.000    1.429    6.000    6.000    2.286 
#    0.000    0.000    0.000    0.000    0.000    0.000 
#    0.000    0.000    0.000    0.000    0.000    0.000 
#
# Total GULP energy -173505.852669 kJ/mol
# GULP energy per Si atom -12393.275191 kJ/mol
# Density = 2.149991 g / cm^3
# Si number density = 21.548951 Si / 1000 Ang^3
#
#
#
# Elastic Constant Matrix: (Units=GPa)
#
#
# Indices 1 2 3 4 5 6 
#
# 1 151.9643 56.1818 38.9641 -4.2970 -11.9634 4.2179
# 2 56.1818 183.7381 46.9290 -22.9782 -11.1608 4.7793
# 3 38.9641 46.9290 125.2568 -13.3796 -7.5142 12.3229
# 4 -4.2970 -22.9782 -13.3796 33.8029 11.0673 -7.4174
# 5 -11.9634 -11.1608 -7.5142 11.0673 38.3998 -4.1859
# 6 4.2179 4.7793 12.3229 -7.4174 -4.1859 32.4858
#
#
#
# Elastic Compliance Matrix: (Units=1/GPa)
#
#
# Indices 1 2 3 4 5 6 
#
# 1 0.007904 -0.002071 -0.001733 -0.001796 0.002016 -0.000215
# 2 -0.002071 0.006969 -0.001615 0.004006 -0.000006 0.000770
# 3 -0.001733 -0.001615 0.009599 0.001868 0.000031 -0.002748
# 4 -0.001796 0.004006 0.001868 0.037154 -0.009057 0.006252
# 5 0.002016 -0.000006 0.000031 -0.009057 0.029443 0.001453
# 6 -0.000215 0.000770 -0.002748 0.006252 0.001453 0.033354
#
#
# Mechanical properties :
#
#
# Convention : Reuss Voigt Hill
#
# Bulk Modulus (GPa) = 73.33891 82.78987 78.06439
# Shear Modulus (GPa) = 35.76376 42.19666 38.98021
#
# Velocity S-wave (km/s) = 4.07830 4.42993 4.25775
# Velocity P-wave (km/s) = 7.50228 8.04168 7.77666
#
# Compressibility (1/GPa) = 0.01363533
#
# Stress axis : x y z
#
# Youngs Moduli (GPa) = 126.51417 143.49715 104.17236
#
# Poissons Ratio (x) = 0.29717 0.18050
# Poissons Ratio (y) = 0.26200 0.16824
# Poissons Ratio (z) = 0.21921 0.23175
#
# Static dielectric constant tensor:
#      x y z
#    x 3.940670 -0.007320 -0.188290 
#    y -0.007320 4.153290 -0.274430 
#    z -0.188290 -0.274430 5.970490 
# 
# 
# High freq. dielectric constant tensor:
#      x y z
#    x 1.837390 0.007100 -0.016520 
#    y 0.007100 1.864770 -0.000140 
#    z -0.016520 -0.000140 1.847230 
# 
# From -- ./inp_files/556976.got.cif
#   From: 2010.06.25/outbox.cif.g09.slc.cpg/sg2_279_cif.got.tgz:556976.got - 2010.06.27 13:26:56.
