data_PCOD8018038
_publ_section_title
;
Structure prediction by ZEFSAII (Michael W. Deem and Ramdas Pophale) SiO2 
 PCOD8018038
Probable space group: P -1
;
_chemical_formula_sum "Si O2"
_cell_formula_units_Z 16
_cell_length_a 23.363198
_cell_length_b 8.206764
_cell_length_c 9.120560
_cell_angle_alpha 147.720324
_cell_angle_beta 115.616581
_cell_angle_gamma 49.306136
_cell_volume 676.885508
_symmetry_space_group_name_H-M "P -1"
_symmetry_group_IT_number 2
_symmetry_cell_setting 'triclinic'
loop_
_space_group_symop_operation_xyz
x,y,z
-x,-y,-z
loop_
_atom_site_type_symbol
_atom_site_label
_atom_site_fract_x
_atom_site_fract_y
_atom_site_fract_z
Si Si1 0.491448 0.370055 0.736586
Si Si2 0.358690 0.034275 0.594145
Si Si3 0.246606 0.501559 0.362042
Si Si4 0.112504 0.170082 0.134380
Si Si5 0.722299 0.109386 0.833112
Si Si6 0.982388 0.112515 0.234105
Si Si7 0.084833 0.740614 0.320036
Si Si8 0.666386 0.112183 0.222133
O O1 0.407940 0.682741 0.810983
O O2 0.500000 0.000000 0.500000
O O3 0.559409 0.285129 0.636259
O O4 0.500000 0.500000 0.000000
O O5 0.289181 0.045083 0.446300
O O6 0.363330 0.888733 0.651274
O O7 0.344859 0.439747 0.876378
O O8 0.150363 0.814033 0.485268
O O9 0.287388 0.700685 0.600430
O O10 0.276834 0.145192 0.231540
O O11 0.273729 0.323862 0.094302
O O12 0.047874 0.474836 0.418195
O O13 0.122469 0.330531 0.117316
O O14 0.196752 0.929004 0.122564
O O15 0.090427 0.910139 0.839336
O O16 0.063980 0.787696 0.159950
O O17 0.000000 0.000000 0.000000
O O18 0.000000 0.000000 0.500000
#
# Coordination Sequence:
#
# PCOD8018038 Si02
#       8
#     2   2   2   2   2   2   2   2
#     4  12  25  45  72  98 132 177 221 265 316 392
#     4  12  25  43  68 100 137 173 214 273 332 388
#     4  11  24  43  69  95 131 175 223 273 323 394
#     4  10  22  40  61  86 123 167 213 266 318 386
#     4  11  23  42  66  94 127 173 224 264 321 391
#     4  11  22  37  60  90 124 163 210 267 332 392
#     4   9  22  42  64  91 124 169 221 270 323 386
#     4  12  26  44  66 102 136 169 215 272 335 387
#
# _framework density 23.637677
#
# number of rings (size 3 to 8) (size 9 to 14) (size 15 to 20)
#    0.000    1.000    0.000    7.125    0.000   10.000 
#    0.000    3.750    0.000    0.000    0.000    0.000 
#    0.000    0.000    0.000    0.000    0.000    0.000 
#
# Total GULP energy -198265.405863 kJ/mol
# GULP energy per Si atom -12391.587866 kJ/mol
# Density = 2.358388 g / cm^3
# Si number density = 23.637677 Si / 1000 Ang^3
#
#
#
# Elastic Constant Matrix: (Units=GPa)
#
#
# Indices 1 2 3 4 5 6 
#
# 1 96.2280 61.2901 22.7227 -13.6307 -6.2459 -24.4670
# 2 61.2901 127.8065 43.5002 -33.5346 -4.6403 -15.7419
# 3 22.7227 43.5002 115.4064 -18.6580 2.7707 -8.5834
# 4 -13.6307 -33.5346 -18.6580 37.8023 0.3201 -0.5896
# 5 -6.2459 -4.6403 2.7707 0.3201 45.9340 -10.5316
# 6 -24.4670 -15.7419 -8.5834 -0.5896 -10.5316 34.6997
#
#
#
# Elastic Compliance Matrix: (Units=1/GPa)
#
#
# Indices 1 2 3 4 5 6 
#
# 1 0.017916 -0.006987 -0.000147 0.000321 0.004191 0.010704
# 2 -0.006987 0.014716 -0.002578 0.009279 0.000987 0.001569
# 3 -0.000147 -0.002578 0.010203 0.002718 -0.000664 0.001096
# 4 0.000321 0.009279 0.002718 0.036224 0.002017 0.006336
# 5 0.004191 0.000987 -0.000664 0.002017 0.024953 0.010846
# 6 0.010704 0.001569 0.001096 0.006336 0.010846 0.040749
#
#
# Mechanical properties :
#
#
# Convention : Reuss Voigt Hill
#
# Bulk Modulus (GPa) = 42.71391 66.05189 54.38290
# Shear Modulus (GPa) = 29.07185 37.81573 33.44379
#
# Velocity S-wave (km/s) = 3.51079 4.00410 3.76553
# Velocity P-wave (km/s) = 5.87739 7.02718 6.47784
#
# Compressibility (1/GPa) = 0.02341158
#
# Stress axis : x y z
#
# Youngs Moduli (GPa) = 55.81636 67.95188 98.01447
#
# Poissons Ratio (x) = 0.47478 0.01436
# Poissons Ratio (y) = 0.38999 0.25270
# Poissons Ratio (z) = 0.00818 0.17519
#
# Static dielectric constant tensor:
#      x y z
#    x 4.971220 -0.621740 0.271040 
#    y -0.621740 5.347040 -0.358610 
#    z 0.271040 -0.358610 4.262490 
# 
# 
# High freq. dielectric constant tensor:
#      x y z
#    x 1.946040 -0.009740 0.002230 
#    y -0.009740 1.938380 -0.017210 
#    z 0.002230 -0.017210 1.940330 
# 
# From -- ./inp_files/352518.got.cif
#   From: 2010.06.25/outbox.cif.g09.slc.cpg/sg2_177_cif.got.tgz:352518.got - 2010.06.27 13:26:56.
