data_PCOD8018663
_publ_section_title
;
Structure prediction by ZEFSAII (Michael W. Deem and Ramdas Pophale) SiO2 
 PCOD8018663
Probable space group: P -1
;
_chemical_formula_sum "Si O2"
_cell_formula_units_Z 14
_cell_length_a 8.681625
_cell_length_b 14.695251
_cell_length_c 14.564289
_cell_angle_alpha 150.872283
_cell_angle_beta 128.094415
_cell_angle_gamma 70.437664
_cell_volume 602.345298
_symmetry_space_group_name_H-M "P -1"
_symmetry_group_IT_number 2
_symmetry_cell_setting 'triclinic'
loop_
_space_group_symop_operation_xyz
x,y,z
-x,-y,-z
loop_
_atom_site_type_symbol
_atom_site_label
_atom_site_fract_x
_atom_site_fract_y
_atom_site_fract_z
Si Si1 0.743774 0.453400 0.968135
Si Si2 0.714373 0.520112 0.650673
Si Si3 0.157996 0.844835 0.358407
Si Si4 0.280679 0.400245 0.710842
Si Si5 0.100134 0.053594 0.783700
Si Si6 0.109982 0.636167 0.750717
Si Si7 0.437819 0.946855 0.726363
O O1 0.746622 0.506294 0.121140
O O2 0.961568 0.652286 0.175949
O O3 0.758820 0.237923 0.770460
O O4 0.515882 0.407959 0.793377
O O5 0.500000 0.500000 0.500000
O O6 0.640802 0.299474 0.487140
O O7 0.914556 0.577567 0.702254
O O8 0.814146 0.714426 0.932970
O O9 0.371922 0.971948 0.619417
O O10 0.056845 0.984341 0.399597
O O11 0.284279 0.560955 0.778102
O O12 0.068084 0.151557 0.393617
O O13 0.322007 0.040414 0.832598
O O14 0.000000 0.500000 0.500000
O O15 0.281472 0.899538 0.026982
#
# Coordination Sequence:
#
# PCOD8018663 Si02
#       7
#     2   2   2   2   2   2   2
#     4  10  22  40  69 102 153 183 239 288 352 435
#     4  12  29  52  75 106 143 192 247 299 363 423
#     4  11  22  41  69 110 142 193 238 283 360 433
#     4  11  24  43  69 108 146 191 236 295 361 423
#     4  12  25  45  76 104 154 192 231 302 360 426
#     4  12  28  49  77 104 142 191 248 299 361 427
#     4  12  27  49  76 107 151 188 238 303 355 431
#
# _framework density 23.242483
#
# number of rings (size 3 to 8) (size 9 to 14) (size 15 to 20)
#    0.000    0.571    2.857    4.714    8.000    3.429 
#    0.000    0.000    0.000    0.000    0.000    0.000 
#    0.000    0.000    0.000    0.000    0.000    0.000 
#
# Total GULP energy -173591.002489 kJ/mol
# GULP energy per Si atom -12399.357321 kJ/mol
# Density = 2.318958 g / cm^3
# Si number density = 23.242483 Si / 1000 Ang^3
#
#
#
# Elastic Constant Matrix: (Units=GPa)
#
#
# Indices 1 2 3 4 5 6 
#
# 1 228.4872 45.5116 114.6647 71.2633 26.5575 23.8105
# 2 45.5116 96.2499 41.2070 2.8715 -0.0121 -9.6563
# 3 114.6647 41.2070 179.6707 35.4553 16.7380 17.4133
# 4 71.2633 2.8715 35.4553 66.3968 3.3222 17.1732
# 5 26.5575 -0.0121 16.7380 3.3222 35.8030 -0.7453
# 6 23.8105 -9.6563 17.4133 17.1732 -0.7453 32.3668
#
#
#
# Elastic Compliance Matrix: (Units=1/GPa)
#
#
# Indices 1 2 3 4 5 6 
#
# 1 0.010087 -0.003340 -0.003370 -0.007977 -0.005220 -0.002492
# 2 -0.003340 0.013606 -0.002436 0.002405 0.003536 0.006632
# 3 -0.003370 -0.002436 0.008731 -0.000101 -0.001635 -0.002929
# 4 -0.007977 0.002405 -0.000101 0.025104 0.003498 -0.006600
# 5 -0.005220 0.003536 -0.001635 0.003498 0.032340 0.004663
# 6 -0.002492 0.006632 -0.002929 -0.006600 0.004663 0.039892
#
#
# Mechanical properties :
#
#
# Convention : Reuss Voigt Hill
#
# Bulk Modulus (GPa) = 70.75316 100.79715 85.77515
# Shear Modulus (GPa) = 32.73053 47.11497 39.92275
#
# Velocity S-wave (km/s) = 3.75670 4.50722 4.14897
# Velocity P-wave (km/s) = 7.02313 8.39932 7.74187
#
# Compressibility (1/GPa) = 0.01413364
#
# Stress axis : x y z
#
# Youngs Moduli (GPa) = 99.13438 73.49891 114.53517
#
# Poissons Ratio (x) = 0.24547 0.38595
# Poissons Ratio (y) = 0.33109 0.27896
# Poissons Ratio (z) = 0.33406 0.17902
#
# Static dielectric constant tensor:
#      x y z
#    x 4.494610 -0.220130 0.022780 
#    y -0.220130 3.969490 0.322530 
#    z 0.022780 0.322530 4.145430 
# 
# 
# High freq. dielectric constant tensor:
#      x y z
#    x 1.929280 -0.008780 0.005420 
#    y -0.008780 1.917490 0.002940 
#    z 0.005420 0.002940 1.930840 
# 
# From -- ./inp_files/314846.got.cif
#   From: 2010.06.25/outbox.cif.g09.slc.cpg/sg2_158_cif.got.tgz:314846.got - 2010.06.27 13:26:56.
