data_PCOD8018575
_publ_section_title
;
Structure prediction by ZEFSAII (Michael W. Deem and Ramdas Pophale) SiO2 
 PCOD8018575
Probable space group: P -1
;
_chemical_formula_sum "Si O2"
_cell_formula_units_Z 14
_cell_length_a 7.883882
_cell_length_b 8.684368
_cell_length_c 17.227992
_cell_angle_alpha 50.717827
_cell_angle_beta 145.451646
_cell_angle_gamma 119.692602
_cell_volume 516.849835
_symmetry_space_group_name_H-M "P -1"
_symmetry_group_IT_number 2
_symmetry_cell_setting 'triclinic'
loop_
_space_group_symop_operation_xyz
x,y,z
-x,-y,-z
loop_
_atom_site_type_symbol
_atom_site_label
_atom_site_fract_x
_atom_site_fract_y
_atom_site_fract_z
Si Si1 0.355937 0.715709 0.394482
Si Si2 0.517792 0.336810 0.208424
Si Si3 0.035288 0.268014 0.324078
Si Si4 0.826488 0.637039 0.329360
Si Si5 0.659903 0.064928 0.125145
Si Si6 0.856620 0.686194 0.066204
Si Si7 0.984403 0.924952 0.898919
O O1 0.500000 0.500000 0.500000
O O2 0.632059 0.825795 0.502708
O O3 0.088983 0.713777 0.353193
O O4 0.194367 0.854387 0.220905
O O5 0.834766 0.224363 0.338776
O O6 0.572294 0.519511 0.227166
O O7 0.386437 0.417202 0.048963
O O8 0.282076 0.195345 0.204644
O O9 0.917770 0.176122 0.230336
O O10 0.042258 0.511995 0.238810
O O11 0.000000 0.500000 0.500000
O O12 0.663654 0.841319 0.233831
O O13 0.323505 0.159874 0.989287
O O14 0.731328 0.077515 0.054039
O O15 0.062993 0.813943 0.045507
#
# Coordination Sequence:
#
# PCOD8018575 Si02
#       7
#     2   2   2   2   2   2   2
#     4  11  24  41  66  92 134 169 218 275 331 379
#     4   9  20  41  66  91 133 166 221 266 323 390
#     4  11  22  42  69  97 130 179 217 271 328 403
#     4  11  25  39  64 103 133 171 223 273 335 384
#     4  10  22  40  67  97 130 171 222 273 318 391
#     4   9  22  44  70  95 130 178 225 258 336 394
#     4   9  23  40  68  97 127 175 222 265 333 383
#
# _framework density 27.087168999999999
#
# number of rings (size 3 to 8) (size 9 to 14) (size 15 to 20)
#    0.857    1.143    1.429    1.714    6.000    2.286 
#    0.000    3.571    0.000    0.000    0.000    0.000 
#    0.000    0.000    0.000    0.000    0.000    0.000 
#
# Total GULP energy -173479.696500 kJ/mol
# GULP energy per Si atom -12391.406893 kJ/mol
# Density = 2.702552 g / cm^3
# Si number density = 27.087169 Si / 1000 Ang^3
#
#
#
# Elastic Constant Matrix: (Units=GPa)
#
#
# Indices 1 2 3 4 5 6 
#
# 1 134.0110 59.5301 58.9255 4.1411 0.5303 16.8993
# 2 59.5301 121.6216 43.4357 -10.0154 15.5637 -4.0141
# 3 58.9255 43.4357 165.4599 -0.8795 5.9701 7.2972
# 4 4.1411 -10.0154 -0.8795 34.1407 5.4717 4.9138
# 5 0.5303 15.5637 5.9701 5.4717 35.6738 10.2801
# 6 16.8993 -4.0141 7.2972 4.9138 10.2801 49.5529
#
#
#
# Elastic Compliance Matrix: (Units=1/GPa)
#
#
# Indices 1 2 3 4 5 6 
#
# 1 0.011977 -0.005950 -0.002680 -0.003336 0.004770 -0.004831
# 2 -0.005950 0.013080 -0.001209 0.005100 -0.007438 0.004304
# 3 -0.002680 -0.001209 0.007348 0.000288 -0.000661 -0.000157
# 4 -0.003336 0.005100 0.000288 0.032373 -0.007125 -0.000224
# 5 0.004770 -0.007438 -0.000661 -0.007125 0.034907 -0.008667
# 6 -0.004831 0.004304 -0.000157 -0.000224 -0.008667 0.024020
#
#
# Mechanical properties :
#
#
# Convention : Reuss Voigt Hill
#
# Bulk Modulus (GPa) = 78.57404 82.76388 80.66896
# Shear Modulus (GPa) = 33.86939 41.15356 37.51148
#
# Velocity S-wave (km/s) = 3.53991 3.90205 3.72539
# Velocity P-wave (km/s) = 6.76600 7.13599 6.95346
#
# Compressibility (1/GPa) = 0.01272685
#
# Stress axis : x y z
#
# Youngs Moduli (GPa) = 83.49368 76.45130 136.09040
#
# Poissons Ratio (x) = 0.45486 0.36476
# Poissons Ratio (y) = 0.49676 0.16456
# Poissons Ratio (z) = 0.22379 0.09244
#
# Static dielectric constant tensor:
#      x y z
#    x 4.242330 -0.246060 -0.028400 
#    y -0.246060 4.858450 0.332730 
#    z -0.028400 0.332730 3.896480 
# 
# 
# High freq. dielectric constant tensor:
#      x y z
#    x 2.074110 0.011990 0.010690 
#    y 0.011990 2.130670 0.024320 
#    z 0.010690 0.024320 2.099800 
# 
# From -- ./inp_files/586629.got.cif
#   From: 2010.06.25/outbox.cif.g09.slc.cpg/sg2_294_cif.got.tgz:586629.got - 2010.06.27 13:26:56.
