data_PCOD8018766
_publ_section_title
;
Structure prediction by ZEFSAII (Michael W. Deem and Ramdas Pophale) SiO2 
 PCOD8018766
Probable space group: P -1
;
_chemical_formula_sum "Si O2"
_cell_formula_units_Z 16
_cell_length_a 7.931511
_cell_length_b 8.046185
_cell_length_c 17.100288
_cell_angle_alpha 95.373681
_cell_angle_beta 116.361757
_cell_angle_gamma 126.165962
_cell_volume 687.381133
_symmetry_space_group_name_H-M "P -1"
_symmetry_group_IT_number 2
_symmetry_cell_setting 'triclinic'
loop_
_space_group_symop_operation_xyz
x,y,z
-x,-y,-z
loop_
_atom_site_type_symbol
_atom_site_label
_atom_site_fract_x
_atom_site_fract_y
_atom_site_fract_z
Si Si1 0.254787 0.982284 0.203181
Si Si2 0.436552 0.314471 0.815580
Si Si3 0.244516 0.072305 0.505873
Si Si4 0.061036 0.893172 0.835656
Si Si5 0.981140 0.259531 0.695211
Si Si6 0.282803 0.927510 0.657051
Si Si7 0.829189 0.528572 0.641775
Si Si8 0.012568 0.811156 0.986995
O O1 0.122483 0.801246 0.240225
O O2 0.571316 0.147800 0.284025
O O3 0.184583 0.133683 0.198356
O O4 0.166034 0.839657 0.096391
O O5 0.730791 0.541744 0.913445
O O6 0.290527 0.397429 0.767219
O O7 0.297607 0.140065 0.853756
O O8 0.424043 0.181194 0.733587
O O9 0.510603 0.352214 0.564095
O O10 0.167458 0.973738 0.398156
O O11 0.317576 0.959165 0.571502
O O12 0.000000 0.000000 0.500000
O O13 0.940849 0.667872 0.751831
O O14 0.162982 0.875978 0.937757
O O15 0.928486 0.401316 0.649188
O O16 0.970373 0.720972 0.608573
O O17 0.000000 0.000000 0.000000
#
# Coordination Sequence:
#
# PCOD8018766 Si02
#       8
#     2   2   2   2   2   2   2   2
#     4  10  23  43  67  95 138 170 222 272 328 387
#     4  10  22  44  65  95 140 170 220 278 324 384
#     4  12  25  46  70  97 132 174 220 276 335 390
#     4   9  22  43  64  97 132 177 218 271 323 390
#     4  11  24  43  68  97 134 177 215 279 329 389
#     4  11  24  45  66 102 132 176 218 272 336 389
#     4  11  25  43  68 100 134 171 224 269 328 401
#     4  10  22  40  70  98 128 179 227 262 332 388
#
# _framework density 23.276752999999999
#
# number of rings (size 3 to 8) (size 9 to 14) (size 15 to 20)
#    0.000    1.500    2.500    1.125    3.500    6.000 
#    0.000    1.250    0.000    0.000    0.000    0.000 
#    0.000    0.000    0.000    0.000    0.000    0.000 
#
# Total GULP energy -198307.501344 kJ/mol
# GULP energy per Si atom -12394.218834 kJ/mol
# Density = 2.322377 g / cm^3
# Si number density = 23.276753 Si / 1000 Ang^3
#
#
#
# Elastic Constant Matrix: (Units=GPa)
#
#
# Indices 1 2 3 4 5 6 
#
# 1 52.7245 9.6400 0.5863 0.8110 3.1312 2.7344
# 2 9.6400 75.7718 33.7610 19.0007 -0.3219 18.0502
# 3 0.5863 33.7610 96.8326 -11.8005 -6.4858 19.0615
# 4 0.8110 19.0007 -11.8005 28.4864 3.2319 -4.5959
# 5 3.1312 -0.3219 -6.4858 3.2319 36.6992 -1.5240
# 6 2.7344 18.0502 19.0615 -4.5959 -1.5240 32.9907
#
#
#
# Elastic Compliance Matrix: (Units=1/GPa)
#
#
# Indices 1 2 3 4 5 6 
#
# 1 0.019717 -0.003857 0.001464 0.002802 -0.001707 -0.000059
# 2 -0.003857 0.026991 -0.009911 -0.023991 0.000427 -0.012044
# 3 0.001464 -0.009911 0.015801 0.012635 0.001385 -0.002004
# 4 0.002802 -0.023991 0.012635 0.058784 -0.002827 0.013652
# 5 -0.001707 0.000427 0.001385 -0.002827 0.027892 0.000003
# 6 -0.000059 -0.012044 -0.002004 0.013652 0.000003 0.039966
#
#
# Mechanical properties :
#
#
# Convention : Reuss Voigt Hill
#
# Bulk Modulus (GPa) = 26.38497 34.81150 30.59824
# Shear Modulus (GPa) = 22.08559 31.72470 26.90515
#
# Velocity S-wave (km/s) = 3.08364 3.69580 3.40351
# Velocity P-wave (km/s) = 4.90290 5.76193 5.34969
#
# Compressibility (1/GPa) = 0.03790036
#
# Stress axis : x y z
#
# Youngs Moduli (GPa) = 50.71860 37.04911 63.28776
#
# Poissons Ratio (x) = 0.14288 -0.09264
# Poissons Ratio (y) = 0.19560 0.62728
# Poissons Ratio (z) = -0.07424 0.36721
#
# Static dielectric constant tensor:
#      x y z
#    x 4.269650 0.149710 -0.075990 
#    y 0.149710 4.100660 -0.351050 
#    z -0.075990 -0.351050 4.660600 
# 
# 
# High freq. dielectric constant tensor:
#      x y z
#    x 1.917300 0.010160 -0.006810 
#    y 0.010160 1.916030 -0.013480 
#    z -0.006810 -0.013480 1.924160 
# 
# From -- ./inp_files/557272.got.cif
#   From: 2010.06.25/outbox.cif.g09.slc.cpg/sg2_279_cif.got.tgz:557272.got - 2010.06.27 13:26:56.
