data_PCOD8018294
_publ_section_title
;
Structure prediction by ZEFSAII (Michael W. Deem and Ramdas Pophale) SiO2 
 PCOD8018294
Probable space group: P -1
;
_chemical_formula_sum "Si O2"
_cell_formula_units_Z 16
_cell_length_a 13.445865
_cell_length_b 14.934278
_cell_length_c 14.002280
_cell_angle_alpha 144.016121
_cell_angle_beta 148.723110
_cell_angle_gamma 27.781615
_cell_volume 663.864377
_symmetry_space_group_name_H-M "P -1"
_symmetry_group_IT_number 2
_symmetry_cell_setting 'triclinic'
loop_
_space_group_symop_operation_xyz
x,y,z
-x,-y,-z
loop_
_atom_site_type_symbol
_atom_site_label
_atom_site_fract_x
_atom_site_fract_y
_atom_site_fract_z
Si Si1 0.080825 0.406592 0.848628
Si Si2 0.876344 0.914016 0.925751
Si Si3 0.111794 0.779884 0.721730
Si Si4 0.067527 0.203125 0.917427
Si Si5 0.309685 0.214364 0.676894
Si Si6 0.428629 0.770493 0.804503
Si Si7 0.737697 0.467415 0.201780
Si Si8 0.159967 0.768324 0.424973
O O1 0.198146 0.362439 0.802259
O O2 0.973334 0.295154 0.678239
O O3 0.287147 0.341644 0.040498
O O4 0.878714 0.642644 0.900629
O O5 0.018950 0.732480 0.815245
O O6 0.587116 0.024446 0.766563
O O7 0.979607 0.830370 0.044327
O O8 0.921902 0.074324 0.095947
O O9 0.288635 0.749480 0.756221
O O10 0.238510 0.569118 0.695580
O O11 0.843473 0.863261 0.534812
O O12 0.823919 0.290030 0.724007
O O13 0.300570 0.000905 0.886809
O O14 0.289752 0.339496 0.678154
O O15 0.414373 0.679982 0.615069
O O16 0.500000 0.500000 0.000000
O O17 0.000000 0.000000 0.500000
#
# Coordination Sequence:
#
# PCOD8018294 Si02
#       8
#     2   2   2   2   2   2   2   2
#     4  12  21  42  68  91 134 175 214 271 330 381
#     4  11  24  46  65  98 135 172 221 266 334 387
#     4  11  23  43  66  97 134 171 223 271 323 392
#     4  10  22  40  64  97 127 170 219 268 319 392
#     4  12  24  43  68  95 135 180 214 275 328 385
#     4  10  22  43  65  94 131 174 216 269 333 383
#     4  12  24  45  72  98 133 174 219 271 332 390
#     4  10  23  42  67  96 132 170 222 270 322 397
#
# _framework density 24.101309000000001
#
# number of rings (size 3 to 8) (size 9 to 14) (size 15 to 20)
#    0.000    1.000    6.250    1.125    0.000    3.000 
#    2.250    5.000    0.000    0.000    0.000    0.000 
#    0.000    0.000    0.000    0.000    0.000    0.000 
#
# Total GULP energy -198295.692257 kJ/mol
# GULP energy per Si atom -12393.480766 kJ/mol
# Density = 2.404645 g / cm^3
# Si number density = 24.101309 Si / 1000 Ang^3
#
#
#
# Elastic Constant Matrix: (Units=GPa)
#
#
# Indices 1 2 3 4 5 6 
#
# 1 40.7417 35.0851 1.0872 -1.9583 -0.5035 9.8705
# 2 35.0851 74.4888 27.3188 8.1404 -1.1540 10.7511
# 3 1.0872 27.3188 112.0980 -14.0506 11.0627 -0.6029
# 4 -1.9583 8.1404 -14.0506 40.7467 5.9149 -5.1644
# 5 -0.5035 -1.1540 11.0627 5.9149 37.1288 -1.7627
# 6 9.8705 10.7511 -0.6029 -5.1644 -1.7627 33.6796
#
#
#
# Elastic Compliance Matrix: (Units=1/GPa)
#
#
# Indices 1 2 3 4 5 6 
#
# 1 0.048280 -0.026064 0.007556 0.010197 -0.004238 -0.004353
# 2 -0.026064 0.031093 -0.009347 -0.011938 0.005109 -0.004017
# 3 0.007556 -0.009347 0.012579 0.007540 -0.005047 0.001886
# 4 0.010197 -0.011938 0.007540 0.031764 -0.007281 0.005447
# 5 -0.004238 0.005109 -0.005047 -0.007281 0.029696 -0.000041
# 6 -0.004353 -0.004017 0.001886 0.005447 -0.000041 0.033116
#
#
# Mechanical properties :
#
#
# Convention : Reuss Voigt Hill
#
# Bulk Modulus (GPa) = 27.59101 39.36787 33.47944
# Shear Modulus (GPa) = 19.66039 33.23352 26.44696
#
# Velocity S-wave (km/s) = 2.85921 3.71740 3.31618
# Velocity P-wave (km/s) = 4.73000 5.89874 5.34640
#
# Compressibility (1/GPa) = 0.03624369
#
# Stress axis : x y z
#
# Youngs Moduli (GPa) = 20.71230 32.16183 79.49968
#
# Poissons Ratio (x) = 0.83826 -0.60074
# Poissons Ratio (y) = 0.53984 0.74307
# Poissons Ratio (z) = -0.15651 0.30061
#
# Static dielectric constant tensor:
#      x y z
#    x 4.260980 0.430320 -0.335890 
#    y 0.430320 4.615130 0.038770 
#    z -0.335890 0.038770 4.700760 
# 
# 
# High freq. dielectric constant tensor:
#      x y z
#    x 1.942970 0.026060 -0.013370 
#    y 0.026060 1.964260 0.001630 
#    z -0.013370 0.001630 1.966950 
# 
# From -- ./inp_files/348518.got.cif
#   From: 2010.06.25/outbox.cif.g09.slc.cpg/sg2_175_cif.got.tgz:348518.got - 2010.06.27 13:26:56.
