data_PCOD8018739
_publ_section_title
;
Structure prediction by ZEFSAII (Michael W. Deem and Ramdas Pophale) SiO2 
 PCOD8018739
Probable space group: P -1
;
_chemical_formula_sum "Si O2"
_cell_formula_units_Z 14
_cell_length_a 11.111745
_cell_length_b 5.480425
_cell_length_c 11.623364
_cell_angle_alpha 80.112107
_cell_angle_beta 125.688452
_cell_angle_gamma 92.456553
_cell_volume 564.904776
_symmetry_space_group_name_H-M "P -1"
_symmetry_group_IT_number 2
_symmetry_cell_setting 'triclinic'
loop_
_space_group_symop_operation_xyz
x,y,z
-x,-y,-z
loop_
_atom_site_type_symbol
_atom_site_label
_atom_site_fract_x
_atom_site_fract_y
_atom_site_fract_z
Si Si1 0.362196 0.618354 0.525578
Si Si2 0.673369 0.028761 0.090561
Si Si3 0.192070 0.464467 0.920952
Si Si4 0.856761 0.878290 0.885714
Si Si5 0.558130 0.157309 0.665890
Si Si6 0.265714 0.960150 0.614232
Si Si7 0.883296 0.683908 0.667357
O O1 0.503901 0.435803 0.656081
O O2 0.422237 0.840520 0.463277
O O3 0.258356 0.687482 0.574791
O O4 0.252367 0.490636 0.386019
O O5 0.705616 0.299933 0.035253
O O6 0.745622 0.026266 0.257624
O O7 0.739277 0.789283 0.078168
O O8 0.500000 0.000000 0.000000
O O9 0.043399 0.538099 0.760014
O O10 0.154187 0.389974 0.036980
O O11 0.875378 0.854240 0.761831
O O12 0.710619 0.057105 0.820235
O O13 0.000000 0.000000 0.000000
O O14 0.431684 0.988712 0.654182
O O15 0.139106 0.148656 0.473902
#
# Coordination Sequence:
#
# PCOD8018739 Si02
#       7
#     2   2   2   2   2   2   2
#     4  10  22  41  72 112 150 184 248 326 385 457
#     4  12  30  55  77 111 153 212 262 314 370 468
#     4  12  29  52  78 110 157 208 259 308 392 452
#     4  12  25  48  76 113 160 201 251 323 389 465
#     4  10  22  40  70 108 147 188 248 308 395 437
#     4  11  25  46  76 106 152 193 257 320 376 451
#     4  11  26  45  75 112 145 192 255 321 390 456
#
# _framework density 24.782937
#
# number of rings (size 3 to 8) (size 9 to 14) (size 15 to 20)
#    0.000    0.857    1.429    3.857   10.000    3.429 
#    5.143    0.000    0.000    0.000    0.000    0.000 
#    0.000    0.000    0.000    0.000    0.000    0.000 
#
# Total GULP energy -173491.086309 kJ/mol
# GULP energy per Si atom -12392.220451 kJ/mol
# Density = 2.472653 g / cm^3
# Si number density = 24.782937 Si / 1000 Ang^3
#
#
#
# Elastic Constant Matrix: (Units=GPa)
#
#
# Indices 1 2 3 4 5 6 
#
# 1 69.3407 43.9414 30.4446 -10.8945 14.2427 2.9926
# 2 43.9414 137.8998 38.5313 -7.4120 7.5065 3.8224
# 3 30.4446 38.5313 124.3594 -21.2718 15.1680 4.7269
# 4 -10.8945 -7.4120 -21.2718 40.4426 -7.8815 -1.1719
# 5 14.2427 7.5065 15.1680 -7.8815 57.2082 -5.2667
# 6 2.9926 3.8224 4.7269 -1.1719 -5.2667 47.7288
#
#
#
# Elastic Compliance Matrix: (Units=1/GPa)
#
#
# Indices 1 2 3 4 5 6 
#
# 1 0.019980 -0.005365 -0.002359 0.002472 -0.003387 -0.000903
# 2 -0.005365 0.009399 -0.001743 -0.000554 0.000469 -0.000205
# 3 -0.002359 -0.001743 0.010045 0.004041 -0.001360 -0.000758
# 4 0.002472 -0.000554 0.004041 0.027870 0.002264 0.000423
# 5 -0.003387 0.000469 -0.001360 0.002264 0.019163 0.002480
# 6 -0.000903 -0.000205 -0.000758 0.000423 0.002480 0.021384
#
#
# Mechanical properties :
#
#
# Convention : Reuss Voigt Hill
#
# Bulk Modulus (GPa) = 48.80425 61.93717 55.37071
# Shear Modulus (GPa) = 37.42411 43.65477 40.53944
#
# Velocity S-wave (km/s) = 3.89018 4.20156 4.04887
# Velocity P-wave (km/s) = 6.31771 6.97019 6.65196
#
# Compressibility (1/GPa) = 0.02049002
#
# Stress axis : x y z
#
# Youngs Moduli (GPa) = 50.04924 106.39867 99.55569
#
# Poissons Ratio (x) = 0.57086 0.23482
# Poissons Ratio (y) = 0.26853 0.17350
# Poissons Ratio (z) = 0.11805 0.18543
#
# Static dielectric constant tensor:
#      x y z
#    x 4.487620 -0.058620 0.035010 
#    y -0.058620 4.666400 -0.105210 
#    z 0.035010 -0.105210 4.603250 
# 
# 
# High freq. dielectric constant tensor:
#      x y z
#    x 1.981420 -0.005050 0.006930 
#    y -0.005050 1.997880 -0.004670 
#    z 0.006930 -0.004670 1.992510 
# 
# From -- ./inp_files/410379.got.cif
#   From: 2010.06.25/outbox.cif.g09.slc.cpg/sg2_206_cif.got.tgz:410379.got - 2010.06.27 13:26:56.
