data_PCOD8018371
_publ_section_title
;
Structure prediction by ZEFSAII (Michael W. Deem and Ramdas Pophale) SiO2 
 PCOD8018371
Probable space group: P -1
;
_chemical_formula_sum "Si O2"
_cell_formula_units_Z 12
_cell_length_a 4.820818
_cell_length_b 11.421607
_cell_length_c 15.284590
_cell_angle_alpha 39.086727
_cell_angle_beta 101.994869
_cell_angle_gamma 80.600470
_cell_volume 441.311877
_symmetry_space_group_name_H-M "P -1"
_symmetry_group_IT_number 2
_symmetry_cell_setting 'triclinic'
loop_
_space_group_symop_operation_xyz
x,y,z
-x,-y,-z
loop_
_atom_site_type_symbol
_atom_site_label
_atom_site_fract_x
_atom_site_fract_y
_atom_site_fract_z
Si Si1 0.212257 0.639978 0.831613
Si Si2 0.516977 0.070613 0.363033
Si Si3 0.406219 0.378748 0.678368
Si Si4 0.519239 0.238590 0.582937
Si Si5 0.232987 0.315189 0.881491
Si Si6 0.022194 0.961521 0.909781
O O1 0.233201 0.843725 0.679526
O O2 0.237545 0.499892 0.830614
O O3 0.856688 0.736034 0.800144
O O4 0.500000 0.500000 0.000000
O O5 0.500000 0.000000 0.500000
O O6 0.648067 0.860231 0.430894
O O7 0.285285 0.359529 0.583610
O O8 0.431714 0.590842 0.567694
O O9 0.152883 0.392524 0.728960
O O10 0.782726 0.160934 0.846152
O O11 0.877387 0.041215 0.756091
O O12 0.973810 0.259555 0.937672
O O13 0.600904 0.092798 0.037024
#
# Coordination Sequence:
#
# PCOD8018371 Si02
#       6
#     2   2   2   2   2   2
#     4  12  26  44  70  99 135 175 223 272 328 392
#     4  12  25  46  69  98 134 177 222 272 328 393
#     4   9  21  41  66  94 129 166 215 267 329 383
#     4   9  21  43  65  94 129 170 214 268 326 387
#     4  12  22  42  66  97 127 169 215 269 323 387
#     4  10  22  40  65  95 130 163 214 264 330 384
#
# _framework density 27.191658
#
# number of rings (size 3 to 8) (size 9 to 14) (size 15 to 20)
#    1.000    0.333    0.000    6.000    0.000    0.000 
#    0.000    6.667    0.000    0.000    0.000    0.000 
#    0.000    0.000    0.000    0.000    0.000    0.000 
#
# Total GULP energy -148836.814002 kJ/mol
# GULP energy per Si atom -12403.067833 kJ/mol
# Density = 2.712977 g / cm^3
# Si number density = 27.191658 Si / 1000 Ang^3
#
#
#
# Elastic Constant Matrix: (Units=GPa)
#
#
# Indices 1 2 3 4 5 6 
#
# 1 69.7246 -0.1525 9.9858 -10.7822 -5.8987 1.3824
# 2 -0.1525 147.5847 31.8337 -9.6385 -12.1664 15.1453
# 3 9.9858 31.8337 94.6231 -6.2974 -37.4754 6.8622
# 4 -10.7822 -9.6385 -6.2974 38.5771 2.2923 -4.7661
# 5 -5.8987 -12.1664 -37.4754 2.2923 35.3614 -10.8606
# 6 1.3824 15.1453 6.8622 -4.7661 -10.8606 32.4994
#
#
#
# Elastic Compliance Matrix: (Units=1/GPa)
#
#
# Indices 1 2 3 4 5 6 
#
# 1 0.015256 0.000576 -0.000902 0.004217 0.001650 0.000443
# 2 0.000576 0.007704 -0.002884 0.001293 -0.001402 -0.003285
# 3 -0.000902 -0.002884 0.019757 0.001554 0.021071 0.004480
# 4 0.004217 0.001293 0.001554 0.028009 0.002118 0.003705
# 5 0.001650 -0.001402 0.021071 0.002118 0.054798 0.014757
# 6 0.000443 -0.003285 0.004480 0.003705 0.014757 0.036811
#
#
# Mechanical properties :
#
#
# Convention : Reuss Voigt Hill
#
# Bulk Modulus (GPa) = 27.54927 43.91847 35.73387
# Shear Modulus (GPa) = 27.64674 39.30529 33.47601
#
# Velocity S-wave (km/s) = 3.19209 3.80609 3.51253
# Velocity P-wave (km/s) = 4.87231 5.95832 5.44247
#
# Compressibility (1/GPa) = 0.03629860
#
# Stress axis : x y z
#
# Youngs Moduli (GPa) = 65.54998 129.79706 50.61439
#
# Poissons Ratio (x) = -0.07480 0.04564
# Poissons Ratio (y) = -0.03778 0.14596
# Poissons Ratio (z) = 0.05911 0.37430
#
# Static dielectric constant tensor:
#      x y z
#    x 4.744130 -0.014080 0.150060 
#    y -0.014080 5.173740 -0.058280 
#    z 0.150060 -0.058280 5.151660 
# 
# 
# High freq. dielectric constant tensor:
#      x y z
#    x 2.079970 0.005750 -0.001230 
#    y 0.005750 2.097090 0.003390 
#    z -0.001230 0.003390 2.115260 
# 
# From -- ./inp_files/293694.got.cif
#   From: 2010.06.25/outbox.cif.g09.slc.cpg/sg2_147_cif.got.tgz:293694.got - 2010.06.27 13:26:56.
