data_PCOD8018588
_publ_section_title
;
Structure prediction by ZEFSAII (Michael W. Deem and Ramdas Pophale) SiO2 
 PCOD8018588
Probable space group: P -1
;
_chemical_formula_sum "Si O2"
_cell_formula_units_Z 14
_cell_length_a 24.366367
_cell_length_b 5.642973
_cell_length_c 6.646966
_cell_angle_alpha 132.668612
_cell_angle_beta 113.620549
_cell_angle_gamma 66.735106
_cell_volume 605.291474
_symmetry_space_group_name_H-M "P -1"
_symmetry_group_IT_number 2
_symmetry_cell_setting 'triclinic'
loop_
_space_group_symop_operation_xyz
x,y,z
-x,-y,-z
loop_
_atom_site_type_symbol
_atom_site_label
_atom_site_fract_x
_atom_site_fract_y
_atom_site_fract_z
Si Si1 0.180689 0.258720 0.689262
Si Si2 0.252298 0.695163 0.762419
Si Si3 0.667478 0.870068 0.673299
Si Si4 0.991001 0.878158 0.199294
Si Si5 0.564788 0.731338 0.706116
Si Si6 0.562881 0.009437 0.280740
Si Si7 0.896629 0.128546 0.909794
O O1 0.216096 0.503416 0.757137
O O2 0.216517 0.001306 0.755045
O O3 0.153698 0.064117 0.360724
O O4 0.130823 0.485311 0.887770
O O5 0.283501 0.449981 0.494663
O O6 0.299530 0.828071 0.055102
O O7 0.627370 0.827040 0.782803
O O8 0.621809 0.938293 0.461318
O O9 0.044200 0.977696 0.201388
O O10 0.000000 0.000000 0.500000
O O11 0.000000 0.500000 0.000000
O O12 0.921931 0.016545 0.104417
O O13 0.559761 0.378264 0.403601
O O14 0.502340 0.985624 0.699340
O O15 0.569482 0.738142 0.959738
#
# Coordination Sequence:
#
# PCOD8018588 Si02
#       7
#     2   2   2   2   2   2   2
#     4  12  28  51  72 106 143 196 246 288 352 410
#     4  12  30  46  75 101 142 192 250 294 346 416
#     4  12  25  44  70  98 138 181 234 306 352 418
#     4  11  24  43  76 113 145 182 234 285 366 417
#     4  10  22  40  67  99 133 174 223 289 368 438
#     4  10  22  40  67  99 133 174 223 289 368 438
#     4  11  26  46  76 106 148 188 233 298 348 424
#
# _framework density 23.129349999999999
#
# number of rings (size 3 to 8) (size 9 to 14) (size 15 to 20)
#    0.000    0.857    0.000    5.571   12.000    2.286 
#    0.000    5.714    0.000    0.000    0.000    0.000 
#    0.000    0.000    0.000    0.000    0.000    0.000 
#
# Total GULP energy -173467.266925 kJ/mol
# GULP energy per Si atom -12390.519066 kJ/mol
# Density = 2.307671 g / cm^3
# Si number density = 23.129350 Si / 1000 Ang^3
#
#
#
# Elastic Constant Matrix: (Units=GPa)
#
#
# Indices 1 2 3 4 5 6 
#
# 1 77.9657 30.2808 18.4274 -7.4763 3.1167 -0.7380
# 2 30.2808 102.9695 20.1477 -9.3633 3.1832 -0.2552
# 3 18.4274 20.1477 139.6959 -1.6715 13.0358 1.4858
# 4 -7.4763 -9.3633 -1.6715 42.5426 -7.6672 0.4556
# 5 3.1167 3.1832 13.0358 -7.6672 48.2075 4.5641
# 6 -0.7380 -0.2552 1.4858 0.4556 4.5641 31.0332
#
#
#
# Elastic Compliance Matrix: (Units=1/GPa)
#
#
# Indices 1 2 3 4 5 6 
#
# 1 0.014848 -0.003944 -0.001364 0.001665 -0.000101 0.000376
# 2 -0.003944 0.011241 -0.001088 0.001753 0.000085 0.000013
# 3 -0.001364 -0.001088 0.007676 -0.000535 -0.001990 -0.000108
# 4 0.001665 0.001753 -0.000535 0.024887 0.003962 -0.000868
# 5 -0.000101 0.000085 -0.001990 0.003962 0.022219 -0.003232
# 6 0.000376 0.000013 -0.000108 -0.000868 -0.003232 0.032726
#
#
# Mechanical properties :
#
#
# Convention : Reuss Voigt Hill
#
# Bulk Modulus (GPa) = 47.68266 50.92700 49.30483
# Shear Modulus (GPa) = 37.48699 41.14166 39.31433
#
# Velocity S-wave (km/s) = 4.03023 4.22212 4.12729
# Velocity P-wave (km/s) = 6.50518 6.77012 6.63897
#
# Compressibility (1/GPa) = 0.02097198
#
# Stress axis : x y z
#
# Youngs Moduli (GPa) = 67.35059 88.95879 130.27966
#
# Poissons Ratio (x) = 0.35084 0.17775
# Poissons Ratio (y) = 0.26562 0.14175
# Poissons Ratio (z) = 0.09189 0.09679
#
# Static dielectric constant tensor:
#      x y z
#    x 4.240490 -0.159820 0.059480 
#    y -0.159820 4.195390 0.025900 
#    z 0.059480 0.025900 4.342890 
# 
# 
# High freq. dielectric constant tensor:
#      x y z
#    x 1.923460 -0.015910 0.004430 
#    y -0.015910 1.908210 0.004510 
#    z 0.004430 0.004510 1.940390 
# 
# From -- ./inp_files/121934.got.cif
#   From: 2010.06.25/outbox.cif.g09.slc.cpg/sg2_61_cif.got.tgz:121934.got - 2010.06.27 13:26:56.
