data_PCOD8018786
_publ_section_title
;
Structure prediction by ZEFSAII (Michael W. Deem and Ramdas Pophale) SiO2 
 PCOD8018786
Probable space group: P -1
;
_chemical_formula_sum "Si O2"
_cell_formula_units_Z 14
_cell_length_a 9.281125
_cell_length_b 11.075374
_cell_length_c 13.286231
_cell_angle_alpha 32.133236
_cell_angle_beta 58.460609
_cell_angle_gamma 63.113826
_cell_volume 618.977009
_symmetry_space_group_name_H-M "P -1"
_symmetry_group_IT_number 2
_symmetry_cell_setting 'triclinic'
loop_
_space_group_symop_operation_xyz
x,y,z
-x,-y,-z
loop_
_atom_site_type_symbol
_atom_site_label
_atom_site_fract_x
_atom_site_fract_y
_atom_site_fract_z
Si Si1 0.237681 0.930255 0.385008
Si Si2 0.123940 0.025956 0.580641
Si Si3 0.693559 0.207379 0.158951
Si Si4 0.632758 0.617790 0.761207
Si Si5 0.349988 0.432601 0.672295
Si Si6 0.500896 0.229086 0.956865
Si Si7 0.802696 0.956721 0.105545
O O1 0.268757 0.663343 0.582121
O O2 0.077342 0.956845 0.350077
O O3 0.189377 0.034494 0.436378
O O4 0.391588 0.060963 0.185222
O O5 0.218776 0.240721 0.445929
O O6 0.184181 0.807770 0.777647
O O7 0.495760 0.200707 0.266314
O O8 0.733320 0.000913 0.212769
O O9 0.726187 0.450503 0.924653
O O10 0.518650 0.476945 0.824878
O O11 0.500000 0.500000 0.500000
O O12 0.416954 0.262655 0.855266
O O13 0.218169 0.300794 0.743009
O O14 0.690662 0.120353 0.956523
O O15 0.000000 0.000000 0.000000
#
# Coordination Sequence:
#
# PCOD8018786 Si02
#       7
#     2   2   2   2   2   2   2
#     4  11  26  44  65 102 134 175 221 275 339 392
#     4  11  24  41  70  99 134 170 226 280 328 394
#     4  10  22  41  67  96 135 166 223 279 327 384
#     4  10  22  40  71  97 126 176 223 273 336 391
#     4  12  27  45  71  95 134 185 222 264 334 404
#     4  11  25  47  69  96 139 174 218 280 335 386
#     4  11  26  44  69  99 134 177 225 271 327 396
#
# _framework density 22.617963
#
# number of rings (size 3 to 8) (size 9 to 14) (size 15 to 20)
#    0.000    1.143    1.429    4.286    8.000    0.000 
#    0.000    5.000    0.000    0.000    0.000    0.000 
#    0.000    0.000    0.000    0.000    0.000    0.000 
#
# Total GULP energy -173546.979167 kJ/mol
# GULP energy per Si atom -12396.212798 kJ/mol
# Density = 2.256648 g / cm^3
# Si number density = 22.617963 Si / 1000 Ang^3
#
#
#
# Elastic Constant Matrix: (Units=GPa)
#
#
# Indices 1 2 3 4 5 6 
#
# 1 153.9119 42.3233 60.6918 0.8099 -2.6627 -13.7427
# 2 42.3233 72.8021 33.8243 -6.7352 -12.5133 0.0368
# 3 60.6918 33.8243 77.5704 -4.2902 -0.5187 0.0753
# 4 0.8099 -6.7352 -4.2902 26.5569 5.7880 2.1881
# 5 -2.6627 -12.5133 -0.5187 5.7880 54.6658 -3.3130
# 6 -13.7427 0.0368 0.0753 2.1881 -3.3130 33.3477
#
#
#
# Elastic Compliance Matrix: (Units=1/GPa)
#
#
# Indices 1 2 3 4 5 6 
#
# 1 0.010555 -0.003042 -0.007082 -0.002683 0.000312 0.004576
# 2 -0.003042 0.019128 -0.005752 0.003286 0.003761 -0.001104
# 3 -0.007082 -0.005752 0.021090 0.002869 -0.001968 -0.003344
# 4 -0.002683 0.003286 0.002869 0.040216 -0.003860 -0.004138
# 5 0.000312 0.003761 -0.001968 -0.003860 0.019701 0.002339
# 6 0.004576 -0.001104 -0.003344 -0.004138 0.002339 0.032385
#
#
# Mechanical properties :
#
#
# Convention : Reuss Voigt Hill
#
# Bulk Modulus (GPa) = 52.58010 64.21811 58.39911
# Shear Modulus (GPa) = 27.59869 34.07709 30.83789
#
# Velocity S-wave (km/s) = 3.49694 3.88575 3.69646
# Velocity P-wave (km/s) = 6.29304 6.97039 6.64035
#
# Compressibility (1/GPa) = 0.01901860
#
# Stress axis : x y z
#
# Youngs Moduli (GPa) = 94.74529 52.27908 47.41648
#
# Poissons Ratio (x) = 0.15905 0.33581
# Poissons Ratio (y) = 0.28825 0.27276
# Poissons Ratio (z) = 0.67100 0.30073
#
# Static dielectric constant tensor:
#      x y z
#    x 4.277530 -0.000330 0.107930 
#    y -0.000330 3.944380 -0.025600 
#    z 0.107930 -0.025600 3.908420 
# 
# 
# High freq. dielectric constant tensor:
#      x y z
#    x 1.903800 0.004340 0.002150 
#    y 0.004340 1.885660 -0.010330 
#    z 0.002150 -0.010330 1.884300 
# 
# From -- ./inp_files/498676.got.cif
#   From: 2010.06.25/outbox.cif.g09.slc.cpg/sg2_250_cif.got.tgz:498676.got - 2010.06.27 13:26:56.
