data_PCOD8018467
_publ_section_title
;
Structure prediction by ZEFSAII (Michael W. Deem and Ramdas Pophale) SiO2 
 PCOD8018467
Probable space group: P -1
;
_chemical_formula_sum "Si O2"
_cell_formula_units_Z 12
_cell_length_a 6.830530
_cell_length_b 8.955296
_cell_length_c 8.892500
_cell_angle_alpha 103.036139
_cell_angle_beta 80.859914
_cell_angle_gamma 107.720645
_cell_volume 502.396473
_symmetry_space_group_name_H-M "P -1"
_symmetry_group_IT_number 2
_symmetry_cell_setting 'triclinic'
loop_
_space_group_symop_operation_xyz
x,y,z
-x,-y,-z
loop_
_atom_site_type_symbol
_atom_site_label
_atom_site_fract_x
_atom_site_fract_y
_atom_site_fract_z
Si Si1 0.779410 0.992589 0.091816
Si Si2 0.126476 0.917389 0.575236
Si Si3 0.697527 0.293143 0.680180
Si Si4 0.370006 0.747612 0.993100
Si Si5 0.811397 0.596758 0.561136
Si Si6 0.394996 0.480266 0.721668
O O1 0.774939 0.974840 0.270095
O O2 0.726022 0.155357 0.091746
O O3 0.610299 0.839743 0.011886
O O4 0.000000 0.000000 0.000000
O O5 0.303741 0.868092 0.445774
O O6 0.971612 0.759096 0.629173
O O7 0.000000 0.000000 0.500000
O O8 0.858119 0.443195 0.605725
O O9 0.471565 0.324919 0.720933
O O10 0.761143 0.273896 0.840408
O O11 0.343019 0.569033 0.894756
O O12 0.583060 0.607332 0.640505
O O13 0.803623 0.575701 0.375319
#
# Coordination Sequence:
#
# PCOD8018467 Si02
#       6
#     2   2   2   2   2   2
#     4  11  26  44  66  96 140 173 215 264 335 391
#     4  12  25  42  65  96 135 171 219 268 326 395
#     4  10  22  40  66  96 123 172 219 267 326 371
#     4  11  23  44  68  98 132 174 216 273 323 393
#     4   9  21  40  65  94 128 165 220 270 321 378
#     4   9  20  40  68  91 129 164 223 268 326 372
#
# _framework density 23.885515999999999
#
# number of rings (size 3 to 8) (size 9 to 14) (size 15 to 20)
#    1.000    0.667    0.000    4.000    2.333    2.000 
#    0.000    1.667    0.000    0.000    0.000    0.000 
#    0.000    0.000    0.000    0.000    0.000    0.000 
#
# Total GULP energy -148761.345128 kJ/mol
# GULP energy per Si atom -12396.778761 kJ/mol
# Density = 2.383115 g / cm^3
# Si number density = 23.885516 Si / 1000 Ang^3
#
#
#
# Elastic Constant Matrix: (Units=GPa)
#
#
# Indices 1 2 3 4 5 6 
#
# 1 80.7437 27.2862 36.6579 11.2812 7.5413 -23.4319
# 2 27.2862 76.0474 26.1156 -5.5202 -0.5290 -19.4006
# 3 36.6579 26.1156 164.5780 5.3277 0.0292 -21.1218
# 4 11.2812 -5.5202 5.3277 42.5041 -10.1086 0.4303
# 5 7.5413 -0.5290 0.0292 -10.1086 37.3595 2.0363
# 6 -23.4319 -19.4006 -21.1218 0.4303 2.0363 36.9848
#
#
#
# Elastic Compliance Matrix: (Units=1/GPa)
#
#
# Indices 1 2 3 4 5 6 
#
# 1 0.018972 -0.004328 -0.002168 -0.006901 -0.006244 0.008936
# 2 -0.004328 0.016722 -0.001144 0.003855 0.001869 0.005229
# 3 -0.002168 -0.001144 0.007014 -0.000428 0.000190 0.002027
# 4 -0.006901 0.003855 -0.000428 0.028148 0.009251 -0.003431
# 5 -0.006244 0.001869 0.000190 0.009251 0.030811 -0.004671
# 6 0.008936 0.005229 0.002027 -0.003431 -0.004671 0.036897
#
#
# Mechanical properties :
#
#
# Convention : Reuss Voigt Hill
#
# Bulk Modulus (GPa) = 36.45574 55.72094 46.08834
# Shear Modulus (GPa) = 30.67744 38.79032 34.73388
#
# Velocity S-wave (km/s) = 3.58768 4.03427 3.81751
# Velocity P-wave (km/s) = 5.69717 6.71412 6.22644
#
# Compressibility (1/GPa) = 0.02743053
#
# Stress axis : x y z
#
# Youngs Moduli (GPa) = 52.70931 59.80143 142.56299
#
# Poissons Ratio (x) = 0.25879 0.30904
# Poissons Ratio (y) = 0.22810 0.16304
# Poissons Ratio (z) = 0.11426 0.06839
#
# Static dielectric constant tensor:
#      x y z
#    x 4.090410 -0.133130 0.013760 
#    y -0.133130 4.120580 -0.098010 
#    z 0.013760 -0.098010 4.256970 
# 
# 
# High freq. dielectric constant tensor:
#      x y z
#    x 1.945060 -0.012450 -0.000540 
#    y -0.012450 1.937910 -0.004420 
#    z -0.000540 -0.004420 1.951700 
# 
# From -- ./inp_files/155458.got.cif
#   From: 2010.06.25/outbox.cif.g09.slc.cpg/sg2_78_cif.got.tgz:155458.got - 2010.06.27 13:26:56.
