data_PCOD8018978
_publ_section_title
;
Structure prediction by ZEFSAII (Michael W. Deem and Ramdas Pophale) SiO2 
 PCOD8018978
Probable space group: P -1
;
_chemical_formula_sum "Si O2"
_cell_formula_units_Z 16
_cell_length_a 17.216624
_cell_length_b 16.086441
_cell_length_c 8.935550
_cell_angle_alpha 100.066584
_cell_angle_beta 61.979984
_cell_angle_gamma 153.119345
_cell_volume 781.258670
_symmetry_space_group_name_H-M "P -1"
_symmetry_group_IT_number 2
_symmetry_cell_setting 'triclinic'
loop_
_space_group_symop_operation_xyz
x,y,z
-x,-y,-z
loop_
_atom_site_type_symbol
_atom_site_label
_atom_site_fract_x
_atom_site_fract_y
_atom_site_fract_z
Si Si1 0.623352 0.549084 0.788172
Si Si2 0.757525 0.281837 0.562368
Si Si3 0.363969 0.013070 0.493523
Si Si4 0.920005 0.079751 0.326828
Si Si5 0.893601 0.478695 0.186821
Si Si6 0.828158 0.964448 0.031720
Si Si7 0.290866 0.957725 0.891833
Si Si8 0.744479 0.743578 0.439783
O O1 0.425741 0.312024 0.814704
O O2 0.750527 0.715175 0.593828
O O3 0.823998 0.679552 0.745482
O O4 0.500000 0.500000 0.000000
O O5 0.830009 0.380788 0.368991
O O6 0.000000 0.500000 0.500000
O O7 0.662389 0.101442 0.593366
O O8 0.550710 0.157782 0.782333
O O9 0.639127 0.288457 0.299449
O O10 0.208682 0.946341 0.532265
O O11 0.285510 0.933290 0.712277
O O12 0.941720 0.083301 0.129705
O O13 0.768268 0.866142 0.465419
O O14 0.000000 0.500000 0.000000
O O15 0.081929 0.723415 0.099017
O O16 0.759352 0.988990 0.015898
O O17 0.023009 0.085390 0.802192
O O18 0.500000 0.500000 0.500000
#
# Coordination Sequence:
#
# PCOD8018978 Si02
#       8
#     2   2   2   2   2   2   2   2
#     4  12  25  45  68  92 134 172 211 266 320 379
#     4  11  23  39  61  93 131 159 202 267 314 364
#     4  10  22  41  63  93 123 163 211 257 315 374
#     4  11  24  44  66  95 131 168 214 267 321 380
#     4  11  19  41  66  84 120 168 211 248 307 379
#     4  11  25  44  65  97 128 171 216 262 322 379
#     4  10  22  41  66  89 122 168 212 253 312 380
#     4  12  24  43  68  96 131 169 215 263 320 382
#
# _framework density 20.479772000000001
#
# number of rings (size 3 to 8) (size 9 to 14) (size 15 to 20)
#    0.000    1.000    5.000    2.250    3.500    1.500 
#    0.000    0.000    0.000    0.000    0.000    0.000 
#    0.000    0.000    0.000    0.000    0.000    0.000 
#
# Total GULP energy -198369.469116 kJ/mol
# GULP energy per Si atom -12398.091820 kJ/mol
# Density = 2.043316 g / cm^3
# Si number density = 20.479772 Si / 1000 Ang^3
#
#
#
# Elastic Constant Matrix: (Units=GPa)
#
#
# Indices 1 2 3 4 5 6 
#
# 1 152.8500 38.8593 52.3520 -19.3031 -14.9488 2.4301
# 2 38.8593 70.3491 24.5754 -24.5600 0.4041 15.7542
# 3 52.3520 24.5754 98.3695 -25.2282 1.5923 6.6817
# 4 -19.3031 -24.5600 -25.2282 34.0211 2.1727 -1.9452
# 5 -14.9488 0.4041 1.5923 2.1727 26.6496 -13.8089
# 6 2.4301 15.7542 6.6817 -1.9452 -13.8089 42.0979
#
#
#
# Elastic Compliance Matrix: (Units=1/GPa)
#
#
# Indices 1 2 3 4 5 6 
#
# 1 0.010348 -0.006097 -0.005181 -0.002652 0.009227 0.005410
# 2 -0.006097 0.025528 0.002182 0.016620 -0.011857 -0.012669
# 3 -0.005181 0.002182 0.015463 0.010285 -0.007223 -0.004866
# 4 -0.002652 0.016620 0.010285 0.047694 -0.010951 -0.009088
# 5 0.009227 -0.011857 -0.007223 -0.010951 0.056093 0.022944
# 6 0.005410 -0.012669 -0.004866 -0.009088 0.022944 0.036062
#
#
# Mechanical properties :
#
#
# Convention : Reuss Voigt Hill
#
# Bulk Modulus (GPa) = 30.16764 61.46021 45.81393
# Shear Modulus (GPa) = 22.68307 34.27252 28.47780
#
# Velocity S-wave (km/s) = 3.33165 4.09526 3.73303
# Velocity P-wave (km/s) = 5.43712 7.24133 6.40309
#
# Compressibility (1/GPa) = 0.03314810
#
# Stress axis : x y z
#
# Youngs Moduli (GPa) = 96.63366 39.17291 64.66934
#
# Poissons Ratio (x) = 0.23882 0.33506
# Poissons Ratio (y) = 0.58913 -0.14111
# Poissons Ratio (z) = 0.50068 -0.08548
#
# Static dielectric constant tensor:
#      x y z
#    x 4.093290 -0.099250 -0.021320 
#    y -0.099250 3.871990 -0.292930 
#    z -0.021320 -0.292930 3.849700 
# 
# 
# High freq. dielectric constant tensor:
#      x y z
#    x 1.818270 -0.000420 -0.007410 
#    y -0.000420 1.794490 -0.017390 
#    z -0.007410 -0.017390 1.801610 
# 
# From -- ./inp_files/46551.got.cif
#   From: 2010.06.25/outbox.cif.g09.slc.cpg/sg2_24_cif.got.tgz:46551.got - 2010.06.27 13:26:56.
