data_PCOD8018990
_publ_section_title
;
Structure prediction by ZEFSAII (Michael W. Deem and Ramdas Pophale) SiO2 
 PCOD8018990
Probable space group: P -1
;
_chemical_formula_sum "Si O2"
_cell_formula_units_Z 14
_cell_length_a 17.670167
_cell_length_b 9.621977
_cell_length_c 9.218170
_cell_angle_alpha 132.194236
_cell_angle_beta 54.762256
_cell_angle_gamma 143.179506
_cell_volume 693.164055
_symmetry_space_group_name_H-M "P -1"
_symmetry_group_IT_number 2
_symmetry_cell_setting 'triclinic'
loop_
_space_group_symop_operation_xyz
x,y,z
-x,-y,-z
loop_
_atom_site_type_symbol
_atom_site_label
_atom_site_fract_x
_atom_site_fract_y
_atom_site_fract_z
Si Si1 0.834638 0.234112 0.258768
Si Si2 0.892726 0.470846 0.921398
Si Si3 0.399034 0.223149 0.984463
Si Si4 0.225363 0.069743 0.319376
Si Si5 0.261309 0.875574 0.399285
Si Si6 0.796935 0.549596 0.354403
Si Si7 0.480974 0.939897 0.649171
O O1 0.825632 0.213013 0.426811
O O2 0.841662 0.462476 0.364374
O O3 0.960259 0.298071 0.116070
O O4 0.714614 0.963915 0.134338
O O5 0.807541 0.375147 0.802795
O O6 0.869920 0.227176 0.841247
O O7 0.849209 0.565201 0.150290
O O8 0.348622 0.243504 0.202546
O O9 0.500000 0.500000 0.000000
O O10 0.466218 0.118675 0.871659
O O11 0.154653 0.173513 0.466787
O O12 0.268633 0.080525 0.443950
O O13 0.401076 0.004955 0.376426
O O14 0.644239 0.353568 0.385397
O O15 0.500000 0.000000 0.500000
#
# Coordination Sequence:
#
# PCOD8018990 Si02
#       7
#     2   2   2   2   2   2   2
#     4  11  21  43  69  87 131 174 205 263 311 380
#     4  10  23  44  62  94 132 167 213 253 324 368
#     4  11  23  40  63  99 128 162 217 263 309 378
#     4  10  24  41  61 101 122 165 214 261 315 368
#     4  10  22  41  63  94 127 169 207 262 320 374
#     4  11  22  40  67  92 125 170 215 258 311 374
#     4  11  19  39  64  90 124 169 209 255 322 367
#
# _framework density 20.197237999999999
#
# number of rings (size 3 to 8) (size 9 to 14) (size 15 to 20)
#    0.857    0.571    5.714    1.714    0.000    3.429 
#    2.571    0.714    0.000    0.000    0.000    0.000 
#    0.000    0.000    0.000    0.000    0.000    0.000 
#
# Total GULP energy -173564.866051 kJ/mol
# GULP energy per Si atom -12397.490432 kJ/mol
# Density = 2.015127 g / cm^3
# Si number density = 20.197238 Si / 1000 Ang^3
#
#
#
# Elastic Constant Matrix: (Units=GPa)
#
#
# Indices 1 2 3 4 5 6 
#
# 1 58.7680 12.0471 26.4951 -13.5729 0.3551 -3.4349
# 2 12.0471 70.6000 40.2160 -20.3451 -8.1773 0.5868
# 3 26.4951 40.2160 140.2271 -26.6700 -13.4120 -16.0969
# 4 -13.5729 -20.3451 -26.6700 43.6279 -7.1957 -5.5231
# 5 0.3551 -8.1773 -13.4120 -7.1957 30.7568 -8.8264
# 6 -3.4349 0.5868 -16.0969 -5.5231 -8.8264 30.0228
#
#
#
# Elastic Compliance Matrix: (Units=1/GPa)
#
#
# Indices 1 2 3 4 5 6 
#
# 1 0.019376 -0.000638 -0.002397 0.004519 0.000140 0.001817
# 2 -0.000638 0.018990 -0.003179 0.007791 0.005775 0.000982
# 3 -0.002397 -0.003179 0.012141 0.008078 0.009393 0.010545
# 4 0.004519 0.007791 0.008078 0.038333 0.019529 0.017489
# 5 0.000140 0.005775 0.009393 0.019529 0.049321 0.023032
# 6 0.001817 0.000982 0.010545 0.017489 0.023032 0.049139
#
#
# Mechanical properties :
#
#
# Convention : Reuss Voigt Hill
#
# Bulk Modulus (GPa) = 26.26039 47.45685 36.85862
# Shear Modulus (GPa) = 23.53830 33.60395 28.57113
#
# Velocity S-wave (km/s) = 3.41753 4.08338 3.76520
# Velocity P-wave (km/s) = 5.34817 6.76607 6.09847
#
# Compressibility (1/GPa) = 0.03808016
#
# Stress axis : x y z
#
# Youngs Moduli (GPa) = 51.60933 52.66041 82.36570
#
# Poissons Ratio (x) = 0.03359 0.19741
# Poissons Ratio (y) = 0.03292 0.26182
# Poissons Ratio (z) = 0.12370 0.16739
#
# Static dielectric constant tensor:
#      x y z
#    x 3.544440 0.064720 -0.012200 
#    y 0.064720 3.737780 -0.116710 
#    z -0.012200 -0.116710 3.808110 
# 
# 
# High freq. dielectric constant tensor:
#      x y z
#    x 1.771450 0.009510 -0.003970 
#    y 0.009510 1.786350 -0.020440 
#    z -0.003970 -0.020440 1.796080 
# 
# From -- ./inp_files/326592.got.cif
#   From: 2010.06.25/outbox.cif.g09.slc.cpg/sg2_164_cif.got.tgz:326592.got - 2010.06.27 13:26:56.
