data_PCOD8018781
_publ_section_title
;
Structure prediction by ZEFSAII (Michael W. Deem and Ramdas Pophale) SiO2 
 PCOD8018781
Probable space group: P -1
;
_chemical_formula_sum "Si O2"
_cell_formula_units_Z 14
_cell_length_a 9.155776
_cell_length_b 11.575651
_cell_length_c 12.278585
_cell_angle_alpha 129.886442
_cell_angle_beta 52.936890
_cell_angle_gamma 141.993285
_cell_volume 601.641931
_symmetry_space_group_name_H-M "P -1"
_symmetry_group_IT_number 2
_symmetry_cell_setting 'triclinic'
loop_
_space_group_symop_operation_xyz
x,y,z
-x,-y,-z
loop_
_atom_site_type_symbol
_atom_site_label
_atom_site_fract_x
_atom_site_fract_y
_atom_site_fract_z
Si Si1 0.700554 0.954155 0.779121
Si Si2 0.324722 0.574745 0.989843
Si Si3 0.804295 0.300597 0.072007
Si Si4 0.270439 0.027169 0.464829
Si Si5 0.946340 0.811324 0.675466
Si Si6 0.561782 0.889292 0.248214
Si Si7 0.551189 0.398647 0.702118
O O1 0.409022 0.820196 0.815502
O O2 0.757864 0.847825 0.771163
O O3 0.820757 0.992333 0.629418
O O4 0.813594 0.162820 0.905196
O O5 0.254499 0.585909 0.906375
O O6 0.429976 0.463955 0.869135
O O7 0.518861 0.790837 0.089690
O O8 0.070880 0.448409 0.096926
O O9 0.486372 0.022177 0.362258
O O10 0.058385 0.843707 0.524713
O O11 0.366685 0.238161 0.595885
O O12 0.799767 0.586826 0.647587
O O13 0.154262 0.967049 0.762672
O O14 0.401131 0.712593 0.303101
#
# Coordination Sequence:
#
# PCOD8018781 Si02
#       7
#     2   2   2   2   2   2   2
#     4  11  22  44  66 103 128 175 218 275 333 387
#     4  11  22  44  65 100 129 173 220 276 323 389
#     4  10  22  40  71  93 137 165 222 275 328 388
#     4  11  25  44  67  95 138 176 220 267 329 394
#     4  11  24  42  68  98 138 171 218 275 327 391
#     4  11  25  45  67  96 133 180 220 267 332 391
#     4  11  24  43  66 101 135 169 224 270 326 394
#
# _framework density 23.269656000000001
#
# number of rings (size 3 to 8) (size 9 to 14) (size 15 to 20)
#    0.000    1.143    2.857    4.286    0.000    5.714 
#    0.000    0.000    0.000    0.000    0.000    0.000 
#    0.000    0.000    0.000    0.000    0.000    0.000 
#
# Total GULP energy -173588.097507 kJ/mol
# GULP energy per Si atom -12399.149822 kJ/mol
# Density = 2.321669 g / cm^3
# Si number density = 23.269656 Si / 1000 Ang^3
#
#
#
# Elastic Constant Matrix: (Units=GPa)
#
#
# Indices 1 2 3 4 5 6 
#
# 1 57.2099 16.0455 4.6586 5.8612 1.1125 5.4681
# 2 16.0455 129.7107 13.5684 -6.6188 3.9459 3.3448
# 3 4.6586 13.5684 77.4524 2.2491 -4.4204 9.9733
# 4 5.8612 -6.6188 2.2491 28.8270 -4.9543 -7.2969
# 5 1.1125 3.9459 -4.4204 -4.9543 31.6866 0.5520
# 6 5.4681 3.3448 9.9733 -7.2969 0.5520 35.5795
#
#
#
# Elastic Compliance Matrix: (Units=1/GPa)
#
#
# Indices 1 2 3 4 5 6 
#
# 1 0.019158 -0.002509 -0.000127 -0.005630 -0.001192 -0.003809
# 2 -0.002509 0.008315 -0.001495 0.002545 -0.000768 0.000557
# 3 -0.000127 -0.001495 0.013891 -0.002144 0.001866 -0.004202
# 4 -0.005630 0.002545 -0.002144 0.039920 0.005661 0.009326
# 5 -0.001192 -0.000768 0.001866 0.005661 0.032835 0.000384
# 6 -0.003809 0.000557 -0.004202 0.009326 0.000384 0.031724
#
#
# Mechanical properties :
#
#
# Convention : Reuss Voigt Hill
#
# Bulk Modulus (GPa) = 30.21070 36.99088 33.60079
# Shear Modulus (GPa) = 30.27758 34.55866 32.41812
#
# Velocity S-wave (km/s) = 3.61108 3.85793 3.73654
# Velocity P-wave (km/s) = 5.51340 5.98130 5.75211
#
# Compressibility (1/GPa) = 0.03310086
#
# Stress axis : x y z
#
# Youngs Moduli (GPa) = 52.19832 120.26246 71.99096
#
# Poissons Ratio (x) = 0.30179 0.00912
# Poissons Ratio (y) = 0.13099 0.10764
# Poissons Ratio (z) = 0.00661 0.17981
#
# Static dielectric constant tensor:
#      x y z
#    x 4.217020 0.034210 -0.072260 
#    y 0.034210 4.285380 -0.011060 
#    z -0.072260 -0.011060 4.011790 
# 
# 
# High freq. dielectric constant tensor:
#      x y z
#    x 1.923210 -0.001730 -0.010490 
#    y -0.001730 1.922080 -0.000100 
#    z -0.010490 -0.000100 1.908110 
# 
# From -- ./inp_files/390313.got.cif
#   From: 2010.06.25/outbox.cif.g09.slc.cpg/sg2_196_cif.got.tgz:390313.got - 2010.06.27 13:26:56.
