data_PCOD8018510
_publ_section_title
;
Structure prediction by ZEFSAII (Michael W. Deem and Ramdas Pophale) SiO2 
 PCOD8018510
Probable space group: P -1
;
_chemical_formula_sum "Si O2"
_cell_formula_units_Z 12
_cell_length_a 8.390584
_cell_length_b 10.398085
_cell_length_c 7.275423
_cell_angle_alpha 116.852479
_cell_angle_beta 126.131196
_cell_angle_gamma 79.626506
_cell_volume 454.099347
_symmetry_space_group_name_H-M "P -1"
_symmetry_group_IT_number 2
_symmetry_cell_setting 'triclinic'
loop_
_space_group_symop_operation_xyz
x,y,z
-x,-y,-z
loop_
_atom_site_type_symbol
_atom_site_label
_atom_site_fract_x
_atom_site_fract_y
_atom_site_fract_z
Si Si1 0.632550 0.068779 0.298918
Si Si2 0.421793 0.631504 0.428355
Si Si3 0.804295 0.657992 0.496549
Si Si4 0.996120 0.043258 0.306282
Si Si5 0.819509 0.395264 0.086327
Si Si6 0.705945 0.071356 0.807747
O O1 0.644939 0.243851 0.403745
O O2 0.856552 0.017497 0.384250
O O3 0.519597 0.012346 0.376506
O O4 0.500000 0.000000 0.000000
O O5 0.500000 0.500000 0.500000
O O6 0.604418 0.707251 0.477008
O O7 0.231057 0.569812 0.136348
O O8 0.915134 0.787677 0.534021
O O9 0.741881 0.517273 0.239372
O O10 0.946209 0.612590 0.728779
O O11 0.177373 0.943643 0.321839
O O12 0.839432 0.003541 0.009079
O O13 0.694897 0.240158 0.949691
#
# Coordination Sequence:
#
# PCOD8018510 Si02
#       6
#     2   2   2   2   2   2
#     4  10  22  40  67 101 139 181 228 286 344 413
#     4  12  27  44  67 104 144 183 235 287 346 417
#     4  10  22  46  72  97 142 184 231 289 348 416
#     4   9  18  38  67  98 134 181 224 282 353 405
#     4  10  24  43  73 102 134 190 230 284 356 409
#     4   9  18  39  69  93 137 180 227 284 346 412
#
# _framework density 26.425934000000002
#
# number of rings (size 3 to 8) (size 9 to 14) (size 15 to 20)
#    0.000    2.000    1.667    0.500   11.667    1.333 
#    0.000    0.833    0.000    0.000    0.000    0.000 
#    0.000    0.000    0.000    0.000    0.000    0.000 
#
# Total GULP energy -148807.868530 kJ/mol
# GULP energy per Si atom -12400.655711 kJ/mol
# Density = 2.636579 g / cm^3
# Si number density = 26.425934 Si / 1000 Ang^3
#
#
#
# Elastic Constant Matrix: (Units=GPa)
#
#
# Indices 1 2 3 4 5 6 
#
# 1 189.4438 45.0189 74.0175 5.0484 -7.6394 -6.7862
# 2 45.0189 119.2562 75.2875 17.1699 -0.6346 -16.9354
# 3 74.0175 75.2875 159.4967 -8.2750 -2.9584 -20.5134
# 4 5.0484 17.1699 -8.2750 43.3728 -1.6503 -5.0276
# 5 -7.6394 -0.6346 -2.9584 -1.6503 36.9984 -8.3252
# 6 -6.7862 -16.9354 -20.5134 -5.0276 -8.3252 45.4384
#
#
#
# Elastic Compliance Matrix: (Units=1/GPa)
#
#
# Indices 1 2 3 4 5 6 
#
# 1 0.006596 -0.000563 -0.002897 -0.001116 0.000963 -0.000480
# 2 -0.000563 0.013761 -0.006399 -0.006458 -0.000371 0.001373
# 3 -0.002897 -0.006399 0.011338 0.005438 0.001141 0.003112
# 4 -0.001116 -0.006458 0.005438 0.027236 0.002044 0.003269
# 5 0.000963 -0.000371 0.001141 0.002044 0.028757 0.006016
# 6 -0.000480 0.001373 0.003112 0.003269 0.006016 0.025317
#
#
# Mechanical properties :
#
#
# Convention : Reuss Voigt Hill
#
# Bulk Modulus (GPa) = 83.50254 95.20494 89.35374
# Shear Modulus (GPa) = 36.57241 43.42012 39.99626
#
# Velocity S-wave (km/s) = 3.72420 4.05790 3.89462
# Velocity P-wave (km/s) = 7.08238 7.61976 7.35598
#
# Compressibility (1/GPa) = 0.01197568
#
# Stress axis : x y z
#
# Youngs Moduli (GPa) = 151.61547 72.67057 88.19791
#
# Poissons Ratio (x) = 0.04095 0.25547
# Poissons Ratio (y) = 0.08543 0.56441
# Poissons Ratio (z) = 0.43917 0.46504
#
# Static dielectric constant tensor:
#      x y z
#    x 5.723430 -0.117290 0.078240 
#    y -0.117290 4.741280 -0.394530 
#    z 0.078240 -0.394530 5.229050 
# 
# 
# High freq. dielectric constant tensor:
#      x y z
#    x 2.073750 -0.022400 0.002350 
#    y -0.022400 2.064460 -0.034480 
#    z 0.002350 -0.034480 2.105780 
# 
# From -- ./inp_files/183454.got.cif
#   From: 2010.06.25/outbox.cif.g09.slc.cpg/sg2_92_cif.got.tgz:183454.got - 2010.06.27 13:26:56.
