data_PCOD8018170
_publ_section_title
;
Structure prediction by ZEFSAII (Michael W. Deem and Ramdas Pophale) SiO2 
 PCOD8018170
Probable space group: P -1
;
_chemical_formula_sum "Si O2"
_cell_formula_units_Z 12
_cell_length_a 9.942165
_cell_length_b 9.083264
_cell_length_c 12.490033
_cell_angle_alpha 125.629708
_cell_angle_beta 146.318979
_cell_angle_gamma 56.180533
_cell_volume 501.927479
_symmetry_space_group_name_H-M "P -1"
_symmetry_group_IT_number 2
_symmetry_cell_setting 'triclinic'
loop_
_space_group_symop_operation_xyz
x,y,z
-x,-y,-z
loop_
_atom_site_type_symbol
_atom_site_label
_atom_site_fract_x
_atom_site_fract_y
_atom_site_fract_z
Si Si1 0.850776 0.793206 0.031993
Si Si2 0.885475 0.286413 0.043354
Si Si3 0.055063 0.302623 0.713186
Si Si4 0.399628 0.158852 0.420575
Si Si5 0.462675 0.546888 0.618364
Si Si6 0.511859 0.073326 0.810613
O O1 0.680955 0.634238 0.850550
O O2 0.058899 0.757503 0.063626
O O3 0.683053 0.992774 0.989915
O O4 0.980182 0.782163 0.228404
O O5 0.852668 0.502728 0.133367
O O6 0.105782 0.178430 0.216226
O O7 0.636167 0.216848 0.883418
O O8 0.248574 0.165963 0.715654
O O9 0.800193 0.322409 0.487043
O O10 0.462691 0.349086 0.590402
O O11 0.500000 0.000000 0.500000
O O12 0.520564 0.102721 0.359823
O O13 0.500000 0.500000 0.500000
#
# Coordination Sequence:
#
# PCOD8018170 Si02
#       6
#     2   2   2   2   2   2
#     4  11  22  43  67  93 123 173 209 254 314 376
#     4  10  22  42  63  92 124 166 217 246 308 392
#     4  11  24  41  67  93 129 165 203 270 321 355
#     4  10  22  40  63  91 124 169 207 258 309 373
#     4  11  22  42  64  92 126 161 224 249 302 392
#     4  11  23  42  61  97 129 158 213 261 315 374
#
# _framework density 23.907837000000001
#
# number of rings (size 3 to 8) (size 9 to 14) (size 15 to 20)
#    0.000    1.333    5.000    3.500    2.333    2.000 
#    3.000    1.667    0.000    0.000    0.000    0.000 
#    0.000    0.000    0.000    0.000    0.000    0.000 
#
# Total GULP energy -148810.754419 kJ/mol
# GULP energy per Si atom -12400.896202 kJ/mol
# Density = 2.385342 g / cm^3
# Si number density = 23.907837 Si / 1000 Ang^3
#
#
#
# Elastic Constant Matrix: (Units=GPa)
#
#
# Indices 1 2 3 4 5 6 
#
# 1 74.1170 28.2583 24.6347 -5.7011 3.5155 1.9147
# 2 28.2583 110.9362 13.9563 -26.4107 -5.6172 -0.4694
# 3 24.6347 13.9563 48.6926 -9.8005 6.0657 8.9151
# 4 -5.7011 -26.4107 -9.8005 30.7465 7.5718 -2.1920
# 5 3.5155 -5.6172 6.0657 7.5718 24.2022 -1.2959
# 6 1.9147 -0.4694 8.9151 -2.1920 -1.2959 45.3799
#
#
#
# Elastic Compliance Matrix: (Units=1/GPa)
#
#
# Indices 1 2 3 4 5 6 
#
# 1 0.017636 -0.004120 -0.008361 -0.002754 -0.000523 0.000708
# 2 -0.004120 0.012415 0.000368 0.009996 0.000299 0.000721
# 3 -0.008361 0.000368 0.028722 0.009837 -0.009248 -0.005075
# 4 -0.002754 0.009996 0.009837 0.047328 -0.014544 0.000158
# 5 -0.000523 0.000299 -0.009248 -0.014544 0.048467 0.002523
# 6 0.000708 0.000721 -0.005075 0.000158 0.002523 0.023091
#
#
# Mechanical properties :
#
#
# Convention : Reuss Voigt Hill
#
# Bulk Modulus (GPa) = 28.94370 40.82717 34.88543
# Shear Modulus (GPa) = 23.43013 31.19214 27.31114
#
# Velocity S-wave (km/s) = 3.13392 3.61596 3.38353
# Velocity P-wave (km/s) = 5.02274 5.87771 5.46697
#
# Compressibility (1/GPa) = 0.03454984
#
# Stress axis : x y z
#
# Youngs Moduli (GPa) = 56.70060 80.54663 34.81600
#
# Poissons Ratio (x) = 0.33184 0.29109
# Poissons Ratio (y) = 0.23360 -0.01283
# Poissons Ratio (z) = 0.47406 -0.02968
#
# Static dielectric constant tensor:
#      x y z
#    x 4.073720 0.217480 0.240310 
#    y 0.217480 5.001740 0.327520 
#    z 0.240310 0.327520 5.354030 
# 
# 
# High freq. dielectric constant tensor:
#      x y z
#    x 1.921030 0.013470 0.014780 
#    y 0.013470 1.974450 -0.011330 
#    z 0.014780 -0.011330 1.939340 
# 
# From -- ./inp_files/166958.got.cif
#   From: 2010.06.25/outbox.cif.g09.slc.cpg/sg2_84_cif.got.tgz:166958.got - 2010.06.27 13:26:56.
