data_PCOD8018642
_publ_section_title
;
Structure prediction by ZEFSAII (Michael W. Deem and Ramdas Pophale) SiO2 
 PCOD8018642
Probable space group: P -1
;
_chemical_formula_sum "Si O2"
_cell_formula_units_Z 16
_cell_length_a 8.643029
_cell_length_b 12.383524
_cell_length_c 9.412359
_cell_angle_alpha 82.174651
_cell_angle_beta 88.934824
_cell_angle_gamma 130.172174
_cell_volume 755.033827
_symmetry_space_group_name_H-M "P -1"
_symmetry_group_IT_number 2
_symmetry_cell_setting 'triclinic'
loop_
_space_group_symop_operation_xyz
x,y,z
-x,-y,-z
loop_
_atom_site_type_symbol
_atom_site_label
_atom_site_fract_x
_atom_site_fract_y
_atom_site_fract_z
Si Si1 0.958304 0.771608 0.264814
Si Si2 0.026455 0.987724 0.838736
Si Si3 0.335206 0.992865 0.369243
Si Si4 0.628411 0.750038 0.726357
Si Si5 0.064065 0.431465 0.206334
Si Si6 0.282566 0.401772 0.442759
Si Si7 0.765994 0.099829 0.314558
Si Si8 0.815567 0.523065 0.123901
O O1 0.874203 0.856752 0.257644
O O2 0.879750 0.663634 0.416806
O O3 0.895651 0.679923 0.138614
O O4 0.203000 0.902964 0.247673
O O5 0.183853 0.966623 0.793577
O O6 0.798380 0.847775 0.824685
O O7 0.000000 0.000000 0.000000
O O8 0.179759 0.905685 0.522226
O O9 0.424431 0.156082 0.352565
O O10 0.522042 0.996848 0.349201
O O11 0.738142 0.721299 0.617712
O O12 0.422339 0.599161 0.812228
O O13 0.229526 0.477644 0.320124
O O14 0.877173 0.261355 0.239602
O O15 0.960478 0.503090 0.208477
O O16 0.178130 0.481443 0.044838
O O17 0.500000 0.500000 0.500000
#
# Coordination Sequence:
#
# PCOD8018642 Si02
#       8
#     2   2   2   2   2   2   2   2
#     4  11  23  43  63 101 134 172 226 284 333 401
#     4  11  24  42  67  99 136 180 224 279 339 409
#     4  10  22  40  68  98 128 172 227 285 333 396
#     4  11  22  42  67  96 135 176 222 280 337 405
#     4  11  24  45  67  95 137 183 220 279 340 405
#     4  12  24  42  68 101 134 175 227 278 339 400
#     4  11  20  42  69  96 127 176 229 275 342 392
#     4  11  25  45  67  96 139 180 225 273 343 409
#
# _framework density 21.191102000000001
#
# number of rings (size 3 to 8) (size 9 to 14) (size 15 to 20)
#    0.000    1.000    5.000    1.500    0.000    4.000 
#   11.250    1.875    0.000    0.000    0.000    0.000 
#    0.000    0.000    0.000    0.000    0.000    0.000 
#
# Total GULP energy -198252.665863 kJ/mol
# GULP energy per Si atom -12390.791616 kJ/mol
# Density = 2.114287 g / cm^3
# Si number density = 21.191102 Si / 1000 Ang^3
#
#
#
# Elastic Constant Matrix: (Units=GPa)
#
#
# Indices 1 2 3 4 5 6 
#
# 1 100.7245 25.2235 37.3463 8.6518 -3.6563 -2.2586
# 2 25.2235 98.9663 17.2398 11.4096 -1.3499 -5.3706
# 3 37.3463 17.2398 89.0764 5.5462 0.5360 1.3901
# 4 8.6518 11.4096 5.5462 37.1795 -0.1371 -2.2462
# 5 -3.6563 -1.3499 0.5360 -0.1371 38.4014 -1.1766
# 6 -2.2586 -5.3706 1.3901 -2.2462 -1.1766 21.2103
#
#
#
# Elastic Compliance Matrix: (Units=1/GPa)
#
#
# Indices 1 2 3 4 5 6 
#
# 1 0.012397 -0.002096 -0.004723 -0.001472 0.001198 0.001010
# 2 -0.002096 0.011286 -0.001180 -0.002651 0.000279 0.002447
# 3 -0.004723 -0.001180 0.013509 -0.000665 -0.000737 -0.001799
# 4 -0.001472 -0.002651 -0.000665 0.028285 -0.000055 0.002208
# 5 0.001198 0.000279 -0.000737 -0.000055 0.026227 0.001696
# 6 0.001010 0.002447 -0.001799 0.002208 0.001696 0.048320
#
#
# Mechanical properties :
#
#
# Convention : Reuss Voigt Hill
#
# Bulk Modulus (GPa) = 47.18539 49.82072 48.50306
# Shear Modulus (GPa) = 30.65850 33.28874 31.97362
#
# Velocity S-wave (km/s) = 3.80776 3.96774 3.88857
# Velocity P-wave (km/s) = 6.45345 6.67472 6.56501
#
# Compressibility (1/GPa) = 0.02119300
#
# Stress axis : x y z
#
# Youngs Moduli (GPa) = 80.66645 88.60154 74.02509
#
# Poissons Ratio (x) = 0.18571 0.34963
# Poissons Ratio (y) = 0.16908 0.08738
# Poissons Ratio (z) = 0.38100 0.10459
#
# Static dielectric constant tensor:
#      x y z
#    x 3.906050 -0.124200 0.122690 
#    y -0.124200 4.037250 0.017640 
#    z 0.122690 0.017640 3.970020 
# 
# 
# High freq. dielectric constant tensor:
#      x y z
#    x 1.834680 -0.000840 -0.000300 
#    y -0.000840 1.834610 -0.002230 
#    z -0.000300 -0.002230 1.828970 
# 
# From -- ./inp_files/187534.got.cif
#   From: 2010.06.25/outbox.cif.g09.slc.cpg/sg2_94_cif.got.tgz:187534.got - 2010.06.27 13:26:56.
