data_PCOD8018845
_publ_section_title
;
Structure prediction by ZEFSAII (Michael W. Deem and Ramdas Pophale) SiO2 
 PCOD8018845
Probable space group: P -1
;
_chemical_formula_sum "Si O2"
_cell_formula_units_Z 14
_cell_length_a 9.632633
_cell_length_b 18.710128
_cell_length_c 10.047957
_cell_angle_alpha 56.035683
_cell_angle_beta 45.304540
_cell_angle_gamma 34.813656
_cell_volume 734.146285
_symmetry_space_group_name_H-M "P -1"
_symmetry_group_IT_number 2
_symmetry_cell_setting 'triclinic'
loop_
_space_group_symop_operation_xyz
x,y,z
-x,-y,-z
loop_
_atom_site_type_symbol
_atom_site_label
_atom_site_fract_x
_atom_site_fract_y
_atom_site_fract_z
Si Si1 0.788212 0.388048 0.493377
Si Si2 0.212094 0.796027 0.214954
Si Si3 0.441342 0.882490 0.403998
Si Si4 0.638071 0.740239 0.813287
Si Si5 0.890041 0.626869 0.493886
Si Si6 0.688221 0.982670 0.183663
Si Si7 0.859209 0.013912 0.772517
O O1 0.500000 0.500000 0.500000
O O2 0.805826 0.281148 0.603200
O O3 0.039922 0.340239 0.275656
O O4 0.832282 0.415036 0.584164
O O5 0.199321 0.874314 0.248136
O O6 0.969236 0.876249 0.186820
O O7 0.511751 0.707010 0.027287
O O8 0.736223 0.732447 0.371633
O O9 0.488653 0.962100 0.355366
O O10 0.361676 0.928154 0.258494
O O11 0.188547 0.907727 0.615410
O O12 0.648694 0.699631 0.697181
O O13 0.456323 0.886594 0.791542
O O14 0.000000 0.500000 0.500000
O O15 0.788162 0.964522 0.982451
#
# Coordination Sequence:
#
# PCOD8018845 Si02
#       7
#     2   2   2   2   2   2   2
#     4  10  23  39  59  84 113 156 204 237 275 339
#     4  11  20  37  65  87 114 152 193 242 292 345
#     4  11  21  38  57  89 122 155 184 235 298 345
#     4   9  21  37  63  87 115 148 191 245 286 343
#     4  10  22  41  60  79 119 158 193 240 283 336
#     4  11  19  38  63  91 116 146 196 235 298 349
#     4  10  23  33  61  92 122 148 181 241 299 354
#
# _framework density 19.069768
#
# number of rings (size 3 to 8) (size 9 to 14) (size 15 to 20)
#    0.857    0.857    1.429    4.714    2.000    2.286 
#    0.000    0.714    3.143    0.000    0.000    0.000 
#    0.000    0.000    0.000    0.000    0.000    0.000 
#
# Total GULP energy -173454.323374 kJ/mol
# GULP energy per Si atom -12389.594527 kJ/mol
# Density = 1.902636 g / cm^3
# Si number density = 19.069768 Si / 1000 Ang^3
#
#
#
# Elastic Constant Matrix: (Units=GPa)
#
#
# Indices 1 2 3 4 5 6 
#
# 1 105.9763 56.5121 34.6703 -11.3845 -4.2354 -23.3403
# 2 56.5121 98.2678 32.4609 -14.1294 9.6086 -26.0604
# 3 34.6703 32.4609 60.3387 -4.1494 2.0169 -27.8253
# 4 -11.3845 -14.1294 -4.1494 50.6691 -6.6122 19.4715
# 5 -4.2354 9.6086 2.0169 -6.6122 29.0864 -2.3917
# 6 -23.3403 -26.0604 -27.8253 19.4715 -2.3917 56.2663
#
#
#
# Elastic Compliance Matrix: (Units=1/GPa)
#
#
# Indices 1 2 3 4 5 6 
#
# 1 0.015477 -0.007561 -0.004794 0.001603 0.005467 0.000225
# 2 -0.007561 0.017047 -0.003423 0.001044 -0.006056 0.002447
# 3 -0.004794 -0.003423 0.025804 -0.004167 -0.001435 0.010568
# 4 0.001603 0.001044 -0.004167 0.024174 0.004927 -0.009068
# 5 0.005467 -0.006056 -0.001435 0.004927 0.038288 -0.001325
# 6 0.000225 0.002447 0.010568 -0.009068 -0.001325 0.027307
#
#
# Mechanical properties :
#
#
# Convention : Reuss Voigt Hill
#
# Bulk Modulus (GPa) = 37.35437 56.87437 47.11437
# Shear Modulus (GPa) = 26.51441 36.60031 31.55736
#
# Velocity S-wave (km/s) = 3.73284 4.38572 4.07238
# Velocity P-wave (km/s) = 6.18139 7.45219 6.84634
#
# Compressibility (1/GPa) = 0.02677063
#
# Stress axis : x y z
#
# Youngs Moduli (GPa) = 64.61354 58.66245 38.75361
#
# Poissons Ratio (x) = 0.44356 0.18578
# Poissons Ratio (y) = 0.48855 0.13267
# Poissons Ratio (z) = 0.30975 0.20082
#
# Static dielectric constant tensor:
#      x y z
#    x 3.886430 -0.268370 0.258110 
#    y -0.268370 2.741150 0.319230 
#    z 0.258110 0.319230 3.761930 
# 
# 
# High freq. dielectric constant tensor:
#      x y z
#    x 1.750280 -0.007630 -0.006810 
#    y -0.007630 1.724260 -0.003290 
#    z -0.006810 -0.003290 1.736760 
# 
# From -- ./inp_files/214641.got.cif
#   From: 2010.06.25/outbox.cif.g09.slc.cpg/sg2_108_cif.got.tgz:214641.got - 2010.06.27 13:26:56.
