data_PCOD8018632
_publ_section_title
;
Structure prediction by ZEFSAII (Michael W. Deem and Ramdas Pophale) SiO2 
 PCOD8018632
Probable space group: P -1
;
_chemical_formula_sum "Si O2"
_cell_formula_units_Z 16
_cell_length_a 15.384336
_cell_length_b 8.838282
_cell_length_c 15.818468
_cell_angle_alpha 143.149355
_cell_angle_beta 37.569879
_cell_angle_gamma 139.949467
_cell_volume 734.118456
_symmetry_space_group_name_H-M "P -1"
_symmetry_group_IT_number 2
_symmetry_cell_setting 'triclinic'
loop_
_space_group_symop_operation_xyz
x,y,z
-x,-y,-z
loop_
_atom_site_type_symbol
_atom_site_label
_atom_site_fract_x
_atom_site_fract_y
_atom_site_fract_z
Si Si1 0.872106 0.972960 0.204747
Si Si2 0.547363 0.197088 0.926642
Si Si3 0.250994 0.270711 0.631771
Si Si4 0.858754 0.619116 0.903760
Si Si5 0.023483 0.828277 0.328712
Si Si6 0.538275 0.156125 0.312538
Si Si7 0.641427 0.224556 0.449538
Si Si8 0.652164 0.786111 0.765051
O O1 0.841950 0.844815 0.263087
O O2 0.791970 0.191728 0.354777
O O3 0.809357 0.732835 0.077975
O O4 0.051122 0.139275 0.122319
O O5 0.705908 0.437476 0.893286
O O6 0.464174 0.098240 0.856508
O O7 0.576785 0.942798 0.831673
O O8 0.443301 0.302914 0.114812
O O9 0.359908 0.110624 0.446908
O O10 0.368370 0.574890 0.692255
O O11 0.123473 0.249854 0.651937
O O12 0.964070 0.449609 0.772825
O O13 0.179405 0.017090 0.247603
O O14 0.000000 0.000000 0.500000
O O15 0.630200 0.171491 0.334507
O O16 0.650075 0.524810 0.598260
O O17 0.500000 0.000000 0.500000
#
# Coordination Sequence:
#
# PCOD8018632 Si02
#       8
#     2   2   2   2   2   2   2   2
#     4  11  24  43  66  95 132 178 215 263 331 391
#     4  10  22  41  68  98 131 168 219 278 320 378
#     4  11  23  40  68  97 129 168 223 267 318 388
#     4  10  23  44  66  93 137 172 212 271 330 385
#     4  11  22  43  68  96 128 169 220 273 322 383
#     4  11  23  40  67  99 130 168 223 270 315 386
#     4  12  23  43  66  94 133 177 215 262 328 396
#     4  10  22  40  68  96 129 173 218 267 331 380
#
# _framework density 21.794847000000001
#
# number of rings (size 3 to 8) (size 9 to 14) (size 15 to 20)
#    0.000    1.250    1.250    6.000    5.250    0.500 
#    6.750    3.125    0.000    0.000    0.000    0.000 
#    0.000    0.000    0.000    0.000    0.000    0.000 
#
# Total GULP energy -198417.796133 kJ/mol
# GULP energy per Si atom -12401.112258 kJ/mol
# Density = 2.174524 g / cm^3
# Si number density = 21.794847 Si / 1000 Ang^3
#
#
#
# Elastic Constant Matrix: (Units=GPa)
#
#
# Indices 1 2 3 4 5 6 
#
# 1 72.1613 32.2408 34.4125 -7.8747 19.5571 12.2921
# 2 32.2408 115.7829 30.8174 -12.5546 22.7012 4.2176
# 3 34.4125 30.8174 100.5890 1.6834 24.6563 -1.4668
# 4 -7.8747 -12.5546 1.6834 40.5144 1.1480 3.5690
# 5 19.5571 22.7012 24.6563 1.1480 37.9480 0.6732
# 6 12.2921 4.2176 -1.4668 3.5690 0.6732 31.6867
#
#
#
# Elastic Compliance Matrix: (Units=1/GPa)
#
#
# Indices 1 2 3 4 5 6 
#
# 1 0.020956 -0.002518 -0.005138 0.004415 -0.005940 -0.008403
# 2 -0.002518 0.010966 -0.001490 0.003166 -0.004375 -0.000815
# 3 -0.005138 -0.001490 0.013522 -0.002153 -0.005237 0.003171
# 4 0.004415 0.003166 -0.002153 0.027170 -0.003500 -0.005220
# 5 -0.005940 -0.004375 -0.005237 -0.003500 0.035498 0.002284
# 6 -0.008403 -0.000815 0.003171 -0.005220 0.002284 0.035614
#
#
# Mechanical properties :
#
#
# Convention : Reuss Voigt Hill
#
# Bulk Modulus (GPa) = 36.83318 53.71940 45.27629
# Shear Modulus (GPa) = 29.22776 34.76733 31.99754
#
# Velocity S-wave (km/s) = 3.66599 3.99834 3.83577
# Velocity P-wave (km/s) = 5.90390 6.78357 6.35896
#
# Compressibility (1/GPa) = 0.02714943
#
# Stress axis : x y z
#
# Youngs Moduli (GPa) = 47.71814 91.19403 73.95385
#
# Poissons Ratio (x) = 0.22967 0.38000
# Poissons Ratio (y) = 0.12018 0.11023
# Poissons Ratio (z) = 0.24519 0.13592
#
# Static dielectric constant tensor:
#      x y z
#    x 3.608640 -0.012500 -0.037970 
#    y -0.012500 4.140410 0.068300 
#    z -0.037970 0.068300 4.453100 
# 
# 
# High freq. dielectric constant tensor:
#      x y z
#    x 1.836290 0.011010 0.001730 
#    y 0.011010 1.872870 -0.006810 
#    z 0.001730 -0.006810 1.863910 
# 
# From -- ./inp_files/530228.got.cif
#   From: 2010.06.25/outbox.cif.g09.slc.cpg/sg2_266_cif.got.tgz:530228.got - 2010.06.27 13:26:56.
