data_PCOD8018947
_publ_section_title
;
Structure prediction by ZEFSAII (Michael W. Deem and Ramdas Pophale) SiO2 
 PCOD8018947
Probable space group: P -1
;
_chemical_formula_sum "Si O2"
_cell_formula_units_Z 14
_cell_length_a 6.495187
_cell_length_b 13.757860
_cell_length_c 11.849234
_cell_angle_alpha 127.367157
_cell_angle_beta 128.863944
_cell_angle_gamma 72.550087
_cell_volume 649.617461
_symmetry_space_group_name_H-M "P -1"
_symmetry_group_IT_number 2
_symmetry_cell_setting 'triclinic'
loop_
_space_group_symop_operation_xyz
x,y,z
-x,-y,-z
loop_
_atom_site_type_symbol
_atom_site_label
_atom_site_fract_x
_atom_site_fract_y
_atom_site_fract_z
Si Si1 0.418736 0.469643 0.650207
Si Si2 0.153411 0.321858 0.101374
Si Si3 0.725167 0.289425 0.755818
Si Si4 0.059806 0.670912 0.733477
Si Si5 0.562472 0.144152 0.144080
Si Si6 0.775673 0.119614 0.435814
Si Si7 0.629530 0.913977 0.398320
O O1 0.643951 0.554025 0.714778
O O2 0.563647 0.400770 0.748071
O O3 0.231413 0.558436 0.706358
O O4 0.242092 0.369660 0.441817
O O5 0.307025 0.203568 0.057414
O O6 0.947468 0.295274 0.114072
O O7 0.007184 0.339909 0.945066
O O8 0.778617 0.211585 0.607774
O O9 0.559404 0.214910 0.747718
O O10 0.180658 0.792401 0.791793
O O11 0.611849 0.169448 0.312262
O O12 0.500000 0.000000 0.000000
O O13 0.070687 0.108516 0.482586
O O14 0.638564 0.981623 0.327064
O O15 0.500000 0.000000 0.500000
#
# Coordination Sequence:
#
# PCOD8018947 Si02
#       7
#     2   2   2   2   2   2   2
#     4  10  22  43  66  93 127 168 215 255 317 378
#     4  11  25  41  63  98 129 163 213 266 312 375
#     4  11  23  39  66  95 127 166 208 259 322 372
#     4  10  23  44  67  93 127 168 213 262 312 379
#     4  11  26  41  65  94 129 167 213 260 318 375
#     4  10  22  41  63  88 129 170 206 259 310 378
#     4   9  21  37  62  89 122 164 211 249 309 374
#
# _framework density 21.551145000000002
#
# number of rings (size 3 to 8) (size 9 to 14) (size 15 to 20)
#    0.000    1.714    0.000    2.571    8.000    6.857 
#    0.000    0.000    0.000    0.000    0.000    0.000 
#    0.000    0.000    0.000    0.000    0.000    0.000 
#
# Total GULP energy -173572.514629 kJ/mol
# GULP energy per Si atom -12398.036759 kJ/mol
# Density = 2.150209 g / cm^3
# Si number density = 21.551145 Si / 1000 Ang^3
#
#
#
# Elastic Constant Matrix: (Units=GPa)
#
#
# Indices 1 2 3 4 5 6 
#
# 1 109.9457 39.4721 50.4239 0.8701 7.4130 14.8947
# 2 39.4721 136.2414 61.4701 -7.6865 14.7777 8.7481
# 3 50.4239 61.4701 117.1568 -10.8483 0.0631 7.0427
# 4 0.8701 -7.6865 -10.8483 42.9550 3.6973 6.5118
# 5 7.4130 14.7777 0.0631 3.6973 24.7270 -5.8046
# 6 14.8947 8.7481 7.0427 6.5118 -5.8046 27.4815
#
#
#
# Elastic Compliance Matrix: (Units=1/GPa)
#
#
# Indices 1 2 3 4 5 6 
#
# 1 0.012714 -0.000577 -0.004792 -0.000161 -0.004953 -0.006487
# 2 -0.000577 0.010996 -0.005100 0.001944 -0.007603 -0.003947
# 3 -0.004792 -0.005100 0.013380 0.001990 0.004448 0.001260
# 4 -0.000161 0.001944 0.001990 0.026062 -0.007060 -0.008708
# 5 -0.004953 -0.007603 0.004448 -0.007060 0.051386 0.016491
# 6 -0.006487 -0.003947 0.001260 -0.008708 0.016491 0.046384
#
#
# Mechanical properties :
#
#
# Convention : Reuss Voigt Hill
#
# Bulk Modulus (GPa) = 61.90702 74.00844 67.95773
# Shear Modulus (GPa) = 26.70337 33.16457 29.93397
#
# Velocity S-wave (km/s) = 3.52386 3.92711 3.73094
# Velocity P-wave (km/s) = 6.73385 7.41474 7.08248
#
# Compressibility (1/GPa) = 0.01615326
#
# Stress axis : x y z
#
# Youngs Moduli (GPa) = 78.65183 90.94493 74.74008
#
# Poissons Ratio (x) = 0.05246 0.35814
# Poissons Ratio (y) = 0.04537 0.38114
# Poissons Ratio (z) = 0.37688 0.46378
#
# Static dielectric constant tensor:
#      x y z
#    x 4.038920 0.227700 0.281940 
#    y 0.227700 4.125540 0.003470 
#    z 0.281940 0.003470 3.704020 
# 
# 
# High freq. dielectric constant tensor:
#      x y z
#    x 1.851760 0.004910 0.012440 
#    y 0.004910 1.860710 -0.002150 
#    z 0.012440 -0.002150 1.830470 
# 
# From -- ./inp_files/26957.got.cif
#   From: 2010.06.25/outbox.cif.g09.slc.cpg/sg2_14_cif.got.tgz:26957.got - 2010.06.27 13:26:56.
