data_PCOD8018985
_publ_section_title
;
Structure prediction by ZEFSAII (Michael W. Deem and Ramdas Pophale) SiO2 
 PCOD8018985
Probable space group: P -1
;
_chemical_formula_sum "Si O2"
_cell_formula_units_Z 16
_cell_length_a 8.462054
_cell_length_b 17.478975
_cell_length_c 19.491301
_cell_angle_alpha 19.980892
_cell_angle_beta 130.183453
_cell_angle_gamma 130.506766
_cell_volume 742.262075
_symmetry_space_group_name_H-M "P -1"
_symmetry_group_IT_number 2
_symmetry_cell_setting 'triclinic'
loop_
_space_group_symop_operation_xyz
x,y,z
-x,-y,-z
loop_
_atom_site_type_symbol
_atom_site_label
_atom_site_fract_x
_atom_site_fract_y
_atom_site_fract_z
Si Si1 0.855822 0.718375 0.535915
Si Si2 0.073918 0.870827 0.693270
Si Si3 0.724914 0.534438 0.953533
Si Si4 0.245087 0.484319 0.864807
Si Si5 0.019772 0.139776 0.995394
Si Si6 0.321102 0.111853 0.790614
Si Si7 0.504438 0.306533 0.809621
Si Si8 0.051791 0.305799 0.725120
O O1 0.697632 0.512033 0.700472
O O2 0.092281 0.662280 0.650549
O O3 0.833387 0.946533 0.377816
O O4 0.799314 0.759900 0.406216
O O5 0.868032 0.711104 0.797230
O O6 0.250825 0.721782 0.846228
O O7 0.000000 0.000000 0.500000
O O8 0.488740 0.585409 0.836100
O O9 0.798950 0.579629 0.014426
O O10 0.202753 0.258648 0.996392
O O11 0.974537 0.316504 0.773464
O O12 0.820692 0.065262 0.049413
O O13 0.073937 0.922901 0.152430
O O14 0.453566 0.297383 0.721199
O O15 0.454535 0.934650 0.943929
O O16 0.303872 0.341948 0.767550
O O17 0.000000 0.500000 0.500000
#
# Coordination Sequence:
#
# PCOD8018985 Si02
#       8
#     2   2   2   2   2   2   2   2
#     4  12  24  39  73  99 128 168 230 257 323 394
#     4  11  24  45  68  96 129 174 213 270 331 394
#     4  10  25  48  67  92 138 162 214 280 334 376
#     4  11  23  44  70 100 125 171 216 275 323 383
#     4  10  22  41  63  93 131 166 214 257 323 375
#     4  10  22  41  65  93 132 171 208 271 305 376
#     4  10  23  40  64  95 131 169 216 255 324 373
#     4  10  24  41  63  93 137 173 209 264 314 385
#
# _framework density 21.555731000000002
#
# number of rings (size 3 to 8) (size 9 to 14) (size 15 to 20)
#    0.000    1.500    2.500    1.125    3.500    7.500 
#    2.250    0.000    0.000    0.000    0.000    0.000 
#    0.000    0.000    0.000    0.000    0.000    0.000 
#
# Total GULP energy -198310.607314 kJ/mol
# GULP energy per Si atom -12394.412957 kJ/mol
# Density = 2.150667 g / cm^3
# Si number density = 21.555731 Si / 1000 Ang^3
#
#
#
# Elastic Constant Matrix: (Units=GPa)
#
#
# Indices 1 2 3 4 5 6 
#
# 1 87.9292 28.4351 34.3829 10.3739 -1.8294 0.9948
# 2 28.4351 118.4051 46.2022 -3.0004 8.3195 -6.4940
# 3 34.3829 46.2022 96.2113 10.7617 -1.3952 -0.5547
# 4 10.3739 -3.0004 10.7617 43.2883 -0.6333 4.7349
# 5 -1.8294 8.3195 -1.3952 -0.6333 29.5947 2.9116
# 6 0.9948 -6.4940 -0.5547 4.7349 2.9116 28.8891
#
#
#
# Elastic Compliance Matrix: (Units=1/GPa)
#
#
# Indices 1 2 3 4 5 6 
#
# 1 0.013794 -0.002085 -0.003640 -0.002445 0.001288 -0.000743
# 2 -0.002085 0.011354 -0.004992 0.002194 -0.003760 0.002548
# 3 -0.003640 -0.004992 0.014451 -0.002994 0.001836 -0.000414
# 4 -0.002445 0.002194 -0.002994 0.024974 -0.000023 -0.003571
# 5 0.001288 -0.003760 0.001836 -0.000023 0.035448 -0.004423
# 6 -0.000743 0.002548 -0.000414 -0.003571 -0.004423 0.036237
#
#
# Mechanical properties :
#
#
# Convention : Reuss Voigt Hill
#
# Bulk Modulus (GPa) = 55.05580 57.84287 56.44933
# Shear Modulus (GPa) = 30.53475 33.25610 31.89542
#
# Velocity S-wave (km/s) = 3.76779 3.93211 3.85082
# Velocity P-wave (km/s) = 6.67270 6.89258 6.78353
#
# Compressibility (1/GPa) = 0.01816339
#
# Stress axis : x y z
#
# Youngs Moduli (GPa) = 72.49341 88.07526 69.19813
#
# Poissons Ratio (x) = 0.18368 0.25190
# Poissons Ratio (y) = 0.15118 0.34546
# Poissons Ratio (z) = 0.26390 0.43970
#
# Static dielectric constant tensor:
#      x y z
#    x 4.878030 -0.161590 0.299150 
#    y -0.161590 4.154740 -0.144590 
#    z 0.299150 -0.144590 4.012090 
# 
# 
# High freq. dielectric constant tensor:
#      x y z
#    x 1.847150 -0.007180 -0.001620 
#    y -0.007180 1.848530 -0.001690 
#    z -0.001620 -0.001690 1.846450 
# 
# From -- ./inp_files/591181.got.cif
#   From: 2010.06.25/outbox.cif.g09.slc.cpg/sg2_296_cif.got.tgz:591181.got - 2010.06.27 13:26:56.
