data_PCOD8018008
_publ_section_title
;
Structure prediction by ZEFSAII (Michael W. Deem and Ramdas Pophale) SiO2 
 PCOD8018008
Probable space group: P -1
;
_chemical_formula_sum "Si O2"
_cell_formula_units_Z 16
_cell_length_a 16.242511
_cell_length_b 13.653640
_cell_length_c 10.654510
_cell_angle_alpha 105.422906
_cell_angle_beta 122.618174
_cell_angle_gamma 26.307988
_cell_volume 717.252989
_symmetry_space_group_name_H-M "P -1"
_symmetry_group_IT_number 2
_symmetry_cell_setting 'triclinic'
loop_
_space_group_symop_operation_xyz
x,y,z
-x,-y,-z
loop_
_atom_site_type_symbol
_atom_site_label
_atom_site_fract_x
_atom_site_fract_y
_atom_site_fract_z
Si Si1 0.186641 0.909135 0.810770
Si Si2 0.438500 0.784312 0.364415
Si Si3 0.334488 0.555996 0.772607
Si Si4 0.069423 0.657805 0.752426
Si Si5 0.635686 0.475202 0.644674
Si Si6 0.202758 0.211053 0.623251
Si Si7 0.661316 0.777906 0.457169
Si Si8 0.468938 0.772826 0.828265
O O1 0.163349 0.821729 0.695369
O O2 0.209064 0.980494 0.754904
O O3 0.461493 0.634681 0.012380
O O4 0.946369 0.159174 0.790655
O O5 0.506328 0.620392 0.282684
O O6 0.565558 0.638730 0.554019
O O7 0.548553 0.773959 0.374336
O O8 0.129222 0.094055 0.232188
O O9 0.126139 0.672040 0.681885
O O10 0.933859 0.690898 0.588714
O O11 0.320727 0.390122 0.952615
O O12 0.500000 0.500000 0.500000
O O13 0.569942 0.578558 0.764838
O O14 0.377102 0.137877 0.687326
O O15 0.980344 0.458787 0.626220
O O16 0.395731 0.940905 0.743549
O O17 0.500000 0.000000 0.500000
#
# Coordination Sequence:
#
# PCOD8018008 Si02
#       8
#     2   2   2   2   2   2   2   2
#     4  10  23  39  61  90 130 165 211 257 306 374
#     4  12  22  38  67  88 127 170 204 259 320 367
#     4  10  22  40  59  92 125 169 211 254 311 371
#     4  11  22  41  67  89 127 165 208 260 312 370
#     4  12  24  37  62  98 129 166 213 257 310 374
#     4  11  23  43  67  90 125 162 211 261 312 376
#     4  11  22  40  68  93 123 165 208 259 319 372
#     4  11  24  43  64  95 127 165 213 259 310 374
#
# _framework density 22.30733
#
# number of rings (size 3 to 8) (size 9 to 14) (size 15 to 20)
#    0.000    1.000    3.750    3.000    0.000    1.000 
#    0.000    8.125    2.750    0.000    0.000    0.000 
#    0.000    0.000    0.000    0.000    0.000    0.000 
#
# Total GULP energy -198250.842566 kJ/mol
# GULP energy per Si atom -12390.677660 kJ/mol
# Density = 2.225656 g / cm^3
# Si number density = 22.307330 Si / 1000 Ang^3
#
#
#
# Elastic Constant Matrix: (Units=GPa)
#
#
# Indices 1 2 3 4 5 6 
#
# 1 94.5215 13.6445 27.7874 -16.3144 -8.6437 -3.9870
# 2 13.6445 110.8406 14.2755 -14.0701 3.0057 -23.5644
# 3 27.7874 14.2755 52.2856 0.9720 -10.2878 6.8891
# 4 -16.3144 -14.0701 0.9720 31.3370 -2.1904 -1.7343
# 5 -8.6437 3.0057 -10.2878 -2.1904 20.9329 -8.4149
# 6 -3.9870 -23.5644 6.8891 -1.7343 -8.4149 44.4880
#
#
#
# Elastic Compliance Matrix: (Units=1/GPa)
#
#
# Indices 1 2 3 4 5 6 
#
# 1 0.015010 0.001191 -0.008120 0.009186 0.004806 0.004500
# 2 0.001191 0.011935 -0.004995 0.006547 0.000007 0.007458
# 3 -0.008120 -0.004995 0.027248 -0.007155 0.007406 -0.006471
# 4 0.009186 0.006547 -0.007155 0.040799 0.006943 0.008303
# 5 0.004806 0.000007 0.007406 0.006943 0.058383 0.010601
# 6 0.004500 0.007458 -0.006471 0.008303 0.010601 0.030163
#
#
# Mechanical properties :
#
#
# Convention : Reuss Voigt Hill
#
# Bulk Modulus (GPa) = 32.95496 41.00694 36.98095
# Shear Modulus (GPa) = 22.98845 32.81427 27.90136
#
# Velocity S-wave (km/s) = 3.21367 3.83953 3.54046
# Velocity P-wave (km/s) = 5.34561 6.17079 5.77296
#
# Compressibility (1/GPa) = 0.03034445
#
# Stress axis : x y z
#
# Youngs Moduli (GPa) = 66.62371 83.78603 36.70060
#
# Poissons Ratio (x) = -0.09975 0.29801
# Poissons Ratio (y) = -0.07932 0.18330
# Poissons Ratio (z) = 0.54099 0.41847
#
# Static dielectric constant tensor:
#      x y z
#    x 4.416510 -0.005890 0.051830 
#    y -0.005890 4.234640 -0.009180 
#    z 0.051830 -0.009180 3.636720 
# 
# 
# High freq. dielectric constant tensor:
#      x y z
#    x 1.898510 -0.001820 -0.001370 
#    y -0.001820 1.898310 -0.010360 
#    z -0.001370 -0.010360 1.839800 
# 
# From -- ./inp_files/452501.got.cif
#   From: 2010.06.25/outbox.cif.g09.slc.cpg/sg2_227_cif.got.tgz:452501.got - 2010.06.27 13:26:56.
