data_PCOD8018394
_publ_section_title
;
Structure prediction by ZEFSAII (Michael W. Deem and Ramdas Pophale) SiO2 
 PCOD8018394
Probable space group: P -1
;
_chemical_formula_sum "Si O2"
_cell_formula_units_Z 16
_cell_length_a 6.522029
_cell_length_b 6.104285
_cell_length_c 17.893012
_cell_angle_alpha 91.629475
_cell_angle_beta 82.111890
_cell_angle_gamma 77.855495
_cell_volume 688.621215
_symmetry_space_group_name_H-M "P -1"
_symmetry_group_IT_number 2
_symmetry_cell_setting 'triclinic'
loop_
_space_group_symop_operation_xyz
x,y,z
-x,-y,-z
loop_
_atom_site_type_symbol
_atom_site_label
_atom_site_fract_x
_atom_site_fract_y
_atom_site_fract_z
Si Si1 0.621896 0.677772 0.532285
Si Si2 0.217676 0.868359 0.018328
Si Si3 0.912811 0.745045 0.637407
Si Si4 0.157964 0.605747 0.156663
Si Si5 0.605475 0.115530 0.752001
Si Si6 0.450760 0.150157 0.115303
Si Si7 0.811889 0.637237 0.281824
Si Si8 0.784303 0.966331 0.410624
O O1 0.500000 0.500000 0.500000
O O2 0.788380 0.591919 0.591024
O O3 0.771784 0.763451 0.465250
O O4 0.449446 0.878545 0.577927
O O5 0.176179 0.664532 0.069222
O O6 0.321511 0.035990 0.062089
O O7 0.358828 0.774598 0.937980
O O8 0.000000 0.000000 0.000000
O O9 0.089841 0.589157 0.679093
O O10 0.733775 0.918992 0.692328
O O11 0.039895 0.887653 0.578459
O O12 0.227019 0.777753 0.211528
O O13 0.298978 0.362627 0.161763
O O14 0.917278 0.611344 0.193852
O O15 0.443931 0.312427 0.716284
O O16 0.467811 0.012696 0.820240
O O17 0.851465 0.856175 0.325442
#
# Coordination Sequence:
#
# PCOD8018394 Si02
#       8
#     2   2   2   2   2   2   2   2
#     4  11  26  48  74 106 139 186 236 290 357 418
#     4  10  22  40  65  96 138 182 232 286 345 410
#     4  12  25  46  74 101 142 184 233 290 353 423
#     4  11  23  41  67 100 138 184 235 287 353 413
#     4  11  24  44  66 100 142 180 231 293 344 420
#     4  10  22  42  64  98 137 180 231 291 342 410
#     4  12  25  41  71 104 133 188 232 281 361 416
#     4  11  25  46  71 103 141 182 233 290 351 425
#
# _framework density 23.234833999999999
#
# number of rings (size 3 to 8) (size 9 to 14) (size 15 to 20)
#    0.000    1.000    3.750    2.250    0.000    8.500 
#    0.000    0.000    0.000    0.000    0.000    0.000 
#    0.000    0.000    0.000    0.000    0.000    0.000 
#
# Total GULP energy -198295.869444 kJ/mol
# GULP energy per Si atom -12393.491840 kJ/mol
# Density = 2.318195 g / cm^3
# Si number density = 23.234834 Si / 1000 Ang^3
#
#
#
# Elastic Constant Matrix: (Units=GPa)
#
#
# Indices 1 2 3 4 5 6 
#
# 1 98.0001 32.7585 50.8750 -16.0494 -4.5277 -16.2533
# 2 32.7585 89.0925 37.2600 -8.5132 -7.5973 -14.0077
# 3 50.8750 37.2600 102.3796 -6.2544 -20.4871 -7.5719
# 4 -16.0494 -8.5132 -6.2544 37.4342 -7.8272 -4.3122
# 5 -4.5277 -7.5973 -20.4871 -7.8272 40.6589 -2.4887
# 6 -16.2533 -14.0077 -7.5719 -4.3122 -2.4887 45.6599
#
#
#
# Elastic Compliance Matrix: (Units=1/GPa)
#
#
# Indices 1 2 3 4 5 6 
#
# 1 0.015949 -0.001867 -0.006678 0.005698 -0.000565 0.004505
# 2 -0.001867 0.014316 -0.003603 0.002532 0.001350 0.003442
# 3 -0.006678 -0.003603 0.015674 0.000236 0.006495 -0.000507
# 4 0.005698 0.002532 0.000236 0.032129 0.007798 0.006304
# 5 -0.000565 0.001350 0.006495 0.007798 0.029782 0.003650
# 6 0.004505 0.003442 -0.000507 0.006304 0.003650 0.025271
#
#
# Mechanical properties :
#
#
# Convention : Reuss Voigt Hill
#
# Bulk Modulus (GPa) = 46.20355 59.02878 52.61617
# Shear Modulus (GPa) = 30.37124 35.98918 33.18021
#
# Velocity S-wave (km/s) = 3.61936 3.93992 3.78304
# Velocity P-wave (km/s) = 6.11515 6.79395 6.46346
#
# Compressibility (1/GPa) = 0.02164336
#
# Stress axis : x y z
#
# Youngs Moduli (GPa) = 62.69995 69.85242 63.80044
#
# Poissons Ratio (x) = 0.13041 0.42604
# Poissons Ratio (y) = 0.11706 0.22987
# Poissons Ratio (z) = 0.41869 0.25168
#
# Static dielectric constant tensor:
#      x y z
#    x 3.629090 -0.574820 0.350490 
#    y -0.574820 3.442330 0.560600 
#    z 0.350490 0.560600 3.836860 
# 
# 
# High freq. dielectric constant tensor:
#      x y z
#    x 1.915800 -0.010540 -0.014000 
#    y -0.010540 1.911430 0.004240 
#    z -0.014000 0.004240 1.931820 
# 
# From -- ./inp_files/125901.got.cif
#   From: 2010.06.25/outbox.cif.g09.slc.cpg/sg2_63_cif.got.tgz:125901.got - 2010.06.27 13:26:56.
