data_PCOD8018768
_publ_section_title
;
Structure prediction by ZEFSAII (Michael W. Deem and Ramdas Pophale) SiO2 
 PCOD8018768
Probable space group: P -1
;
_chemical_formula_sum "Si O2"
_cell_formula_units_Z 16
_cell_length_a 15.802879
_cell_length_b 8.495199
_cell_length_c 14.727073
_cell_angle_alpha 139.932790
_cell_angle_beta 137.859453
_cell_angle_gamma 36.329772
_cell_volume 712.309741
_symmetry_space_group_name_H-M "P -1"
_symmetry_group_IT_number 2
_symmetry_cell_setting 'triclinic'
loop_
_space_group_symop_operation_xyz
x,y,z
-x,-y,-z
loop_
_atom_site_type_symbol
_atom_site_label
_atom_site_fract_x
_atom_site_fract_y
_atom_site_fract_z
Si Si1 0.959397 0.716712 0.480042
Si Si2 0.018141 0.780631 0.216723
Si Si3 0.353385 0.771110 0.610455
Si Si4 0.545336 0.230841 0.123124
Si Si5 0.015093 0.393559 0.201783
Si Si6 0.236733 0.719987 0.040656
Si Si7 0.343262 0.370398 0.293270
Si Si8 0.276774 0.931071 0.992046
O O1 0.039744 0.517067 0.368226
O O2 0.000000 0.500000 0.500000
O O3 0.778591 0.933991 0.413859
O O4 0.029732 0.908483 0.640203
O O5 0.030772 0.563807 0.207941
O O6 0.184005 0.627284 0.233531
O O7 0.897809 0.828271 0.066550
O O8 0.338073 0.801227 0.720599
O O9 0.352148 0.490267 0.452124
O O10 0.517011 0.708533 0.692815
O O11 0.390447 0.549131 0.145063
O O12 0.625119 0.203069 0.079103
O O13 0.500000 0.000000 0.000000
O O14 0.851119 0.441369 0.088503
O O15 0.142531 0.050586 0.146724
O O16 0.277998 0.694278 0.954121
O O17 0.341148 0.080631 0.172151
#
# Coordination Sequence:
#
# PCOD8018768 Si02
#       8
#     2   2   2   2   2   2   2   2
#     4  11  24  45  70 100 139 179 226 285 341 408
#     4  11  23  42  72 101 136 183 230 276 344 407
#     4  10  23  43  69 101 133 185 223 274 346 411
#     4  12  24  43  70  97 136 179 229 279 343 409
#     4  11  24  43  67 100 137 182 233 282 340 403
#     4  11  26  42  66 100 139 178 232 289 336 398
#     4  10  22  40  70  98 138 172 227 277 335 407
#     4  12  23  43  69 103 135 179 226 285 337 408
#
# _framework density 22.462137999999999
#
# number of rings (size 3 to 8) (size 9 to 14) (size 15 to 20)
#    0.000    1.000    2.500    4.125    0.000    5.000 
#    2.250    0.625    0.000    0.000    0.000    0.000 
#    0.000    0.000    0.000    0.000    0.000    0.000 
#
# Total GULP energy -198384.783882 kJ/mol
# GULP energy per Si atom -12399.048993 kJ/mol
# Density = 2.241101 g / cm^3
# Si number density = 22.462138 Si / 1000 Ang^3
#
#
#
# Elastic Constant Matrix: (Units=GPa)
#
#
# Indices 1 2 3 4 5 6 
#
# 1 97.6558 43.2870 36.1406 -3.1342 2.1038 -9.3860
# 2 43.2870 121.3535 39.4698 -15.8812 2.4838 1.5716
# 3 36.1406 39.4698 119.8813 -0.5220 -0.5179 -1.3584
# 4 -3.1342 -15.8812 -0.5220 39.2635 -0.3549 2.0886
# 5 2.1038 2.4838 -0.5179 -0.3549 36.6881 -2.7120
# 6 -9.3860 1.5716 -1.3584 2.0886 -2.7120 29.1791
#
#
#
# Elastic Compliance Matrix: (Units=1/GPa)
#
#
# Indices 1 2 3 4 5 6 
#
# 1 0.013446 -0.004097 -0.002659 -0.000859 -0.000210 0.004464
# 2 -0.004097 0.011093 -0.002429 0.004249 -0.000686 -0.002396
# 3 -0.002659 -0.002429 0.009938 -0.001051 0.000436 -0.000146
# 4 -0.000859 0.004249 -0.001051 0.027237 -0.000176 -0.002520
# 5 -0.000210 -0.000686 0.000436 -0.000176 0.027509 0.002559
# 6 0.004464 -0.002396 -0.000146 -0.002520 0.002559 0.036248
#
#
# Mechanical properties :
#
#
# Convention : Reuss Voigt Hill
#
# Bulk Modulus (GPa) = 62.08064 64.07616 63.07840
# Shear Modulus (GPa) = 33.50975 35.69235 34.60105
#
# Velocity S-wave (km/s) = 3.86662 3.99055 3.92907
# Velocity P-wave (km/s) = 6.90161 7.05839 6.98044
#
# Compressibility (1/GPa) = 0.01610808
#
# Stress axis : x y z
#
# Youngs Moduli (GPa) = 74.37026 90.14716 100.62048
#
# Poissons Ratio (x) = 0.36938 0.26751
# Poissons Ratio (y) = 0.30473 0.24437
# Poissons Ratio (z) = 0.19772 0.21893
#
# Static dielectric constant tensor:
#      x y z
#    x 4.188330 -0.203340 0.001530 
#    y -0.203340 4.142920 0.021220 
#    z 0.001530 0.021220 4.416480 
# 
# 
# High freq. dielectric constant tensor:
#      x y z
#    x 1.884180 -0.015410 0.002790 
#    y -0.015410 1.884460 0.004510 
#    z 0.002790 0.004510 1.896530 
# 
# From -- ./inp_files/537687.got.cif
#   From: 2010.06.25/outbox.cif.g09.slc.cpg/sg2_269_cif.got.tgz:537687.got - 2010.06.27 13:26:56.
