data_PCOD8018237
_publ_section_title
;
Structure prediction by ZEFSAII (Michael W. Deem and Ramdas Pophale) SiO2 
 PCOD8018237
Probable space group: P -1
;
_chemical_formula_sum "Si O2"
_cell_formula_units_Z 16
_cell_length_a 7.779390
_cell_length_b 15.322625
_cell_length_c 9.214818
_cell_angle_alpha 103.938808
_cell_angle_beta 75.543305
_cell_angle_gamma 51.127252
_cell_volume 703.579814
_symmetry_space_group_name_H-M "P -1"
_symmetry_group_IT_number 2
_symmetry_cell_setting 'triclinic'
loop_
_space_group_symop_operation_xyz
x,y,z
-x,-y,-z
loop_
_atom_site_type_symbol
_atom_site_label
_atom_site_fract_x
_atom_site_fract_y
_atom_site_fract_z
Si Si1 0.170998 0.486739 0.178710
Si Si2 0.237688 0.213624 0.659815
Si Si3 0.610698 0.365191 0.256773
Si Si4 0.349698 0.001236 0.725986
Si Si5 0.535576 0.699803 0.210007
Si Si6 0.911380 0.941758 0.922542
Si Si7 0.929389 0.042326 0.696618
Si Si8 0.287744 0.476556 0.654093
O O1 0.447014 0.393339 0.163251
O O2 0.032602 0.636421 0.264008
O O3 0.979792 0.481771 0.284318
O O4 0.227314 0.432045 0.981793
O O5 0.208345 0.141796 0.747711
O O6 0.416652 0.216762 0.710906
O O7 0.362087 0.125842 0.449127
O O8 0.841448 0.214016 0.188179
O O9 0.394336 0.447699 0.459709
O O10 0.747133 0.411652 0.224120
O O11 0.185100 0.977196 0.699190
O O12 0.329692 0.010080 0.910669
O O13 0.284937 0.798554 0.198210
O O14 0.498692 0.653573 0.343213
O O15 0.825081 0.994029 0.793378
O O16 0.000000 0.000000 0.000000
O O17 0.000000 0.000000 0.500000
#
# Coordination Sequence:
#
# PCOD8018237 Si02
#       8
#     2   2   2   2   2   2   2   2
#     4  11  24  41  69  95 130 171 216 271 323 390
#     4  10  22  41  64  92 132 170 213 268 329 381
#     4  11  24  44  66  99 128 172 218 259 338 385
#     4  10  22  40  64  89 128 172 214 264 321 388
#     4  11  23  42  67  94 126 167 220 267 328 385
#     4  10  23  39  66  93 127 169 214 270 317 386
#     4  11  21  41  67  91 127 169 213 267 321 390
#     4  10  24  43  66  96 132 169 206 278 321 389
#
# _framework density 22.740846000000001
#
# number of rings (size 3 to 8) (size 9 to 14) (size 15 to 20)
#    0.000    1.500    1.250    4.125   10.500    0.500 
#    2.250    0.625    0.000    0.000    0.000    0.000 
#    0.000    0.000    0.000    0.000    0.000    0.000 
#
# Total GULP energy -198236.064094 kJ/mol
# GULP energy per Si atom -12389.754006 kJ/mol
# Density = 2.268909 g / cm^3
# Si number density = 22.740846 Si / 1000 Ang^3
#
#
#
# Elastic Constant Matrix: (Units=GPa)
#
#
# Indices 1 2 3 4 5 6 
#
# 1 38.8673 27.4715 21.3060 0.2962 9.8221 16.8089
# 2 27.4715 138.9584 48.1154 -5.1523 3.9912 7.9347
# 3 21.3060 48.1154 116.3161 -15.0341 -1.9728 9.5705
# 4 0.2962 -5.1523 -15.0341 46.8417 3.3896 -3.0613
# 5 9.8221 3.9912 -1.9728 3.3896 17.5045 -2.1245
# 6 16.8089 7.9347 9.5705 -3.0613 -2.1245 39.2410
#
#
#
# Elastic Compliance Matrix: (Units=1/GPa)
#
#
# Indices 1 2 3 4 5 6 
#
# 1 0.048940 -0.005816 -0.005649 -0.001991 -0.028829 -0.020126
# 2 -0.005816 0.009224 -0.002826 0.000164 0.000978 0.001381
# 3 -0.005649 -0.002826 0.011211 0.003040 0.004579 0.000742
# 4 -0.001991 0.000164 0.003040 0.022666 -0.002760 0.001697
# 5 -0.028829 0.000978 0.004579 -0.002760 0.075945 0.014931
# 6 -0.020126 0.001381 0.000742 0.001697 0.014931 0.034585
#
#
# Mechanical properties :
#
#
# Convention : Reuss Voigt Hill
#
# Bulk Modulus (GPa) = 24.51427 54.21417 39.36422
# Shear Modulus (GPa) = 20.42901 33.86737 27.14819
#
# Velocity S-wave (km/s) = 3.00048 3.86330 3.45890
# Velocity P-wave (km/s) = 4.77568 6.61754 5.77057
#
# Compressibility (1/GPa) = 0.04079257
#
# Stress axis : x y z
#
# Youngs Moduli (GPa) = 20.43303 108.41452 89.20094
#
# Poissons Ratio (x) = 0.63052 0.50392
# Poissons Ratio (y) = 0.11883 0.25209
# Poissons Ratio (z) = 0.11543 0.30639
#
# Static dielectric constant tensor:
#      x y z
#    x 3.952970 -0.145610 0.101550 
#    y -0.145610 3.946040 -0.100300 
#    z 0.101550 -0.100300 4.601930 
# 
# 
# High freq. dielectric constant tensor:
#      x y z
#    x 1.870950 0.013700 0.000060 
#    y 0.013700 1.907060 -0.003140 
#    z 0.000060 -0.003140 1.913420 
# 
# From -- ./inp_files/207643.got.cif
#   From: 2010.06.25/outbox.cif.g09.slc.cpg/sg2_104_cif.got.tgz:207643.got - 2010.06.27 13:26:56.
