data_PCOD8018892
_publ_section_title
;
Structure prediction by ZEFSAII (Michael W. Deem and Ramdas Pophale) SiO2 
 PCOD8018892
Probable space group: P -1
;
_chemical_formula_sum "Si O2"
_cell_formula_units_Z 14
_cell_length_a 8.802254
_cell_length_b 9.770851
_cell_length_c 17.797737
_cell_angle_alpha 53.211196
_cell_angle_beta 116.561674
_cell_angle_gamma 148.523924
_cell_volume 632.630412
_symmetry_space_group_name_H-M "P -1"
_symmetry_group_IT_number 2
_symmetry_cell_setting 'triclinic'
loop_
_space_group_symop_operation_xyz
x,y,z
-x,-y,-z
loop_
_atom_site_type_symbol
_atom_site_label
_atom_site_fract_x
_atom_site_fract_y
_atom_site_fract_z
Si Si1 0.685896 0.597389 0.437911
Si Si2 0.855396 0.505145 0.873907
Si Si3 0.545698 0.388160 0.972462
Si Si4 0.683750 0.827801 0.228523
Si Si5 0.636451 0.926207 0.566618
Si Si6 0.022976 0.286835 0.912337
Si Si7 0.357381 0.495939 0.779205
O O1 0.500000 0.500000 0.500000
O O2 0.699389 0.782042 0.332674
O O3 0.011685 0.788709 0.462031
O O4 0.502135 0.303306 0.452132
O O5 0.697220 0.356524 0.969252
O O6 0.650857 0.423108 0.791759
O O7 0.936541 0.388464 0.899639
O O8 0.143634 0.853630 0.841408
O O9 0.565233 0.562827 0.861187
O O10 0.705518 0.567467 0.027026
O O11 0.219473 0.058638 0.026871
O O12 0.815596 0.782780 0.220425
O O13 0.500000 0.000000 0.500000
O O14 0.550313 0.786053 0.676904
O O15 0.120570 0.402305 0.809581
#
# Coordination Sequence:
#
# PCOD8018892 Si02
#       7
#     2   2   2   2   2   2   2
#     4  11  23  42  69  96 125 167 217 263 318 392
#     4  11  22  40  61  88 124 165 208 262 308 361
#     4  11  22  39  59  88 125 167 208 255 308 373
#     4  10  22  41  62  87 123 168 206 250 318 379
#     4  11  25  45  68  98 131 166 208 271 333 377
#     4  12  24  37  61  94 123 164 214 259 306 366
#     4  10  24  42  64  89 126 167 208 254 315 384
#
# _framework density 22.129823999999999
#
# number of rings (size 3 to 8) (size 9 to 14) (size 15 to 20)
#    0.000    1.143    0.000    7.714    0.000    8.000 
#    0.000    0.000    0.000    0.000    0.000    0.000 
#    0.000    0.000    0.000    0.000    0.000    0.000 
#
# Total GULP energy -173551.548423 kJ/mol
# GULP energy per Si atom -12396.539173 kJ/mol
# Density = 2.207946 g / cm^3
# Si number density = 22.129824 Si / 1000 Ang^3
#
#
#
# Elastic Constant Matrix: (Units=GPa)
#
#
# Indices 1 2 3 4 5 6 
#
# 1 89.3157 33.5851 69.3221 8.1091 -22.4649 0.7933
# 2 33.5851 125.2177 45.9077 16.2368 -11.5320 6.2303
# 3 69.3221 45.9077 133.2480 11.1020 -22.3519 -0.1940
# 4 8.1091 16.2368 11.1020 14.9352 0.7323 -0.2371
# 5 -22.4649 -11.5320 -22.3519 0.7323 38.3814 -2.2828
# 6 0.7933 6.2303 -0.1940 -0.2371 -2.2828 28.7739
#
#
#
# Elastic Compliance Matrix: (Units=1/GPa)
#
#
# Indices 1 2 3 4 5 6 
#
# 1 0.020484 -0.001189 -0.008850 -0.003570 0.006554 0.000124
# 2 -0.001189 0.010484 -0.001991 -0.009374 0.001342 -0.002222
# 3 -0.008850 -0.001991 0.013414 -0.003093 0.002147 0.000910
# 4 -0.003570 -0.009374 -0.003093 0.081817 -0.008141 0.002135
# 5 0.006554 0.001342 0.002147 -0.008141 0.031818 0.002001
# 6 0.000124 -0.002222 0.000910 0.002135 0.002001 0.035414
#
#
# Mechanical properties :
#
#
# Convention : Reuss Voigt Hill
#
# Bulk Modulus (GPa) = 49.20672 71.71235 60.45953
# Shear Modulus (GPa) = 22.29514 29.68254 25.98884
#
# Velocity S-wave (km/s) = 3.17751 3.66634 3.43064
# Velocity P-wave (km/s) = 5.97878 7.09918 6.56293
#
# Compressibility (1/GPa) = 0.02032243
#
# Stress axis : x y z
#
# Youngs Moduli (GPa) = 48.81957 95.37943 74.54905
#
# Poissons Ratio (x) = 0.11342 0.65976
# Poissons Ratio (y) = 0.05805 0.14841
# Poissons Ratio (z) = 0.43205 0.18988
#
# Static dielectric constant tensor:
#      x y z
#    x 4.243110 0.039850 -0.191250 
#    y 0.039850 4.080290 0.143270 
#    z -0.191250 0.143270 4.046050 
# 
# 
# High freq. dielectric constant tensor:
#      x y z
#    x 1.887820 -0.006570 -0.007600 
#    y -0.006570 1.884280 0.007390 
#    z -0.007600 0.007390 1.859860 
# 
# From -- ./inp_files/217951.got.cif
#   From: 2010.06.25/outbox.cif.g09.slc.cpg/sg2_109_cif.got.tgz:217951.got - 2010.06.27 13:26:56.
