data_PCOD8018553
_publ_section_title
;
Structure prediction by ZEFSAII (Michael W. Deem and Ramdas Pophale) SiO2 
 PCOD8018553
Probable space group: P -1
;
_chemical_formula_sum "Si O2"
_cell_formula_units_Z 14
_cell_length_a 14.460168
_cell_length_b 11.239578
_cell_length_c 14.764055
_cell_angle_alpha 122.513810
_cell_angle_beta 159.858162
_cell_angle_gamma 55.920396
_cell_volume 683.818628
_symmetry_space_group_name_H-M "P -1"
_symmetry_group_IT_number 2
_symmetry_cell_setting 'triclinic'
loop_
_space_group_symop_operation_xyz
x,y,z
-x,-y,-z
loop_
_atom_site_type_symbol
_atom_site_label
_atom_site_fract_x
_atom_site_fract_y
_atom_site_fract_z
Si Si1 0.388551 0.861053 0.869466
Si Si2 0.218173 0.726114 0.010314
Si Si3 0.289552 0.690361 0.548838
Si Si4 0.602014 0.122349 0.435943
Si Si5 0.608694 0.833502 0.548719
Si Si6 0.817722 0.063504 0.096215
Si Si7 0.236638 0.413071 0.940867
O O1 0.211145 0.818131 0.604334
O O2 0.202507 0.888618 0.798453
O O3 0.640376 0.726376 0.064699
O O4 0.500000 0.000000 0.000000
O O5 0.259441 0.797169 0.981060
O O6 0.228267 0.557175 0.934062
O O7 0.935082 0.799726 0.826365
O O8 0.469179 0.741941 0.312388
O O9 0.307330 0.757776 0.494547
O O10 0.063212 0.592072 0.300344
O O11 0.576091 0.587797 0.797313
O O12 0.462225 0.203274 0.428972
O O13 0.869750 0.008759 0.665860
O O14 0.387462 0.044881 0.154646
O O15 0.500000 0.000000 0.500000
#
# Coordination Sequence:
#
# PCOD8018553 Si02
#       7
#     2   2   2   2   2   2   2
#     4  10  22  40  67  94 125 167 209 258 311 364
#     4  12  24  44  63  94 133 164 208 257 321 373
#     4  10  22  42  62  91 130 160 212 253 309 367
#     4  12  23  39  65  99 121 157 220 267 306 361
#     4  12  23  43  67  93 125 167 211 264 311 368
#     4  12  23  36  66  97 125 163 207 261 315 368
#     4  10  24  42  63  89 138 168 199 257 315 378
#
# _framework density 20.473265000000001
#
# number of rings (size 3 to 8) (size 9 to 14) (size 15 to 20)
#    0.857    0.000    4.286    3.857    2.000    1.714 
#    0.000    5.000    0.000    0.000    0.000    0.000 
#    0.000    0.000    0.000    0.000    0.000    0.000 
#
# Total GULP energy -173607.364926 kJ/mol
# GULP energy per Si atom -12400.526066 kJ/mol
# Density = 2.042667 g / cm^3
# Si number density = 20.473265 Si / 1000 Ang^3
#
#
#
# Elastic Constant Matrix: (Units=GPa)
#
#
# Indices 1 2 3 4 5 6 
#
# 1 119.8593 12.6952 5.0331 7.1317 -4.9418 16.6847
# 2 12.6952 88.0799 0.5555 6.7247 4.8235 13.7985
# 3 5.0331 0.5555 96.0195 2.6890 10.3601 2.6815
# 4 7.1317 6.7247 2.6890 24.8592 6.6976 5.0496
# 5 -4.9418 4.8235 10.3601 6.6976 26.6450 -2.5994
# 6 16.6847 13.7985 2.6815 5.0496 -2.5994 27.5089
#
#
#
# Elastic Compliance Matrix: (Units=1/GPa)
#
#
# Indices 1 2 3 4 5 6 
#
# 1 0.009290 -0.000551 -0.000518 -0.002059 0.002080 -0.004733
# 2 -0.000551 0.012637 0.000468 -0.001313 -0.002835 -0.006077
# 3 -0.000518 0.000468 0.010977 0.000407 -0.004698 -0.001509
# 4 -0.002059 -0.001313 0.000407 0.046121 -0.012656 -0.007794
# 5 0.002080 -0.002835 -0.004698 -0.012656 0.044131 0.007112
# 6 -0.004733 -0.006077 -0.001509 -0.007794 0.007112 0.044521
#
#
# Mechanical properties :
#
#
# Convention : Reuss Voigt Hill
#
# Bulk Modulus (GPa) = 31.54384 37.83627 34.69005
# Shear Modulus (GPa) = 27.86322 34.84762 31.35542
#
# Velocity S-wave (km/s) = 3.69312 4.13013 3.91772
# Velocity P-wave (km/s) = 5.79882 6.42378 6.11928
#
# Compressibility (1/GPa) = 0.03170192
#
# Stress axis : x y z
#
# Youngs Moduli (GPa) = 107.63773 79.13072 91.10214
#
# Poissons Ratio (x) = 0.04360 0.04723
# Poissons Ratio (y) = 0.05931 -0.04265
# Poissons Ratio (z) = 0.05580 -0.03704
#
# Static dielectric constant tensor:
#      x y z
#    x 3.754030 0.073400 -0.007130 
#    y 0.073400 3.605000 -0.033540 
#    z -0.007130 -0.033540 3.793930 
# 
# 
# High freq. dielectric constant tensor:
#      x y z
#    x 1.794080 0.015490 0.007750 
#    y 0.015490 1.792450 -0.001650 
#    z 0.007750 -0.001650 1.810550 
# 
# From -- ./inp_files/70261.got.cif
#   From: 2010.06.25/outbox.cif.g09.slc.cpg/sg2_36_cif.got.tgz:70261.got - 2010.06.27 13:26:56.
