data_PCOD8018773
_publ_section_title
;
Structure prediction by ZEFSAII (Michael W. Deem and Ramdas Pophale) SiO2 
 PCOD8018773
Probable space group: P -1
;
_chemical_formula_sum "Si O2"
_cell_formula_units_Z 14
_cell_length_a 11.959704
_cell_length_b 17.082491
_cell_length_c 8.600656
_cell_angle_alpha 53.741974
_cell_angle_beta 38.523679
_cell_angle_gamma 33.078511
_cell_volume 586.588614
_symmetry_space_group_name_H-M "P -1"
_symmetry_group_IT_number 2
_symmetry_cell_setting 'triclinic'
loop_
_space_group_symop_operation_xyz
x,y,z
-x,-y,-z
loop_
_atom_site_type_symbol
_atom_site_label
_atom_site_fract_x
_atom_site_fract_y
_atom_site_fract_z
Si Si1 0.823199 0.448190 0.404188
Si Si2 0.345949 0.312661 0.862155
Si Si3 0.959427 0.942682 0.371692
Si Si4 0.425256 0.088483 0.631048
Si Si5 0.933880 0.415025 0.672356
Si Si6 0.538806 0.376277 0.833055
Si Si7 0.199619 0.018140 0.175799
O O1 0.667302 0.615063 0.363976
O O2 0.913999 0.385492 0.553227
O O3 0.638178 0.433154 0.568778
O O4 0.082948 0.351427 0.122711
O O5 0.357285 0.383034 0.911191
O O6 0.598020 0.141083 0.778476
O O7 0.963931 0.885670 0.603805
O O8 0.203557 0.791521 0.190324
O O9 0.684478 0.045254 0.453438
O O10 0.022525 0.032251 0.222776
O O11 0.173411 0.260550 0.678028
O O12 0.500000 0.000000 0.500000
O O13 0.351916 0.045823 0.901010
O O14 0.000000 0.500000 0.500000
O O15 0.646950 0.514042 0.950803
#
# Coordination Sequence:
#
# PCOD8018773 Si02
#       7
#     2   2   2   2   2   2   2
#     4  11  23  42  67  99 139 181 225 278 355 397
#     4  10  22  40  71 101 138 175 228 293 332 414
#     4  10  24  45  72 101 140 179 236 288 339 414
#     4  12  27  46  73 102 143 188 226 285 346 419
#     4  12  27  47  68 102 144 181 231 282 347 414
#     4  11  23  44  70 101 137 179 233 289 336 417
#     4  10  23  45  69 103 135 180 237 282 350 401
#
# _framework density 23.866811999999999
#
# number of rings (size 3 to 8) (size 9 to 14) (size 15 to 20)
#    0.000    1.143    1.429    3.857    4.000    5.143 
#    2.571    0.000    0.000    0.000    0.000    0.000 
#    0.000    0.000    0.000    0.000    0.000    0.000 
#
# Total GULP energy -173584.908869 kJ/mol
# GULP energy per Si atom -12398.922062 kJ/mol
# Density = 2.381249 g / cm^3
# Si number density = 23.866812 Si / 1000 Ang^3
#
#
#
# Elastic Constant Matrix: (Units=GPa)
#
#
# Indices 1 2 3 4 5 6 
#
# 1 67.5228 35.5076 9.5563 5.8052 -8.8908 -12.1387
# 2 35.5076 132.6917 34.9345 11.1216 -1.7958 -15.7486
# 3 9.5563 34.9345 88.3039 2.2586 -17.0891 -2.1187
# 4 5.8052 11.1216 2.2586 30.9620 3.1134 1.2018
# 5 -8.8908 -1.7958 -17.0891 3.1134 35.5271 0.2375
# 6 -12.1387 -15.7486 -2.1187 1.2018 0.2375 34.3229
#
#
#
# Elastic Compliance Matrix: (Units=1/GPa)
#
#
# Indices 1 2 3 4 5 6 
#
# 1 0.018748 -0.004392 0.000877 -0.002698 0.005097 0.004729
# 2 -0.004392 0.010270 -0.003888 -0.002473 -0.002254 0.003022
# 3 0.000877 -0.003888 0.014089 -0.000459 0.006845 -0.000635
# 4 -0.002698 -0.002473 -0.000459 0.034255 -0.004001 -0.003289
# 5 0.005097 -0.002254 0.006845 -0.004001 0.032945 0.001103
# 6 0.004729 0.003022 -0.000635 -0.003289 0.001103 0.032262
#
#
# Mechanical properties :
#
#
# Convention : Reuss Voigt Hill
#
# Bulk Modulus (GPa) = 35.33280 49.83502 42.58391
# Shear Modulus (GPa) = 29.97442 34.06373 32.01907
#
# Velocity S-wave (km/s) = 3.54772 3.78198 3.66672
# Velocity P-wave (km/s) = 5.62299 6.32432 5.98394
#
# Compressibility (1/GPa) = 0.02830231
#
# Stress axis : x y z
#
# Youngs Moduli (GPa) = 53.33874 97.36639 70.97746
#
# Poissons Ratio (x) = 0.42758 -0.06226
# Poissons Ratio (y) = 0.23424 0.27598
# Poissons Ratio (z) = -0.04679 0.37859
#
# Static dielectric constant tensor:
#      x y z
#    x 4.486380 0.008240 -0.144070 
#    y 0.008240 4.410070 0.104690 
#    z -0.144070 0.104690 4.510940 
# 
# 
# High freq. dielectric constant tensor:
#      x y z
#    x 1.947080 0.000160 -0.017290 
#    y 0.000160 1.944880 0.008860 
#    z -0.017290 0.008860 1.951830 
# 
# From -- ./inp_files/278933.got.cif
#   From: 2010.06.25/outbox.cif.g09.slc.cpg/sg2_140_cif.got.tgz:278933.got - 2010.06.27 13:26:56.
