data_PCOD8018350
_publ_section_title
;
Structure prediction by ZEFSAII (Michael W. Deem and Ramdas Pophale) SiO2 
 PCOD8018350
Probable space group: P -1
;
_chemical_formula_sum "Si O2"
_cell_formula_units_Z 14
_cell_length_a 11.326332
_cell_length_b 12.564014
_cell_length_c 17.045361
_cell_angle_alpha 152.337629
_cell_angle_beta 133.633568
_cell_angle_gamma 66.091824
_cell_volume 644.107431
_symmetry_space_group_name_H-M "P -1"
_symmetry_group_IT_number 2
_symmetry_cell_setting 'triclinic'
loop_
_space_group_symop_operation_xyz
x,y,z
-x,-y,-z
loop_
_atom_site_type_symbol
_atom_site_label
_atom_site_fract_x
_atom_site_fract_y
_atom_site_fract_z
Si Si1 0.634220 0.216610 0.926682
Si Si2 0.787874 0.397054 0.691522
Si Si3 0.863235 0.667190 0.195800
Si Si4 0.831483 0.230045 0.328494
Si Si5 0.021191 0.271119 0.155527
Si Si6 0.656389 0.623745 0.913208
Si Si7 0.279526 0.551015 0.709390
O O1 0.405653 0.938954 0.620088
O O2 0.706857 0.480120 0.073164
O O3 0.634575 0.307742 0.074326
O O4 0.792232 0.143335 0.940314
O O5 0.816803 0.569248 0.737718
O O6 0.757055 0.548496 0.846211
O O7 0.990455 0.420527 0.815267
O O8 0.722064 0.595695 0.009922
O O9 0.000000 0.000000 0.500000
O O10 0.899450 0.498355 0.588829
O O11 0.688068 0.206210 0.177291
O O12 0.036550 0.283612 0.422400
O O13 0.718305 0.943286 0.140662
O O14 0.000000 0.000000 0.000000
O O15 0.406214 0.428855 0.663237
#
# Coordination Sequence:
#
# PCOD8018350 Si02
#       7
#     2   2   2   2   2   2   2
#     4  10  23  43  65  95 127 171 220 263 320 390
#     4  11  26  41  64 100 131 168 218 269 329 383
#     4  11  24  46  69  93 129 172 221 270 320 384
#     4  10  23  42  65  94 131 169 218 266 318 387
#     4  10  23  42  66  93 133 172 215 269 324 381
#     4  12  25  40  67  96 131 171 214 269 323 386
#     4  10  22  40  65  93 126 170 217 260 319 380
#
# _framework density 21.735503000000001
#
# number of rings (size 3 to 8) (size 9 to 14) (size 15 to 20)
#    0.000    1.429    0.000    5.143    8.000    5.714 
#    0.000    0.000    0.000    0.000    0.000    0.000 
#    0.000    0.000    0.000    0.000    0.000    0.000 
#
# Total GULP energy -173599.962068 kJ/mol
# GULP energy per Si atom -12399.997291 kJ/mol
# Density = 2.168603 g / cm^3
# Si number density = 21.735503 Si / 1000 Ang^3
#
#
#
# Elastic Constant Matrix: (Units=GPa)
#
#
# Indices 1 2 3 4 5 6 
#
# 1 112.1227 67.7721 30.1714 -7.6717 3.8353 -4.7587
# 2 67.7721 170.5967 53.7501 -0.0391 8.5326 16.5954
# 3 30.1714 53.7501 70.2419 2.7771 7.6120 4.8301
# 4 -7.6717 -0.0391 2.7771 36.3481 -1.1010 3.3872
# 5 3.8353 8.5326 7.6120 -1.1010 28.6379 1.0010
# 6 -4.7587 16.5954 4.8301 3.3872 1.0010 39.3455
#
#
#
# Elastic Compliance Matrix: (Units=1/GPa)
#
#
# Indices 1 2 3 4 5 6 
#
# 1 0.012666 -0.004690 -0.002225 0.002515 0.000265 0.003560
# 2 -0.004690 0.009756 -0.005078 -0.000241 -0.000798 -0.004018
# 3 -0.002225 -0.005078 0.019552 -0.002049 -0.003455 -0.000263
# 4 0.002515 -0.000241 -0.002049 0.028412 0.001436 -0.001825
# 5 0.000265 -0.000798 -0.003455 0.001436 0.036103 -0.000250
# 6 0.003560 -0.004018 -0.000263 -0.001825 -0.000250 0.027737
#
#
# Mechanical properties :
#
#
# Convention : Reuss Voigt Hill
#
# Bulk Modulus (GPa) = 55.59403 72.92761 64.26082
# Shear Modulus (GPa) = 30.44914 34.28415 32.36664
#
# Velocity S-wave (km/s) = 3.74691 3.97588 3.86309
# Velocity P-wave (km/s) = 6.65974 7.39607 7.03755
#
# Compressibility (1/GPa) = 0.01798754
#
# Stress axis : x y z
#
# Youngs Moduli (GPa) = 78.94929 102.50482 51.14623
#
# Poissons Ratio (x) = 0.48074 0.11379
# Poissons Ratio (y) = 0.37026 0.25974
# Poissons Ratio (z) = 0.17564 0.52057
#
# Static dielectric constant tensor:
#      x y z
#    x 4.464040 0.006540 0.164700 
#    y 0.006540 4.150940 -0.052210 
#    z 0.164700 -0.052210 3.795600 
# 
# 
# High freq. dielectric constant tensor:
#      x y z
#    x 1.869910 0.005590 0.017520 
#    y 0.005590 1.867770 -0.006760 
#    z 0.017520 -0.006760 1.841750 
# 
# From -- ./inp_files/255780.got.cif
#   From: 2010.06.25/outbox.cif.g09.slc.cpg/sg2_128_cif.got.tgz:255780.got - 2010.06.27 13:26:56.
