data_PCOD8018201
_publ_section_title
;
Structure prediction by ZEFSAII (Michael W. Deem and Ramdas Pophale) SiO2 
 PCOD8018201
Probable space group: P -1
;
_chemical_formula_sum "Si O2"
_cell_formula_units_Z 16
_cell_length_a 15.430127
_cell_length_b 6.739990
_cell_length_c 8.337371
_cell_angle_alpha 79.045440
_cell_angle_beta 102.344763
_cell_angle_gamma 111.863195
_cell_volume 780.255836
_symmetry_space_group_name_H-M "P -1"
_symmetry_group_IT_number 2
_symmetry_cell_setting 'triclinic'
loop_
_space_group_symop_operation_xyz
x,y,z
-x,-y,-z
loop_
_atom_site_type_symbol
_atom_site_label
_atom_site_fract_x
_atom_site_fract_y
_atom_site_fract_z
Si Si1 0.129513 0.307672 0.087748
Si Si2 0.962559 0.772518 0.606813
Si Si3 0.541356 0.245077 0.925110
Si Si4 0.369507 0.382808 0.858623
Si Si5 0.710036 0.321578 0.751818
Si Si6 0.766904 0.488356 0.418948
Si Si7 0.871845 0.348814 0.217666
Si Si8 0.216870 0.006892 0.010294
O O1 0.051844 0.211534 0.209890
O O2 0.229249 0.448697 0.183836
O O3 0.095985 0.450292 0.924480
O O4 0.141097 0.103402 0.035728
O O5 0.865846 0.641925 0.502639
O O6 0.038387 0.650226 0.640655
O O7 0.000000 0.000000 0.500000
O O8 0.459618 0.337918 0.827577
O O9 0.605718 0.254083 0.794100
O O10 0.600475 0.388217 0.073242
O O11 0.500000 0.000000 0.000000
O O12 0.296780 0.376695 0.688701
O O13 0.316875 0.192599 0.989388
O O14 0.705402 0.331421 0.556161
O O15 0.762707 0.152928 0.830949
O O16 0.788159 0.358417 0.298688
O O17 0.828594 0.120257 0.148212
#
# Coordination Sequence:
#
# PCOD8018201 Si02
#       8
#     2   2   2   2   2   2   2   2
#     4  10  22  42  66  88 126 168 214 254 304 373
#     4  11  25  42  63  96 126 166 210 261 315 359
#     4  11  22  40  69  94 123 160 213 257 303 375
#     4  11  22  40  68  94 122 163 210 255 306 375
#     4  10  22  40  63  95 127 166 202 257 320 363
#     4  11  24  44  62  91 136 164 200 261 321 369
#     4  11  23  41  65  90 126 170 212 257 302 370
#     4  11  20  40  68  92 121 171 216 248 303 374
#
# _framework density 20.506095999999999
#
# number of rings (size 3 to 8) (size 9 to 14) (size 15 to 20)
#    0.000    1.250    3.750    2.250    1.750    1.000 
#    2.250    0.625    0.000    0.000    0.000    0.000 
#    0.000    0.000    0.000    0.000    0.000    0.000 
#
# Total GULP energy -198438.665895 kJ/mol
# GULP energy per Si atom -12402.416618 kJ/mol
# Density = 2.045942 g / cm^3
# Si number density = 20.506096 Si / 1000 Ang^3
#
#
#
# Elastic Constant Matrix: (Units=GPa)
#
#
# Indices 1 2 3 4 5 6 
#
# 1 124.5726 39.2402 58.5148 -14.3938 2.0389 -9.4800
# 2 39.2402 114.5554 47.1046 -4.0735 -9.6206 -8.5078
# 3 58.5148 47.1046 121.1402 -18.1502 -8.1292 -7.8805
# 4 -14.3938 -4.0735 -18.1502 26.3293 6.2521 -1.5662
# 5 2.0389 -9.6206 -8.1292 6.2521 41.5647 -6.6889
# 6 -9.4800 -8.5078 -7.8805 -1.5662 -6.6889 31.3658
#
#
#
# Elastic Compliance Matrix: (Units=1/GPa)
#
#
# Indices 1 2 3 4 5 6 
#
# 1 0.011167 -0.002081 -0.004097 0.003552 -0.002123 0.001506
# 2 -0.002081 0.011110 -0.003340 -0.002238 0.002680 0.002005
# 3 -0.004097 -0.003340 0.012576 0.005701 0.001283 0.001573
# 4 0.003552 -0.002238 0.005701 0.045077 -0.005892 0.002893
# 5 -0.002123 0.002680 0.001283 -0.005892 0.026860 0.005842
# 6 0.001506 0.002005 0.001573 0.002893 0.005842 0.034666
#
#
# Mechanical properties :
#
#
# Convention : Reuss Voigt Hill
#
# Bulk Modulus (GPa) = 63.22491 72.22082 67.72286
# Shear Modulus (GPa) = 30.16312 34.21255 32.18784
#
# Velocity S-wave (km/s) = 3.83944 4.08905 3.96621
# Velocity P-wave (km/s) = 7.11015 7.58877 7.35335
#
# Compressibility (1/GPa) = 0.01581655
#
# Stress axis : x y z
#
# Youngs Moduli (GPa) = 89.54756 90.00994 79.51958
#
# Poissons Ratio (x) = 0.18727 0.32583
# Poissons Ratio (y) = 0.18631 0.26560
# Poissons Ratio (z) = 0.36691 0.30064
#
# Static dielectric constant tensor:
#      x y z
#    x 3.905510 -0.034780 -0.107070 
#    y -0.034780 3.683640 -0.050830 
#    z -0.107070 -0.050830 3.790020 
# 
# 
# High freq. dielectric constant tensor:
#      x y z
#    x 1.813790 -0.005700 -0.001620 
#    y -0.005700 1.801840 -0.006960 
#    z -0.001620 -0.006960 1.794650 
# 
# From -- ./inp_files/38533.got.cif
#   From: 2010.06.25/outbox.cif.g09.slc.cpg/sg2_20_cif.got.tgz:38533.got - 2010.06.27 13:26:56.
