data_PCOD8018558
_publ_section_title
;
Structure prediction by ZEFSAII (Michael W. Deem and Ramdas Pophale) SiO2 
 PCOD8018558
Probable space group: P -1
;
_chemical_formula_sum "Si O2"
_cell_formula_units_Z 14
_cell_length_a 11.091332
_cell_length_b 7.647158
_cell_length_c 9.731821
_cell_angle_alpha 77.622567
_cell_angle_beta 121.175437
_cell_angle_gamma 120.494133
_cell_volume 607.229458
_symmetry_space_group_name_H-M "P -1"
_symmetry_group_IT_number 2
_symmetry_cell_setting 'triclinic'
loop_
_space_group_symop_operation_xyz
x,y,z
-x,-y,-z
loop_
_atom_site_type_symbol
_atom_site_label
_atom_site_fract_x
_atom_site_fract_y
_atom_site_fract_z
Si Si1 0.423399 0.581540 0.283559
Si Si2 0.965513 0.974449 0.325229
Si Si3 0.316369 0.163848 0.423911
Si Si4 0.297447 0.992845 0.997211
Si Si5 0.934703 0.560071 0.317249
Si Si6 0.608871 0.299884 0.035443
Si Si7 0.233040 0.787118 0.271246
O O1 0.409839 0.365644 0.353678
O O2 0.603629 0.767791 0.388296
O O3 0.313453 0.648209 0.300385
O O4 0.384239 0.543616 0.104681
O O5 0.840316 0.046390 0.187765
O O6 0.892151 0.738457 0.290230
O O7 0.000000 0.000000 0.500000
O O8 0.131080 0.106089 0.321877
O O9 0.330623 0.965501 0.411989
O O10 0.393483 0.873794 0.034841
O O11 0.445147 0.225470 0.040825
O O12 0.215950 0.914239 0.110867
O O13 0.764333 0.374965 0.209104
O O14 0.000000 0.500000 0.500000
O O15 0.060302 0.623896 0.255357
#
# Coordination Sequence:
#
# PCOD8018558 Si02
#       7
#     2   2   2   2   2   2   2
#     4  10  22  40  67  94 131 174 209 273 323 380
#     4  11  24  41  65  91 133 170 213 271 325 380
#     4  10  23  40  63  98 130 166 224 264 317 397
#     4  10  23  42  68  94 129 175 209 269 328 376
#     4  11  26  42  65  97 128 169 219 267 321 393
#     4  10  23  43  64  96 131 164 221 263 323 393
#     4  10  24  42  67  93 129 175 213 271 323 385
#
# _framework density 23.055534999999999
#
# number of rings (size 3 to 8) (size 9 to 14) (size 15 to 20)
#    0.000    1.714    0.000    2.143    8.000    9.714 
#    2.571    0.000    0.000    0.000    0.000    0.000 
#    0.000    0.000    0.000    0.000    0.000    0.000 
#
# Total GULP energy -173472.057715 kJ/mol
# GULP energy per Si atom -12390.861265 kJ/mol
# Density = 2.300306 g / cm^3
# Si number density = 23.055535 Si / 1000 Ang^3
#
#
#
# Elastic Constant Matrix: (Units=GPa)
#
#
# Indices 1 2 3 4 5 6 
#
# 1 74.3585 23.9412 23.1356 -3.6401 2.7054 23.2945
# 2 23.9412 69.6033 24.2795 7.7411 -0.5775 23.9664
# 3 23.1356 24.2795 134.6740 0.3992 8.8545 34.1034
# 4 -3.6401 7.7411 0.3992 35.3583 6.1064 3.5528
# 5 2.7054 -0.5775 8.8545 6.1064 34.1708 -0.0873
# 6 23.2945 23.9664 34.1034 3.5528 -0.0873 42.4031
#
#
#
# Elastic Compliance Matrix: (Units=1/GPa)
#
#
# Indices 1 2 3 4 5 6 
#
# 1 0.017341 -0.003706 -0.000284 0.003708 -0.002044 -0.007519
# 2 -0.003706 0.019066 -0.000961 -0.004050 0.001569 -0.007625
# 3 -0.000284 -0.000961 0.009637 0.001265 -0.002735 -0.007164
# 4 0.003708 -0.004050 0.001265 0.030951 -0.006229 -0.003371
# 5 -0.002044 0.001569 -0.002735 -0.006229 0.031283 0.003022
# 6 -0.007519 -0.007625 -0.007164 -0.003371 0.003022 0.038073
#
#
# Mechanical properties :
#
#
# Convention : Reuss Voigt Hill
#
# Bulk Modulus (GPa) = 27.66794 46.81650 37.24222
# Shear Modulus (GPa) = 29.70871 36.20509 32.95690
#
# Velocity S-wave (km/s) = 3.59356 3.96705 3.78492
# Velocity P-wave (km/s) = 5.40785 6.42911 5.94047
#
# Compressibility (1/GPa) = 0.03614291
#
# Stress axis : x y z
#
# Youngs Moduli (GPa) = 57.66611 52.44932 103.76175
#
# Poissons Ratio (x) = 0.19440 0.02942
# Poissons Ratio (y) = 0.21374 0.09971
# Poissons Ratio (z) = 0.01635 0.05040
#
# Static dielectric constant tensor:
#      x y z
#    x 4.159960 0.062450 -0.066870 
#    y 0.062450 4.264390 -0.087410 
#    z -0.066870 -0.087410 4.168820 
# 
# 
# High freq. dielectric constant tensor:
#      x y z
#    x 1.903570 0.003360 0.004090 
#    y 0.003360 1.918930 -0.002230 
#    z 0.004090 -0.002230 1.911420 
# 
# From -- ./inp_files/173449.got.cif
#   From: 2010.06.25/outbox.cif.g09.slc.cpg/sg2_87_cif.got.tgz:173449.got - 2010.06.27 13:26:56.
