data_PCOD8018407
_publ_section_title
;
Structure prediction by ZEFSAII (Michael W. Deem and Ramdas Pophale) SiO2 
 PCOD8018407
Probable space group: P -1
;
_chemical_formula_sum "Si O2"
_cell_formula_units_Z 16
_cell_length_a 17.224659
_cell_length_b 9.145206
_cell_length_c 11.710354
_cell_angle_alpha 80.059479
_cell_angle_beta 49.034756
_cell_angle_gamma 41.425924
_cell_volume 709.382011
_symmetry_space_group_name_H-M "P -1"
_symmetry_group_IT_number 2
_symmetry_cell_setting 'triclinic'
loop_
_space_group_symop_operation_xyz
x,y,z
-x,-y,-z
loop_
_atom_site_type_symbol
_atom_site_label
_atom_site_fract_x
_atom_site_fract_y
_atom_site_fract_z
Si Si1 0.934166 0.423886 0.121545
Si Si2 0.872253 0.273991 0.016674
Si Si3 0.896490 0.019198 0.385617
Si Si4 0.127435 0.553771 0.390773
Si Si5 0.499224 0.384392 0.804018
Si Si6 0.724832 0.901724 0.812303
Si Si7 0.285411 0.441994 0.491419
Si Si8 0.660769 0.107292 0.089239
O O1 0.830754 0.464900 0.112331
O O2 0.773770 0.617112 0.355511
O O3 0.000000 0.500000 0.000000
O O4 0.135694 0.099792 0.016783
O O5 0.661994 0.470470 0.151387
O O6 0.004962 0.164788 0.798761
O O7 0.000000 0.000000 0.000000
O O8 0.055655 0.791992 0.363952
O O9 0.699581 0.165168 0.569758
O O10 0.857864 0.242114 0.384353
O O11 0.264349 0.423773 0.382650
O O12 0.262976 0.286072 0.210951
O O13 0.934455 0.710682 0.601988
O O14 0.540823 0.209836 0.884256
O O15 0.433945 0.618880 0.896472
O O16 0.696339 0.955268 0.967936
O O17 0.517207 0.203191 0.307864
#
# Coordination Sequence:
#
# PCOD8018407 Si02
#       8
#     2   2   2   2   2   2   2   2
#     4  12  28  46  68  97 140 183 226 286 337 403
#     4  12  24  44  72  96 133 184 228 274 336 407
#     4  10  23  41  69 105 134 177 227 283 331 400
#     4  10  22  40  68 100 142 179 219 279 345 405
#     4  10  23  42  69 103 133 178 228 282 332 403
#     4  10  22  40  66 101 141 178 221 280 345 400
#     4  11  23  43  69  99 136 181 229 275 342 406
#     4  11  23  42  69  99 137 177 227 285 335 401
#
# _framework density 22.554843000000002
#
# number of rings (size 3 to 8) (size 9 to 14) (size 15 to 20)
#    0.000    1.250    3.750    0.750    3.500    4.500 
#    0.000    0.000    0.000    0.000    0.000    0.000 
#    0.000    0.000    0.000    0.000    0.000    0.000 
#
# Total GULP energy -198388.355760 kJ/mol
# GULP energy per Si atom -12399.272235 kJ/mol
# Density = 2.250351 g / cm^3
# Si number density = 22.554843 Si / 1000 Ang^3
#
#
#
# Elastic Constant Matrix: (Units=GPa)
#
#
# Indices 1 2 3 4 5 6 
#
# 1 122.5416 15.3771 43.0263 0.3105 8.3100 -7.5119
# 2 15.3771 63.3666 36.4360 -10.5747 -2.5483 2.2135
# 3 43.0263 36.4360 113.5502 -1.7931 13.5631 0.1858
# 4 0.3105 -10.5747 -1.7931 30.5975 -6.6736 -1.6919
# 5 8.3100 -2.5483 13.5631 -6.6736 33.7414 0.7374
# 6 -7.5119 2.2135 0.1858 -1.6919 0.7374 28.0671
#
#
#
# Elastic Compliance Matrix: (Units=1/GPa)
#
#
# Indices 1 2 3 4 5 6 
#
# 1 0.009658 -0.000708 -0.003292 -0.000672 -0.001300 0.002656
# 2 -0.000708 0.021954 -0.007419 0.008499 0.006529 -0.001531
# 3 -0.003292 -0.007419 0.013055 -0.003006 -0.005583 -0.000417
# 4 -0.000672 0.008499 -0.003006 0.037571 0.009421 0.001187
# 5 -0.001300 0.006529 -0.005583 0.009421 0.034583 -0.001167
# 6 0.002656 -0.001531 -0.000417 0.001187 -0.001167 0.036565
#
#
# Mechanical properties :
#
#
# Convention : Reuss Voigt Hill
#
# Bulk Modulus (GPa) = 45.81377 54.34857 50.08117
# Shear Modulus (GPa) = 27.24786 32.12248 29.68517
#
# Velocity S-wave (km/s) = 3.47950 3.77794 3.63179
# Velocity P-wave (km/s) = 6.04143 6.57107 6.31181
#
# Compressibility (1/GPa) = 0.02182750
#
# Stress axis : x y z
#
# Youngs Moduli (GPa) = 103.54215 45.55073 76.59955
#
# Poissons Ratio (x) = 0.03225 0.25217
# Poissons Ratio (y) = 0.07330 0.56832
# Poissons Ratio (z) = 0.34087 0.33796
#
# Static dielectric constant tensor:
#      x y z
#    x -3.980980 3.121910 -3.627810 
#    y 3.121910 2.967600 1.426270 
#    z -3.627810 1.426270 2.610760 
# 
# 
# High freq. dielectric constant tensor:
#      x y z
#    x 1.885530 -0.002580 -0.007840 
#    y -0.002580 1.881320 -0.000040 
#    z -0.007840 -0.000040 1.902340 
# 
# From -- ./inp_files/462114.got.cif
#   From: 2010.06.25/outbox.cif.g09.slc.cpg/sg2_232_cif.got.tgz:462114.got - 2010.06.27 13:26:56.
