data_PCOD8018847
_publ_section_title
;
Structure prediction by ZEFSAII (Michael W. Deem and Ramdas Pophale) SiO2 
 PCOD8018847
Probable space group: P -1
;
_chemical_formula_sum "Si O2"
_cell_formula_units_Z 16
_cell_length_a 23.273024
_cell_length_b 18.987379
_cell_length_c 13.463470
_cell_angle_alpha 23.525703
_cell_angle_beta 21.991262
_cell_angle_gamma 22.805741
_cell_volume 780.427410
_symmetry_space_group_name_H-M "P -1"
_symmetry_group_IT_number 2
_symmetry_cell_setting 'triclinic'
loop_
_space_group_symop_operation_xyz
x,y,z
-x,-y,-z
loop_
_atom_site_type_symbol
_atom_site_label
_atom_site_fract_x
_atom_site_fract_y
_atom_site_fract_z
Si Si1 0.173717 0.503191 0.497596
Si Si2 0.754115 0.208693 0.866227
Si Si3 0.034959 0.237470 0.856564
Si Si4 0.176612 0.488575 0.990458
Si Si5 0.191880 0.808413 0.428500
Si Si6 0.479570 0.104623 0.504144
Si Si7 0.461862 0.234899 0.011921
Si Si8 0.225292 0.481845 0.232341
O O1 0.201266 0.617577 0.397719
O O2 0.279457 0.260410 0.656243
O O3 0.256693 0.545504 0.209007
O O4 0.966072 0.582691 0.714435
O O5 0.740922 0.204645 0.774134
O O6 0.577346 0.238522 0.163251
O O7 0.906678 0.995861 0.934759
O O8 0.193862 0.287765 0.552026
O O9 0.950847 0.327868 0.768455
O O10 0.893017 0.338108 0.039883
O O11 0.202832 0.594094 0.714192
O O12 0.356003 0.303939 0.987281
O O13 0.333479 0.829268 0.245995
O O14 0.000000 0.000000 0.500000
O O15 0.500000 0.000000 0.500000
O O16 0.557572 0.949223 0.671653
O O17 0.381896 0.417312 0.985995
#
# Coordination Sequence:
#
# PCOD8018847 Si02
#       8
#     2   2   2   2   2   2   2   2
#     4  11  23  37  59  93 127 157 188 242 315 361
#     4  12  23  36  61  93 125 158 191 248 310 354
#     4   9  17  34  58  89 116 154 198 239 289 353
#     4  10  22  41  60  86 118 160 206 244 288 353
#     4  12  23  39  63  88 115 158 215 250 282 344
#     4  12  20  39  63  92 122 151 199 246 298 362
#     4  11  21  37  67  89 113 154 204 255 292 340
#     4   9  17  34  59  87 122 151 190 242 295 361
#
# _framework density 20.501587000000001
#
# number of rings (size 3 to 8) (size 9 to 14) (size 15 to 20)
#    0.000    1.250    5.000    3.000    0.000    1.000 
#    0.000    0.000    0.000    1.500    0.000    0.000 
#    0.000    0.000    0.000    0.000    0.000    0.000 
#
# Total GULP energy -198247.449540 kJ/mol
# GULP energy per Si atom -12390.465596 kJ/mol
# Density = 2.045492 g / cm^3
# Si number density = 20.501587 Si / 1000 Ang^3
#
#
#
# Elastic Constant Matrix: (Units=GPa)
#
#
# Indices 1 2 3 4 5 6 
#
# 1 74.6424 40.8506 33.0957 -9.8848 -5.2419 -25.7923
# 2 40.8506 85.1473 28.6643 -5.1839 -11.8371 -26.6929
# 3 33.0957 28.6643 87.7224 -0.1482 2.0271 -17.3549
# 4 -9.8848 -5.1839 -0.1482 32.5895 -8.8407 -1.4383
# 5 -5.2419 -11.8371 2.0271 -8.8407 34.6866 -3.3435
# 6 -25.7923 -26.6929 -17.3549 -1.4383 -3.3435 34.8966
#
#
#
# Elastic Compliance Matrix: (Units=1/GPa)
#
#
# Indices 1 2 3 4 5 6 
#
# 1 0.024147 -0.004473 -0.005249 0.008748 0.005887 0.012740
# 2 -0.004473 0.019912 -0.002717 0.004636 0.008576 0.011586
# 3 -0.005249 -0.002717 0.014502 -0.002789 -0.003199 0.000833
# 4 0.008748 0.004636 -0.002789 0.038358 0.013956 0.011543
# 5 0.005887 0.008576 -0.003199 0.013956 0.037692 0.013507
# 6 0.012740 0.011586 0.000833 0.011543 0.013507 0.049119
#
#
# Mechanical properties :
#
#
# Convention : Reuss Voigt Hill
#
# Bulk Modulus (GPa) = 29.68959 50.30372 39.99665
# Shear Modulus (GPa) = 22.74441 30.09463 26.41952
#
# Velocity S-wave (km/s) = 3.33438 3.83550 3.59368
# Velocity P-wave (km/s) = 5.41638 6.64865 6.06389
#
# Compressibility (1/GPa) = 0.03368184
#
# Stress axis : x y z
#
# Youngs Moduli (GPa) = 41.41364 50.22191 68.95711
#
# Poissons Ratio (x) = 0.22463 0.36198
# Poissons Ratio (y) = 0.18523 0.18736
# Poissons Ratio (z) = 0.21739 0.13645
#
# Static dielectric constant tensor:
#      x y z
#    x 3.684050 -0.391340 0.197820 
#    y -0.391340 3.807250 0.107420 
#    z 0.197820 0.107420 3.612540 
# 
# 
# High freq. dielectric constant tensor:
#      x y z
#    x 1.786260 -0.041470 0.016500 
#    y -0.041470 1.794320 0.009770 
#    z 0.016500 0.009770 1.782320 
# 
# From -- ./inp_files/396233.got.cif
#   From: 2010.06.25/outbox.cif.g09.slc.cpg/sg2_199_cif.got.tgz:396233.got - 2010.06.27 13:26:56.
