data_PCOD8018694
_publ_section_title
;
Structure prediction by ZEFSAII (Michael W. Deem and Ramdas Pophale) SiO2 
 PCOD8018694
Probable space group: P -1
;
_chemical_formula_sum "Si O2"
_cell_formula_units_Z 16
_cell_length_a 11.518099
_cell_length_b 8.489320
_cell_length_c 21.263910
_cell_angle_alpha 137.989059
_cell_angle_beta 44.052723
_cell_angle_gamma 103.839874
_cell_volume 748.666415
_symmetry_space_group_name_H-M "P -1"
_symmetry_group_IT_number 2
_symmetry_cell_setting 'triclinic'
loop_
_space_group_symop_operation_xyz
x,y,z
-x,-y,-z
loop_
_atom_site_type_symbol
_atom_site_label
_atom_site_fract_x
_atom_site_fract_y
_atom_site_fract_z
Si Si1 0.297590 0.635956 0.772070
Si Si2 0.237541 0.829248 0.330250
Si Si3 0.885418 0.737708 0.930198
Si Si4 0.930003 0.894833 0.294672
Si Si5 0.168005 0.138353 0.324173
Si Si6 0.425595 0.177909 0.017482
Si Si7 0.563597 0.149870 0.617995
Si Si8 0.414893 0.761789 0.560964
O O1 0.345876 0.472284 0.772403
O O2 0.516275 0.404669 0.581788
O O3 0.114300 0.664418 0.812103
O O4 0.258907 0.949270 0.881595
O O5 0.385647 0.768438 0.312562
O O6 0.233225 0.034435 0.340048
O O7 0.341266 0.514095 0.161804
O O8 0.000000 0.000000 0.500000
O O9 0.903696 0.473980 0.881606
O O10 0.776538 0.792553 0.921088
O O11 0.760424 0.982361 0.442279
O O12 0.838584 0.994900 0.287645
O O13 0.056727 0.015720 0.298318
O O14 0.000000 0.500000 0.500000
O O15 0.381392 0.010811 0.164038
O O16 0.500000 0.000000 0.000000
O O17 0.511821 0.927239 0.588581
O O18 0.500000 0.500000 0.500000
#
# Coordination Sequence:
#
# PCOD8018694 Si02
#       8
#     2   2   2   2   2   2   2   2
#     4  10  22  40  69  95 125 179 224 273 342 400
#     4  12  24  43  70 101 136 181 227 281 345 407
#     4  11  21  41  71  93 130 171 228 280 339 405
#     4  11  22  45  69  92 133 179 229 279 339 409
#     4  12  28  45  69 100 137 183 232 286 346 410
#     4  12  27  45  68 102 139 181 227 283 346 414
#     4  11  21  43  68  96 132 177 228 272 340 414
#     4  11  24  40  64  99 131 175 224 281 330 403
#
# _framework density 21.371331999999999
#
# number of rings (size 3 to 8) (size 9 to 14) (size 15 to 20)
#    0.000    0.750    5.000    2.625    5.250    1.000 
#    0.000    0.625    0.000    0.000    0.000    0.000 
#    0.000    0.000    0.000    0.000    0.000    0.000 
#
# Total GULP energy -198292.084174 kJ/mol
# GULP energy per Si atom -12393.255261 kJ/mol
# Density = 2.132269 g / cm^3
# Si number density = 21.371332 Si / 1000 Ang^3
#
#
#
# Elastic Constant Matrix: (Units=GPa)
#
#
# Indices 1 2 3 4 5 6 
#
# 1 181.5913 67.9021 34.5819 15.9686 -1.5495 -17.0146
# 2 67.9021 127.1171 47.8248 23.5551 -2.1575 -15.1915
# 3 34.5819 47.8248 118.2769 25.1868 5.4025 -4.3264
# 4 15.9686 23.5551 25.1868 45.6044 2.0443 5.8263
# 5 -1.5495 -2.1575 5.4025 2.0443 29.3851 10.1054
# 6 -17.0146 -15.1915 -4.3264 5.8263 10.1054 38.7907
#
#
#
# Elastic Compliance Matrix: (Units=1/GPa)
#
#
# Indices 1 2 3 4 5 6 
#
# 1 0.007053 -0.003199 -0.000512 -0.000772 -0.000405 0.002005
# 2 -0.003199 0.011784 -0.002912 -0.003804 0.000337 0.003371
# 3 -0.000512 -0.002912 0.010854 -0.004348 -0.002312 0.001101
# 4 -0.000772 -0.003804 -0.004348 0.027375 0.000862 -0.006650
# 5 -0.000405 0.000337 -0.002312 0.000862 0.037948 -0.010319
# 6 0.002005 0.003371 0.001101 -0.006650 -0.010319 0.031789
#
#
# Mechanical properties :
#
#
# Convention : Reuss Voigt Hill
#
# Bulk Modulus (GPa) = 60.80782 80.84478 70.82630
# Shear Modulus (GPa) = 34.35701 41.20115 37.77908
#
# Velocity S-wave (km/s) = 4.01387 4.39551 4.20902
# Velocity P-wave (km/s) = 7.07080 7.97944 7.53882
#
# Compressibility (1/GPa) = 0.01644525
#
# Stress axis : x y z
#
# Youngs Moduli (GPa) = 141.78532 84.85770 92.13469
#
# Poissons Ratio (x) = 0.27144 0.04721
# Poissons Ratio (y) = 0.45354 0.26827
# Poissons Ratio (z) = 0.07265 0.24708
#
# Static dielectric constant tensor:
#      x y z
#    x 3.340150 1.006060 1.141340 
#    y 1.006060 2.278610 -1.405140 
#    z 1.141340 -1.405140 2.248040 
# 
# 
# High freq. dielectric constant tensor:
#      x y z
#    x 1.861980 -0.005670 -0.005180 
#    y -0.005670 1.828310 0.033670 
#    z -0.005180 0.033670 1.839050 
# 
# From -- ./inp_files/594256.got.cif
#   From: 2010.06.25/outbox.cif.g09.slc.cpg/sg2_298_cif.got.tgz:594256.got - 2010.06.27 13:26:56.
