data_PCOD8018628
_publ_section_title
;
Structure prediction by ZEFSAII (Michael W. Deem and Ramdas Pophale) SiO2 
 PCOD8018628
Probable space group: P -1
;
_chemical_formula_sum "Si O2"
_cell_formula_units_Z 16
_cell_length_a 11.156136
_cell_length_b 10.143079
_cell_length_c 7.094504
_cell_angle_alpha 106.428837
_cell_angle_beta 89.076965
_cell_angle_gamma 74.349109
_cell_volume 737.749764
_symmetry_space_group_name_H-M "P -1"
_symmetry_group_IT_number 2
_symmetry_cell_setting 'triclinic'
loop_
_space_group_symop_operation_xyz
x,y,z
-x,-y,-z
loop_
_atom_site_type_symbol
_atom_site_label
_atom_site_fract_x
_atom_site_fract_y
_atom_site_fract_z
Si Si1 0.373324 0.355144 0.459280
Si Si2 0.189088 0.867513 0.837240
Si Si3 0.037715 0.625911 0.301424
Si Si4 0.288759 0.653647 0.412454
Si Si5 0.536668 0.145248 0.084944
Si Si6 0.495473 0.353649 0.839544
Si Si7 0.111448 0.320655 0.321862
Si Si8 0.034912 0.173040 0.949055
O O1 0.379206 0.504046 0.427693
O O2 0.482990 0.224558 0.315120
O O3 0.387081 0.369903 0.691002
O O4 0.240572 0.329603 0.409164
O O5 0.228028 0.754375 0.625119
O O6 0.313908 0.886429 0.938573
O O7 0.103441 0.014841 0.805175
O O8 0.106389 0.813813 0.973151
O O9 0.180178 0.626463 0.276511
O O10 0.034527 0.462469 0.263791
O O11 0.973644 0.711636 0.522184
O O12 0.964566 0.704838 0.153723
O O13 0.373728 0.718715 0.300739
O O14 0.472563 0.247114 0.955224
O O15 0.500000 0.000000 0.000000
O O16 0.500000 0.500000 0.000000
O O17 0.125730 0.190741 0.124656
#
# Coordination Sequence:
#
# PCOD8018628 Si02
#       8
#     2   2   2   2   2   2   2   2
#     4  11  24  42  70  99 143 172 227 284 333 406
#     4  11  24  43  69  94 136 177 225 281 330 399
#     4  10  22  40  68  95 130 175 221 275 338 395
#     4  11  21  45  69 100 132 171 228 288 329 396
#     4  12  26  46  67 102 142 181 222 280 343 408
#     4  12  24  44  75  99 129 184 226 275 344 399
#     4  10  22  42  63 100 135 171 216 284 334 397
#     4  11  23  44  67  96 131 180 226 272 335 402
#
# _framework density 21.687569
#
# number of rings (size 3 to 8) (size 9 to 14) (size 15 to 20)
#    0.000    1.000    3.750    3.000    0.000    3.000 
#    4.500    0.000    0.000    0.000    0.000    0.000 
#    0.000    0.000    0.000    0.000    0.000    0.000 
#
# Total GULP energy -198385.730685 kJ/mol
# GULP energy per Si atom -12399.108168 kJ/mol
# Density = 2.163821 g / cm^3
# Si number density = 21.687569 Si / 1000 Ang^3
#
#
#
# Elastic Constant Matrix: (Units=GPa)
#
#
# Indices 1 2 3 4 5 6 
#
# 1 96.0774 37.1424 38.0954 -3.6295 9.8631 -0.5295
# 2 37.1424 96.1612 67.1098 1.5864 -1.3255 3.2430
# 3 38.0954 67.1098 104.5744 3.6292 12.4995 1.0600
# 4 -3.6295 1.5864 3.6292 41.0949 -3.8990 -2.3057
# 5 9.8631 -1.3255 12.4995 -3.8990 34.9720 2.5619
# 6 -0.5295 3.2430 1.0600 -2.3057 2.5619 28.8319
#
#
#
# Elastic Compliance Matrix: (Units=1/GPa)
#
#
# Indices 1 2 3 4 5 6 
#
# 1 0.013015 -0.003677 -0.002076 0.001251 -0.003009 0.001096
# 2 -0.003677 0.021021 -0.012944 0.000502 0.006700 -0.002511
# 3 -0.002076 -0.012944 0.019545 -0.002027 -0.007203 0.001177
# 4 0.001251 0.000502 -0.002027 0.024992 0.003048 0.001769
# 5 -0.003009 0.006700 -0.007203 0.003048 0.032847 -0.003219
# 6 0.001096 -0.002511 0.001177 0.001769 -0.003219 0.035371
#
#
# Mechanical properties :
#
#
# Convention : Reuss Voigt Hill
#
# Bulk Modulus (GPa) = 61.77720 64.61200 63.19460
# Shear Modulus (GPa) = 26.37389 31.27746 28.82568
#
# Velocity S-wave (km/s) = 3.49102 3.80173 3.64968
# Velocity P-wave (km/s) = 6.69302 7.00912 6.85289
#
# Compressibility (1/GPa) = 0.01618720
#
# Stress axis : x y z
#
# Youngs Moduli (GPa) = 76.83261 47.57048 51.16446
#
# Poissons Ratio (x) = 0.17492 0.10624
# Poissons Ratio (y) = 0.28252 0.66225
# Poissons Ratio (z) = 0.15954 0.61573
#
# Static dielectric constant tensor:
#      x y z
#    x 4.000560 -0.045040 -0.043540 
#    y -0.045040 3.860950 0.034970 
#    z -0.043540 0.034970 3.918980 
# 
# 
# High freq. dielectric constant tensor:
#      x y z
#    x 1.861900 0.000720 -0.000090 
#    y 0.000720 1.840100 0.006040 
#    z -0.000090 0.006040 1.856240 
# 
# From -- ./inp_files/71845.got.cif
#   From: 2010.06.25/outbox.cif.g09.slc.cpg/sg2_36_cif.got.tgz:71845.got - 2010.06.27 13:26:56.
