data_PCOD8018330
_publ_section_title
;
Structure prediction by ZEFSAII (Michael W. Deem and Ramdas Pophale) SiO2 
 PCOD8018330
Probable space group: P -1
;
_chemical_formula_sum "Si O2"
_cell_formula_units_Z 14
_cell_length_a 28.650314
_cell_length_b 16.230880
_cell_length_c 16.157436
_cell_angle_alpha 18.833252
_cell_angle_beta 162.035780
_cell_angle_gamma 161.389459
_cell_volume 657.905992
_symmetry_space_group_name_H-M "P -1"
_symmetry_group_IT_number 2
_symmetry_cell_setting 'triclinic'
loop_
_space_group_symop_operation_xyz
x,y,z
-x,-y,-z
loop_
_atom_site_type_symbol
_atom_site_label
_atom_site_fract_x
_atom_site_fract_y
_atom_site_fract_z
Si Si1 0.689976 0.049277 0.274054
Si Si2 0.603202 0.236397 0.689327
Si Si3 0.084646 0.401485 0.805278
Si Si4 0.670683 0.175637 0.674754
Si Si5 0.104067 0.139969 0.626871
Si Si6 0.767753 0.897810 0.382958
Si Si7 0.746374 0.895494 0.698208
O O1 0.830718 0.387509 0.173555
O O2 0.727756 0.860477 0.449610
O O3 0.730365 0.006892 0.475518
O O4 0.500000 0.000000 0.000000
O O5 0.612126 0.139636 0.704472
O O6 0.715103 0.582247 0.557562
O O7 0.407137 0.154062 0.453895
O O8 0.662271 0.055052 0.020673
O O9 0.000000 0.500000 0.500000
O O10 0.244733 0.395076 0.033152
O O11 0.927450 0.096382 0.860864
O O12 0.770300 0.515736 0.496018
O O13 0.500000 0.000000 0.500000
O O14 0.792026 0.026535 0.011095
O O15 0.000000 0.000000 0.500000
O O16 0.968090 0.097413 0.510142
#
# Coordination Sequence:
#
# PCOD8018330 Si02
#       7
#     2   2   2   2   2   2   2
#     4  11  22  39  63  97 131 171 223 276 321 396
#     4  12  24  43  68 101 132 178 220 279 349 400
#     4   9  21  41  58  87 131 179 221 267 336 388
#     4  12  26  47  73 105 138 177 232 290 347 412
#     4  12  23  48  73  98 139 182 224 288 346 411
#     4  12  26  40  71 102 131 177 230 272 340 407
#     4  10  22  40  65  88 137 178 215 277 332 400
#
# _framework density 21.279636
#
# number of rings (size 3 to 8) (size 9 to 14) (size 15 to 20)
#    0.000    0.857    4.286    2.571    4.000    2.286 
#    7.714    0.000    0.000    0.000    0.000    0.000 
#    0.000    0.000    0.000    0.000    0.000    0.000 
#
# Total GULP energy -173462.563963 kJ/mol
# GULP energy per Si atom -12390.183140 kJ/mol
# Density = 2.123120 g / cm^3
# Si number density = 21.279636 Si / 1000 Ang^3
#
#
#
# Elastic Constant Matrix: (Units=GPa)
#
#
# Indices 1 2 3 4 5 6 
#
# 1 92.8683 26.7640 4.5845 14.7026 22.5278 7.0057
# 2 26.7640 133.0697 39.7381 5.3151 -0.1227 -9.0562
# 3 4.5845 39.7381 115.8472 2.5124 21.1967 -2.6240
# 4 14.7026 5.3151 2.5124 39.4742 6.1148 2.9899
# 5 22.5278 -0.1227 21.1967 6.1148 32.5634 6.0344
# 6 7.0057 -9.0562 -2.6240 2.9899 6.0344 34.9771
#
#
#
# Elastic Compliance Matrix: (Units=1/GPa)
#
#
# Indices 1 2 3 4 5 6 
#
# 1 0.015187 -0.003892 0.002869 -0.003422 -0.011456 -0.001565
# 2 -0.003892 0.009674 -0.004028 -0.000543 0.005053 0.002157
# 3 0.002869 -0.004028 0.011717 0.000180 -0.009836 0.000943
# 4 -0.003422 -0.000543 0.000180 0.027173 -0.002611 -0.001314
# 5 -0.011456 0.005053 -0.009836 -0.002611 0.046459 -0.004927
# 6 -0.001565 0.002157 0.000943 -0.001314 -0.004927 0.030495
#
#
# Mechanical properties :
#
#
# Convention : Reuss Voigt Hill
#
# Bulk Modulus (GPa) = 37.77079 53.77314 45.77197
# Shear Modulus (GPa) = 31.32202 39.44953 35.38577
#
# Velocity S-wave (km/s) = 3.84073 4.31032 4.08228
# Velocity P-wave (km/s) = 6.12017 7.07789 6.61638
#
# Compressibility (1/GPa) = 0.02647548
#
# Stress axis : x y z
#
# Youngs Moduli (GPa) = 65.84782 103.37450 85.34333
#
# Poissons Ratio (x) = 0.40228 -0.24482
# Poissons Ratio (y) = 0.25625 0.34378
# Poissons Ratio (z) = -0.18890 0.41641
#
# Static dielectric constant tensor:
#      x y z
#    x 3.871710 -0.228580 0.191870 
#    y -0.228580 5.825900 -0.186910 
#    z 0.191870 -0.186910 3.856430 
# 
# 
# High freq. dielectric constant tensor:
#      x y z
#    x 1.822400 -0.000300 0.017410 
#    y -0.000300 1.851490 -0.000060 
#    z 0.017410 -0.000060 1.852050 
# 
# From -- ./inp_files/34081.got.cif
#   From: 2010.06.25/outbox.cif.g09.slc.cpg/sg2_18_cif.got.tgz:34081.got - 2010.06.27 13:26:56.
