data_PCOD8018584
_publ_section_title
;
Structure prediction by ZEFSAII (Michael W. Deem and Ramdas Pophale) SiO2 
 PCOD8018584
Probable space group: P -1
;
_chemical_formula_sum "Si O2"
_cell_formula_units_Z 16
_cell_length_a 9.392214
_cell_length_b 8.325483
_cell_length_c 14.064275
_cell_angle_alpha 56.346930
_cell_angle_beta 105.909231
_cell_angle_gamma 70.235025
_cell_volume 696.130484
_symmetry_space_group_name_H-M "P -1"
_symmetry_group_IT_number 2
_symmetry_cell_setting 'triclinic'
loop_
_space_group_symop_operation_xyz
x,y,z
-x,-y,-z
loop_
_atom_site_type_symbol
_atom_site_label
_atom_site_fract_x
_atom_site_fract_y
_atom_site_fract_z
Si Si1 0.248828 0.134087 0.550278
Si Si2 0.944216 0.910495 0.306779
Si Si3 0.425413 0.420263 0.248984
Si Si4 0.985411 0.751986 0.709096
Si Si5 0.340695 0.861507 0.982843
Si Si6 0.691555 0.795508 0.997378
Si Si7 0.194439 0.299208 0.148364
Si Si8 0.344278 0.485999 0.431037
O O1 0.155028 0.182557 0.621386
O O2 0.080224 0.270638 0.398096
O O3 0.370546 0.234952 0.537683
O O4 0.383713 0.852010 0.636261
O O5 0.140283 0.694659 0.367548
O O6 0.967569 0.059579 0.341086
O O7 0.810477 0.088584 0.138330
O O8 0.451873 0.596909 0.137922
O O9 0.255529 0.446748 0.160481
O O10 0.362383 0.512275 0.314234
O O11 0.819983 0.854694 0.723531
O O12 0.164711 0.489006 0.860605
O O13 0.484654 0.890692 0.950549
O O14 0.241479 0.067607 0.978936
O O15 0.671651 0.869818 0.858063
O O16 0.000000 0.500000 0.000000
O O17 0.500000 0.500000 0.500000
#
# Coordination Sequence:
#
# PCOD8018584 Si02
#       8
#     2   2   2   2   2   2   2   2
#     4  12  26  50  75 101 148 194 242 293 360 433
#     4  12  27  45  76 106 146 188 243 298 361 428
#     4  12  26  45  73 100 146 189 240 297 352 430
#     4  11  23  44  72 104 139 189 243 289 358 431
#     4  11  25  44  68 108 142 187 238 298 359 425
#     4  10  23  43  70 102 146 186 236 296 359 423
#     4  10  22  40  67  98 135 187 229 290 348 420
#     4  12  29  48  72 110 145 191 240 301 363 425
#
# _framework density 22.984197000000002
#
# number of rings (size 3 to 8) (size 9 to 14) (size 15 to 20)
#    0.000    0.750    1.250    5.625    5.250    5.000 
#    0.000    0.000    0.000    0.000    0.000    0.000 
#    0.000    0.000    0.000    0.000    0.000    0.000 
#
# Total GULP energy -198389.379093 kJ/mol
# GULP energy per Si atom -12399.336193 kJ/mol
# Density = 2.293188 g / cm^3
# Si number density = 22.984197 Si / 1000 Ang^3
#
#
#
# Elastic Constant Matrix: (Units=GPa)
#
#
# Indices 1 2 3 4 5 6 
#
# 1 107.1643 45.8052 33.7483 15.1965 -3.4792 3.1766
# 2 45.8052 122.5086 43.9982 20.8391 2.8550 2.7062
# 3 33.7483 43.9982 86.9234 12.4159 -6.1396 -7.4284
# 4 15.1965 20.8391 12.4159 43.7791 1.0751 -0.0067
# 5 -3.4792 2.8550 -6.1396 1.0751 37.6316 1.8256
# 6 3.1766 2.7062 -7.4284 -0.0067 1.8256 46.1268
#
#
#
# Elastic Compliance Matrix: (Units=1/GPa)
#
#
# Indices 1 2 3 4 5 6 
#
# 1 0.011873 -0.003117 -0.002791 -0.001871 0.000987 -0.001124
# 2 -0.003117 0.011494 -0.004381 -0.003105 -0.001733 -0.001097
# 3 -0.002791 -0.004381 0.015421 -0.001380 0.002492 0.002834
# 4 -0.001871 -0.003105 -0.001380 0.025382 -0.000894 0.000128
# 5 0.000987 -0.001733 0.002492 -0.000894 0.027260 -0.000644
# 6 -0.001124 -0.001097 0.002834 0.000128 -0.000644 0.022303
#
#
# Mechanical properties :
#
#
# Convention : Reuss Voigt Hill
#
# Bulk Modulus (GPa) = 54.91282 62.63327 58.77305
# Shear Modulus (GPa) = 35.61743 38.37713 36.99728
#
# Velocity S-wave (km/s) = 3.94083 4.09065 4.01644
# Velocity P-wave (km/s) = 6.68208 7.04422 6.86554
#
# Compressibility (1/GPa) = 0.01821068
#
# Stress axis : x y z
#
# Youngs Moduli (GPa) = 84.22218 87.00181 64.84769
#
# Poissons Ratio (x) = 0.27117 0.18101
# Poissons Ratio (y) = 0.26251 0.28407
# Poissons Ratio (z) = 0.23509 0.38111
#
# Static dielectric constant tensor:
#      x y z
#    x 4.589780 -0.439470 -0.276010 
#    y -0.439470 5.436700 0.676500 
#    z -0.276010 0.676500 4.222010 
# 
# 
# High freq. dielectric constant tensor:
#      x y z
#    x 1.921300 -0.002610 -0.002070 
#    y -0.002610 1.917120 0.013470 
#    z -0.002070 0.013470 1.907000 
# 
# From -- ./inp_files/494410.got.cif
#   From: 2010.06.25/outbox.cif.g09.slc.cpg/sg2_248_cif.got.tgz:494410.got - 2010.06.27 13:26:56.
