data_PCOD8018016
_publ_section_title
;
Structure prediction by ZEFSAII (Michael W. Deem and Ramdas Pophale) SiO2 
 PCOD8018016
Probable space group: P -1
;
_chemical_formula_sum "Si O2"
_cell_formula_units_Z 14
_cell_length_a 16.927958
_cell_length_b 15.982061
_cell_length_c 18.854630
_cell_angle_alpha 21.575628
_cell_angle_beta 21.333206
_cell_angle_gamma 33.952874
_cell_volume 656.187960
_symmetry_space_group_name_H-M "P -1"
_symmetry_group_IT_number 2
_symmetry_cell_setting 'triclinic'
loop_
_space_group_symop_operation_xyz
x,y,z
-x,-y,-z
loop_
_atom_site_type_symbol
_atom_site_label
_atom_site_fract_x
_atom_site_fract_y
_atom_site_fract_z
Si Si1 0.111018 0.488553 0.167331
Si Si2 0.925428 0.240402 0.298236
Si Si3 0.841097 0.243208 0.819293
Si Si4 0.391880 0.699170 0.899856
Si Si5 0.231727 0.899741 0.305895
Si Si6 0.178811 0.994111 0.669076
Si Si7 0.629198 0.854830 0.764761
O O1 0.284019 0.344454 0.108606
O O2 0.861468 0.298412 0.522118
O O3 0.194500 0.586349 0.098548
O O4 0.118894 0.711368 0.935032
O O5 0.858588 0.242237 0.434666
O O6 0.700461 0.097867 0.556977
O O7 0.128730 0.121449 0.208581
O O8 0.000000 0.500000 0.000000
O O9 0.000000 0.500000 0.500000
O O10 0.722280 0.160607 0.058825
O O11 0.640076 0.246537 0.930519
O O12 0.963700 0.061865 0.827039
O O13 0.614771 0.904598 0.526745
O O14 0.500000 0.500000 0.000000
O O15 0.500000 0.000000 0.000000
O O16 0.251608 0.109101 0.440842
#
# Coordination Sequence:
#
# PCOD8018016 Si02
#       7
#     2   2   2   2   2   2   2
#     4  11  21  40  63  83 122 166 193 252 313 356
#     4  10  22  42  66  90 122 165 210 257 315 371
#     4  11  20  35  59  86 119 155 198 243 294 362
#     4  11  20  39  59  85 123 156 199 245 301 367
#     4  10  24  42  62  94 128 159 211 264 309 370
#     4  11  22  37  60  90 120 155 207 246 299 372
#     4  10  22  40  60  86 122 158 198 251 305 360
#
# _framework density 21.335349999999998
#
# number of rings (size 3 to 8) (size 9 to 14) (size 15 to 20)
#    0.000    1.429    4.286    1.286    0.000    5.714 
#    0.000    8.571    0.000    0.000    0.000    0.000 
#    0.000    0.000    0.000    0.000    0.000    0.000 
#
# Total GULP energy -173444.586209 kJ/mol
# GULP energy per Si atom -12388.899015 kJ/mol
# Density = 2.128679 g / cm^3
# Si number density = 21.335350 Si / 1000 Ang^3
#
#
#
# Elastic Constant Matrix: (Units=GPa)
#
#
# Indices 1 2 3 4 5 6 
#
# 1 76.3070 36.2144 41.0573 1.6880 -26.5915 -2.2324
# 2 36.2144 120.6213 83.3774 -5.3449 -2.2821 -7.5610
# 3 41.0573 83.3774 146.4842 -5.1242 -35.6102 -18.3126
# 4 1.6880 -5.3449 -5.1242 44.2790 -4.6687 -1.4221
# 5 -26.5915 -2.2821 -35.6102 -4.6687 49.1731 0.0650
# 6 -2.2324 -7.5610 -18.3126 -1.4221 0.0650 26.8061
#
#
#
# Elastic Compliance Matrix: (Units=1/GPa)
#
#
# Indices 1 2 3 4 5 6 
#
# 1 0.019341 -0.006020 0.000608 -0.000267 0.010594 0.000288
# 2 -0.006020 0.017449 -0.011230 -0.000185 -0.010592 -0.003236
# 3 0.000608 -0.011230 0.017262 0.002219 0.012508 0.008763
# 4 -0.000267 -0.000185 0.002219 0.023301 0.003663 0.002669
# 5 0.010594 -0.010592 0.012508 0.003663 0.034971 0.006549
# 6 0.000288 -0.003236 0.008763 0.002669 0.006549 0.042528
#
#
# Mechanical properties :
#
#
# Convention : Reuss Voigt Hill
#
# Bulk Modulus (GPa) = 48.15362 73.85673 61.00517
# Shear Modulus (GPa) = 25.63300 36.23589 30.93445
#
# Velocity S-wave (km/s) = 3.46993 4.12563 3.81191
# Velocity P-wave (km/s) = 6.21874 7.57540 6.93035
#
# Compressibility (1/GPa) = 0.02076687
#
# Stress axis : x y z
#
# Youngs Moduli (GPa) = 51.70269 57.30876 57.92969
#
# Poissons Ratio (x) = 0.34502 -0.03520
# Poissons Ratio (y) = 0.31127 0.65058
# Poissons Ratio (z) = -0.03142 0.64360
#
# Static dielectric constant tensor:
#      x y z
#    x 4.077830 0.009980 -0.339420 
#    y 0.009980 3.953760 0.074590 
#    z -0.339420 0.074590 4.177880 
# 
# 
# High freq. dielectric constant tensor:
#      x y z
#    x 1.836210 -0.001550 -0.029050 
#    y -0.001550 1.828680 -0.008990 
#    z -0.029050 -0.008990 1.838870 
# 
# From -- ./inp_files/529719.got.cif
#   From: 2010.06.25/outbox.cif.g09.slc.cpg/sg2_265_cif.got.tgz:529719.got - 2010.06.27 13:26:56.
