data_PCOD8018525
_publ_section_title
;
Structure prediction by ZEFSAII (Michael W. Deem and Ramdas Pophale) SiO2 
 PCOD8018525
Probable space group: P -1
;
_chemical_formula_sum "Si O2"
_cell_formula_units_Z 16
_cell_length_a 6.680771
_cell_length_b 16.849595
_cell_length_c 12.406319
_cell_angle_alpha 130.120958
_cell_angle_beta 131.558341
_cell_angle_gamma 75.487958
_cell_volume 759.960980
_symmetry_space_group_name_H-M "P -1"
_symmetry_group_IT_number 2
_symmetry_cell_setting 'triclinic'
loop_
_space_group_symop_operation_xyz
x,y,z
-x,-y,-z
loop_
_atom_site_type_symbol
_atom_site_label
_atom_site_fract_x
_atom_site_fract_y
_atom_site_fract_z
Si Si1 0.322487 0.273123 0.495900
Si Si2 0.836477 0.314409 0.105622
Si Si3 0.034719 0.455852 0.589678
Si Si4 0.506099 0.157563 0.027608
Si Si5 0.930319 0.037664 0.685599
Si Si6 0.906041 0.041900 0.110778
Si Si7 0.455346 0.304853 0.329351
Si Si8 0.481366 0.826020 0.325390
O O1 0.224701 0.376388 0.583964
O O2 0.055788 0.167809 0.301393
O O3 0.484423 0.284963 0.450039
O O4 0.518910 0.255095 0.647128
O O5 0.798741 0.434311 0.188887
O O6 0.736448 0.255331 0.133104
O O7 0.166681 0.330785 0.223817
O O8 0.642699 0.242883 0.882834
O O9 0.000000 0.500000 0.500000
O O10 0.727389 0.404954 0.486026
O O11 0.449027 0.201259 0.162953
O O12 0.590996 0.047530 0.984787
O O13 0.230669 0.111629 0.809701
O O14 0.029201 0.035311 0.843312
O O15 0.792158 0.912789 0.485495
O O16 0.710661 0.101923 0.642882
O O17 0.000000 0.000000 0.000000
#
# Coordination Sequence:
#
# PCOD8018525 Si02
#       8
#     2   2   2   2   2   2   2   2
#     4  11  24  43  65  98 139 172 215 276 323 397
#     4  12  24  42  71  96 134 175 218 277 326 397
#     4  12  23  42  70 105 126 167 227 274 332 385
#     4  12  22  40  69 107 127 168 231 268 332 384
#     4  10  22  40  67  89 135 180 215 269 322 397
#     4  11  20  39  66 101 133 166 223 278 324 380
#     4  12  21  42  72  96 132 168 217 279 326 374
#     4  10  24  46  61  96 139 178 220 261 336 396
#
# _framework density 21.053711
#
# number of rings (size 3 to 8) (size 9 to 14) (size 15 to 20)
#    0.000    0.750    6.250    2.250    0.000    1.000 
#    2.250    0.625    0.000    0.000    0.000    0.000 
#    0.000    0.000    0.000    0.000    0.000    0.000 
#
# Total GULP energy -198260.354644 kJ/mol
# GULP energy per Si atom -12391.272165 kJ/mol
# Density = 2.100579 g / cm^3
# Si number density = 21.053711 Si / 1000 Ang^3
#
#
#
# Elastic Constant Matrix: (Units=GPa)
#
#
# Indices 1 2 3 4 5 6 
#
# 1 101.9371 48.2266 38.0910 2.8848 1.4982 -1.7516
# 2 48.2266 147.1066 47.9967 -1.9765 -4.3025 -13.1873
# 3 38.0910 47.9967 97.9049 10.3555 -5.1981 0.4702
# 4 2.8848 -1.9765 10.3555 34.3973 0.7171 -0.5192
# 5 1.4982 -4.3025 -5.1981 0.7171 37.2243 7.2567
# 6 -1.7516 -13.1873 0.4702 -0.5192 7.2567 32.3354
#
#
#
# Elastic Compliance Matrix: (Units=1/GPa)
#
#
# Indices 1 2 3 4 5 6 
#
# 1 0.012561 -0.003057 -0.003438 -0.000171 -0.001291 -0.000229
# 2 -0.003057 0.009339 -0.003616 0.001940 -0.000069 0.003743
# 3 -0.003438 -0.003616 0.013896 -0.004186 0.002215 -0.002427
# 4 -0.000171 0.001940 -0.004186 0.030508 -0.001256 0.001614
# 5 -0.001291 -0.000069 0.002215 -0.001256 0.028519 -0.006551
# 6 -0.000229 0.003743 -0.002427 0.001614 -0.006551 0.033971
#
#
# Mechanical properties :
#
#
# Convention : Reuss Voigt Hill
#
# Bulk Modulus (GPa) = 64.20515 68.39746 66.30130
# Shear Modulus (GPa) = 32.42405 34.96703 33.69554
#
# Velocity S-wave (km/s) = 3.92862 4.07977 4.00491
# Velocity P-wave (km/s) = 7.15128 7.39935 7.27637
#
# Compressibility (1/GPa) = 0.01557507
#
# Stress axis : x y z
#
# Youngs Moduli (GPa) = 79.61428 107.07536 71.96253
#
# Poissons Ratio (x) = 0.32731 0.24738
# Poissons Ratio (y) = 0.24336 0.26021
# Poissons Ratio (z) = 0.27369 0.38718
#
# Static dielectric constant tensor:
#      x y z
#    x 3.854600 0.044310 0.186940 
#    y 0.044310 4.497480 0.539330 
#    z 0.186940 0.539330 4.314610 
# 
# 
# High freq. dielectric constant tensor:
#      x y z
#    x 1.820460 0.000850 0.007340 
#    y 0.000850 1.830720 0.011700 
#    z 0.007340 0.011700 1.829090 
# 
# From -- ./inp_files/123555.got.cif
#   From: 2010.06.25/outbox.cif.g09.slc.cpg/sg2_62_cif.got.tgz:123555.got - 2010.06.27 13:26:56.
