data_PCOD8018925
_publ_section_title
;
Structure prediction by ZEFSAII (Michael W. Deem and Ramdas Pophale) SiO2 
 PCOD8018925
Probable space group: P -1
;
_chemical_formula_sum "Si O2"
_cell_formula_units_Z 16
_cell_length_a 12.377650
_cell_length_b 9.428569
_cell_length_c 15.453302
_cell_angle_alpha 48.167283
_cell_angle_beta 142.221529
_cell_angle_gamma 129.201388
_cell_volume 801.161223
_symmetry_space_group_name_H-M "P -1"
_symmetry_group_IT_number 2
_symmetry_cell_setting 'triclinic'
loop_
_space_group_symop_operation_xyz
x,y,z
-x,-y,-z
loop_
_atom_site_type_symbol
_atom_site_label
_atom_site_fract_x
_atom_site_fract_y
_atom_site_fract_z
Si Si1 0.207631 0.513493 0.604416
Si Si2 0.519232 0.049067 0.893289
Si Si3 0.011730 0.054154 0.886365
Si Si4 0.097081 0.724816 0.957527
Si Si5 0.697518 0.067136 0.558607
Si Si6 0.637929 0.675361 0.063012
Si Si7 0.087573 0.105540 0.373414
Si Si8 0.187589 0.218591 0.572784
O O1 0.308473 0.738443 0.577200
O O2 0.305526 0.394469 0.780356
O O3 0.236628 0.430181 0.561591
O O4 0.000000 0.500000 0.500000
O O5 0.342805 0.100089 0.722334
O O6 0.686394 0.237776 0.910014
O O7 0.500000 0.000000 0.000000
O O8 0.544038 0.856357 0.938030
O O9 0.176665 0.244396 0.904613
O O10 0.835764 0.110014 0.709891
O O11 0.030640 0.857430 0.931916
O O12 0.000000 0.000000 0.000000
O O13 0.055362 0.797558 0.806452
O O14 0.000000 0.500000 0.000000
O O15 0.500000 0.000000 0.500000
O O16 0.754949 0.920687 0.583699
O O17 0.500000 0.500000 0.000000
O O18 0.159014 0.249745 0.440028
O O19 0.988164 0.898878 0.437342
#
# Coordination Sequence:
#
# PCOD8018925 Si02
#       8
#     2   2   2   2   2   2   2   2
#     4  12  22  43  65  93 129 167 218 264 323 380
#     4  11  21  41  62  93 129 159 209 262 316 369
#     4  10  23  43  60  90 132 164 207 266 316 371
#     4  10  22  41  63  89 129 167 201 258 319 389
#     4  11  25  42  64  91 132 172 208 265 324 386
#     4  11  25  40  66  98 126 166 218 267 316 385
#     4  10  22  41  62  96 127 163 213 260 330 370
#     4  11  22  39  69  95 127 164 211 275 312 379
#
# _framework density 19.971011000000001
#
# number of rings (size 3 to 8) (size 9 to 14) (size 15 to 20)
#    0.000    1.250    5.000    0.750    3.500    5.000 
#    0.000    1.250    0.000    0.000    0.000    0.000 
#    0.000    0.000    0.000    0.000    0.000    0.000 
#
# Total GULP energy -198354.702363 kJ/mol
# GULP energy per Si atom -12397.168898 kJ/mol
# Density = 1.992556 g / cm^3
# Si number density = 19.971011 Si / 1000 Ang^3
#
#
#
# Elastic Constant Matrix: (Units=GPa)
#
#
# Indices 1 2 3 4 5 6 
#
# 1 113.6953 46.0023 50.5403 16.6514 -2.1479 6.8298
# 2 46.0023 127.4620 25.4558 10.3282 0.8980 6.7780
# 3 50.5403 25.4558 85.7423 13.6671 -4.4622 -11.9947
# 4 16.6514 10.3282 13.6671 31.9562 -0.4070 -4.4084
# 5 -2.1479 0.8980 -4.4622 -0.4070 44.9312 7.3463
# 6 6.8298 6.7780 -11.9947 -4.4084 7.3463 34.9647
#
#
#
# Elastic Compliance Matrix: (Units=1/GPa)
#
#
# Indices 1 2 3 4 5 6 
#
# 1 0.014360 -0.003044 -0.007655 -0.003976 0.000854 -0.005522
# 2 -0.003044 0.009340 -0.001028 -0.001228 -0.000169 -0.001688
# 3 -0.007655 -0.001028 0.017907 -0.002299 0.000184 0.007509
# 4 -0.003976 -0.001228 -0.002299 0.035406 -0.000870 0.004873
# 5 0.000854 -0.000169 0.000184 -0.000870 0.023135 -0.005041
# 6 -0.005522 -0.001688 0.007509 0.004873 -0.005041 0.034255
#
#
# Mechanical properties :
#
#
# Convention : Reuss Voigt Hill
#
# Bulk Modulus (GPa) = 55.08767 63.43293 59.26030
# Shear Modulus (GPa) = 30.50504 36.03048 33.26776
#
# Velocity S-wave (km/s) = 3.91252 4.25212 4.08585
# Velocity P-wave (km/s) = 6.93211 7.47923 7.21086
#
# Compressibility (1/GPa) = 0.01815288
#
# Stress axis : x y z
#
# Youngs Moduli (GPa) = 69.63783 107.06851 55.84522
#
# Poissons Ratio (x) = 0.32593 0.42749
# Poissons Ratio (y) = 0.21199 0.05739
# Poissons Ratio (z) = 0.53307 0.11004
#
# Static dielectric constant tensor:
#      x y z
#    x 2.969160 0.489010 0.946310 
#    y 0.489010 2.654330 -0.491440 
#    z 0.946310 -0.491440 3.170250 
# 
# 
# High freq. dielectric constant tensor:
#      x y z
#    x 1.782040 -0.004910 0.001300 
#    y -0.004910 1.772070 0.004130 
#    z 0.001300 0.004130 1.785960 
# 
# From -- ./inp_files/187831.got.cif
#   From: 2010.06.25/outbox.cif.g09.slc.cpg/sg2_94_cif.got.tgz:187831.got - 2010.06.27 13:26:56.
