data_PCOD8018214
_publ_section_title
;
Structure prediction by ZEFSAII (Michael W. Deem and Ramdas Pophale) SiO2 
 PCOD8018214
Probable space group: P -1
;
_chemical_formula_sum "Si O2"
_cell_formula_units_Z 14
_cell_length_a 12.602269
_cell_length_b 11.026235
_cell_length_c 19.677151
_cell_angle_alpha 156.938487
_cell_angle_beta 142.757394
_cell_angle_gamma 47.859606
_cell_volume 625.994759
_symmetry_space_group_name_H-M "P -1"
_symmetry_group_IT_number 2
_symmetry_cell_setting 'triclinic'
loop_
_space_group_symop_operation_xyz
x,y,z
-x,-y,-z
loop_
_atom_site_type_symbol
_atom_site_label
_atom_site_fract_x
_atom_site_fract_y
_atom_site_fract_z
Si Si1 0.423979 0.143648 0.130320
Si Si2 0.381211 0.312487 0.933709
Si Si3 0.263157 0.216644 0.681360
Si Si4 0.115033 0.550882 0.671048
Si Si5 0.195230 0.591856 0.239177
Si Si6 0.743261 0.615023 0.471708
Si Si7 0.214166 0.695081 0.147298
O O1 0.334114 0.414479 0.255276
O O2 0.565883 0.312732 0.230803
O O3 0.528224 0.977591 0.152519
O O4 0.245123 0.881523 0.877816
O O5 0.236713 0.189984 0.735815
O O6 0.524406 0.638151 0.150941
O O7 0.286932 0.418591 0.005831
O O8 0.156937 0.464850 0.724735
O O9 0.185127 0.878113 0.431343
O O10 0.173264 0.305271 0.521013
O O11 0.903951 0.534370 0.556163
O O12 0.266700 0.691164 0.250984
O O13 0.995857 0.360253 0.007249
O O14 0.695384 0.937427 0.641249
#
# Coordination Sequence:
#
# PCOD8018214 Si02
#       7
#     2   2   2   2   2   2   2
#     4  11  24  39  64  98 127 169 209 272 319 376
#     4  10  25  42  66  92 130 165 227 251 323 388
#     4  10  22  45  65  89 129 179 204 268 317 387
#     4  10  22  40  63  97 129 168 209 270 317 383
#     4  11  24  40  67  93 135 164 217 264 328 365
#     4  11  22  38  65  97 131 162 214 268 321 378
#     4  11  24  41  62 102 127 168 214 270 310 398
#
# _framework density 22.364405999999999
#
# number of rings (size 3 to 8) (size 9 to 14) (size 15 to 20)
#    0.000    1.429    2.857    1.286    8.000    2.286 
#    0.000    2.143    0.000    0.000    0.000    0.000 
#    0.000    0.000    0.000    0.000    0.000    0.000 
#
# Total GULP energy -173472.750800 kJ/mol
# GULP energy per Si atom -12390.910771 kJ/mol
# Density = 2.231350 g / cm^3
# Si number density = 22.364406 Si / 1000 Ang^3
#
#
#
# Elastic Constant Matrix: (Units=GPa)
#
#
# Indices 1 2 3 4 5 6 
#
# 1 51.3451 25.0391 27.4617 4.7546 -13.2204 -1.6037
# 2 25.0391 110.5277 42.4366 3.7471 -5.1294 -10.0321
# 3 27.4617 42.4366 97.4667 5.9373 -9.6059 -1.7815
# 4 4.7546 3.7471 5.9373 32.7221 0.5392 -4.2275
# 5 -13.2204 -5.1294 -9.6059 0.5392 31.8730 -8.4961
# 6 -1.6037 -10.0321 -1.7815 -4.2275 -8.4961 27.3216
#
#
#
# Elastic Compliance Matrix: (Units=1/GPa)
#
#
# Indices 1 2 3 4 5 6 
#
# 1 0.026532 -0.003372 -0.004851 -0.002405 0.009751 0.002663
# 2 -0.003372 0.011744 -0.004082 0.000399 0.000323 0.004010
# 3 -0.004851 -0.004082 0.013601 -0.001410 0.001261 -0.000723
# 4 -0.002405 0.000399 -0.001410 0.031727 -0.000665 0.004616
# 5 0.009751 0.000323 0.001261 -0.000665 0.039299 0.012891
# 6 0.002663 0.004010 -0.000723 0.004616 0.012891 0.042906
#
#
# Mechanical properties :
#
#
# Convention : Reuss Voigt Hill
#
# Bulk Modulus (GPa) = 36.67594 49.91271 43.29432
# Shear Modulus (GPa) = 25.06156 29.34346 27.20251
#
# Velocity S-wave (km/s) = 3.35117 3.62617 3.49138
# Velocity P-wave (km/s) = 5.60434 6.31653 5.97106
#
# Compressibility (1/GPa) = 0.02726583
#
# Stress axis : x y z
#
# Youngs Moduli (GPa) = 37.69087 85.14695 73.52335
#
# Poissons Ratio (x) = 0.28714 0.35666
# Poissons Ratio (y) = 0.12710 0.30015
# Poissons Ratio (z) = 0.18284 0.34761
#
# Static dielectric constant tensor:
#      x y z
#    x 3.695960 -0.056960 0.027050 
#    y -0.056960 4.080740 -0.010290 
#    z 0.027050 -0.010290 4.109860 
# 
# 
# High freq. dielectric constant tensor:
#      x y z
#    x 1.841930 -0.013670 0.009690 
#    y -0.013670 1.889630 0.001080 
#    z 0.009690 0.001080 1.889860 
# 
# From -- ./inp_files/172488.got.cif
#   From: 2010.06.25/outbox.cif.g09.slc.cpg/sg2_87_cif.got.tgz:172488.got - 2010.06.27 13:26:56.
