data_PCOD8018003
_publ_section_title
;
Structure prediction by ZEFSAII (Michael W. Deem and Ramdas Pophale) SiO2 
 PCOD8018003
Probable space group: P -1
;
_chemical_formula_sum "Si O2"
_cell_formula_units_Z 14
_cell_length_a 8.487966
_cell_length_b 12.616873
_cell_length_c 7.563268
_cell_angle_alpha 91.047777
_cell_angle_beta 95.418869
_cell_angle_gamma 61.520107
_cell_volume 708.431516
_symmetry_space_group_name_H-M "P -1"
_symmetry_group_IT_number 2
_symmetry_cell_setting 'triclinic'
loop_
_space_group_symop_operation_xyz
x,y,z
-x,-y,-z
loop_
_atom_site_type_symbol
_atom_site_label
_atom_site_fract_x
_atom_site_fract_y
_atom_site_fract_z
Si Si1 0.372284 0.114409 0.184789
Si Si2 0.206954 0.767757 0.597608
Si Si3 0.584448 0.731669 0.520598
Si Si4 0.636508 0.848617 0.206743
Si Si5 0.009438 0.111565 0.087288
Si Si6 0.705777 0.467587 0.522769
Si Si7 0.948094 0.255651 0.749986
O O1 0.323615 0.210521 0.340353
O O2 0.213584 0.079005 0.149315
O O3 0.554993 0.991370 0.243314
O O4 0.397980 0.169256 0.003574
O O5 0.405327 0.752986 0.602299
O O6 0.209930 0.637081 0.624121
O O7 0.107063 0.856475 0.747797
O O8 0.104980 0.819309 0.400563
O O9 0.543096 0.792933 0.324573
O O10 0.721894 0.588639 0.501576
O O11 0.847131 0.778278 0.269666
O O12 0.922186 0.222679 0.944762
O O13 0.000000 0.000000 0.000000
O O14 0.500000 0.500000 0.500000
O O15 0.812446 0.399827 0.712835
#
# Coordination Sequence:
#
# PCOD8018003 Si02
#       7
#     2   2   2   2   2   2   2
#     4  10  24  40  57  91 127 150 208 243 301 358
#     4   9  22  39  61  90 119 155 203 244 294 351
#     4  11  21  39  66  87 120 164 196 247 303 351
#     4  10  22  40  59  88 125 160 192 255 296 359
#     4  11  24  40  63  87 123 162 198 249 298 360
#     4   8  19  42  60  89 122 152 206 246 289 359
#     4   9  21  42  61  88 124 153 206 243 296 359
#
# _framework density 19.761965
#
# number of rings (size 3 to 8) (size 9 to 14) (size 15 to 20)
#    0.857    1.429    0.000    1.286    8.000    1.143 
#    2.571    2.857    0.000    0.000    0.000    0.000 
#    0.000    0.000    0.000    0.000    0.000    0.000 
#
# Total GULP energy -173442.261547 kJ/mol
# GULP energy per Si atom -12388.732968 kJ/mol
# Density = 1.971699 g / cm^3
# Si number density = 19.761965 Si / 1000 Ang^3
#
#
#
# Elastic Constant Matrix: (Units=GPa)
#
#
# Indices 1 2 3 4 5 6 
#
# 1 65.4735 28.2764 29.9636 -6.6703 4.3029 -3.8499
# 2 28.2764 85.4474 27.0394 -13.3133 9.4573 4.3309
# 3 29.9636 27.0394 85.8428 -10.6131 -4.1901 1.8508
# 4 -6.6703 -13.3133 -10.6131 35.2338 -4.3459 6.1953
# 5 4.3029 9.4573 -4.1901 -4.3459 29.9202 -3.6829
# 6 -3.8499 4.3309 1.8508 6.1953 -3.6829 31.8358
#
#
#
# Elastic Compliance Matrix: (Units=1/GPa)
#
#
# Indices 1 2 3 4 5 6 
#
# 1 0.020310 -0.004956 -0.005762 -0.000581 -0.001831 0.003366
# 2 -0.004956 0.015578 -0.002786 0.004244 -0.004465 -0.003899
# 3 -0.005762 -0.002786 0.015160 0.003167 0.004128 -0.001338
# 4 -0.000581 0.004244 0.003167 0.032399 0.003057 -0.006783
# 5 -0.001831 -0.004465 0.004128 0.003057 0.036585 0.003783
# 6 0.003366 -0.003899 -0.001338 -0.006783 0.003783 0.034184
#
#
# Mechanical properties :
#
#
# Convention : Reuss Voigt Hill
#
# Bulk Modulus (GPa) = 41.59863 45.25808 43.42835
# Shear Modulus (GPa) = 26.42199 29.49693 27.95946
#
# Velocity S-wave (km/s) = 3.66048 3.86762 3.76548
# Velocity P-wave (km/s) = 6.24188 6.54950 6.39754
#
# Compressibility (1/GPa) = 0.02403925
#
# Stress axis : x y z
#
# Youngs Moduli (GPa) = 49.23737 64.19395 65.96359
#
# Poissons Ratio (x) = 0.31815 0.38007
# Poissons Ratio (y) = 0.24403 0.18378
# Poissons Ratio (z) = 0.28370 0.17885
#
# Static dielectric constant tensor:
#      x y z
#    x 3.479530 -0.041800 0.076500 
#    y -0.041800 3.804510 -0.057880 
#    z 0.076500 -0.057880 3.621720 
# 
# 
# High freq. dielectric constant tensor:
#      x y z
#    x 1.766700 -0.007900 0.008280 
#    y -0.007900 1.763370 -0.004870 
#    z 0.008280 -0.004870 1.764030 
# 
# From -- ./inp_files/169531.got.cif
#   From: 2010.06.25/outbox.cif.g09.slc.cpg/sg2_85_cif.got.tgz:169531.got - 2010.06.27 13:26:56.
