data_PCOD8018449
_publ_section_title
;
Structure prediction by ZEFSAII (Michael W. Deem and Ramdas Pophale) SiO2 
 PCOD8018449
Probable space group: P -1
;
_chemical_formula_sum "Si O2"
_cell_formula_units_Z 16
_cell_length_a 9.032795
_cell_length_b 18.298976
_cell_length_c 11.969957
_cell_angle_alpha 37.611785
_cell_angle_beta 72.941611
_cell_angle_gamma 46.980561
_cell_volume 735.102104
_symmetry_space_group_name_H-M "P -1"
_symmetry_group_IT_number 2
_symmetry_cell_setting 'triclinic'
loop_
_space_group_symop_operation_xyz
x,y,z
-x,-y,-z
loop_
_atom_site_type_symbol
_atom_site_label
_atom_site_fract_x
_atom_site_fract_y
_atom_site_fract_z
Si Si1 0.291652 0.954138 0.986507
Si Si2 0.972323 0.034273 0.152289
Si Si3 0.814222 0.362431 0.897107
Si Si4 0.866205 0.626136 0.268469
Si Si5 0.208704 0.525077 0.989545
Si Si6 0.967817 0.693640 0.503001
Si Si7 0.715060 0.787254 0.669445
Si Si8 0.300201 0.641440 0.625682
O O1 0.177325 0.154821 0.748961
O O2 0.173606 0.969892 0.103792
O O3 0.577161 0.796799 0.135829
O O4 0.237705 0.903900 0.950543
O O5 0.101472 0.864298 0.413154
O O6 0.858420 0.196153 0.067140
O O7 0.565379 0.541828 0.668003
O O8 0.043183 0.295476 0.876095
O O9 0.766973 0.419644 0.967023
O O10 0.000000 0.500000 0.500000
O O11 0.961257 0.484557 0.320187
O O12 0.315557 0.548045 0.843793
O O13 0.924729 0.666365 0.862685
O O14 0.357219 0.309747 0.216005
O O15 0.802060 0.795328 0.525954
O O16 0.220115 0.614045 0.566880
O O17 0.500000 0.000000 0.500000
#
# Coordination Sequence:
#
# PCOD8018449 Si02
#       8
#     2   2   2   2   2   2   2   2
#     4  10  23  43  67  91 130 170 218 265 308 391
#     4  10  23  43  65  95 125 175 221 257 319 380
#     4  12  24  39  64  95 133 167 209 273 323 377
#     4  12  25  40  64  96 131 168 209 270 329 374
#     4  10  23  41  61  97 129 165 217 263 319 383
#     4  10  22  42  66  92 122 172 217 258 321 384
#     4  10  22  40  66  94 127 167 213 264 320 383
#     4  10  23  42  65  88 131 172 216 264 313 383
#
# _framework density 21.765684
#
# number of rings (size 3 to 8) (size 9 to 14) (size 15 to 20)
#    0.000    1.500    1.250    2.625    1.750    7.500 
#    0.000    5.000    0.000    0.000    0.000    0.000 
#    0.000    0.000    0.000    0.000    0.000    0.000 
#
# Total GULP energy -198392.440844 kJ/mol
# GULP energy per Si atom -12399.527553 kJ/mol
# Density = 2.171614 g / cm^3
# Si number density = 21.765684 Si / 1000 Ang^3
#
#
#
# Elastic Constant Matrix: (Units=GPa)
#
#
# Indices 1 2 3 4 5 6 
#
# 1 97.3822 25.4525 52.4499 -11.5672 13.6039 -0.1707
# 2 25.4525 63.1025 31.7243 -11.8130 8.1346 8.9432
# 3 52.4499 31.7243 117.0237 -7.3131 2.7062 0.9106
# 4 -11.5672 -11.8130 -7.3131 30.6643 -4.0196 -8.6607
# 5 13.6039 8.1346 2.7062 -4.0196 40.9814 -11.8006
# 6 -0.1707 8.9432 0.9106 -8.6607 -11.8006 39.9162
#
#
#
# Elastic Compliance Matrix: (Units=1/GPa)
#
#
# Indices 1 2 3 4 5 6 
#
# 1 0.014816 -0.002031 -0.005818 0.002972 -0.003789 0.000176
# 2 -0.002031 0.020891 -0.004349 0.004318 -0.004168 -0.004885
# 3 -0.005818 -0.004349 0.012250 -0.000275 0.002333 0.001300
# 4 0.002972 0.004318 -0.000275 0.038366 0.004439 0.008688
# 5 -0.003789 -0.004168 0.002333 0.004439 0.029834 0.010648
# 6 0.000176 -0.004885 0.001300 0.008688 0.010648 0.031151
#
#
# Mechanical properties :
#
#
# Convention : Reuss Voigt Hill
#
# Bulk Modulus (GPa) = 42.44197 55.19579 48.81888
# Shear Modulus (GPa) = 27.84628 33.50451 30.67540
#
# Velocity S-wave (km/s) = 3.58070 3.92768 3.75820
# Velocity P-wave (km/s) = 6.05286 6.78108 6.42729
#
# Compressibility (1/GPa) = 0.02356158
#
# Stress axis : x y z
#
# Youngs Moduli (GPa) = 67.49583 47.86755 81.62987
#
# Poissons Ratio (x) = 0.09724 0.47490
# Poissons Ratio (y) = 0.13711 0.35498
# Poissons Ratio (z) = 0.39267 0.20816
#
# Static dielectric constant tensor:
#      x y z
#    x 4.320790 0.095970 -0.073810 
#    y 0.095970 3.673500 -0.023110 
#    z -0.073810 -0.023110 3.990240 
# 
# 
# High freq. dielectric constant tensor:
#      x y z
#    x 1.869580 0.004850 -0.005400 
#    y 0.004850 1.842580 0.000010 
#    z -0.005400 0.000010 1.860150 
# 
# From -- ./inp_files/113208.got.cif
#   From: 2010.06.25/outbox.cif.g09.slc.cpg/sg2_57_cif.got.tgz:113208.got - 2010.06.27 13:26:56.
