data_PCOD8018816
_publ_section_title
;
Structure prediction by ZEFSAII (Michael W. Deem and Ramdas Pophale) SiO2 
 PCOD8018816
Probable space group: P -1
;
_chemical_formula_sum "Si O2"
_cell_formula_units_Z 16
_cell_length_a 12.631858
_cell_length_b 15.280017
_cell_length_c 8.151219
_cell_angle_alpha 65.452565
_cell_angle_beta 92.276649
_cell_angle_gamma 38.820031
_cell_volume 691.331739
_symmetry_space_group_name_H-M "P -1"
_symmetry_group_IT_number 2
_symmetry_cell_setting 'triclinic'
loop_
_space_group_symop_operation_xyz
x,y,z
-x,-y,-z
loop_
_atom_site_type_symbol
_atom_site_label
_atom_site_fract_x
_atom_site_fract_y
_atom_site_fract_z
Si Si1 0.375838 0.475299 0.230754
Si Si2 0.011212 0.029485 0.796082
Si Si3 0.469884 0.125369 0.043307
Si Si4 0.337173 0.400493 0.604964
Si Si5 0.359388 0.855605 0.743808
Si Si6 0.980708 0.164593 0.249270
Si Si7 0.881590 0.690280 0.287933
Si Si8 0.341760 0.574245 0.682004
O O1 0.453957 0.349200 0.488981
O O2 0.493211 0.341451 0.179890
O O3 0.436003 0.539756 0.215312
O O4 0.110746 0.690480 0.011754
O O5 0.237893 0.901457 0.855739
O O6 0.952330 0.992755 0.691927
O O7 0.816966 0.260844 0.598898
O O8 0.000000 0.000000 0.000000
O O9 0.437829 0.216767 0.803778
O O10 0.250666 0.231350 0.951367
O O11 0.484649 0.181050 0.159827
O O12 0.689580 0.886375 0.238785
O O13 0.381686 0.431526 0.744218
O O14 0.081831 0.605947 0.368443
O O15 0.186707 0.040288 0.461180
O O16 0.771742 0.320725 0.232698
O O17 0.000000 0.500000 0.500000
#
# Coordination Sequence:
#
# PCOD8018816 Si02
#       8
#     2   2   2   2   2   2   2   2
#     4  12  24  38  59  90 134 177 212 255 304 374
#     4  11  22  36  58  83 122 171 214 265 299 356
#     4  10  22  40  73  93 118 164 206 264 327 381
#     4  11  24  38  63  98 127 162 216 268 309 368
#     4  11  23  40  59  89 127 167 213 253 319 374
#     4  11  22  39  56  81 130 173 210 264 300 354
#     4   9  20  44  68  97 122 149 207 271 326 379
#     4  11  21  40  57  88 131 175 219 250 305 372
#
# _framework density 23.143737999999999
#
# number of rings (size 3 to 8) (size 9 to 14) (size 15 to 20)
#    0.000    1.250    2.500    4.500    3.500    2.000 
#    0.000    0.625    0.000    7.500    0.000    0.000 
#    0.000    0.000    0.000    0.000    0.000    0.000 
#
# Total GULP energy -198212.810112 kJ/mol
# GULP energy per Si atom -12388.300632 kJ/mol
# Density = 2.309106 g / cm^3
# Si number density = 23.143738 Si / 1000 Ang^3
#
#
#
# Elastic Constant Matrix: (Units=GPa)
#
#
# Indices 1 2 3 4 5 6 
#
# 1 61.5728 35.1432 30.4189 8.7015 27.6456 21.7824
# 2 35.1432 84.1554 25.6454 0.0596 9.3837 19.6202
# 3 30.4189 25.6454 101.7363 -13.8366 13.3694 15.4726
# 4 8.7015 0.0596 -13.8366 41.6579 8.5685 2.1314
# 5 27.6456 9.3837 13.3694 8.5685 48.7086 3.8664
# 6 21.7824 19.6202 15.4726 2.1314 3.8664 24.9696
#
#
#
# Elastic Compliance Matrix: (Units=1/GPa)
#
#
# Indices 1 2 3 4 5 6 
#
# 1 0.039138 -0.007884 -0.004908 -0.005242 -0.016689 -0.021874
# 2 -0.007884 0.016676 -0.001006 0.001225 0.001798 -0.005985
# 3 -0.004908 -0.001006 0.013015 0.005795 -0.001352 -0.003279
# 4 -0.005242 0.001225 0.005795 0.027858 -0.003609 -0.001800
# 5 -0.016689 0.001798 -0.001352 -0.003609 0.029895 0.009663
# 6 -0.021874 -0.005985 -0.003279 -0.001800 0.009663 0.064523
#
#
# Mechanical properties :
#
#
# Convention : Reuss Voigt Hill
#
# Bulk Modulus (GPa) = 24.25195 47.76440 36.00817
# Shear Modulus (GPa) = 21.51066 33.48435 27.49751
#
# Velocity S-wave (km/s) = 3.05198 3.80781 3.45065
# Velocity P-wave (km/s) = 4.78759 6.32578 5.60966
#
# Compressibility (1/GPa) = 0.04123380
#
# Stress axis : x y z
#
# Youngs Moduli (GPa) = 25.55079 59.96766 76.83608
#
# Poissons Ratio (x) = 0.47278 0.37709
# Poissons Ratio (y) = 0.20144 0.07727
# Poissons Ratio (z) = 0.12540 0.06030
#
# Static dielectric constant tensor:
#      x y z
#    x 4.205710 0.231070 0.274060 
#    y 0.231070 4.040230 -0.190860 
#    z 0.274060 -0.190860 4.651280 
# 
# 
# High freq. dielectric constant tensor:
#      x y z
#    x 1.879180 0.027550 0.016500 
#    y 0.027550 1.901020 -0.014610 
#    z 0.016500 -0.014610 1.949500 
# 
# From -- ./inp_files/313184.got.cif
#   From: 2010.06.25/outbox.cif.g09.slc.cpg/sg2_157_cif.got.tgz:313184.got - 2010.06.27 13:26:56.
