data_PCOD8018555
_publ_section_title
;
Structure prediction by ZEFSAII (Michael W. Deem and Ramdas Pophale) SiO2 
 PCOD8018555
Probable space group: P -1
;
_chemical_formula_sum "Si O2"
_cell_formula_units_Z 14
_cell_length_a 18.386745
_cell_length_b 11.326564
_cell_length_c 9.770138
_cell_angle_alpha 123.196759
_cell_angle_beta 28.788990
_cell_angle_gamma 137.511823
_cell_volume 630.614429
_symmetry_space_group_name_H-M "P -1"
_symmetry_group_IT_number 2
_symmetry_cell_setting 'triclinic'
loop_
_space_group_symop_operation_xyz
x,y,z
-x,-y,-z
loop_
_atom_site_type_symbol
_atom_site_label
_atom_site_fract_x
_atom_site_fract_y
_atom_site_fract_z
Si Si1 0.628243 0.390307 0.388526
Si Si2 0.212077 0.663746 0.401205
Si Si3 0.969829 0.830083 0.505815
Si Si4 0.190605 0.172535 0.961230
Si Si5 0.353914 0.540389 0.293242
Si Si6 0.008795 0.216794 0.040984
Si Si7 0.194842 0.729445 0.176884
O O1 0.416086 0.305629 0.623311
O O2 0.606251 0.351795 0.562940
O O3 0.785556 0.608857 0.250021
O O4 0.694132 0.289326 0.136550
O O5 0.373422 0.667549 0.219438
O O6 0.300862 0.772383 0.177784
O O7 0.026124 0.453446 0.548811
O O8 0.149412 0.754527 0.660001
O O9 0.865814 0.658805 0.463780
O O10 0.174179 0.880598 0.255975
O O11 0.816090 0.757039 0.836841
O O12 0.000000 0.000000 0.500000
O O13 0.054909 0.181205 0.090375
O O14 0.095485 0.959741 0.996334
O O15 0.500000 0.500000 0.000000
#
# Coordination Sequence:
#
# PCOD8018555 Si02
#       7
#     2   2   2   2   2   2   2
#     4  11  23  40  66  97 126 169 216 268 317 387
#     4   9  19  39  65  86 129 172 209 266 317 382
#     4  11  22  40  65  89 132 171 210 268 326 381
#     4  11  22  40  65  97 130 166 217 267 320 381
#     4  11  23  39  61  93 127 165 213 263 325 377
#     4  10  22  40  67  94 129 170 215 266 323 380
#     4   9  20  39  66  93 121 173 219 256 326 380
#
# _framework density 22.200571
#
# number of rings (size 3 to 8) (size 9 to 14) (size 15 to 20)
#    0.000    1.714    2.857    1.286    2.000    7.429 
#    2.571    2.143    0.000    0.000    0.000    0.000 
#    0.000    0.000    0.000    0.000    0.000    0.000 
#
# Total GULP energy -173541.420319 kJ/mol
# GULP energy per Si atom -12395.815737 kJ/mol
# Density = 2.215004 g / cm^3
# Si number density = 22.200571 Si / 1000 Ang^3
#
#
#
# Elastic Constant Matrix: (Units=GPa)
#
#
# Indices 1 2 3 4 5 6 
#
# 1 124.8287 22.3376 47.9172 19.4418 -14.2427 -20.5067
# 2 22.3376 68.2823 26.4090 7.2277 -11.4492 -7.1021
# 3 47.9172 26.4090 118.5800 14.8335 -8.7013 -7.2836
# 4 19.4418 7.2277 14.8335 25.1892 -2.2575 -7.6955
# 5 -14.2427 -11.4492 -8.7013 -2.2575 32.8344 10.8357
# 6 -20.5067 -7.1021 -7.2836 -7.6955 10.8357 32.7425
#
#
#
# Elastic Compliance Matrix: (Units=1/GPa)
#
#
# Indices 1 2 3 4 5 6 
#
# 1 0.011124 -0.001119 -0.003238 -0.004897 0.001840 0.004244
# 2 -0.001119 0.017072 -0.002761 -0.001865 0.004450 0.000477
# 3 -0.003238 -0.002761 0.010749 -0.003359 0.000661 -0.001244
# 4 -0.004897 -0.001865 -0.003359 0.048199 -0.003028 0.008112
# 5 0.001840 0.004450 0.000661 -0.003028 0.036215 -0.010432
# 6 0.004244 0.000477 -0.001244 0.008112 -0.010432 0.038385
#
#
# Mechanical properties :
#
#
# Convention : Reuss Voigt Hill
#
# Bulk Modulus (GPa) = 40.46926 56.11318 48.29122
# Shear Modulus (GPa) = 27.14215 32.48836 29.81526
#
# Velocity S-wave (km/s) = 3.50035 3.82959 3.66867
# Velocity P-wave (km/s) = 5.88261 6.69961 6.30436
#
# Compressibility (1/GPa) = 0.02471011
#
# Stress axis : x y z
#
# Youngs Moduli (GPa) = 89.89777 58.57515 93.03476
#
# Poissons Ratio (x) = 0.06552 0.30122
# Poissons Ratio (y) = 0.10055 0.25687
# Poissons Ratio (z) = 0.29106 0.16173
#
# Static dielectric constant tensor:
#      x y z
#    x 4.334100 -0.071620 -0.076170 
#    y -0.071620 3.917630 0.213120 
#    z -0.076170 0.213120 3.773500 
# 
# 
# High freq. dielectric constant tensor:
#      x y z
#    x 1.883450 -0.002130 -0.003260 
#    y -0.002130 1.855210 0.022990 
#    z -0.003260 0.022990 1.863300 
# 
# From -- ./inp_files/180032.got.cif
#   From: 2010.06.25/outbox.cif.g09.slc.cpg/sg2_91_cif.got.tgz:180032.got - 2010.06.27 13:26:56.
