data_PCOD8018722
_publ_section_title
;
Structure prediction by ZEFSAII (Michael W. Deem and Ramdas Pophale) SiO2 
 PCOD8018722
Probable space group: P -1
;
_chemical_formula_sum "Si O2"
_cell_formula_units_Z 14
_cell_length_a 9.460026
_cell_length_b 9.121876
_cell_length_c 10.563724
_cell_angle_alpha 57.745625
_cell_angle_beta 119.971668
_cell_angle_gamma 94.011620
_cell_volume 643.307636
_symmetry_space_group_name_H-M "P -1"
_symmetry_group_IT_number 2
_symmetry_cell_setting 'triclinic'
loop_
_space_group_symop_operation_xyz
x,y,z
-x,-y,-z
loop_
_atom_site_type_symbol
_atom_site_label
_atom_site_fract_x
_atom_site_fract_y
_atom_site_fract_z
Si Si1 0.119876 0.400930 0.489255
Si Si2 0.818938 0.569312 0.122598
Si Si3 0.657518 0.075687 0.510620
Si Si4 0.758764 0.318141 0.001943
Si Si5 0.607454 0.497047 0.301379
Si Si6 0.072543 0.118079 0.075508
Si Si7 0.175559 0.006454 0.634269
O O1 0.291682 0.464198 0.546921
O O2 0.159849 0.187365 0.623199
O O3 0.000000 0.500000 0.500000
O O4 0.015532 0.459676 0.286545
O O5 0.766173 0.491002 0.006731
O O6 0.692194 0.552611 0.186541
O O7 0.812837 0.777340 0.999207
O O8 0.608135 0.290397 0.391882
O O9 0.500000 0.000000 0.500000
O O10 0.813599 0.004114 0.709613
O O11 0.699756 0.004260 0.421312
O O12 0.915054 0.263062 0.001451
O O13 0.751581 0.155088 0.164141
O O14 0.581532 0.377600 0.820921
O O15 0.000000 0.000000 0.000000
O O16 0.000000 0.000000 0.500000
#
# Coordination Sequence:
#
# PCOD8018722 Si02
#       7
#     2   2   2   2   2   2   2
#     4  10  22  40  70 100 137 178 225 279 340 401
#     4  11  22  44  71  97 137 181 230 275 339 408
#     4  12  26  47  72 101 139 181 228 283 341 408
#     4  12  25  43  72 101 139 177 234 280 338 406
#     4  11  25  44  70 104 137 178 229 282 343 405
#     4  12  28  44  68 104 143 177 225 290 346 394
#     4  12  22  44  73 103 131 185 233 275 336 420
#
# _framework density 21.762528
#
# number of rings (size 3 to 8) (size 9 to 14) (size 15 to 20)
#    0.000    0.571    4.286    3.429    6.000    2.857 
#    0.000    2.143    0.000    0.000    0.000    0.000 
#    0.000    0.000    0.000    0.000    0.000    0.000 
#
# Total GULP energy -173618.473865 kJ/mol
# GULP energy per Si atom -12401.319562 kJ/mol
# Density = 2.171300 g / cm^3
# Si number density = 21.762528 Si / 1000 Ang^3
#
#
#
# Elastic Constant Matrix: (Units=GPa)
#
#
# Indices 1 2 3 4 5 6 
#
# 1 106.0047 28.0647 32.9476 -13.3096 5.0263 15.8238
# 2 28.0647 130.6864 22.7698 -21.1887 0.5112 19.7545
# 3 32.9476 22.7698 109.9142 -16.9098 15.3162 15.6310
# 4 -13.3096 -21.1887 -16.9098 41.7766 13.1341 1.8077
# 5 5.0263 0.5112 15.3162 13.1341 44.6088 -3.3688
# 6 15.8238 19.7545 15.6310 1.8077 -3.3688 27.8877
#
#
#
# Elastic Compliance Matrix: (Units=1/GPa)
#
#
# Indices 1 2 3 4 5 6 
#
# 1 0.011530 -0.000763 -0.001657 0.003544 -0.002185 -0.005567
# 2 -0.000763 0.009870 0.000572 0.006142 -0.002605 -0.007592
# 3 -0.001657 0.000572 0.012721 0.007448 -0.006978 -0.007921
# 4 0.003544 0.006142 0.007448 0.036512 -0.014887 -0.014701
# 5 -0.002185 -0.002605 -0.006978 -0.014887 0.030351 0.011628
# 6 -0.005567 -0.007592 -0.007921 -0.014701 0.011628 0.051191
#
#
# Mechanical properties :
#
#
# Convention : Reuss Voigt Hill
#
# Bulk Modulus (GPa) = 32.86831 57.12994 44.99912
# Shear Modulus (GPa) = 30.11831 40.37617 35.24724
#
# Velocity S-wave (km/s) = 3.72419 4.31200 4.02883
# Velocity P-wave (km/s) = 5.79903 7.14840 6.50878
#
# Compressibility (1/GPa) = 0.03042444
#
# Stress axis : x y z
#
# Youngs Moduli (GPa) = 86.73020 101.32100 78.61098
#
# Poissons Ratio (x) = 0.07728 0.13024
# Poissons Ratio (y) = 0.06615 -0.04493
# Poissons Ratio (z) = 0.14369 -0.05791
#
# Static dielectric constant tensor:
#      x y z
#    x 3.914720 0.274280 0.206900 
#    y 0.274280 4.058260 0.250860 
#    z 0.206900 0.250860 4.848820 
# 
# 
# High freq. dielectric constant tensor:
#      x y z
#    x 1.850370 0.011210 0.005140 
#    y 0.011210 1.867280 -0.000870 
#    z 0.005140 -0.000870 1.865440 
# 
# From -- ./inp_files/184420.got.cif
#   From: 2010.06.25/outbox.cif.g09.slc.cpg/sg2_93_cif.got.tgz:184420.got - 2010.06.27 13:26:56.
