data_PCOD8018006
_publ_section_title
;
Structure prediction by ZEFSAII (Michael W. Deem and Ramdas Pophale) SiO2 
 PCOD8018006
Probable space group: P -1
;
_chemical_formula_sum "Si O2"
_cell_formula_units_Z 14
_cell_length_a 18.865643
_cell_length_b 16.173662
_cell_length_c 12.894715
_cell_angle_alpha 154.689408
_cell_angle_beta 155.079452
_cell_angle_gamma 30.405915
_cell_volume 688.644597
_symmetry_space_group_name_H-M "P -1"
_symmetry_group_IT_number 2
_symmetry_cell_setting 'triclinic'
loop_
_space_group_symop_operation_xyz
x,y,z
-x,-y,-z
loop_
_atom_site_type_symbol
_atom_site_label
_atom_site_fract_x
_atom_site_fract_y
_atom_site_fract_z
Si Si1 0.709847 0.182107 0.629689
Si Si2 0.149049 0.434230 0.706377
Si Si3 0.503086 0.286670 0.661524
Si Si4 0.405542 0.381119 0.315157
Si Si5 0.460911 0.295132 0.836255
Si Si6 0.250319 0.580342 0.537078
Si Si7 0.111431 0.242351 0.650345
O O1 0.631267 0.135410 0.583868
O O2 0.551332 0.213027 0.373795
O O3 0.864417 0.995610 0.593977
O O4 0.781195 0.380088 0.949498
O O5 0.304627 0.265633 0.668613
O O6 0.074881 0.337500 0.595986
O O7 0.000000 0.500000 0.500000
O O8 0.482480 0.175641 0.618302
O O9 0.316523 0.375405 0.458963
O O10 0.595089 0.471405 0.009856
O O11 0.500000 0.500000 0.500000
O O12 0.288138 0.533717 0.413635
O O13 0.285345 0.277632 0.969955
O O14 0.640906 0.258338 0.097961
O O15 0.048342 0.669871 0.386717
#
# Coordination Sequence:
#
# PCOD8018006 Si02
#       7
#     2   2   2   2   2   2   2
#     4  10  22  40  59  91 120 153 201 245 293 351
#     4  11  22  38  62  89 122 158 198 240 298 352
#     4   7  14  31  58  75 112 160 185 229 291 344
#     4  11  20  42  66  82 118 163 197 242 299 352
#     4   8  14  33  57  78 115 161 188 232 289 348
#     4   9  18  33  59  86 114 156 194 237 296 352
#     4  12  23  36  65  90 118 156 200 246 294 347
#
# _framework density 20.329791
#
# number of rings (size 3 to 8) (size 9 to 14) (size 15 to 20)
#    0.857    1.429    2.857    1.714    2.000    0.571 
#    0.000    1.429   15.714    0.000    0.000    0.000 
#    0.000    0.000    0.000    0.000    0.000    0.000 
#
# Total GULP energy -173473.652220 kJ/mol
# GULP energy per Si atom -12390.975159 kJ/mol
# Density = 2.028352 g / cm^3
# Si number density = 20.329791 Si / 1000 Ang^3
#
#
#
# Elastic Constant Matrix: (Units=GPa)
#
#
# Indices 1 2 3 4 5 6 
#
# 1 129.6410 38.9510 9.5535 4.8196 -7.0946 -5.2579
# 2 38.9510 68.0303 12.6426 -6.6563 2.9042 -10.1753
# 3 9.5535 12.6426 41.0499 -21.3142 -3.5308 2.5047
# 4 4.8196 -6.6563 -21.3142 23.7093 -2.4856 -5.6105
# 5 -7.0946 2.9042 -3.5308 -2.4856 28.2986 -9.7318
# 6 -5.2579 -10.1753 2.5047 -5.6105 -9.7318 28.2516
#
#
#
# Elastic Compliance Matrix: (Units=1/GPa)
#
#
# Indices 1 2 3 4 5 6 
#
# 1 0.010161 -0.005958 -0.004285 -0.007606 0.001679 -0.000807
# 2 -0.005958 0.020273 -0.001654 0.007150 -0.000549 0.007570
# 3 -0.004285 -0.001654 0.053439 0.051923 0.013342 0.008776
# 4 -0.007606 0.007150 0.051923 0.100167 0.020751 0.023596
# 5 0.001679 -0.000549 0.013342 0.020751 0.045774 0.018821
# 6 -0.000807 0.007570 0.008776 0.023596 0.018821 0.048364
#
#
# Mechanical properties :
#
#
# Convention : Reuss Voigt Hill
#
# Bulk Modulus (GPa) = 16.64485 40.11283 28.37884
# Shear Modulus (GPa) = 15.52793 27.89016 21.70904
#
# Velocity S-wave (km/s) = 2.76669 3.70792 3.27133
# Velocity P-wave (km/s) = 4.29084 6.17296 5.31586
#
# Compressibility (1/GPa) = 0.06007863
#
# Stress axis : x y z
#
# Youngs Moduli (GPa) = 98.41140 49.32589 18.71294
#
# Poissons Ratio (x) = 0.29389 0.08019
# Poissons Ratio (y) = 0.58635 0.03095
# Poissons Ratio (z) = 0.42172 0.08159
#
# Static dielectric constant tensor:
#      x y z
#    x 4.127260 -0.139810 -0.455200 
#    y -0.139810 3.332700 -0.099110 
#    z -0.455200 -0.099110 3.646770 
# 
# 
# High freq. dielectric constant tensor:
#      x y z
#    x 1.808230 -0.008050 -0.018130 
#    y -0.008050 1.767280 -0.016360 
#    z -0.018130 -0.016360 1.772000 
# 
# From -- ./inp_files/465980.got.cif
#   From: 2010.06.25/outbox.cif.g09.slc.cpg/sg2_233_cif.got.tgz:465980.got - 2010.06.27 13:26:56.
