data_PCOD8018530
_publ_section_title
;
Structure prediction by ZEFSAII (Michael W. Deem and Ramdas Pophale) SiO2 
 PCOD8018530
Probable space group: P -1
;
_chemical_formula_sum "Si O2"
_cell_formula_units_Z 16
_cell_length_a 18.004311
_cell_length_b 12.108531
_cell_length_c 9.162105
_cell_angle_alpha 55.956881
_cell_angle_beta 148.971890
_cell_angle_gamma 132.357007
_cell_volume 760.008164
_symmetry_space_group_name_H-M "P -1"
_symmetry_group_IT_number 2
_symmetry_cell_setting 'triclinic'
loop_
_space_group_symop_operation_xyz
x,y,z
-x,-y,-z
loop_
_atom_site_type_symbol
_atom_site_label
_atom_site_fract_x
_atom_site_fract_y
_atom_site_fract_z
Si Si1 0.355669 0.034713 0.683616
Si Si2 0.116008 0.358812 0.791336
Si Si3 0.144804 0.758319 0.333011
Si Si4 0.690385 0.654117 0.346555
Si Si5 0.033276 0.877941 0.788020
Si Si6 0.359997 0.338822 0.419366
Si Si7 0.086737 0.904036 0.548542
Si Si8 0.666624 0.418253 0.243074
O O1 0.418476 0.208167 0.612581
O O2 0.244336 0.918279 0.460108
O O3 0.249743 0.017249 0.660337
O O4 0.500000 0.000000 0.000000
O O5 0.247232 0.507300 0.821435
O O6 0.993346 0.368189 0.701666
O O7 0.995017 0.259513 0.536414
O O8 0.216957 0.286361 0.097664
O O9 0.269121 0.701221 0.524045
O O10 0.061692 0.784359 0.030967
O O11 0.850716 0.802339 0.466970
O O12 0.706840 0.631612 0.562734
O O13 0.698749 0.525756 0.355879
O O14 0.526311 0.669328 0.037255
O O15 0.140666 0.894038 0.813481
O O16 0.048985 0.037101 0.748099
O O17 0.500000 0.500000 0.500000
#
# Coordination Sequence:
#
# PCOD8018530 Si02
#       8
#     2   2   2   2   2   2   2   2
#     4  11  24  44  66  96 135 168 210 272 330 380
#     4  11  21  39  63  95 125 173 220 263 318 387
#     4  11  24  41  64  96 131 166 215 278 322 372
#     4  11  22  42  64  91 130 175 211 262 318 385
#     4  11  21  41  66  94 122 170 218 266 317 386
#     4  12  23  41  68  97 127 170 223 262 317 393
#     4  10  22  40  67  90 125 170 216 261 324 387
#     4  11  24  41  61  94 135 175 213 264 326 385
#
# _framework density 21.052405
#
# number of rings (size 3 to 8) (size 9 to 14) (size 15 to 20)
#    0.000    1.000    5.000    1.875    0.000    2.500 
#    2.250    0.625    0.000    0.000    0.000    0.000 
#    0.000    0.000    0.000    0.000    0.000    0.000 
#
# Total GULP energy -198233.459007 kJ/mol
# GULP energy per Si atom -12389.591188 kJ/mol
# Density = 2.100449 g / cm^3
# Si number density = 21.052405 Si / 1000 Ang^3
#
#
#
# Elastic Constant Matrix: (Units=GPa)
#
#
# Indices 1 2 3 4 5 6 
#
# 1 107.4272 27.9880 54.4005 -16.5725 -2.2892 -9.8929
# 2 27.9880 71.7008 33.2474 -3.1156 9.2609 3.7477
# 3 54.4005 33.2474 105.2924 -5.8613 3.8501 -4.3073
# 4 -16.5725 -3.1156 -5.8613 26.3074 -2.4359 1.1716
# 5 -2.2892 9.2609 3.8501 -2.4359 31.6923 -1.0971
# 6 -9.8929 3.7477 -4.3073 1.1716 -1.0971 26.2321
#
#
#
# Elastic Compliance Matrix: (Units=1/GPa)
#
#
# Indices 1 2 3 4 5 6 
#
# 1 0.015079 -0.003389 -0.006214 0.007826 0.003607 0.004952
# 2 -0.003389 0.017996 -0.003995 -0.001174 -0.005270 -0.004673
# 3 -0.006214 -0.003995 0.013952 -0.001402 -0.001065 0.000536
# 4 0.007826 -0.001174 -0.001402 0.042848 0.004412 0.001160
# 5 0.003607 -0.005270 -0.001065 0.004412 0.033932 0.003161
# 6 0.004952 -0.004673 0.000536 0.001160 0.003161 0.040825
#
#
# Mechanical properties :
#
#
# Convention : Reuss Voigt Hill
#
# Bulk Modulus (GPa) = 50.42778 57.29913 53.86345
# Shear Modulus (GPa) = 25.19665 28.09867 26.64766
#
# Velocity S-wave (km/s) = 3.46331 3.65732 3.56164
# Velocity P-wave (km/s) = 6.32441 6.71648 6.52339
#
# Compressibility (1/GPa) = 0.01983034
#
# Stress axis : x y z
#
# Youngs Moduli (GPa) = 66.31922 55.56683 71.67233
#
# Poissons Ratio (x) = 0.18832 0.44538
# Poissons Ratio (y) = 0.22476 0.28636
# Poissons Ratio (z) = 0.41211 0.22201
#
# Static dielectric constant tensor:
#      x y z
#    x 4.209610 0.069290 0.033530 
#    y 0.069290 3.790430 0.178340 
#    z 0.033530 0.178340 3.703690 
# 
# 
# High freq. dielectric constant tensor:
#      x y z
#    x 1.839520 -0.000070 -0.004130 
#    y -0.000070 1.820640 0.011130 
#    z -0.004130 0.011130 1.814410 
# 
# From -- ./inp_files/298151.got.cif
#   From: 2010.06.25/outbox.cif.g09.slc.cpg/sg2_150_cif.got.tgz:298151.got - 2010.06.27 13:26:56.
