data_PCOD8018689
_publ_section_title
;
Structure prediction by ZEFSAII (Michael W. Deem and Ramdas Pophale) SiO2 
 PCOD8018689
Probable space group: P -1
;
_chemical_formula_sum "Si O2"
_cell_formula_units_Z 14
_cell_length_a 8.411251
_cell_length_b 14.496685
_cell_length_c 9.074058
_cell_angle_alpha 88.462113
_cell_angle_beta 132.442597
_cell_angle_gamma 65.549224
_cell_volume 661.596224
_symmetry_space_group_name_H-M "P -1"
_symmetry_group_IT_number 2
_symmetry_cell_setting 'triclinic'
loop_
_space_group_symop_operation_xyz
x,y,z
-x,-y,-z
loop_
_atom_site_type_symbol
_atom_site_label
_atom_site_fract_x
_atom_site_fract_y
_atom_site_fract_z
Si Si1 0.466796 0.767251 0.173877
Si Si2 0.810347 0.412151 0.663954
Si Si3 0.973634 0.789295 0.984522
Si Si4 0.598274 0.014693 0.907578
Si Si5 0.264654 0.620407 0.696132
Si Si6 0.796492 0.809927 0.556264
Si Si7 0.235441 0.439315 0.840442
O O1 0.259667 0.748384 0.110317
O O2 0.669477 0.743172 0.433813
O O3 0.628781 0.683330 0.144332
O O4 0.320480 0.898179 0.020674
O O5 0.500000 0.500000 0.500000
O O6 0.978349 0.319620 0.900324
O O7 0.826078 0.344521 0.530349
O O8 0.953432 0.475942 0.729144
O O9 0.851106 0.894566 0.014446
O O10 0.780962 0.825182 0.721638
O O11 0.363059 0.068409 0.634081
O O12 0.500000 0.000000 0.000000
O O13 0.198937 0.529885 0.695623
O O14 0.102326 0.731242 0.695513
O O15 0.576110 0.566598 0.911948
#
# Coordination Sequence:
#
# PCOD8018689 Si02
#       7
#     2   2   2   2   2   2   2
#     4  10  22  40  69  94 127 171 218 266 322 384
#     4  12  27  40  65  99 135 171 218 272 323 389
#     4  12  23  44  64  98 134 169 219 265 325 389
#     4  10  22  43  68  94 132 170 211 272 323 384
#     4  11  23  43  69  91 128 179 217 270 326 386
#     4  10  23  39  71  94 126 172 213 264 324 384
#     4  11  23  43  68  92 132 173 223 267 330 382
#
# _framework density 21.160944000000001
#
# number of rings (size 3 to 8) (size 9 to 14) (size 15 to 20)
#    0.857    0.286    2.857    3.857    4.000    1.714 
#    0.000    0.714    0.000    0.000    0.000    0.000 
#    0.000    0.000    0.000    0.000    0.000    0.000 
#
# Total GULP energy -173552.321525 kJ/mol
# GULP energy per Si atom -12396.594395 kJ/mol
# Density = 2.111278 g / cm^3
# Si number density = 21.160944 Si / 1000 Ang^3
#
#
#
# Elastic Constant Matrix: (Units=GPa)
#
#
# Indices 1 2 3 4 5 6 
#
# 1 120.5842 31.1834 49.5767 4.1896 7.3796 3.0026
# 2 31.1834 84.4623 11.5816 -8.8114 -2.2987 -5.4519
# 3 49.5767 11.5816 109.6084 -3.4408 -15.2359 5.9378
# 4 4.1896 -8.8114 -3.4408 31.6616 0.4832 1.9020
# 5 7.3796 -2.2987 -15.2359 0.4832 44.4506 0.0156
# 6 3.0026 -5.4519 5.9378 1.9020 0.0156 25.1639
#
#
#
# Elastic Compliance Matrix: (Units=1/GPa)
#
#
# Indices 1 2 3 4 5 6 
#
# 1 0.012089 -0.004190 -0.005660 -0.003272 -0.004128 -0.000765
# 2 -0.004190 0.013994 0.000605 0.004307 0.001579 0.003062
# 3 -0.005660 0.000605 0.012549 0.002341 0.005248 -0.002335
# 4 -0.003272 0.004307 0.002341 0.033558 0.001204 -0.001766
# 5 -0.004128 0.001579 0.005248 0.001204 0.025050 -0.000510
# 6 -0.000765 0.003062 -0.002335 -0.001766 -0.000510 0.041179
#
#
# Mechanical properties :
#
#
# Convention : Reuss Voigt Hill
#
# Bulk Modulus (GPa) = 49.64876 55.48204 52.56540
# Shear Modulus (GPa) = 30.55825 35.07609 32.81717
#
# Velocity S-wave (km/s) = 3.80424 4.07576 3.94234
# Velocity P-wave (km/s) = 6.54291 6.95882 6.75407
#
# Compressibility (1/GPa) = 0.02014149
#
# Stress axis : x y z
#
# Youngs Moduli (GPa) = 82.71926 71.46159 79.68728
#
# Poissons Ratio (x) = 0.29944 0.45106
# Poissons Ratio (y) = 0.34661 -0.04824
# Poissons Ratio (z) = 0.46822 -0.04326
#
# Static dielectric constant tensor:
#      x y z
#    x 3.766150 -0.058470 -0.016230 
#    y -0.058470 3.692460 -0.034410 
#    z -0.016230 -0.034410 3.858260 
# 
# 
# High freq. dielectric constant tensor:
#      x y z
#    x 1.821070 -0.009100 0.001300 
#    y -0.009100 1.824710 -0.002430 
#    z 0.001300 -0.002430 1.832690 
# 
# From -- ./inp_files/197315.got.cif
#   From: 2010.06.25/outbox.cif.g09.slc.cpg/sg2_99_cif.got.tgz:197315.got - 2010.06.27 13:26:56.
