data_PCOD8018780
_publ_section_title
;
Structure prediction by ZEFSAII (Michael W. Deem and Ramdas Pophale) SiO2 
 PCOD8018780
Probable space group: P -1
;
_chemical_formula_sum "Si O2"
_cell_formula_units_Z 16
_cell_length_a 12.253444
_cell_length_b 9.652441
_cell_length_c 21.898181
_cell_angle_alpha 152.356812
_cell_angle_beta 37.961169
_cell_angle_gamma 134.668004
_cell_volume 739.089382
_symmetry_space_group_name_H-M "P -1"
_symmetry_group_IT_number 2
_symmetry_cell_setting 'triclinic'
loop_
_space_group_symop_operation_xyz
x,y,z
-x,-y,-z
loop_
_atom_site_type_symbol
_atom_site_label
_atom_site_fract_x
_atom_site_fract_y
_atom_site_fract_z
Si Si1 0.558679 0.711763 0.146149
Si Si2 0.311824 0.633327 0.650191
Si Si3 0.240930 0.628875 0.176577
Si Si4 0.112610 0.600320 0.933368
Si Si5 0.481838 0.657014 0.855335
Si Si6 0.106725 0.226436 0.672173
Si Si7 0.152055 0.553659 0.404065
Si Si8 0.968186 0.734551 0.780961
O O1 0.367621 0.801721 0.236750
O O2 0.539529 0.567436 0.165254
O O3 0.675718 0.011233 0.208679
O O4 0.648403 0.465529 0.968109
O O5 0.500000 0.500000 0.500000
O O6 0.242123 0.464008 0.674893
O O7 0.163597 0.591311 0.646263
O O8 0.077886 0.829065 0.304466
O O9 0.160414 0.348449 0.138817
O O10 0.320644 0.617161 0.863873
O O11 0.070128 0.354687 0.805063
O O12 0.000000 0.500000 0.000000
O O13 0.028901 0.912489 0.074579
O O14 0.659482 0.574176 0.706982
O O15 0.500000 0.000000 0.000000
O O16 0.190746 0.902256 0.511441
O O17 0.000000 0.500000 0.500000
O O18 0.105023 0.375437 0.294002
#
# Coordination Sequence:
#
# PCOD8018780 Si02
#       8
#     2   2   2   2   2   2   2   2
#     4  11  22  41  67 105 130 171 232 280 342 402
#     4  11  25  40  68  98 138 176 220 287 351 404
#     4  10  22  40  71  93 135 171 223 283 338 406
#     4  12  24  43  72  99 137 184 229 285 340 408
#     4  12  25  45  72 100 141 184 240 278 335 418
#     4  11  26  43  67 101 137 173 227 280 351 401
#     4  12  27  45  69 101 141 187 232 283 342 409
#     4  11  23  45  65  97 138 180 230 279 341 410
#
# _framework density 21.648261999999999
#
# number of rings (size 3 to 8) (size 9 to 14) (size 15 to 20)
#    0.000    0.750    2.500    4.500    3.500    5.500 
#    0.000    0.000    0.000    0.000    0.000    0.000 
#    0.000    0.000    0.000    0.000    0.000    0.000 
#
# Total GULP energy -198378.042596 kJ/mol
# GULP energy per Si atom -12398.627662 kJ/mol
# Density = 2.159899 g / cm^3
# Si number density = 21.648262 Si / 1000 Ang^3
#
#
#
# Elastic Constant Matrix: (Units=GPa)
#
#
# Indices 1 2 3 4 5 6 
#
# 1 98.8902 16.7203 23.6170 -8.7190 -21.2177 7.9842
# 2 16.7203 105.1641 22.3930 -2.1582 -17.8393 2.5960
# 3 23.6170 22.3930 91.7433 -0.9553 -21.9448 0.4627
# 4 -8.7190 -2.1582 -0.9553 46.4592 10.4232 0.3777
# 5 -21.2177 -17.8393 -21.9448 10.4232 33.4294 -4.3353
# 6 7.9842 2.5960 0.4627 0.3777 -4.3353 30.3165
#
#
#
# Elastic Compliance Matrix: (Units=1/GPa)
#
#
# Indices 1 2 3 4 5 6 
#
# 1 0.012084 -0.000532 -0.001583 0.000938 0.005756 -0.002301
# 2 -0.000532 0.010661 -0.001357 -0.000678 0.004663 -0.000077
# 3 -0.001583 -0.001357 0.013504 -0.001869 0.007911 0.001481
# 4 0.000938 -0.000678 -0.001869 0.023564 -0.008558 -0.001678
# 5 0.005756 0.004663 0.007911 -0.008558 0.044492 0.004433
# 6 -0.002301 -0.000077 0.001481 -0.001678 0.004433 0.034230
#
#
# Mechanical properties :
#
#
# Convention : Reuss Voigt Hill
#
# Bulk Modulus (GPa) = 34.12215 46.80645 40.46430
# Shear Modulus (GPa) = 32.20695 37.57886 34.89290
#
# Velocity S-wave (km/s) = 3.86131 4.17091 4.01909
# Velocity P-wave (km/s) = 5.97293 6.69803 6.34585
#
# Compressibility (1/GPa) = 0.02930648
#
# Stress axis : x y z
#
# Youngs Moduli (GPa) = 82.75708 93.79719 74.05248
#
# Poissons Ratio (x) = 0.04988 0.11720
# Poissons Ratio (y) = 0.04401 0.10047
# Poissons Ratio (z) = 0.13098 0.12726
#
# Static dielectric constant tensor:
#      x y z
#    x 4.168290 0.217140 -0.425700 
#    y 0.217140 4.044520 0.002670 
#    z -0.425700 0.002670 3.691660 
# 
# 
# High freq. dielectric constant tensor:
#      x y z
#    x 1.860140 0.006760 -0.014890 
#    y 0.006760 1.865020 -0.002740 
#    z -0.014890 -0.002740 1.847590 
# 
# From -- ./inp_files/261823.got.cif
#   From: 2010.06.25/outbox.cif.g09.slc.cpg/sg2_131_cif.got.tgz:261823.got - 2010.06.27 13:26:56.
