data_PCOD8018753
_publ_section_title
;
Structure prediction by ZEFSAII (Michael W. Deem and Ramdas Pophale) SiO2 
 PCOD8018753
Probable space group: P -1
;
_chemical_formula_sum "Si O2"
_cell_formula_units_Z 16
_cell_length_a 7.649477
_cell_length_b 20.951757
_cell_length_c 15.079364
_cell_angle_alpha 19.355959
_cell_angle_beta 121.793495
_cell_angle_gamma 123.210061
_cell_volume 669.729604
_symmetry_space_group_name_H-M "P -1"
_symmetry_group_IT_number 2
_symmetry_cell_setting 'triclinic'
loop_
_space_group_symop_operation_xyz
x,y,z
-x,-y,-z
loop_
_atom_site_type_symbol
_atom_site_label
_atom_site_fract_x
_atom_site_fract_y
_atom_site_fract_z
Si Si1 0.936495 0.777668 0.247485
Si Si2 0.341973 0.620774 0.843228
Si Si3 0.581619 0.730622 0.337576
Si Si4 0.155013 0.498879 0.779181
Si Si5 0.656182 0.011320 0.419298
Si Si6 0.430132 0.574816 0.108408
Si Si7 0.180675 0.882317 0.017528
Si Si8 0.962094 0.074337 0.268088
O O1 0.101285 0.659973 0.487864
O O2 0.972875 0.769534 0.161453
O O3 0.702314 0.683974 0.340713
O O4 0.000000 0.000000 0.000000
O O5 0.162319 0.597085 0.751143
O O6 0.452625 0.845580 0.594525
O O7 0.500000 0.500000 0.000000
O O8 0.263287 0.535912 0.031681
O O9 0.609022 0.581105 0.619207
O O10 0.341275 0.729856 0.247021
O O11 0.696382 0.942574 0.121175
O O12 0.356390 0.428179 0.884379
O O13 0.980199 0.304548 0.993250
O O14 0.825097 0.007832 0.548130
O O15 0.771229 0.964946 0.420309
O O16 0.572173 0.214147 0.126331
O O17 0.103623 0.967352 0.795902
#
# Coordination Sequence:
#
# PCOD8018753 Si02
#       8
#     2   2   2   2   2   2   2   2
#     4  10  22  43  66 100 134 175 232 288 332 407
#     4  10  22  40  70  95 131 183 220 273 343 410
#     4  10  22  43  69 101 136 178 236 278 346 413
#     4  11  23  44  67  97 141 180 226 284 343 406
#     4  11  24  43  65 102 140 176 228 279 348 407
#     4  11  22  41  69  99 136 176 228 280 339 411
#     4  10  23  43  69  98 136 185 225 288 345 401
#     4  11  25  42  66  96 140 177 227 287 339 404
#
# _framework density 23.890238
#
# number of rings (size 3 to 8) (size 9 to 14) (size 15 to 20)
#    0.000    1.500    3.750    1.125    3.500    2.500 
#    2.250    3.125    0.000    0.000    0.000    0.000 
#    0.000    0.000    0.000    0.000    0.000    0.000 
#
# Total GULP energy -198269.248707 kJ/mol
# GULP energy per Si atom -12391.828044 kJ/mol
# Density = 2.383586 g / cm^3
# Si number density = 23.890238 Si / 1000 Ang^3
#
#
#
# Elastic Constant Matrix: (Units=GPa)
#
#
# Indices 1 2 3 4 5 6 
#
# 1 118.9175 33.4139 30.7887 15.8987 -13.5370 -22.6507
# 2 33.4139 50.4889 0.0117 28.4388 -1.0549 -8.0023
# 3 30.7887 0.0117 111.7340 17.9148 5.3472 -7.4246
# 4 15.8987 28.4388 17.9148 37.9094 -13.4802 -10.6075
# 5 -13.5370 -1.0549 5.3472 -13.4802 38.7336 5.5200
# 6 -22.6507 -8.0023 -7.4246 -10.6075 5.5200 22.4021
#
#
#
# Elastic Compliance Matrix: (Units=1/GPa)
#
#
# Indices 1 2 3 4 5 6 
#
# 1 0.017230 -0.019470 -0.007332 0.018727 0.010998 0.014194
# 2 -0.019470 0.063804 0.015326 -0.060104 -0.026129 -0.013837
# 3 -0.007332 0.015326 0.014432 -0.020144 -0.010565 -0.004090
# 4 0.018727 -0.060104 -0.020144 0.093386 0.036481 0.026018
# 5 0.010998 -0.026129 -0.010565 0.036481 0.042375 0.005118
# 6 0.014194 -0.013837 -0.004090 0.026018 0.005118 0.063750
#
#
# Mechanical properties :
#
#
# Convention : Reuss Voigt Hill
#
# Bulk Modulus (GPa) = 13.79023 45.50769 29.64896
# Shear Modulus (GPa) = 14.61560 34.27076 24.44318
#
# Velocity S-wave (km/s) = 2.47610 3.79160 3.20213
# Velocity P-wave (km/s) = 3.73626 6.18533 5.10969
#
# Compressibility (1/GPa) = 0.07251511
#
# Stress axis : x y z
#
# Youngs Moduli (GPa) = 58.03822 15.67291 69.29023
#
# Poissons Ratio (x) = 0.30516 0.50801
# Poissons Ratio (y) = 1.13002 -1.06196
# Poissons Ratio (z) = 0.42551 -0.24021
#
# Static dielectric constant tensor:
#      x y z
#    x 4.639240 -0.255270 -0.000290 
#    y -0.255270 4.952210 0.147710 
#    z -0.000290 0.147710 4.247310 
# 
# 
# High freq. dielectric constant tensor:
#      x y z
#    x 1.948640 -0.022180 -0.000810 
#    y -0.022180 1.924940 0.012330 
#    z -0.000810 0.012330 1.962070 
# 
# From -- ./inp_files/507834.got.cif
#   From: 2010.06.25/outbox.cif.g09.slc.cpg/sg2_254_cif.got.tgz:507834.got - 2010.06.27 13:26:56.
