data_PCOD8018872
_publ_section_title
;
Structure prediction by ZEFSAII (Michael W. Deem and Ramdas Pophale) SiO2 
 PCOD8018872
Probable space group: P -1
;
_chemical_formula_sum "Si O2"
_cell_formula_units_Z 16
_cell_length_a 8.750499
_cell_length_b 22.365956
_cell_length_c 15.739443
_cell_angle_alpha 161.157852
_cell_angle_beta 63.773953
_cell_angle_gamma 124.935608
_cell_volume 755.102014
_symmetry_space_group_name_H-M "P -1"
_symmetry_group_IT_number 2
_symmetry_cell_setting 'triclinic'
loop_
_space_group_symop_operation_xyz
x,y,z
-x,-y,-z
loop_
_atom_site_type_symbol
_atom_site_label
_atom_site_fract_x
_atom_site_fract_y
_atom_site_fract_z
Si Si1 0.817762 0.245109 0.459982
Si Si2 0.822716 0.540393 0.581600
Si Si3 0.448207 0.094343 0.058170
Si Si4 0.981152 0.930924 0.600392
Si Si5 0.790222 0.594587 0.851714
Si Si6 0.577376 0.506000 0.081573
Si Si7 0.192128 0.700517 0.267077
Si Si8 0.054635 0.021058 0.132071
O O1 0.896605 0.465907 0.682667
O O2 0.799155 0.307867 0.644280
O O3 0.968579 0.160449 0.302102
O O4 0.606266 0.061539 0.220894
O O5 0.636198 0.329286 0.298368
O O6 0.740586 0.566509 0.726773
O O7 0.000000 0.500000 0.500000
O O8 0.902424 0.759758 0.801364
O O9 0.260715 0.112591 0.154679
O O10 0.500000 0.000000 0.000000
O O11 0.178456 0.909212 0.526545
O O12 0.792544 0.731192 0.332410
O O13 0.907533 0.943258 0.728995
O O14 0.051914 0.149629 0.823289
O O15 0.575970 0.501213 0.822920
O O16 0.500000 0.500000 0.000000
O O17 0.613933 0.305617 0.820192
O O18 0.000000 0.500000 0.000000
#
# Coordination Sequence:
#
# PCOD8018872 Si02
#       8
#     2   2   2   2   2   2   2   2
#     4  11  22  39  62  91 128 164 209 256 311 371
#     4  11  22  40  63  94 126 163 205 256 304 373
#     4  12  22  37  67  92 125 167 207 251 315 371
#     4   9  22  39  64  87 122 164 203 252 311 364
#     4  11  22  38  64  92 121 159 213 242 308 373
#     4  11  21  38  64  89 124 156 207 263 307 363
#     4   9  20  42  62  87 123 165 201 262 314 356
#     4  10  22  41  61  90 129 163 205 256 307 368
#
# _framework density 21.189191000000001
#
# number of rings (size 3 to 8) (size 9 to 14) (size 15 to 20)
#    0.000    1.500    3.750    1.125    0.000    1.500 
#    0.000    1.250    2.750    0.000    0.000    0.000 
#    0.000    0.000    0.000    0.000    0.000    0.000 
#
# Total GULP energy -198306.179701 kJ/mol
# GULP energy per Si atom -12394.136231 kJ/mol
# Density = 2.114096 g / cm^3
# Si number density = 21.189191 Si / 1000 Ang^3
#
#
#
# Elastic Constant Matrix: (Units=GPa)
#
#
# Indices 1 2 3 4 5 6 
#
# 1 103.7069 51.1937 59.7179 6.8714 -6.1284 1.5535
# 2 51.1937 52.3571 38.4186 1.3408 -0.1812 8.0940
# 3 59.7179 38.4186 133.5426 11.7884 -1.1024 -2.1880
# 4 6.8714 1.3408 11.7884 38.9614 -8.8703 3.2121
# 5 -6.1284 -0.1812 -1.1024 -8.8703 46.9469 -6.9834
# 6 1.5535 8.0940 -2.1880 3.2121 -6.9834 33.1402
#
#
#
# Elastic Compliance Matrix: (Units=1/GPa)
#
#
# Indices 1 2 3 4 5 6 
#
# 1 0.021239 -0.018424 -0.003968 -0.001580 0.002906 0.004008
# 2 -0.018424 0.041800 -0.004273 0.003226 -0.003317 -0.010639
# 3 -0.003968 -0.004273 0.010760 -0.002691 -0.000478 0.002100
# 4 -0.001580 0.003226 -0.002691 0.027918 0.004628 -0.002622
# 5 0.002906 -0.003317 -0.000478 0.004628 0.023289 0.005101
# 6 0.004008 -0.010639 0.002100 -0.002622 0.005101 0.034053
#
#
# Mechanical properties :
#
#
# Convention : Reuss Voigt Hill
#
# Bulk Modulus (GPa) = 48.85495 65.36300 57.10898
# Shear Modulus (GPa) = 22.80892 33.16147 27.98519
#
# Velocity S-wave (km/s) = 3.28448 3.96032 3.63813
# Velocity P-wave (km/s) = 6.12293 7.19906 6.68269
#
# Compressibility (1/GPa) = 0.02046875
#
# Stress axis : x y z
#
# Youngs Moduli (GPa) = 47.08389 23.92327 92.93715
#
# Poissons Ratio (x) = 0.44076 0.36878
# Poissons Ratio (y) = 0.86748 0.39712
# Poissons Ratio (z) = 0.18683 0.10222
#
# Static dielectric constant tensor:
#      x y z
#    x 4.086600 0.003930 -0.206110 
#    y 0.003930 3.852280 -0.190380 
#    z -0.206110 -0.190380 4.349870 
# 
# 
# High freq. dielectric constant tensor:
#      x y z
#    x 1.835430 -0.004170 -0.015120 
#    y -0.004170 1.811070 -0.018830 
#    z -0.015120 -0.018830 1.845350 
# 
# From -- ./inp_files/227688.got.cif
#   From: 2010.06.25/outbox.cif.g09.slc.cpg/sg2_114_cif.got.tgz:227688.got - 2010.06.27 13:26:56.
