data_PCOD8018024
_publ_section_title
;
Structure prediction by ZEFSAII (Michael W. Deem and Ramdas Pophale) SiO2 
 PCOD8018024
Probable space group: P -1
;
_chemical_formula_sum "Si O2"
_cell_formula_units_Z 14
_cell_length_a 18.326024
_cell_length_b 10.555518
_cell_length_c 13.296723
_cell_angle_alpha 40.786068
_cell_angle_beta 147.849139
_cell_angle_gamma 116.415278
_cell_volume 738.146353
_symmetry_space_group_name_H-M "P -1"
_symmetry_group_IT_number 2
_symmetry_cell_setting 'triclinic'
loop_
_space_group_symop_operation_xyz
x,y,z
-x,-y,-z
loop_
_atom_site_type_symbol
_atom_site_label
_atom_site_fract_x
_atom_site_fract_y
_atom_site_fract_z
Si Si1 0.276114 0.127145 0.391740
Si Si2 0.392769 0.259078 0.264439
Si Si3 0.458769 0.148193 0.763244
Si Si4 0.864062 0.443789 0.383878
Si Si5 0.600439 0.731305 0.063714
Si Si6 0.385590 0.552186 0.562548
Si Si7 0.991197 0.057850 0.072354
O O1 0.285780 0.278376 0.223927
O O2 0.290076 0.215446 0.466383
O O3 0.103589 0.154684 0.165692
O O4 0.434053 0.852024 0.726687
O O5 0.520285 0.321280 0.409785
O O6 0.500000 0.000000 0.500000
O O7 0.262911 0.449060 0.920127
O O8 0.442455 0.387592 0.627532
O O9 0.500000 0.000000 0.000000
O O10 0.607093 0.952717 0.979051
O O11 0.768985 0.551111 0.312976
O O12 0.000000 0.500000 0.500000
O O13 0.949441 0.167041 0.654128
O O14 0.567778 0.603242 0.190276
O O15 0.190212 0.744990 0.219081
O O16 0.000000 0.000000 0.000000
#
# Coordination Sequence:
#
# PCOD8018024 Si02
#       7
#     2   2   2   2   2   2   2
#     4  10  22  40  60  91 119 162 207 252 299 365
#     4  12  23  37  61  91 125 160 206 249 312 367
#     4   8  19  40  66  87 114 163 217 248 293 360
#     4  12  24  38  60  90 131 157 200 260 311 365
#     4   9  20  40  64  85 117 163 206 251 296 363
#     4  11  22  39  65  90 121 163 205 254 301 368
#     4  12  24  36  61  93 127 160 200 250 319 359
#
# _framework density 18.966428000000001
#
# number of rings (size 3 to 8) (size 9 to 14) (size 15 to 20)
#    0.857    0.571    2.857    3.429    0.000    2.286 
#    0.000    0.000    0.000    1.714    0.000    0.000 
#    0.000    0.000    0.000    0.000    0.000    0.000 
#
# Total GULP energy -173439.449137 kJ/mol
# GULP energy per Si atom -12388.532081 kJ/mol
# Density = 1.892326 g / cm^3
# Si number density = 18.966428 Si / 1000 Ang^3
#
#
#
# Elastic Constant Matrix: (Units=GPa)
#
#
# Indices 1 2 3 4 5 6 
#
# 1 65.6553 49.5842 25.5982 2.0368 -10.5648 6.7960
# 2 49.5842 158.6562 43.0325 6.0124 3.0601 7.3731
# 3 25.5982 43.0325 96.4594 -7.1158 -8.8629 4.4135
# 4 2.0368 6.0124 -7.1158 34.0138 -1.3472 2.2065
# 5 -10.5648 3.0601 -8.8629 -1.3472 34.6298 3.4280
# 6 6.7960 7.3731 4.4135 2.2065 3.4280 35.1663
#
#
#
# Elastic Compliance Matrix: (Units=1/GPa)
#
#
# Indices 1 2 3 4 5 6 
#
# 1 0.022445 -0.006357 -0.002324 -0.000203 0.007143 -0.003397
# 2 -0.006357 0.009218 -0.002910 -0.002009 -0.003590 0.000137
# 3 -0.002324 -0.002910 0.012876 0.003540 0.003088 -0.001080
# 4 -0.000203 -0.002009 0.003540 0.030743 0.002430 -0.002150
# 5 0.007143 -0.003590 0.003088 0.002430 0.032689 -0.004354
# 6 -0.003397 0.000137 -0.001080 -0.002150 -0.004354 0.029759
#
#
# Mechanical properties :
#
#
# Convention : Reuss Voigt Hill
#
# Bulk Modulus (GPa) = 46.81952 61.91121 54.36536
# Shear Modulus (GPa) = 29.75664 34.26572 32.01118
#
# Velocity S-wave (km/s) = 3.96525 4.25508 4.11272
# Velocity P-wave (km/s) = 6.76042 7.54018 7.16092
#
# Compressibility (1/GPa) = 0.02135861
#
# Stress axis : x y z
#
# Youngs Moduli (GPa) = 44.55338 108.48703 77.66333
#
# Poissons Ratio (x) = 0.68960 0.18048
# Poissons Ratio (y) = 0.28320 0.22597
# Poissons Ratio (z) = 0.10354 0.31566
#
# Static dielectric constant tensor:
#      x y z
#    x 3.676210 -0.159460 -0.172260 
#    y -0.159460 3.645680 -0.119400 
#    z -0.172260 -0.119400 3.689970 
# 
# 
# High freq. dielectric constant tensor:
#      x y z
#    x 1.727930 -0.005310 -0.016280 
#    y -0.005310 1.730250 -0.004490 
#    z -0.016280 -0.004490 1.747990 
# 
# From -- ./inp_files/227868.got.cif
#   From: 2010.06.25/outbox.cif.g09.slc.cpg/sg2_114_cif.got.tgz:227868.got - 2010.06.27 13:26:56.
