data_PCOD8018052
_publ_section_title
;
Structure prediction by ZEFSAII (Michael W. Deem and Ramdas Pophale) SiO2 
 PCOD8018052
Probable space group: P -1
;
_chemical_formula_sum "Si O2"
_cell_formula_units_Z 14
_cell_length_a 15.503450
_cell_length_b 8.160527
_cell_length_c 14.214775
_cell_angle_alpha 77.838767
_cell_angle_beta 25.186108
_cell_angle_gamma 62.282688
_cell_volume 562.207398
_symmetry_space_group_name_H-M "P -1"
_symmetry_group_IT_number 2
_symmetry_cell_setting 'triclinic'
loop_
_space_group_symop_operation_xyz
x,y,z
-x,-y,-z
loop_
_atom_site_type_symbol
_atom_site_label
_atom_site_fract_x
_atom_site_fract_y
_atom_site_fract_z
Si Si1 0.924462 0.057266 0.851704
Si Si2 0.523373 0.141908 0.584445
Si Si3 0.487900 0.826645 0.122545
Si Si4 0.531000 0.755490 0.580795
Si Si5 0.488775 0.540644 0.895541
Si Si6 0.725523 0.720116 0.704934
Si Si7 0.085724 0.310432 0.141987
O O1 0.873977 0.910338 0.866297
O O2 0.750436 0.152767 0.108324
O O3 0.815750 0.265688 0.865459
O O4 0.237767 0.911028 0.582260
O O5 0.486793 0.269790 0.510244
O O6 0.600402 0.910676 0.511416
O O7 0.246364 0.304125 0.896335
O O8 0.383787 0.690487 0.257291
O O9 0.282745 0.077228 0.341965
O O10 0.503949 0.837699 0.992825
O O11 0.786975 0.683272 0.888932
O O12 0.770891 0.518412 0.418517
O O13 0.642658 0.635028 0.713328
O O14 0.500000 0.500000 0.000000
O O15 0.000000 0.500000 0.500000
#
# Coordination Sequence:
#
# PCOD8018052 Si02
#       7
#     2   2   2   2   2   2   2
#     4  11  23  41  66  96 135 174 227 278 329 402
#     4  10  23  43  65  96 134 173 222 278 336 403
#     4  10  22  40  61  91 127 172 214 270 334 387
#     4  10  23  42  67  95 131 177 221 278 338 395
#     4  10  22  41  63  93 130 173 222 271 334 392
#     4  10  22  40  63  89 129 165 222 273 321 393
#     4  11  23  39  66  97 137 171 222 276 336 398
#
# _framework density 24.901841000000001
#
# number of rings (size 3 to 8) (size 9 to 14) (size 15 to 20)
#    0.000    1.714    1.429    1.714    2.000    5.714 
#    0.000    0.000    0.000    0.000    0.000    0.000 
#    0.000    0.000    0.000    0.000    0.000    0.000 
#
# Total GULP energy -173517.638141 kJ/mol
# GULP energy per Si atom -12394.117010 kJ/mol
# Density = 2.484516 g / cm^3
# Si number density = 24.901841 Si / 1000 Ang^3
#
#
#
# Elastic Constant Matrix: (Units=GPa)
#
#
# Indices 1 2 3 4 5 6 
#
# 1 99.6133 41.1629 -1.5640 0.1657 -19.0729 13.2929
# 2 41.1629 140.0620 14.8067 29.9941 -10.8372 33.2461
# 3 -1.5640 14.8067 73.1713 9.4294 -11.1934 12.0202
# 4 0.1657 29.9941 9.4294 31.4981 -9.9452 0.4506
# 5 -19.0729 -10.8372 -11.1934 -9.9452 33.2816 -3.7581
# 6 13.2929 33.2461 12.0202 0.4506 -3.7581 58.0128
#
#
#
# Elastic Compliance Matrix: (Units=1/GPa)
#
#
# Indices 1 2 3 4 5 6 
#
# 1 0.013886 -0.005052 0.001812 0.007042 0.009012 -0.000133
# 2 -0.005052 0.012601 -0.000541 -0.012827 -0.003493 -0.006078
# 3 0.001812 -0.000541 0.015379 -0.002491 0.004957 -0.002951
# 4 0.007042 -0.012827 -0.002491 0.049144 0.014476 0.006809
# 5 0.009012 -0.003493 0.004957 0.014476 0.040225 0.001403
# 6 -0.000133 -0.006078 -0.002951 0.006809 0.001403 0.021401
#
#
# Mechanical properties :
#
#
# Convention : Reuss Voigt Hill
#
# Bulk Modulus (GPa) = 29.15037 46.85086 38.00061
# Shear Modulus (GPa) = 29.13204 41.78789 35.45997
#
# Velocity S-wave (km/s) = 3.42405 4.10091 3.77767
# Velocity P-wave (km/s) = 5.23103 6.42482 5.85842
#
# Compressibility (1/GPa) = 0.03430489
#
# Stress axis : x y z
#
# Youngs Moduli (GPa) = 72.01308 79.35921 65.02434
#
# Poissons Ratio (x) = 0.40091 -0.11782
# Poissons Ratio (y) = 0.36380 0.03516
# Poissons Ratio (z) = -0.13049 0.04291
#
# Static dielectric constant tensor:
#      x y z
#    x 4.839600 0.347860 0.016320 
#    y 0.347860 5.190600 0.000140 
#    z 0.016320 0.000140 4.162970 
# 
# 
# High freq. dielectric constant tensor:
#      x y z
#    x 1.999280 0.003210 -0.002540 
#    y 0.003210 2.002190 0.006460 
#    z -0.002540 0.006460 1.969350 
# 
# From -- ./inp_files/348379.got.cif
#   From: 2010.06.25/outbox.cif.g09.slc.cpg/sg2_175_cif.got.tgz:348379.got - 2010.06.27 13:26:56.
