data_PCOD8018911
_publ_section_title
;
Structure prediction by ZEFSAII (Michael W. Deem and Ramdas Pophale) SiO2 
 PCOD8018911
Probable space group: P -1
;
_chemical_formula_sum "Si O2"
_cell_formula_units_Z 14
_cell_length_a 7.761926
_cell_length_b 19.713059
_cell_length_c 16.540125
_cell_angle_alpha 20.393802
_cell_angle_beta 134.297031
_cell_angle_gamma 133.181030
_cell_volume 626.722678
_symmetry_space_group_name_H-M "P -1"
_symmetry_group_IT_number 2
_symmetry_cell_setting 'triclinic'
loop_
_space_group_symop_operation_xyz
x,y,z
-x,-y,-z
loop_
_atom_site_type_symbol
_atom_site_label
_atom_site_fract_x
_atom_site_fract_y
_atom_site_fract_z
Si Si1 0.368152 0.943405 0.635869
Si Si2 0.164466 0.902874 0.279327
Si Si3 0.438383 0.572636 0.988237
Si Si4 0.705293 0.071358 0.884493
Si Si5 0.952329 0.719099 0.850593
Si Si6 0.055438 0.477984 0.763770
Si Si7 0.597798 0.297138 0.742715
O O1 0.207014 0.813353 0.794313
O O2 0.626500 0.016894 0.678683
O O3 0.221853 0.117406 0.363144
O O4 0.398853 0.802359 0.725983
O O5 0.280931 0.852939 0.287218
O O6 0.013935 0.705728 0.486191
O O7 0.970608 0.054992 0.028807
O O8 0.200114 0.428123 0.099602
O O9 0.669885 0.540708 0.154421
O O10 0.500000 0.500000 0.000000
O O11 0.572197 0.225500 0.721382
O O12 0.539906 0.862597 0.064126
O O13 0.002693 0.587143 0.090759
O O14 0.883539 0.330478 0.817024
O O15 0.500000 0.500000 0.500000
#
# Coordination Sequence:
#
# PCOD8018911 Si02
#       7
#     2   2   2   2   2   2   2
#     4  11  22  42  68  90 130 170 203 266 312 377
#     4  11  22  43  65  95 126 167 214 258 321 367
#     4  10  22  41  62  93 127 162 213 253 310 375
#     4  10  24  43  65  93 129 165 213 264 309 381
#     4  10  23  42  63  95 127 164 214 253 318 377
#     4  11  22  41  62  95 128 163 212 257 313 379
#     4  11  22  44  65  92 127 167 210 261 318 371
#
# _framework density 22.338429000000001
#
# number of rings (size 3 to 8) (size 9 to 14) (size 15 to 20)
#    0.000    1.429    2.857    2.143    0.000    2.857 
#   10.286    2.857    0.000    0.000    0.000    0.000 
#    0.000    0.000    0.000    0.000    0.000    0.000 
#
# Total GULP energy -173534.628095 kJ/mol
# GULP energy per Si atom -12395.330578 kJ/mol
# Density = 2.228759 g / cm^3
# Si number density = 22.338429 Si / 1000 Ang^3
#
#
#
# Elastic Constant Matrix: (Units=GPa)
#
#
# Indices 1 2 3 4 5 6 
#
# 1 80.9502 37.4299 35.7449 -14.4129 -5.6700 -10.3331
# 2 37.4299 123.5554 37.2495 -20.9330 -2.5161 12.5807
# 3 35.7449 37.2495 100.7064 -13.5674 -5.4866 -18.4395
# 4 -14.4129 -20.9330 -13.5674 28.3817 -0.7670 -2.6038
# 5 -5.6700 -2.5161 -5.4866 -0.7670 38.0638 -6.7402
# 6 -10.3331 12.5807 -18.4395 -2.6038 -6.7402 37.9189
#
#
#
# Elastic Compliance Matrix: (Units=1/GPa)
#
#
# Indices 1 2 3 4 5 6 
#
# 1 0.017269 -0.004049 -0.002765 0.005055 0.002997 0.005585
# 2 -0.004049 0.011808 -0.003682 0.004230 -0.001469 -0.006782
# 3 -0.002765 -0.003682 0.014435 0.003618 0.002961 0.008263
# 4 0.005055 0.004230 0.003618 0.043228 0.003364 0.005300
# 5 0.002997 -0.001469 0.002961 0.003364 0.028541 0.008048
# 6 0.005585 -0.006782 0.008263 0.005300 0.008048 0.035957
#
#
# Mechanical properties :
#
#
# Convention : Reuss Voigt Hill
#
# Bulk Modulus (GPa) = 44.40664 58.45120 51.42892
# Shear Modulus (GPa) = 27.81852 33.85873 30.83863
#
# Velocity S-wave (km/s) = 3.53274 3.89744 3.71956
# Velocity P-wave (km/s) = 6.04669 6.81736 6.44356
#
# Compressibility (1/GPa) = 0.02251915
#
# Stress axis : x y z
#
# Youngs Moduli (GPa) = 57.90642 84.69068 69.27616
#
# Poissons Ratio (x) = 0.34292 0.19155
# Poissons Ratio (y) = 0.23447 0.25509
# Poissons Ratio (z) = 0.16011 0.31185
#
# Static dielectric constant tensor:
#      x y z
#    x 4.078430 0.634700 -0.004940 
#    y 0.634700 5.166700 -0.296560 
#    z -0.004940 -0.296560 3.961250 
# 
# 
# High freq. dielectric constant tensor:
#      x y z
#    x 1.874980 0.023590 0.001130 
#    y 0.023590 1.890540 -0.016930 
#    z 0.001130 -0.016930 1.874390 
# 
# From -- ./inp_files/562607.got.cif
#   From: 2010.06.25/outbox.cif.g09.slc.cpg/sg2_282_cif.got.tgz:562607.got - 2010.06.27 13:26:56.
