data_PCOD8018014
_publ_section_title
;
Structure prediction by ZEFSAII (Michael W. Deem and Ramdas Pophale) SiO2 
 PCOD8018014
Probable space group: P -1
;
_chemical_formula_sum "Si O2"
_cell_formula_units_Z 16
_cell_length_a 12.653458
_cell_length_b 9.438477
_cell_length_c 9.438504
_cell_angle_alpha 98.805560
_cell_angle_beta 98.788283
_cell_angle_gamma 44.982385
_cell_volume 785.838598
_symmetry_space_group_name_H-M "P -1"
_symmetry_group_IT_number 2
_symmetry_cell_setting 'triclinic'
loop_
_space_group_symop_operation_xyz
x,y,z
-x,-y,-z
loop_
_atom_site_type_symbol
_atom_site_label
_atom_site_fract_x
_atom_site_fract_y
_atom_site_fract_z
Si Si1 0.659558 0.736295 0.680225
Si Si2 0.616615 0.090946 0.002520
Si Si3 0.824526 0.874299 0.761432
Si Si4 0.659558 0.520669 0.895852
Si Si5 0.331252 0.525440 0.569957
Si Si6 0.383386 0.114094 0.792437
Si Si7 0.824525 0.436907 0.198825
Si Si8 0.331251 0.738705 0.356692
O O1 0.771260 0.764997 0.695988
O O2 0.680308 0.645078 0.825385
O O3 0.700806 0.586535 0.544032
O O4 0.483380 0.948904 0.661796
O O5 0.516620 0.321581 0.067716
O O6 0.687318 0.942511 0.129831
O O7 0.500003 0.099298 0.900694
O O8 0.748923 0.008912 0.910019
O O9 0.000000 0.706131 0.793867
O O10 0.780842 0.022254 0.647009
O O11 0.700805 0.343227 0.787342
O O12 0.771260 0.424731 0.036256
O O13 0.219159 0.633834 0.696906
O O14 0.302736 0.694876 0.497612
O O15 0.500000 0.362726 0.637274
O O16 0.251080 0.338903 0.742164
#
# Coordination Sequence:
#
# PCOD8018014 Si02
#       8
#     2   2   2   2   2   2   2   2
#     4   9  19  38  61  83 109 142 184 233 276 318
#     4   8  15  30  53  80 107 137 178 226 268 310
#     4  11  22  33  54  86 119 148 178 218 275 338
#     4   9  19  38  61  83 109 142 184 233 276 318
#     4  10  22  40  60  80 105 144 192 235 274 319
#     4   8  15  30  53  80 107 137 178 226 268 310
#     4  11  22  33  54  86 119 148 178 218 275 338
#     4  10  22  40  60  80 105 144 192 235 274 319
#
# _framework density 20.360416000000001
#
# number of rings (size 3 to 8) (size 9 to 14) (size 15 to 20)
#    0.000    2.500    0.000    4.500    0.000    7.500 
#    0.000    0.000    0.000    7.500    0.000    0.000 
#    0.000    0.000    0.000    0.000    0.000    0.000 
#
# Total GULP energy -198359.945418 kJ/mol
# GULP energy per Si atom -12397.496589 kJ/mol
# Density = 2.031407 g / cm^3
# Si number density = 20.360416 Si / 1000 Ang^3
#
#
#
# Elastic Constant Matrix: (Units=GPa)
#
#
# Indices 1 2 3 4 5 6 
#
# 1 103.3852 65.6554 41.4098 -12.7051 -6.6069 -11.0321
# 2 65.6554 81.1803 40.7084 -14.6770 -11.4523 -14.0924
# 3 41.4098 40.7084 75.2202 -13.1877 -2.5065 -0.8130
# 4 -12.7051 -14.6770 -13.1877 17.4856 5.4233 3.9712
# 5 -6.6069 -11.4523 -2.5065 5.4233 20.7224 0.4270
# 6 -11.0321 -14.0924 -0.8130 3.9712 0.4270 29.8209
#
#
#
# Elastic Compliance Matrix: (Units=1/GPa)
#
#
# Indices 1 2 3 4 5 6 
#
# 1 0.020528 -0.015299 -0.003013 0.000492 -0.002408 0.000251
# 2 -0.015299 0.032556 -0.007873 0.004987 0.010678 0.008694
# 3 -0.003013 -0.007873 0.020674 0.009661 -0.005226 -0.005483
# 4 0.000492 0.004987 0.009661 0.075426 -0.015514 -0.007020
# 5 -0.002408 0.010678 -0.005226 -0.015514 0.056710 0.005267
# 6 0.000251 0.008694 -0.005483 -0.007020 0.005267 0.038445
#
#
# Mechanical properties :
#
#
# Convention : Reuss Voigt Hill
#
# Bulk Modulus (GPa) = 46.75153 61.70365 54.22759
# Shear Modulus (GPa) = 16.45610 21.07324 18.76467
#
# Velocity S-wave (km/s) = 2.84604 3.22065 3.03912
# Velocity P-wave (km/s) = 5.81479 6.64843 6.24553
#
# Compressibility (1/GPa) = 0.02138967
#
# Stress axis : x y z
#
# Youngs Moduli (GPa) = 48.71321 30.71585 48.36981
#
# Poissons Ratio (x) = 0.46992 0.14573
# Poissons Ratio (y) = 0.74525 0.38081
# Poissons Ratio (z) = 0.14676 0.24182
#
# Static dielectric constant tensor:
#      x y z
#    x 3.444340 0.184940 -0.235330 
#    y 0.184940 3.910450 0.174290 
#    z -0.235330 0.174290 3.835680 
# 
# 
# High freq. dielectric constant tensor:
#      x y z
#    x 1.771600 0.019820 -0.017560 
#    y 0.019820 1.787590 -0.002360 
#    z -0.017560 -0.002360 1.793750 
# 
# From -- ./inp_files/244643.got.cif
#   From: 2010.06.25/outbox.cif.g09.slc.cpg/sg2_123_cif.got.tgz:244643.got - 2010.06.27 13:26:56.
