data_PCOD8018268
_publ_section_title
;
Structure prediction by ZEFSAII (Michael W. Deem and Ramdas Pophale) SiO2 
 PCOD8018268
Probable space group: P -1
;
_chemical_formula_sum "Si O2"
_cell_formula_units_Z 16
_cell_length_a 17.477559
_cell_length_b 17.045860
_cell_length_c 9.395756
_cell_angle_alpha 32.877764
_cell_angle_beta 143.075630
_cell_angle_gamma 150.140442
_cell_volume 729.900535
_symmetry_space_group_name_H-M "P -1"
_symmetry_group_IT_number 2
_symmetry_cell_setting 'triclinic'
loop_
_space_group_symop_operation_xyz
x,y,z
-x,-y,-z
loop_
_atom_site_type_symbol
_atom_site_label
_atom_site_fract_x
_atom_site_fract_y
_atom_site_fract_z
Si Si1 0.076874 0.896889 0.276886
Si Si2 0.376479 0.015161 0.207181
Si Si3 0.448249 0.268361 0.706861
Si Si4 0.394895 0.578194 0.589845
Si Si5 0.926957 0.606452 0.720375
Si Si6 0.612575 0.762803 0.880390
Si Si7 0.978932 0.315558 0.756818
Si Si8 0.769595 0.621994 0.740726
O O1 0.004738 0.742808 0.284920
O O2 0.048270 0.799464 0.532376
O O3 0.263031 0.050429 0.301243
O O4 0.000000 0.000000 0.000000
O O5 0.397896 0.185959 0.053840
O O6 0.500000 0.000000 0.500000
O O7 0.197123 0.834213 0.215139
O O8 0.419748 0.083347 0.002581
O O9 0.480008 0.300624 0.535258
O O10 0.603570 0.423282 0.790454
O O11 0.286187 0.248482 0.530960
O O12 0.228745 0.542306 0.374381
O O13 0.454342 0.672377 0.688059
O O14 0.346280 0.376514 0.831290
O O15 0.878912 0.655312 0.718637
O O16 0.000000 0.500000 0.000000
O O17 0.000000 0.500000 0.500000
O O18 0.123500 0.344511 0.015844
#
# Coordination Sequence:
#
# PCOD8018268 Si02
#       8
#     2   2   2   2   2   2   2   2
#     4  11  24  42  66  95 131 168 219 270 322 382
#     4  11  24  42  63  92 133 167 215 268 328 383
#     4  10  22  40  65  92 128 172 211 279 318 387
#     4  10  22  41  67  94 127 168 221 256 333 386
#     4  11  23  40  64  95 135 172 211 272 330 388
#     4  10  22  41  65  95 123 170 216 268 312 394
#     4  11  25  42  66  97 130 173 219 267 327 395
#     4  10  22  40  64  93 131 166 220 259 331 385
#
# _framework density 21.920795999999999
#
# number of rings (size 3 to 8) (size 9 to 14) (size 15 to 20)
#    0.000    1.500    1.250    3.750    3.500    7.500 
#    0.000    1.250    0.000    0.000    0.000    0.000 
#    0.000    0.000    0.000    0.000    0.000    0.000 
#
# Total GULP energy -198275.738461 kJ/mol
# GULP energy per Si atom -12392.233654 kJ/mol
# Density = 2.187090 g / cm^3
# Si number density = 21.920796 Si / 1000 Ang^3
#
#
#
# Elastic Constant Matrix: (Units=GPa)
#
#
# Indices 1 2 3 4 5 6 
#
# 1 73.0860 31.5855 44.9202 -10.7561 -7.9250 12.5918
# 2 31.5855 99.0180 49.5205 9.7853 2.3223 -7.3961
# 3 44.9202 49.5205 156.1170 -5.9965 -1.8169 13.9551
# 4 -10.7561 9.7853 -5.9965 42.4511 11.9986 4.7091
# 5 -7.9250 2.3223 -1.8169 11.9986 32.4907 -1.6543
# 6 12.5918 -7.3961 13.9551 4.7091 -1.6543 30.0870
#
#
#
# Elastic Compliance Matrix: (Units=1/GPa)
#
#
# Indices 1 2 3 4 5 6 
#
# 1 0.021523 -0.007056 -0.002715 0.007174 0.002420 -0.010473
# 2 -0.007056 0.015880 -0.004167 -0.007152 0.000057 0.009912
# 3 -0.002715 -0.004167 0.008985 0.002303 -0.000940 -0.004468
# 4 0.007174 -0.007152 0.002303 0.031359 -0.009765 -0.011274
# 5 0.002420 0.000057 -0.000940 -0.009765 0.035065 0.002894
# 6 -0.010473 0.009912 -0.004468 -0.011274 0.002894 0.044053
#
#
# Mechanical properties :
#
#
# Convention : Reuss Voigt Hill
#
# Bulk Modulus (GPa) = 54.01707 64.47483 59.24595
# Shear Modulus (GPa) = 26.19025 34.48540 30.33783
#
# Velocity S-wave (km/s) = 3.46029 3.97064 3.72422
# Velocity P-wave (km/s) = 6.37654 7.10618 6.75122
#
# Compressibility (1/GPa) = 0.01851267
#
# Stress axis : x y z
#
# Youngs Moduli (GPa) = 46.46194 62.97350 111.29300
#
# Poissons Ratio (x) = 0.44433 0.30215
# Poissons Ratio (y) = 0.32783 0.46375
# Poissons Ratio (z) = 0.12614 0.26241
#
# Static dielectric constant tensor:
#      x y z
#    x 4.055020 0.053580 -0.129240 
#    y 0.053580 3.928650 0.026810 
#    z -0.129240 0.026810 4.055920 
# 
# 
# High freq. dielectric constant tensor:
#      x y z
#    x 1.857870 0.009610 -0.007690 
#    y 0.009610 1.864640 0.003350 
#    z -0.007690 0.003350 1.873010 
# 
# From -- ./inp_files/336652.got.cif
#   From: 2010.06.25/outbox.cif.g09.slc.cpg/sg2_169_cif.got.tgz:336652.got - 2010.06.27 13:26:56.
