data_PCOD8018813
_publ_section_title
;
Structure prediction by ZEFSAII (Michael W. Deem and Ramdas Pophale) SiO2 
 PCOD8018813
Probable space group: P -1
;
_chemical_formula_sum "Si O2"
_cell_formula_units_Z 16
_cell_length_a 10.807518
_cell_length_b 5.345167
_cell_length_c 17.271898
_cell_angle_alpha 126.326699
_cell_angle_beta 59.090432
_cell_angle_gamma 100.680334
_cell_volume 679.394176
_symmetry_space_group_name_H-M "P -1"
_symmetry_group_IT_number 2
_symmetry_cell_setting 'triclinic'
loop_
_space_group_symop_operation_xyz
x,y,z
-x,-y,-z
loop_
_atom_site_type_symbol
_atom_site_label
_atom_site_fract_x
_atom_site_fract_y
_atom_site_fract_z
Si Si1 0.851054 0.907006 0.665855
Si Si2 0.126608 0.735027 0.879740
Si Si3 0.695458 0.817174 0.189153
Si Si4 0.155911 0.519598 0.544511
Si Si5 0.994342 0.518787 0.268535
Si Si6 0.412142 0.829580 0.558278
Si Si7 0.481630 0.539530 0.922462
Si Si8 0.721544 0.873917 0.857237
O O1 0.788148 0.781644 0.583500
O O2 0.721032 0.958474 0.781055
O O3 0.988035 0.652811 0.603120
O O4 0.907569 0.227957 0.692716
O O5 0.203555 0.521948 0.886201
O O6 0.061759 0.478967 0.800762
O O7 0.227075 0.917324 0.826982
O O8 0.000000 0.000000 0.000000
O O9 0.572981 0.751846 0.155311
O O10 0.622422 0.942569 0.315858
O O11 0.264805 0.772118 0.550401
O O12 0.148956 0.428446 0.620660
O O13 0.108720 0.192029 0.182974
O O14 0.500000 0.500000 0.500000
O O15 0.500000 0.000000 0.500000
O O16 0.634746 0.580475 0.841066
O O17 0.500000 0.500000 0.000000
O O18 0.357686 0.851444 0.010741
#
# Coordination Sequence:
#
# PCOD8018813 Si02
#       8
#     2   2   2   2   2   2   2   2
#     4  10  22  40  72  95 139 175 235 296 356 412
#     4  12  27  45  78 108 147 190 239 299 365 439
#     4  12  28  50  73 109 145 193 243 299 364 431
#     4  10  23  43  65 103 133 182 234 296 352 421
#     4  11  22  42  69  99 140 177 236 290 363 415
#     4  12  28  48  74 103 146 196 243 296 358 435
#     4  11  26  45  70  94 146 181 235 290 355 426
#     4  10  24  41  65 104 129 186 229 295 348 432
#
# _framework density 23.550391999999999
#
# number of rings (size 3 to 8) (size 9 to 14) (size 15 to 20)
#    0.000    1.000    1.250    3.750   12.250    2.000 
#    0.000    0.000    0.000    0.000    0.000    0.000 
#    0.000    0.000    0.000    0.000    0.000    0.000 
#
# Total GULP energy -198357.948741 kJ/mol
# GULP energy per Si atom -12397.371796 kJ/mol
# Density = 2.349679 g / cm^3
# Si number density = 23.550392 Si / 1000 Ang^3
#
#
#
# Elastic Constant Matrix: (Units=GPa)
#
#
# Indices 1 2 3 4 5 6 
#
# 1 83.5781 26.7256 33.0781 -1.6808 29.3162 24.3854
# 2 26.7256 122.6227 25.9277 -17.1290 3.1162 19.5519
# 3 33.0781 25.9277 103.2542 -10.0471 17.5021 30.1426
# 4 -1.6808 -17.1290 -10.0471 42.3949 8.4187 -4.5670
# 5 29.3162 3.1162 17.5021 8.4187 40.1651 8.8200
# 6 24.3854 19.5519 30.1426 -4.5670 8.8200 43.4827
#
#
#
# Elastic Compliance Matrix: (Units=1/GPa)
#
#
# Indices 1 2 3 4 5 6 
#
# 1 0.019491 -0.002455 -0.001673 0.001157 -0.012217 -0.006067
# 2 -0.002455 0.009640 -0.000886 0.003087 0.001283 -0.002280
# 3 -0.001673 -0.000886 0.013322 0.002699 -0.003568 -0.006892
# 4 0.001157 0.003087 0.002699 0.027190 -0.008088 0.000589
# 5 -0.012217 0.001283 -0.003568 -0.008088 0.036873 0.000419
# 6 -0.006067 -0.002280 -0.006892 0.000589 0.000419 0.032180
#
#
# Mechanical properties :
#
#
# Convention : Reuss Voigt Hill
#
# Bulk Modulus (GPa) = 30.83972 53.43532 42.13752
# Shear Modulus (GPa) = 31.34198 40.12345 35.73272
#
# Velocity S-wave (km/s) = 3.65204 4.13210 3.89946
# Velocity P-wave (km/s) = 5.55939 6.74572 6.18108
#
# Compressibility (1/GPa) = 0.03242572
#
# Stress axis : x y z
#
# Youngs Moduli (GPa) = 51.30666 103.73962 75.06136
#
# Poissons Ratio (x) = 0.25466 0.12557
# Poissons Ratio (y) = 0.12595 0.06649
# Poissons Ratio (z) = 0.08583 0.09189
#
# Static dielectric constant tensor:
#      x y z
#    x 4.343810 -0.030690 -0.073050 
#    y -0.030690 4.271520 0.075460 
#    z -0.073050 0.075460 4.704620 
# 
# 
# High freq. dielectric constant tensor:
#      x y z
#    x 1.929560 0.004080 0.000310 
#    y 0.004080 1.930810 -0.001520 
#    z 0.000310 -0.001520 1.949510 
# 
# From -- ./inp_files/101120.got.cif
#   From: 2010.06.25/outbox.cif.g09.slc.cpg/sg2_51_cif.got.tgz:101120.got - 2010.06.27 13:26:56.
