data_PCOD8018141
_publ_section_title
;
Structure prediction by ZEFSAII (Michael W. Deem and Ramdas Pophale) SiO2 
 PCOD8018141
Probable space group: P -1
;
_chemical_formula_sum "Si O2"
_cell_formula_units_Z 14
_cell_length_a 7.117905
_cell_length_b 13.218239
_cell_length_c 8.003393
_cell_angle_alpha 78.006304
_cell_angle_beta 82.285058
_cell_angle_gamma 107.206311
_cell_volume 687.998530
_symmetry_space_group_name_H-M "P -1"
_symmetry_group_IT_number 2
_symmetry_cell_setting 'triclinic'
loop_
_space_group_symop_operation_xyz
x,y,z
-x,-y,-z
loop_
_atom_site_type_symbol
_atom_site_label
_atom_site_fract_x
_atom_site_fract_y
_atom_site_fract_z
Si Si1 0.469300 0.228447 0.567893
Si Si2 0.987948 0.907969 0.897270
Si Si3 0.489098 0.595948 0.086323
Si Si4 0.414672 0.180583 0.200544
Si Si5 0.158876 0.602994 0.360857
Si Si6 0.148027 0.290390 0.782161
Si Si7 0.584979 0.005327 0.304248
O O1 0.455395 0.212784 0.377236
O O2 0.671144 0.328076 0.552848
O O3 0.261826 0.245350 0.641596
O O4 0.482852 0.121668 0.704747
O O5 0.814692 0.884717 0.789195
O O6 0.176295 0.944868 0.739860
O O7 0.966474 0.798030 0.037216
O O8 0.000000 0.000000 0.000000
O O9 0.274132 0.559448 0.217876
O O10 0.675377 0.611782 0.183749
O O11 0.500000 0.500000 0.000000
O O12 0.502876 0.709477 0.955461
O O13 0.514856 0.088642 0.169055
O O14 0.000000 0.500000 0.500000
O O15 0.028755 0.673783 0.284617
O O16 0.500000 0.000000 0.500000
#
# Coordination Sequence:
#
# PCOD8018141 Si02
#       7
#     2   2   2   2   2   2   2
#     4  10  23  41  65  96 130 167 206 268 316 369
#     4  11  22  40  66  94 125 172 205 250 322 377
#     4  10  24  45  66  92 128 166 213 268 317 367
#     4  10  24  41  66  95 131 166 212 262 314 375
#     4  11  26  43  66  95 122 171 217 259 321 376
#     4  10  23  43  65  95 127 164 216 258 318 382
#     4  10  22  40  62  97 130 162 208 257 314 376
#
# _framework density 20.348882
#
# number of rings (size 3 to 8) (size 9 to 14) (size 15 to 20)
#    0.000    1.714    1.429    0.857    6.000    6.857 
#    5.143    0.000    0.000    0.000    0.000    0.000 
#    0.000    0.000    0.000    0.000    0.000    0.000 
#
# Total GULP energy -173496.961892 kJ/mol
# GULP energy per Si atom -12392.640135 kJ/mol
# Density = 2.030257 g / cm^3
# Si number density = 20.348882 Si / 1000 Ang^3
#
#
#
# Elastic Constant Matrix: (Units=GPa)
#
#
# Indices 1 2 3 4 5 6 
#
# 1 148.4614 66.8535 66.6269 -0.8477 -14.2078 2.1820
# 2 66.8535 114.5944 42.1405 -0.7953 -9.4476 0.7042
# 3 66.6269 42.1405 85.1712 5.1340 -15.9946 7.5112
# 4 -0.8477 -0.7953 5.1340 29.6295 3.9507 -4.6213
# 5 -14.2078 -9.4476 -15.9946 3.9507 44.2537 -4.2869
# 6 2.1820 0.7042 7.5112 -4.6213 -4.2869 31.9335
#
#
#
# Elastic Compliance Matrix: (Units=1/GPa)
#
#
# Indices 1 2 3 4 5 6 
#
# 1 0.012009 -0.004235 -0.007475 0.001699 0.000225 0.001307
# 2 -0.004235 0.012257 -0.002827 0.000795 0.000245 0.000832
# 3 -0.007475 -0.002827 0.020518 -0.005123 0.004444 -0.004398
# 4 0.001699 0.000795 -0.005123 0.036117 -0.003800 0.005788
# 5 0.000225 0.000245 0.004444 -0.003800 0.024833 0.001718
# 6 0.001307 0.000832 -0.004398 0.005788 0.001718 0.033310
#
#
# Mechanical properties :
#
#
# Convention : Reuss Voigt Hill
#
# Bulk Modulus (GPa) = 63.64701 77.71875 70.68288
# Shear Modulus (GPa) = 28.84242 32.67041 30.75641
#
# Velocity S-wave (km/s) = 3.76892 4.01123 3.89196
# Velocity P-wave (km/s) = 7.09122 7.72848 7.41670
#
# Compressibility (1/GPa) = 0.01571166
#
# Stress axis : x y z
#
# Youngs Moduli (GPa) = 83.26833 81.58382 48.73762
#
# Poissons Ratio (x) = 0.34552 0.36429
# Poissons Ratio (y) = 0.35266 0.13777
# Poissons Ratio (z) = 0.62239 0.23062
#
# Static dielectric constant tensor:
#      x y z
#    x 3.855360 -0.171200 -0.131020 
#    y -0.171200 4.030940 -0.199270 
#    z -0.131020 -0.199270 3.686000 
# 
# 
# High freq. dielectric constant tensor:
#      x y z
#    x 1.806500 -0.003250 -0.008010 
#    y -0.003250 1.805700 -0.007620 
#    z -0.008010 -0.007620 1.796510 
# 
# From -- ./inp_files/28204.got.cif
#   From: 2010.06.25/outbox.cif.g09.slc.cpg/sg2_15_cif.got.tgz:28204.got - 2010.06.27 13:26:56.
