data_PCOD8018742
_publ_section_title
;
Structure prediction by ZEFSAII (Michael W. Deem and Ramdas Pophale) SiO2 
 PCOD8018742
Probable space group: P -1
;
_chemical_formula_sum "Si O2"
_cell_formula_units_Z 14
_cell_length_a 11.323855
_cell_length_b 5.138768
_cell_length_c 14.999721
_cell_angle_alpha 108.046493
_cell_angle_beta 56.813038
_cell_angle_gamma 123.402623
_cell_volume 609.770994
_symmetry_space_group_name_H-M "P -1"
_symmetry_group_IT_number 2
_symmetry_cell_setting 'triclinic'
loop_
_space_group_symop_operation_xyz
x,y,z
-x,-y,-z
loop_
_atom_site_type_symbol
_atom_site_label
_atom_site_fract_x
_atom_site_fract_y
_atom_site_fract_z
Si Si1 0.392423 0.113116 0.439653
Si Si2 0.779847 0.121806 0.801255
Si Si3 0.257431 0.177964 0.863764
Si Si4 0.917636 0.211694 0.569281
Si Si5 0.592889 0.786860 0.366686
Si Si6 0.053571 0.434256 0.063184
Si Si7 0.436488 0.574018 0.123602
O O1 0.450091 0.471546 0.431057
O O2 0.308613 0.037876 0.565412
O O3 0.267701 0.938251 0.395531
O O4 0.529071 0.005117 0.369151
O O5 0.914582 0.260383 0.682174
O O6 0.876990 0.272757 0.868291
O O7 0.646352 0.223155 0.848483
O O8 0.690008 0.745314 0.807700
O O9 0.311537 0.309864 0.754958
O O10 0.413426 0.199918 0.851561
O O11 0.196722 0.356438 0.974196
O O12 0.110242 0.845057 0.861698
O O13 0.000000 0.500000 0.500000
O O14 0.000000 0.000000 0.500000
O O15 0.000000 0.500000 0.000000
O O16 0.500000 0.500000 0.000000
#
# Coordination Sequence:
#
# PCOD8018742 Si02
#       7
#     2   2   2   2   2   2   2
#     4  10  22  43  63 100 127 163 231 270 329 396
#     4  12  27  47  72 103 141 183 235 291 338 418
#     4  11  25  42  68  99 135 182 225 278 345 404
#     4  12  26  44  70  98 138 180 226 279 348 408
#     4  10  22  40  70  91 129 171 215 283 325 391
#     4  11  27  44  65 102 144 177 230 278 347 419
#     4  12  24  45  74 101 136 186 237 279 342 408
#
# _framework density 22.959437999999999
#
# number of rings (size 3 to 8) (size 9 to 14) (size 15 to 20)
#    0.000    0.857    1.429    4.714    8.000    1.143 
#    0.000    0.000    0.000    0.000    0.000    0.000 
#    0.000    0.000    0.000    0.000    0.000    0.000 
#
# Total GULP energy -173466.941048 kJ/mol
# GULP energy per Si atom -12390.495789 kJ/mol
# Density = 2.290718 g / cm^3
# Si number density = 22.959438 Si / 1000 Ang^3
#
#
#
# Elastic Constant Matrix: (Units=GPa)
#
#
# Indices 1 2 3 4 5 6 
#
# 1 110.5245 30.4990 24.2840 4.0013 11.0345 4.3674
# 2 30.4990 61.0237 21.0735 2.8456 0.9457 -5.1997
# 3 24.2840 21.0735 127.5906 -12.7507 25.2517 14.2262
# 4 4.0013 2.8456 -12.7507 31.2594 -1.5851 7.7572
# 5 11.0345 0.9457 25.2517 -1.5851 30.2034 2.1960
# 6 4.3674 -5.1997 14.2262 7.7572 2.1960 40.3340
#
#
#
# Elastic Compliance Matrix: (Units=1/GPa)
#
#
# Indices 1 2 3 4 5 6 
#
# 1 0.011069 -0.005381 -0.000487 -0.000964 -0.003421 -0.001349
# 2 -0.005381 0.021162 -0.004342 -0.004129 0.004324 0.005401
# 3 -0.000487 -0.004342 0.011549 0.006038 -0.008641 -0.005271
# 4 -0.000964 -0.004129 0.006038 0.037242 -0.001913 -0.009616
# 5 -0.003421 0.004324 -0.008641 -0.001913 0.041195 0.002101
# 6 -0.001349 0.005401 -0.005271 -0.009616 0.002101 0.029229
#
#
# Mechanical properties :
#
#
# Convention : Reuss Voigt Hill
#
# Bulk Modulus (GPa) = 42.80763 50.09465 46.45114
# Shear Modulus (GPa) = 27.83159 35.24484 31.53821
#
# Velocity S-wave (km/s) = 3.48545 3.92228 3.71030
# Velocity P-wave (km/s) = 5.90620 6.50987 6.21537
#
# Compressibility (1/GPa) = 0.02336032
#
# Stress axis : x y z
#
# Youngs Moduli (GPa) = 90.33870 47.25553 86.59001
#
# Poissons Ratio (x) = 0.25429 0.04217
# Poissons Ratio (y) = 0.48613 0.37593
# Poissons Ratio (z) = 0.04399 0.20516
#
# Static dielectric constant tensor:
#      x y z
#    x 4.158700 0.156490 0.279080 
#    y 0.156490 4.087470 0.276080 
#    z 0.279080 0.276080 4.582360 
# 
# 
# High freq. dielectric constant tensor:
#      x y z
#    x 1.912530 -0.001150 0.016620 
#    y -0.001150 1.899470 0.001180 
#    z 0.016620 0.001180 1.925680 
# 
# From -- ./inp_files/26899.got.cif
#   From: 2010.06.25/outbox.cif.g09.slc.cpg/sg2_14_cif.got.tgz:26899.got - 2010.06.27 13:26:56.
