data_PCOD8018078
_publ_section_title
;
Structure prediction by ZEFSAII (Michael W. Deem and Ramdas Pophale) SiO2 
 PCOD8018078
Probable space group: P -1
;
_chemical_formula_sum "Si O2"
_cell_formula_units_Z 12
_cell_length_a 12.045826
_cell_length_b 12.189915
_cell_length_c 9.219791
_cell_angle_alpha 61.113237
_cell_angle_beta 38.335525
_cell_angle_gamma 43.486612
_cell_volume 566.028075
_symmetry_space_group_name_H-M "P -1"
_symmetry_group_IT_number 2
_symmetry_cell_setting 'triclinic'
loop_
_space_group_symop_operation_xyz
x,y,z
-x,-y,-z
loop_
_atom_site_type_symbol
_atom_site_label
_atom_site_fract_x
_atom_site_fract_y
_atom_site_fract_z
Si Si1 0.954691 0.618858 0.272176
Si Si2 0.803409 0.737772 0.660277
Si Si3 0.889689 0.228792 0.179338
Si Si4 0.829066 0.283024 0.543119
Si Si5 0.679786 0.131614 0.983843
Si Si6 0.479291 0.346108 0.330212
O O1 0.904582 0.716823 0.408969
O O2 0.715872 0.669333 0.419627
O O3 0.136770 0.428013 0.240269
O O4 0.072004 0.656409 0.011847
O O5 0.913282 0.793228 0.617061
O O6 0.523732 0.871107 0.860249
O O7 0.825585 0.286256 0.372510
O O8 0.674292 0.252222 0.313624
O O9 0.117234 0.043154 0.046131
O O10 0.774693 0.168236 0.727564
O O11 0.636898 0.465322 0.683218
O O12 0.587754 0.268022 0.112602
#
# Coordination Sequence:
#
# PCOD8018078 Si02
#       6
#     2   2   2   2   2   2
#     4   9  20  39  61  85 111 151 198 233 276 337
#     4   9  20  39  62  82 110 154 198 232 272 342
#     4  12  24  36  58  91 122 145 181 244 297 332
#     4  11  23  39  60  85 116 154 191 233 284 339
#     4  11  23  39  60  85 116 154 191 233 284 339
#     4  10  22  40  62  82 110 156 198 232 273 342
#
# _framework density 21.20036
#
# number of rings (size 3 to 8) (size 9 to 14) (size 15 to 20)
#    0.000    1.667    0.000    5.000    0.000    8.667 
#    0.000    0.000    0.000    0.000    0.000    0.000 
#    0.000    0.000    0.000    0.000    0.000    0.000 
#
# Total GULP energy -148867.000357 kJ/mol
# GULP energy per Si atom -12405.583363 kJ/mol
# Density = 2.115211 g / cm^3
# Si number density = 21.200360 Si / 1000 Ang^3
#
#
#
# Elastic Constant Matrix: (Units=GPa)
#
#
# Indices 1 2 3 4 5 6 
#
# 1 131.7705 7.9952 47.2651 5.2694 -13.5530 -29.7845
# 2 7.9952 47.5348 11.3146 13.1140 -4.5007 -13.7935
# 3 47.2651 11.3146 68.8609 -8.3872 8.1501 -3.6689
# 4 5.2694 13.1140 -8.3872 33.2479 -12.7622 -4.0036
# 5 -13.5530 -4.5007 8.1501 -12.7622 33.0689 9.3265
# 6 -29.7845 -13.7935 -3.6689 -4.0036 9.3265 27.1146
#
#
#
# Elastic Compliance Matrix: (Units=1/GPa)
#
#
# Indices 1 2 3 4 5 6 
#
# 1 0.016166 0.007050 -0.012355 -0.004889 0.003764 0.017657
# 2 0.007050 0.032432 -0.010621 -0.014700 -0.001741 0.021234
# 3 -0.012355 -0.010621 0.025905 0.008906 -0.006052 -0.012073
# 4 -0.004889 -0.014700 0.008906 0.042727 0.013062 -0.009827
# 5 0.003764 -0.001741 -0.006052 0.013062 0.040807 -0.009678
# 6 0.017657 0.021234 -0.012073 -0.009827 -0.009678 0.067322
#
#
# Mechanical properties :
#
#
# Convention : Reuss Voigt Hill
#
# Bulk Modulus (GPa) = 23.44573 42.36843 32.90708
# Shear Modulus (GPa) = 18.42100 30.79238 24.60669
#
# Velocity S-wave (km/s) = 2.95091 3.81523 3.41056
# Velocity P-wave (km/s) = 4.76378 6.27982 5.57359
#
# Compressibility (1/GPa) = 0.04265169
#
# Stress axis : x y z
#
# Youngs Moduli (GPa) = 61.85644 30.83383 38.60207
#
# Poissons Ratio (x) = -0.21739 0.47693
# Poissons Ratio (y) = -0.43611 0.41001
# Poissons Ratio (z) = 0.76424 0.32750
#
# Static dielectric constant tensor:
#      x y z
#    x 4.031660 -0.164280 -0.203710 
#    y -0.164280 3.625030 0.117960 
#    z -0.203710 0.117960 3.712430 
# 
# 
# High freq. dielectric constant tensor:
#      x y z
#    x 1.843260 -0.011920 -0.011150 
#    y -0.011920 1.818270 0.003300 
#    z -0.011150 0.003300 1.830990 
# 
# From -- ./inp_files/151326.got.cif
#   From: 2010.06.25/outbox.cif.g09.slc.cpg/sg2_76_cif.got.tgz:151326.got - 2010.06.27 13:26:56.
