data_PCOD8018796
_publ_section_title
;
Structure prediction by ZEFSAII (Michael W. Deem and Ramdas Pophale) SiO2 
 PCOD8018796
Probable space group: P -1
;
_chemical_formula_sum "Si O2"
_cell_formula_units_Z 16
_cell_length_a 11.999313
_cell_length_b 8.837083
_cell_length_c 8.459038
_cell_angle_alpha 109.166323
_cell_angle_beta 118.880280
_cell_angle_gamma 85.274613
_cell_volume 738.738676
_symmetry_space_group_name_H-M "P -1"
_symmetry_group_IT_number 2
_symmetry_cell_setting 'triclinic'
loop_
_space_group_symop_operation_xyz
x,y,z
-x,-y,-z
loop_
_atom_site_type_symbol
_atom_site_label
_atom_site_fract_x
_atom_site_fract_y
_atom_site_fract_z
Si Si1 0.219702 0.290040 0.497395
Si Si2 0.599613 0.916541 0.647380
Si Si3 0.978924 0.055596 0.326877
Si Si4 0.630630 0.457534 0.146218
Si Si5 0.999171 0.266293 0.926371
Si Si6 0.164480 0.528281 0.288325
Si Si7 0.210247 0.807012 0.971807
Si Si8 0.431223 0.641461 0.577027
O O1 0.327421 0.211614 0.444440
O O2 0.282765 0.370995 0.726133
O O3 0.163230 0.442766 0.427495
O O4 0.109790 0.155126 0.410767
O O5 0.512253 0.813456 0.679183
O O6 0.500000 0.000000 0.500000
O O7 0.700910 0.041568 0.847137
O O8 0.856487 0.151405 0.229117
O O9 0.000000 0.000000 0.500000
O O10 0.959258 0.906895 0.142907
O O11 0.699974 0.335068 0.042861
O O12 0.601136 0.381707 0.270680
O O13 0.500000 0.500000 0.000000
O O14 0.938157 0.340611 0.753445
O O15 0.900309 0.255107 0.001671
O O16 0.127545 0.381688 0.090495
O O17 0.299421 0.630813 0.381921
O O18 0.500000 0.500000 0.500000
#
# Coordination Sequence:
#
# PCOD8018796 Si02
#       8
#     2   2   2   2   2   2   2   2
#     4  11  23  46  68  97 146 176 233 285 351 412
#     4  12  24  42  75 102 135 191 233 287 347 417
#     4  12  28  44  68 105 142 184 233 291 350 414
#     4  11  27  45  69 107 139 181 235 288 345 412
#     4  11  23  44  73  99 137 178 236 280 349 412
#     4  10  22  40  72 101 128 180 231 280 339 416
#     4  12  26  44  74 101 145 182 233 291 350 411
#     4  11  24  43  70  96 140 180 232 276 343 411
#
# _framework density 21.658538
#
# number of rings (size 3 to 8) (size 9 to 14) (size 15 to 20)
#    0.000    0.750    5.000    2.625    5.250    4.000 
#    0.000    0.000    0.000    0.000    0.000    0.000 
#    0.000    0.000    0.000    0.000    0.000    0.000 
#
# Total GULP energy -198295.485280 kJ/mol
# GULP energy per Si atom -12393.467830 kJ/mol
# Density = 2.160924 g / cm^3
# Si number density = 21.658538 Si / 1000 Ang^3
#
#
#
# Elastic Constant Matrix: (Units=GPa)
#
#
# Indices 1 2 3 4 5 6 
#
# 1 78.3521 27.3790 31.2087 1.9265 7.8025 -1.0977
# 2 27.3790 89.5665 33.4732 -3.0860 7.9973 -6.2875
# 3 31.2087 33.4732 112.3318 1.4315 26.8112 -9.2270
# 4 1.9265 -3.0860 1.4315 50.7171 -1.0956 5.4520
# 5 7.8025 7.9973 26.8112 -1.0956 43.2225 6.6619
# 6 -1.0977 -6.2875 -9.2270 5.4520 6.6619 37.7453
#
#
#
# Elastic Compliance Matrix: (Units=1/GPa)
#
#
# Indices 1 2 3 4 5 6 
#
# 1 0.015301 -0.003541 -0.003268 -0.000611 0.000037 -0.000862
# 2 -0.003541 0.013468 -0.002867 0.000883 -0.000261 0.001358
# 3 -0.003268 -0.002867 0.012786 -0.001004 -0.007455 0.004014
# 4 -0.000611 0.000883 -0.001004 0.020213 0.001593 -0.003317
# 5 0.000037 -0.000261 -0.007455 0.001593 0.028953 -0.007205
# 6 -0.000862 0.001358 0.004014 -0.003317 -0.007205 0.029427
#
#
# Mechanical properties :
#
#
# Convention : Reuss Voigt Hill
#
# Bulk Modulus (GPa) = 45.03692 51.59692 48.31692
# Shear Modulus (GPa) = 34.03664 38.88294 36.45979
#
# Velocity S-wave (km/s) = 3.96853 4.24166 4.10737
# Velocity P-wave (km/s) = 6.46824 6.91835 6.69708
#
# Compressibility (1/GPa) = 0.02220400
#
# Stress axis : x y z
#
# Youngs Moduli (GPa) = 65.35486 74.25128 78.20924
#
# Poissons Ratio (x) = 0.26292 0.25558
# Poissons Ratio (y) = 0.23142 0.22421
# Poissons Ratio (z) = 0.21357 0.21286
#
# Static dielectric constant tensor:
#      x y z
#    x 4.085080 0.146590 0.436050 
#    y 0.146590 4.202610 -0.012170 
#    z 0.436050 -0.012170 4.464350 
# 
# 
# High freq. dielectric constant tensor:
#      x y z
#    x 1.839790 0.000320 0.028020 
#    y 0.000320 1.867530 0.002530 
#    z 0.028020 0.002530 1.864990 
# 
# From -- ./inp_files/245684.got.cif
#   From: 2010.06.25/outbox.cif.g09.slc.cpg/sg2_123_cif.got.tgz:245684.got - 2010.06.27 13:26:56.
