data_PCOD8018517
_publ_section_title
;
Structure prediction by ZEFSAII (Michael W. Deem and Ramdas Pophale) SiO2 
 PCOD8018517
Probable space group: P -1
;
_chemical_formula_sum "Si O2"
_cell_formula_units_Z 16
_cell_length_a 13.886083
_cell_length_b 11.666876
_cell_length_c 11.230753
_cell_angle_alpha 63.161320
_cell_angle_beta 51.821600
_cell_angle_gamma 31.157941
_cell_volume 726.469291
_symmetry_space_group_name_H-M "P -1"
_symmetry_group_IT_number 2
_symmetry_cell_setting 'triclinic'
loop_
_space_group_symop_operation_xyz
x,y,z
-x,-y,-z
loop_
_atom_site_type_symbol
_atom_site_label
_atom_site_fract_x
_atom_site_fract_y
_atom_site_fract_z
Si Si1 0.590157 0.080260 0.634895
Si Si2 0.231991 0.334762 0.349206
Si Si3 0.093025 0.642723 0.116671
Si Si4 0.863256 0.491943 0.108092
Si Si5 0.383847 0.900011 0.674031
Si Si6 0.038977 0.862908 0.710929
Si Si7 0.729383 0.283956 0.173131
Si Si8 0.686965 0.237421 0.633213
O O1 0.344924 0.295695 0.757378
O O2 0.611481 0.081588 0.477761
O O3 0.718534 0.079918 0.607049
O O4 0.688771 0.856345 0.697665
O O5 0.212345 0.476297 0.214965
O O6 0.406448 0.216027 0.373949
O O7 0.000000 0.500000 0.500000
O O8 0.186785 0.495877 0.996220
O O9 0.160009 0.736212 0.012969
O O10 0.834639 0.849225 0.224508
O O11 0.986178 0.266507 0.181298
O O12 0.000000 0.500000 0.000000
O O13 0.380380 0.750595 0.774317
O O14 0.094063 0.894321 0.774839
O O15 0.220779 0.725318 0.534303
O O16 0.814856 0.112840 0.717568
O O17 0.558651 0.523229 0.259360
#
# Coordination Sequence:
#
# PCOD8018517 Si02
#       8
#     2   2   2   2   2   2   2   2
#     4  12  24  45  76  99 138 186 232 290 347 413
#     4  12  29  47  71 102 143 187 241 285 344 429
#     4  11  26  48  67 106 143 183 236 288 354 419
#     4  11  25  43  70 102 144 181 229 291 353 410
#     4  12  26  47  76  98 143 191 233 288 352 418
#     4  10  22  40  67 104 145 175 229 290 352 407
#     4  11  23  45  71 102 145 177 237 292 354 409
#     4  11  22  41  70 110 135 183 232 291 347 415
#
# _framework density 22.024331
#
# number of rings (size 3 to 8) (size 9 to 14) (size 15 to 20)
#    0.000    0.750    5.000    2.625    3.500    7.000 
#    0.000    0.000    0.000    0.000    0.000    0.000 
#    0.000    0.000    0.000    0.000    0.000    0.000 
#
# Total GULP energy -198433.833706 kJ/mol
# GULP energy per Si atom -12402.114607 kJ/mol
# Density = 2.197420 g / cm^3
# Si number density = 22.024331 Si / 1000 Ang^3
#
#
#
# Elastic Constant Matrix: (Units=GPa)
#
#
# Indices 1 2 3 4 5 6 
#
# 1 98.8459 28.9753 18.3229 -9.8035 -13.6797 0.3519
# 2 28.9753 72.1442 23.0590 -11.7990 4.4388 -1.0562
# 3 18.3229 23.0590 104.2097 -13.0272 -5.8513 -7.1813
# 4 -9.8035 -11.7990 -13.0272 34.2169 0.9590 3.7952
# 5 -13.6797 4.4388 -5.8513 0.9590 35.7730 -4.1527
# 6 0.3519 -1.0562 -7.1813 3.7952 -4.1527 35.3584
#
#
#
# Elastic Compliance Matrix: (Units=1/GPa)
#
#
# Indices 1 2 3 4 5 6 
#
# 1 0.012554 -0.004918 -0.000631 0.001507 0.005274 0.000058
# 2 -0.004918 0.017668 -0.002902 0.003821 -0.004764 -0.000982
# 3 -0.000631 -0.002902 0.010948 0.002695 0.002081 0.002098
# 4 0.001507 0.003821 0.002695 0.032341 -0.000661 -0.002902
# 5 0.005274 -0.004764 0.002081 -0.000661 0.031383 0.003985
# 6 0.000058 -0.000982 0.002098 -0.002902 0.003985 0.029458
#
#
# Mechanical properties :
#
#
# Convention : Reuss Voigt Hill
#
# Bulk Modulus (GPa) = 41.20687 46.21269 43.70978
# Shear Modulus (GPa) = 31.37904 34.72582 33.05243
#
# Velocity S-wave (km/s) = 3.77867 3.97508 3.87812
# Velocity P-wave (km/s) = 6.14721 6.48818 6.31999
#
# Compressibility (1/GPa) = 0.02426780
#
# Stress axis : x y z
#
# Youngs Moduli (GPa) = 79.65300 56.60093 91.34500
#
# Poissons Ratio (x) = 0.27836 0.05761
# Poissons Ratio (y) = 0.39173 0.26511
# Poissons Ratio (z) = 0.05024 0.16427
#
# Static dielectric constant tensor:
#      x y z
#    x 4.032140 0.153530 -0.331530 
#    y 0.153530 4.032160 -0.213410 
#    z -0.331530 -0.213410 4.237650 
# 
# 
# High freq. dielectric constant tensor:
#      x y z
#    x 1.862010 0.005110 -0.011510 
#    y 0.005110 1.864480 -0.003900 
#    z -0.011510 -0.003900 1.884290 
# 
# From -- ./inp_files/451234.got.cif
#   From: 2010.06.25/outbox.cif.g09.slc.cpg/sg2_226_cif.got.tgz:451234.got - 2010.06.27 13:26:56.
