data_PCOD8018878
_publ_section_title
;
Structure prediction by ZEFSAII (Michael W. Deem and Ramdas Pophale) SiO2 
 PCOD8018878
Probable space group: P -1
;
_chemical_formula_sum "Si O2"
_cell_formula_units_Z 12
_cell_length_a 13.691573
_cell_length_b 8.623941
_cell_length_c 6.881618
_cell_angle_alpha 71.614191
_cell_angle_beta 112.561797
_cell_angle_gamma 137.194393
_cell_volume 509.135099
_symmetry_space_group_name_H-M "P -1"
_symmetry_group_IT_number 2
_symmetry_cell_setting 'triclinic'
loop_
_space_group_symop_operation_xyz
x,y,z
-x,-y,-z
loop_
_atom_site_type_symbol
_atom_site_label
_atom_site_fract_x
_atom_site_fract_y
_atom_site_fract_z
Si Si1 0.634893 0.164635 0.393140
Si Si2 0.577896 0.898072 0.100958
Si Si3 0.830068 0.661860 0.476553
Si Si4 0.725855 0.001913 0.793784
Si Si5 0.873885 0.060166 0.234071
Si Si6 0.367887 0.425250 0.303662
O O1 0.717070 0.425905 0.365752
O O2 0.500000 0.000000 0.500000
O O3 0.587737 0.079801 0.163275
O O4 0.746588 0.142735 0.569212
O O5 0.721899 0.951500 0.268036
O O6 0.428011 0.640582 0.136390
O O7 0.593563 0.931646 0.863945
O O8 0.870890 0.859404 0.293839
O O9 0.763624 0.649660 0.634635
O O10 0.981093 0.727302 0.619969
O O11 0.686853 0.775788 0.798348
O O12 0.873767 0.143851 0.984710
O O13 0.500000 0.500000 0.500000
#
# Coordination Sequence:
#
# PCOD8018878 Si02
#       6
#     2   2   2   2   2   2
#     4  12  23  39  65  96 129 157 205 268 313 357
#     4  10  22  41  61  92 124 168 204 248 319 364
#     4  11  22  40  66  94 126 161 213 259 303 368
#     4  10  23  41  63  90 126 167 209 248 315 375
#     4   9  23  43  61  92 123 171 212 245 308 377
#     4  12  18  38  67  88 123 167 206 254 306 365
#
# _framework density 23.569382999999998
#
# number of rings (size 3 to 8) (size 9 to 14) (size 15 to 20)
#    1.000    0.333    5.000    0.500    0.000    2.667 
#    3.000    0.000    0.000    0.000    0.000    0.000 
#    0.000    0.000    0.000    0.000    0.000    0.000 
#
# Total GULP energy -148725.428708 kJ/mol
# GULP energy per Si atom -12393.785726 kJ/mol
# Density = 2.351574 g / cm^3
# Si number density = 23.569383 Si / 1000 Ang^3
#
#
#
# Elastic Constant Matrix: (Units=GPa)
#
#
# Indices 1 2 3 4 5 6 
#
# 1 74.7514 19.5160 9.1439 9.8627 -17.7183 -12.3745
# 2 19.5160 93.8015 19.5175 15.0481 -8.4117 -17.9568
# 3 9.1439 19.5175 114.1348 3.2235 -18.5708 -8.5044
# 4 9.8627 15.0481 3.2235 34.1816 -6.2288 -5.4078
# 5 -17.7183 -8.4117 -18.5708 -6.2288 28.2052 12.7454
# 6 -12.3745 -17.9568 -8.5044 -5.4078 12.7454 40.6227
#
#
#
# Elastic Compliance Matrix: (Units=1/GPa)
#
#
# Indices 1 2 3 4 5 6 
#
# 1 0.016502 -0.002234 0.000699 -0.001996 0.009261 0.001014
# 2 -0.002234 0.012956 -0.001866 -0.004487 -0.001856 0.004641
# 3 0.000699 -0.001866 0.010093 0.000848 0.006975 -0.000574
# 4 -0.001996 -0.004487 0.000848 0.032700 0.005024 0.000363
# 5 0.009261 -0.001856 0.006975 0.005024 0.051914 -0.012159
# 6 0.001014 0.004641 -0.000574 0.000363 -0.012159 0.030720
#
#
# Mechanical properties :
#
#
# Convention : Reuss Voigt Hill
#
# Bulk Modulus (GPa) = 30.53618 42.11582 36.32600
# Shear Modulus (GPa) = 28.96831 36.23593 32.60212
#
# Velocity S-wave (km/s) = 3.50961 3.92524 3.72323
# Velocity P-wave (km/s) = 5.42283 6.20089 5.82487
#
# Compressibility (1/GPa) = 0.03274804
#
# Stress axis : x y z
#
# Youngs Moduli (GPa) = 60.59949 77.18649 99.08100
#
# Poissons Ratio (x) = 0.17242 -0.06923
# Poissons Ratio (y) = 0.13537 0.18488
# Poissons Ratio (z) = -0.04234 0.14403
#
# Static dielectric constant tensor:
#      x y z
#    x 4.308460 -0.047120 0.400370 
#    y -0.047120 3.925360 -0.204080 
#    z 0.400370 -0.204080 4.702380 
# 
# 
# High freq. dielectric constant tensor:
#      x y z
#    x 1.936300 -0.016320 0.019820 
#    y -0.016320 1.907300 0.002810 
#    z 0.019820 0.002810 1.954420 
# 
# From -- ./inp_files/151541.got.cif
#   From: 2010.06.25/outbox.cif.g09.slc.cpg/sg2_76_cif.got.tgz:151541.got - 2010.06.27 13:26:56.
