data_PCOD8018418
_publ_section_title
;
Structure prediction by ZEFSAII (Michael W. Deem and Ramdas Pophale) SiO2 
 PCOD8018418
Probable space group: P -1
;
_chemical_formula_sum "Si O2"
_cell_formula_units_Z 16
_cell_length_a 13.290199
_cell_length_b 9.842375
_cell_length_c 14.210358
_cell_angle_alpha 126.871609
_cell_angle_beta 41.825985
_cell_angle_gamma 94.505129
_cell_volume 716.932396
_symmetry_space_group_name_H-M "P -1"
_symmetry_group_IT_number 2
_symmetry_cell_setting 'triclinic'
loop_
_space_group_symop_operation_xyz
x,y,z
-x,-y,-z
loop_
_atom_site_type_symbol
_atom_site_label
_atom_site_fract_x
_atom_site_fract_y
_atom_site_fract_z
Si Si1 0.946681 0.707050 0.423689
Si Si2 0.706321 0.951158 0.317588
Si Si3 0.350746 0.802270 0.822920
Si Si4 0.268556 0.703907 0.650424
Si Si5 0.395874 0.503786 0.983299
Si Si6 0.896853 0.759891 0.917904
Si Si7 0.215973 0.011708 0.523861
Si Si8 0.838807 0.061813 0.791268
O O1 0.795186 0.849379 0.498003
O O2 0.976781 0.483216 0.326481
O O3 0.849286 0.872061 0.651963
O O4 0.176530 0.594026 0.197119
O O5 0.838731 0.856494 0.283623
O O6 0.500000 0.000000 0.500000
O O7 0.664620 0.176610 0.402411
O O8 0.847379 0.745882 0.054972
O O9 0.285316 0.711028 0.754396
O O10 0.583547 0.570734 0.597135
O O11 0.194594 0.932240 0.073280
O O12 0.323522 0.012581 0.882885
O O13 0.032585 0.828352 0.845760
O O14 0.550329 0.240288 0.726174
O O15 0.500000 0.500000 0.000000
O O16 0.355755 0.681806 0.008890
O O17 0.060380 0.981701 0.589983
#
# Coordination Sequence:
#
# PCOD8018418 Si02
#       8
#     2   2   2   2   2   2   2   2
#     4  11  24  37  59  94 130 167 216 254 314 383
#     4  11  23  41  69 102 124 160 218 264 317 376
#     4  10  22  40  66  86 120 167 214 258 307 375
#     4  10  22  44  66  90 125 170 206 258 322 375
#     4  11  19  38  61  89 128 169 204 266 320 367
#     4  11  24  43  61  92 132 171 207 257 316 375
#     4  11  21  38  63  91 132 165 205 269 322 369
#     4  11  21  38  62  97 120 170 218 254 317 381
#
# _framework density 22.317305000000001
#
# number of rings (size 3 to 8) (size 9 to 14) (size 15 to 20)
#    0.000    1.250    2.500    5.250    0.000    6.000 
#    0.000    0.625    0.000    0.000    0.000    0.000 
#    0.000    0.000    0.000    0.000    0.000    0.000 
#
# Total GULP energy -198300.765104 kJ/mol
# GULP energy per Si atom -12393.797819 kJ/mol
# Density = 2.226651 g / cm^3
# Si number density = 22.317305 Si / 1000 Ang^3
#
#
#
# Elastic Constant Matrix: (Units=GPa)
#
#
# Indices 1 2 3 4 5 6 
#
# 1 90.9281 45.3259 23.6057 2.6792 5.2772 -7.9103
# 2 45.3259 87.7193 41.3007 2.9016 11.9600 -1.9402
# 3 23.6057 41.3007 107.9337 15.8869 8.1940 -3.4424
# 4 2.6792 2.9016 15.8869 38.5014 2.1378 0.4578
# 5 5.2772 11.9600 8.1940 2.1378 35.4650 -0.5689
# 6 -7.9103 -1.9402 -3.4424 0.4578 -0.5689 32.0652
#
#
#
# Elastic Compliance Matrix: (Units=1/GPa)
#
#
# Indices 1 2 3 4 5 6 
#
# 1 0.015169 -0.007705 -0.000236 -0.000443 0.000475 0.003265
# 2 -0.007705 0.018333 -0.005311 0.001581 -0.003928 -0.001454
# 3 -0.000236 -0.005311 0.012101 -0.004550 -0.000680 0.000972
# 4 -0.000443 0.001581 -0.004550 0.027835 -0.001109 -0.000919
# 5 0.000475 -0.003928 -0.000680 -0.001109 0.029680 0.000349
# 6 0.003265 -0.001454 0.000972 -0.000919 0.000349 0.032028
#
#
# Mechanical properties :
#
#
# Convention : Reuss Voigt Hill
#
# Bulk Modulus (GPa) = 52.35723 56.33841 54.34782
# Shear Modulus (GPa) = 29.75901 32.96290 31.36096
#
# Velocity S-wave (km/s) = 3.65561 3.84736 3.75271
# Velocity P-wave (km/s) = 6.42878 6.71084 6.57132
#
# Compressibility (1/GPa) = 0.01909956
#
# Stress axis : x y z
#
# Youngs Moduli (GPa) = 65.92262 54.54713 82.63647
#
# Poissons Ratio (x) = 0.42028 0.01951
# Poissons Ratio (y) = 0.50793 0.43887
# Poissons Ratio (z) = 0.01556 0.28969
#
# Static dielectric constant tensor:
#      x y z
#    x 3.498250 -0.731020 -0.157150 
#    y -0.731020 3.365340 0.056720 
#    z -0.157150 0.056720 4.169000 
# 
# 
# High freq. dielectric constant tensor:
#      x y z
#    x 1.877990 -0.014660 0.006810 
#    y -0.014660 1.860440 0.014920 
#    z 0.006810 0.014920 1.884660 
# 
# From -- ./inp_files/528914.got.cif
#   From: 2010.06.25/outbox.cif.g09.slc.cpg/sg2_265_cif.got.tgz:528914.got - 2010.06.27 13:26:56.
