data_PCOD8018729
_publ_section_title
;
Structure prediction by ZEFSAII (Michael W. Deem and Ramdas Pophale) SiO2 
 PCOD8018729
Probable space group: P -1
;
_chemical_formula_sum "Si O2"
_cell_formula_units_Z 16
_cell_length_a 10.247998
_cell_length_b 14.516619
_cell_length_c 11.744090
_cell_angle_alpha 28.417147
_cell_angle_beta 76.382421
_cell_angle_gamma 67.663239
_cell_volume 749.420029
_symmetry_space_group_name_H-M "P -1"
_symmetry_group_IT_number 2
_symmetry_cell_setting 'triclinic'
loop_
_space_group_symop_operation_xyz
x,y,z
-x,-y,-z
loop_
_atom_site_type_symbol
_atom_site_label
_atom_site_fract_x
_atom_site_fract_y
_atom_site_fract_z
Si Si1 0.939233 0.246372 0.738427
Si Si2 0.984496 0.819205 0.451546
Si Si3 0.231996 0.373284 0.249465
Si Si4 0.992298 0.267828 0.948169
Si Si5 0.689747 0.788133 0.012305
Si Si6 0.500242 0.251318 0.480042
Si Si7 0.271496 0.548232 0.810850
Si Si8 0.627516 0.546268 0.481825
O O1 0.765591 0.330924 0.683871
O O2 0.988454 0.305421 0.541082
O O3 0.995320 0.336449 0.739697
O O4 0.000000 0.000000 0.000000
O O5 0.843546 0.796230 0.560442
O O6 0.121093 0.717157 0.615475
O O7 0.955403 0.060419 0.180384
O O8 0.391210 0.259378 0.391982
O O9 0.134640 0.566426 0.135370
O O10 0.244525 0.449399 0.038937
O O11 0.146228 0.225529 0.020149
O O12 0.578967 0.017591 0.760481
O O13 0.660247 0.631519 0.100705
O O14 0.660426 0.728288 0.210916
O O15 0.616684 0.339425 0.312541
O O16 0.408284 0.388549 0.452299
O O17 0.500000 0.500000 0.500000
#
# Coordination Sequence:
#
# PCOD8018729 Si02
#       8
#     2   2   2   2   2   2   2   2
#     4  10  22  40  70 102 134 168 216 279 340 391
#     4  11  23  44  70 102 135 172 227 281 333 403
#     4  12  27  43  72 101 130 180 234 284 327 394
#     4  11  24  43  71 102 133 177 222 279 344 402
#     4  12  26  43  72  98 137 183 221 273 346 408
#     4  12  27  47  67 102 139 179 224 277 344 400
#     4  12  25  48  68  96 140 179 230 280 333 395
#     4  12  23  43  70 100 138 177 218 277 339 410
#
# _framework density 21.349841999999999
#
# number of rings (size 3 to 8) (size 9 to 14) (size 15 to 20)
#    0.000    0.500    6.250    1.125    3.500    6.000 
#    0.000    0.000    0.000    0.000    0.000    0.000 
#    0.000    0.000    0.000    0.000    0.000    0.000 
#
# Total GULP energy -198476.770298 kJ/mol
# GULP energy per Si atom -12404.798144 kJ/mol
# Density = 2.130125 g / cm^3
# Si number density = 21.349842 Si / 1000 Ang^3
#
#
#
# Elastic Constant Matrix: (Units=GPa)
#
#
# Indices 1 2 3 4 5 6 
#
# 1 130.4118 18.2062 50.9739 1.2527 3.3168 -16.7032
# 2 18.2062 37.2133 20.4484 15.9484 6.4903 0.1964
# 3 50.9739 20.4484 103.3020 11.8465 9.7868 -12.0205
# 4 1.2527 15.9484 11.8465 40.0858 -3.4320 -1.3874
# 5 3.3168 6.4903 9.7868 -3.4320 42.8000 -1.1343
# 6 -16.7032 0.1964 -12.0205 -1.3874 -1.1343 19.6944
#
#
#
# Elastic Compliance Matrix: (Units=1/GPa)
#
#
# Indices 1 2 3 4 5 6 
#
# 1 0.010713 -0.004566 -0.004034 0.003018 0.001211 0.006951
# 2 -0.004566 0.038835 -0.004107 -0.014891 -0.006006 -0.008161
# 3 -0.004034 -0.004107 0.013483 -0.002255 -0.002207 0.004563
# 4 0.003018 -0.014891 -0.002255 0.032024 0.005211 0.003888
# 5 0.001211 -0.006006 -0.002207 0.005211 0.025145 0.001555
# 6 0.006951 -0.008161 0.004563 0.003888 0.001555 0.059901
#
#
# Mechanical properties :
#
#
# Convention : Reuss Voigt Hill
#
# Bulk Modulus (GPa) = 26.58448 50.02049 38.30248
# Shear Modulus (GPa) = 22.93000 32.60260 27.76630
#
# Velocity S-wave (km/s) = 3.28077 3.91201 3.61021
# Velocity P-wave (km/s) = 5.17978 6.62457 5.94622
#
# Compressibility (1/GPa) = 0.03761594
#
# Stress axis : x y z
#
# Youngs Moduli (GPa) = 93.34555 25.74981 74.16808
#
# Poissons Ratio (x) = 0.11757 0.29923
# Poissons Ratio (y) = 0.42619 0.30464
# Poissons Ratio (z) = 0.37660 0.10577
#
# Static dielectric constant tensor:
#      x y z
#    x 4.110410 0.006210 0.079570 
#    y 0.006210 4.157870 0.159570 
#    z 0.079570 0.159570 4.016430 
# 
# 
# High freq. dielectric constant tensor:
#      x y z
#    x 1.846360 0.001110 0.003420 
#    y 0.001110 1.836160 0.003800 
#    z 0.003420 0.003800 1.853170 
# 
# From -- ./inp_files/188873.got.cif
#   From: 2010.06.25/outbox.cif.g09.slc.cpg/sg2_95_cif.got.tgz:188873.got - 2010.06.27 13:26:56.
