data_PCOD8018822
_publ_section_title
;
Structure prediction by ZEFSAII (Michael W. Deem and Ramdas Pophale) SiO2 
 PCOD8018822
Probable space group: P -1
;
_chemical_formula_sum "Si O2"
_cell_formula_units_Z 14
_cell_length_a 5.050878
_cell_length_b 8.500138
_cell_length_c 14.372403
_cell_angle_alpha 107.493989
_cell_angle_beta 114.626112
_cell_angle_gamma 75.334332
_cell_volume 529.130790
_symmetry_space_group_name_H-M "P -1"
_symmetry_group_IT_number 2
_symmetry_cell_setting 'triclinic'
loop_
_space_group_symop_operation_xyz
x,y,z
-x,-y,-z
loop_
_atom_site_type_symbol
_atom_site_label
_atom_site_fract_x
_atom_site_fract_y
_atom_site_fract_z
Si Si1 0.206809 0.811063 0.471587
Si Si2 0.739253 0.113933 0.031153
Si Si3 0.485630 0.640853 0.649040
Si Si4 0.616758 0.766426 0.161518
Si Si5 0.878439 0.089161 0.244598
Si Si6 0.472306 0.933446 0.356351
Si Si7 0.122284 0.450525 0.696867
O O1 0.347140 0.653236 0.527513
O O2 0.417976 0.818629 0.415543
O O3 0.909908 0.741283 0.378902
O O4 0.218477 0.985582 0.564023
O O5 0.851568 0.186204 0.157458
O O6 0.596476 0.255395 0.961530
O O7 0.500000 0.000000 0.000000
O O8 0.000000 0.000000 0.000000
O O9 0.390673 0.823418 0.714822
O O10 0.834255 0.587330 0.681311
O O11 0.357888 0.509590 0.673287
O O12 0.433365 0.839213 0.238126
O O13 0.773496 0.583183 0.186128
O O14 0.841268 0.895236 0.190908
O O15 0.199735 0.092172 0.339979
#
# Coordination Sequence:
#
# PCOD8018822 Si02
#       7
#     2   2   2   2   2   2   2
#     4  11  24  43  65 101 135 190 230 280 333 404
#     4  10  22  40  74 104 130 166 225 288 345 398
#     4  12  27  45  66  98 145 188 226 277 339 407
#     4  11  23  44  71 101 134 175 231 287 341 402
#     4  11  23  44  71 101 134 175 231 287 341 402
#     4  11  22  41  72 102 136 171 238 295 334 386
#     4  12  27  45  66  98 145 188 226 277 339 407
#
# _framework density 26.458489
#
# number of rings (size 3 to 8) (size 9 to 14) (size 15 to 20)
#    0.000    0.857    4.286    2.571    0.000    5.714 
#    0.000    1.429    0.000    0.000    0.000    0.000 
#    0.000    0.000    0.000    0.000    0.000    0.000 
#
# Total GULP energy -173475.910931 kJ/mol
# GULP energy per Si atom -12391.136495 kJ/mol
# Density = 2.639827 g / cm^3
# Si number density = 26.458489 Si / 1000 Ang^3
#
#
#
# Elastic Constant Matrix: (Units=GPa)
#
#
# Indices 1 2 3 4 5 6 
#
# 1 58.1590 -2.1317 27.5585 -2.1850 -0.9764 -5.9793
# 2 -2.1317 59.7667 31.7100 -31.2715 2.9159 1.8754
# 3 27.5585 31.7100 185.5847 -60.8287 -1.8880 2.9766
# 4 -2.1850 -31.2715 -60.8287 52.5576 -0.4486 -5.8621
# 5 -0.9764 2.9159 -1.8880 -0.4486 34.8774 -1.7155
# 6 -5.9793 1.8754 2.9766 -5.8621 -1.7155 40.3597
#
#
#
# Elastic Compliance Matrix: (Units=1/GPa)
#
#
# Indices 1 2 3 4 5 6 
#
# 1 0.019340 0.001256 -0.004058 -0.002840 0.000313 0.002707
# 2 0.001256 0.024633 0.000689 0.015623 -0.001728 0.001187
# 3 -0.004058 0.000689 0.009612 0.011408 0.000512 0.000337
# 4 -0.002840 0.015623 0.011408 0.041864 -0.000028 0.004091
# 5 0.000313 -0.001728 0.000512 -0.000028 0.028917 0.001314
# 6 0.002707 0.001187 0.000337 0.004091 0.001314 0.025748
#
#
# Mechanical properties :
#
#
# Convention : Reuss Voigt Hill
#
# Bulk Modulus (GPa) = 20.25939 46.42045 33.33992
# Shear Modulus (GPa) = 29.27532 41.98385 35.62959
#
# Velocity S-wave (km/s) = 3.32996 3.98776 3.67362
# Velocity P-wave (km/s) = 4.73904 6.22782 5.53373
#
# Compressibility (1/GPa) = 0.04935982
#
# Stress axis : x y z
#
# Youngs Moduli (GPa) = 51.70666 40.59643 104.03429
#
# Poissons Ratio (x) = -0.05101 0.42214
# Poissons Ratio (y) = -0.06496 -0.07166
# Poissons Ratio (z) = 0.20981 -0.02796
#
# Static dielectric constant tensor:
#      x y z
#    x 4.602210 -0.132600 0.177450 
#    y -0.132600 4.843900 -0.599540 
#    z 0.177450 -0.599540 5.693490 
# 
# 
# High freq. dielectric constant tensor:
#      x y z
#    x 2.068970 -0.004990 0.000530 
#    y -0.004990 2.056740 -0.041800 
#    z 0.000530 -0.041800 2.071560 
# 
# From -- ./inp_files/137324.got.cif
#   From: 2010.06.25/outbox.cif.g09.slc.cpg/sg2_69_cif.got.tgz:137324.got - 2010.06.27 13:26:56.
