data_PCOD8018061
_publ_section_title
;
Structure prediction by ZEFSAII (Michael W. Deem and Ramdas Pophale) SiO2 
 PCOD8018061
Probable space group: P -1
;
_chemical_formula_sum "Si O2"
_cell_formula_units_Z 16
_cell_length_a 10.753556
_cell_length_b 19.448887
_cell_length_c 16.276971
_cell_angle_alpha 21.059594
_cell_angle_beta 146.079214
_cell_angle_gamma 134.325290
_cell_volume 632.198954
_symmetry_space_group_name_H-M "P -1"
_symmetry_group_IT_number 2
_symmetry_cell_setting 'triclinic'
loop_
_space_group_symop_operation_xyz
x,y,z
-x,-y,-z
loop_
_atom_site_type_symbol
_atom_site_label
_atom_site_fract_x
_atom_site_fract_y
_atom_site_fract_z
Si Si1 0.728064 0.903726 0.623506
Si Si2 0.803446 0.310170 0.180955
Si Si3 0.877679 0.224673 0.143512
Si Si4 0.233825 0.141175 0.719964
Si Si5 0.548483 0.365913 0.258524
Si Si6 0.033732 0.828806 0.028379
Si Si7 0.661568 0.630574 0.339962
Si Si8 0.971091 0.707273 0.299591
O O1 0.493206 0.846841 0.545456
O O2 0.946010 0.749554 0.858028
O O3 0.675253 0.142069 0.305937
O O4 0.805005 0.858951 0.811269
O O5 0.823062 0.376921 0.022811
O O6 0.074790 0.213548 0.470867
O O7 0.643196 0.514954 0.910743
O O8 0.622493 0.268581 0.911802
O O9 0.000000 0.000000 0.500000
O O10 0.222026 0.343532 0.538387
O O11 0.500000 0.000000 0.000000
O O12 0.126151 0.010490 0.862764
O O13 0.812785 0.318969 0.489701
O O14 0.500000 0.500000 0.000000
O O15 0.243779 0.607413 0.370736
O O16 0.955996 0.864710 0.041922
O O17 0.729873 0.766998 0.155558
O O18 0.000000 0.500000 0.500000
#
# Coordination Sequence:
#
# PCOD8018061 Si02
#       8
#     2   2   2   2   2   2   2   2
#     4  10  23  41  63  93 125 161 206 252 304 368
#     4  10  22  41  62  88 126 164 200 258 311 351
#     4  10  22  42  65  92 124 160 205 254 308 367
#     4  11  23  38  62  93 124 163 210 253 302 369
#     4  12  24  41  65  92 125 164 209 251 301 371
#     4  10  22  40  61  93 126 159 208 252 303 368
#     4  11  22  42  66  87 124 165 199 256 312 355
#     4  10  22  41  65  93 124 162 207 253 303 366
#
# _framework density 25.308489000000002
#
# number of rings (size 3 to 8) (size 9 to 14) (size 15 to 20)
#    0.000    1.500    0.000    6.750    0.000    7.500 
#    0.000    6.250    0.000    0.000    0.000    0.000 
#    0.000    0.000    0.000    0.000    0.000    0.000 
#
# Total GULP energy -198358.432096 kJ/mol
# GULP energy per Si atom -12397.402006 kJ/mol
# Density = 2.525089 g / cm^3
# Si number density = 25.308489 Si / 1000 Ang^3
#
#
#
# Elastic Constant Matrix: (Units=GPa)
#
#
# Indices 1 2 3 4 5 6 
#
# 1 69.9006 14.0566 -16.1360 18.1434 -15.8368 -19.0072
# 2 14.0566 139.6699 23.3699 20.1120 -11.0439 -0.2000
# 3 -16.1360 23.3699 49.1070 5.8444 -0.3729 0.0140
# 4 18.1434 20.1120 5.8444 24.3439 -10.5363 5.1391
# 5 -15.8368 -11.0439 -0.3729 -10.5363 36.6479 5.7202
# 6 -19.0072 -0.2000 0.0140 5.1391 5.7202 40.0562
#
#
#
# Elastic Compliance Matrix: (Units=1/GPa)
#
#
# Indices 1 2 3 4 5 6 
#
# 1 0.030103 -0.001168 0.013736 -0.027532 0.002149 0.017499
# 2 -0.001168 0.008721 -0.003917 -0.005152 0.000592 0.000067
# 3 0.013736 -0.003917 0.028650 -0.016124 -0.000945 0.008692
# 4 -0.027532 -0.005152 -0.016124 0.080996 0.013641 -0.025424
# 5 0.002149 0.000592 -0.000945 0.013641 0.033158 -0.005462
# 6 0.017499 0.000067 0.008692 -0.025424 -0.005462 0.037308
#
#
# Mechanical properties :
#
#
# Convention : Reuss Voigt Hill
#
# Bulk Modulus (GPa) = 11.79578 33.47315 22.63446
# Shear Modulus (GPa) = 21.74907 36.03539 28.89223
#
# Velocity S-wave (km/s) = 2.93466 3.77748 3.38243
# Velocity P-wave (km/s) = 4.01919 5.68160 4.92110
#
# Compressibility (1/GPa) = 0.08477610
#
# Stress axis : x y z
#
# Youngs Moduli (GPa) = 33.21895 114.65937 34.90361
#
# Poissons Ratio (x) = 0.13397 -0.47942
# Poissons Ratio (y) = 0.03881 0.13671
# Poissons Ratio (z) = -0.45628 0.44910
#
# Static dielectric constant tensor:
#      x y z
#    x 6.414110 0.429880 1.421540 
#    y 0.429880 5.753310 1.720120 
#    z 1.421540 1.720120 7.612370 
# 
# 
# High freq. dielectric constant tensor:
#      x y z
#    x 2.024380 -0.013610 0.003090 
#    y -0.013610 2.020220 0.004950 
#    z 0.003090 0.004950 1.991490 
# 
# From -- ./inp_files/570716.got.cif
#   From: 2010.06.25/outbox.cif.g09.slc.cpg/sg2_286_cif.got.tgz:570716.got - 2010.06.27 13:26:56.
