data_PCOD8018958
_publ_section_title
;
Structure prediction by ZEFSAII (Michael W. Deem and Ramdas Pophale) SiO2 
 PCOD8018958
Probable space group: P -1
;
_chemical_formula_sum "Si O2"
_cell_formula_units_Z 16
_cell_length_a 20.451105
_cell_length_b 19.328456
_cell_length_c 8.604094
_cell_angle_alpha 41.114591
_cell_angle_beta 38.573721
_cell_angle_gamma 20.923760
_cell_volume 753.238118
_symmetry_space_group_name_H-M "P -1"
_symmetry_group_IT_number 2
_symmetry_cell_setting 'triclinic'
loop_
_space_group_symop_operation_xyz
x,y,z
-x,-y,-z
loop_
_atom_site_type_symbol
_atom_site_label
_atom_site_fract_x
_atom_site_fract_y
_atom_site_fract_z
Si Si1 0.810645 0.707093 0.420144
Si Si2 0.833126 0.937034 0.554688
Si Si3 0.357432 0.773275 0.336776
Si Si4 0.440172 0.562308 0.262818
Si Si5 0.441411 0.894744 0.780415
Si Si6 0.742767 0.391631 0.757733
Si Si7 0.469995 0.223321 0.533227
Si Si8 0.814050 0.709610 0.058070
O O1 0.611276 0.824752 0.653479
O O2 0.833886 0.656801 0.285967
O O3 0.000000 0.500000 0.500000
O O4 0.769313 0.867630 0.240494
O O5 0.025017 0.800274 0.329612
O O6 0.824548 0.029629 0.556011
O O7 0.656001 0.101925 0.488742
O O8 0.814647 0.833595 0.826122
O O9 0.315238 0.738243 0.320305
O O10 0.502627 0.590901 0.491283
O O11 0.455726 0.794554 0.053901
O O12 0.306388 0.651625 0.211983
O O13 0.637315 0.451225 0.016425
O O14 0.476257 0.818351 0.676475
O O15 0.687864 0.553024 0.524627
O O16 0.382212 0.184224 0.818179
O O17 0.000000 0.500000 0.000000
#
# Coordination Sequence:
#
# PCOD8018958 Si02
#       8
#     2   2   2   2   2   2   2   2
#     4  10  23  39  62  93 129 168 213 259 319 390
#     4  12  25  41  70  99 128 174 217 261 330 394
#     4  11  22  44  68  95 127 170 220 276 329 370
#     4  10  24  45  69  92 131 171 219 286 325 370
#     4  10  22  41  63  90 130 172 209 262 325 390
#     4  11  23  45  68  94 129 173 218 268 328 391
#     4  11  23  42  65  95 136 172 208 265 326 391
#     4  11  23  40  64  99 133 166 213 259 319 398
#
# _framework density 21.241623000000001
#
# number of rings (size 3 to 8) (size 9 to 14) (size 15 to 20)
#    0.000    1.250    5.000    0.375    1.750    3.000 
#    0.000    1.250    0.000    0.000    0.000    0.000 
#    0.000    0.000    0.000    0.000    0.000    0.000 
#
# Total GULP energy -198209.293757 kJ/mol
# GULP energy per Si atom -12388.080860 kJ/mol
# Density = 2.119328 g / cm^3
# Si number density = 21.241623 Si / 1000 Ang^3
#
#
#
# Elastic Constant Matrix: (Units=GPa)
#
#
# Indices 1 2 3 4 5 6 
#
# 1 97.5624 50.5084 22.3713 6.3268 -0.1310 14.3164
# 2 50.5084 128.6188 41.8424 3.1371 -6.0873 10.3574
# 3 22.3713 41.8424 108.5977 -4.3973 -5.1794 1.5632
# 4 6.3268 3.1371 -4.3973 34.1043 4.2675 -3.2506
# 5 -0.1310 -6.0873 -5.1794 4.2675 23.5336 -5.4702
# 6 14.3164 10.3574 1.5632 -3.2506 -5.4702 27.7288
#
#
#
# Elastic Compliance Matrix: (Units=1/GPa)
#
#
# Indices 1 2 3 4 5 6 
#
# 1 0.014018 -0.004655 -0.001224 -0.002626 -0.002361 -0.006203
# 2 -0.004655 0.010835 -0.003141 -0.000898 0.001973 -0.001183
# 3 -0.001224 -0.003141 0.010799 0.001871 0.001622 0.001736
# 4 -0.002626 -0.000898 0.001871 0.031106 -0.004464 0.004351
# 5 -0.002361 0.001973 0.001622 -0.004464 0.046246 0.008990
# 6 -0.006203 -0.001183 0.001736 0.004351 0.008990 0.041894
#
#
# Mechanical properties :
#
#
# Convention : Reuss Voigt Hill
#
# Bulk Modulus (GPa) = 56.77856 62.69146 59.73501
# Shear Modulus (GPa) = 27.96294 31.74378 29.85336
#
# Velocity S-wave (km/s) = 3.63219 3.86996 3.75296
# Velocity P-wave (km/s) = 6.66170 7.03892 6.85291
#
# Compressibility (1/GPa) = 0.01761228
#
# Stress axis : x y z
#
# Youngs Moduli (GPa) = 71.33864 92.29143 92.60299
#
# Poissons Ratio (x) = 0.42959 0.11333
# Poissons Ratio (y) = 0.33206 0.29088
# Poissons Ratio (z) = 0.08731 0.28990
#
# Static dielectric constant tensor:
#      x y z
#    x 4.112500 0.265370 0.038690 
#    y 0.265370 3.954710 -0.176720 
#    z 0.038690 -0.176720 4.285260 
# 
# 
# High freq. dielectric constant tensor:
#      x y z
#    x 1.831950 0.029180 0.001400 
#    y 0.029180 1.825340 -0.005130 
#    z 0.001400 -0.005130 1.840860 
# 
# From -- ./inp_files/349692.got.cif
#   From: 2010.06.25/outbox.cif.g09.slc.cpg/sg2_175_cif.got.tgz:349692.got - 2010.06.27 13:26:56.
