data_PCOD8018843
_publ_section_title
;
Structure prediction by ZEFSAII (Michael W. Deem and Ramdas Pophale) SiO2 
 PCOD8018843
Probable space group: P -1
;
_chemical_formula_sum "Si O2"
_cell_formula_units_Z 16
_cell_length_a 14.659766
_cell_length_b 6.599604
_cell_length_c 16.107994
_cell_angle_alpha 124.183096
_cell_angle_beta 141.846641
_cell_angle_gamma 66.015370
_cell_volume 794.524843
_symmetry_space_group_name_H-M "P -1"
_symmetry_group_IT_number 2
_symmetry_cell_setting 'triclinic'
loop_
_space_group_symop_operation_xyz
x,y,z
-x,-y,-z
loop_
_atom_site_type_symbol
_atom_site_label
_atom_site_fract_x
_atom_site_fract_y
_atom_site_fract_z
Si Si1 0.960176 0.995394 0.280897
Si Si2 0.450641 0.772536 0.523979
Si Si3 0.704189 0.151741 0.241398
Si Si4 0.804675 0.474966 0.022641
Si Si5 0.937673 0.761344 0.756972
Si Si6 0.716164 0.127034 0.737988
Si Si7 0.776938 0.244630 0.504314
Si Si8 0.454783 0.372336 0.022535
O O1 0.853143 0.155064 0.294866
O O2 0.022696 0.169773 0.292953
O O3 0.876140 0.750807 0.126120
O O4 0.091108 0.925117 0.418729
O O5 0.500000 0.500000 0.500000
O O6 0.338045 0.794859 0.372692
O O7 0.367365 0.837347 0.563824
O O8 0.590984 0.964935 0.660694
O O9 0.740986 0.216380 0.376409
O O10 0.600518 0.355522 0.179202
O O11 0.618322 0.889726 0.114653
O O12 0.914737 0.293467 0.101206
O O13 0.759347 0.375126 0.876461
O O14 0.659690 0.468864 0.974562
O O15 0.820730 0.528005 0.620299
O O16 0.862910 0.981291 0.799878
O O17 0.500000 0.500000 0.000000
#
# Coordination Sequence:
#
# PCOD8018843 Si02
#       8
#     2   2   2   2   2   2   2   2
#     4  10  22  43  60  91 126 156 203 254 292 367
#     4  11  24  41  61  90 127 155 206 255 294 363
#     4  10  23  39  64  90 122 159 202 248 306 356
#     4  10  24  39  63  90 121 159 205 248 302 357
#     4  11  22  41  62  89 126 159 205 245 299 363
#     4  11  24  41  63  91 121 165 203 245 307 359
#     4  11  23  40  64  92 122 162 200 252 304 356
#     4  10  22  41  59  92 123 156 204 250 297 366
#
# _framework density 20.137822
#
# number of rings (size 3 to 8) (size 9 to 14) (size 15 to 20)
#    0.000    1.500    2.500    1.500    3.500    3.000 
#    0.000    0.000    0.000    0.000    0.000    0.000 
#    0.000    0.000    0.000    0.000    0.000    0.000 
#
# Total GULP energy -198496.293454 kJ/mol
# GULP energy per Si atom -12406.018341 kJ/mol
# Density = 2.009199 g / cm^3
# Si number density = 20.137822 Si / 1000 Ang^3
#
#
#
# Elastic Constant Matrix: (Units=GPa)
#
#
# Indices 1 2 3 4 5 6 
#
# 1 145.5600 40.6110 40.3668 -9.6416 6.4577 -8.0179
# 2 40.6110 79.7378 23.8247 -17.1630 6.9840 -6.9409
# 3 40.3668 23.8247 83.5379 -17.2602 -11.1249 -11.7135
# 4 -9.6416 -17.1630 -17.2602 18.5957 -6.9513 0.5951
# 5 6.4577 6.9840 -11.1249 -6.9513 29.3461 -4.2901
# 6 -8.0179 -6.9409 -11.7135 0.5951 -4.2901 42.2376
#
#
#
# Elastic Compliance Matrix: (Units=1/GPa)
#
#
# Indices 1 2 3 4 5 6 
#
# 1 0.009187 -0.003965 -0.005046 -0.005171 -0.004314 -0.000672
# 2 -0.003965 0.017792 0.000246 0.014722 0.000524 0.002085
# 3 -0.005046 0.000246 0.022471 0.024352 0.016308 0.006628
# 4 -0.005171 0.014722 0.024352 0.098831 0.031742 0.010023
# 5 -0.004314 0.000524 0.016308 0.031742 0.049830 0.008404
# 6 -0.000672 0.002085 0.006628 0.010023 0.008404 0.026441
#
#
# Mechanical properties :
#
#
# Convention : Reuss Voigt Hill
#
# Bulk Modulus (GPa) = 31.32804 57.60450 44.46627
# Shear Modulus (GPa) = 19.78448 31.63808 25.71128
#
# Velocity S-wave (km/s) = 3.13781 3.96798 3.57706
# Velocity P-wave (km/s) = 5.35896 7.04701 6.26014
#
# Compressibility (1/GPa) = 0.03192028
#
# Stress axis : x y z
#
# Youngs Moduli (GPa) = 108.84392 56.20619 44.50108
#
# Poissons Ratio (x) = 0.22287 0.22454
# Poissons Ratio (y) = 0.43159 -0.01094
# Poissons Ratio (z) = 0.54920 -0.01382
#
# Static dielectric constant tensor:
#      x y z
#    x 3.905750 -0.148680 0.192010 
#    y -0.148680 3.808720 -0.168220 
#    z 0.192010 -0.168220 3.618870 
# 
# 
# High freq. dielectric constant tensor:
#      x y z
#    x 1.804000 -0.004540 0.005720 
#    y -0.004540 1.793810 -0.010680 
#    z 0.005720 -0.010680 1.783790 
# 
# From -- ./inp_files/70774.got.cif
#   From: 2010.06.25/outbox.cif.g09.slc.cpg/sg2_36_cif.got.tgz:70774.got - 2010.06.27 13:26:56.
