data_PCOD8018810
_publ_section_title
;
Structure prediction by ZEFSAII (Michael W. Deem and Ramdas Pophale) SiO2 
 PCOD8018810
Probable space group: P -1
;
_chemical_formula_sum "Si O2"
_cell_formula_units_Z 16
_cell_length_a 11.950477
_cell_length_b 9.156904
_cell_length_c 15.427234
_cell_angle_alpha 59.888588
_cell_angle_beta 108.741646
_cell_angle_gamma 58.717223
_cell_volume 770.017493
_symmetry_space_group_name_H-M "P -1"
_symmetry_group_IT_number 2
_symmetry_cell_setting 'triclinic'
loop_
_space_group_symop_operation_xyz
x,y,z
-x,-y,-z
loop_
_atom_site_type_symbol
_atom_site_label
_atom_site_fract_x
_atom_site_fract_y
_atom_site_fract_z
Si Si1 0.784541 0.657591 0.404100
Si Si2 0.902654 0.645438 0.723095
Si Si3 0.700528 0.680720 0.184081
Si Si4 0.754063 0.257097 0.368692
Si Si5 0.918831 0.281315 0.924134
Si Si6 0.580601 0.113642 0.358080
Si Si7 0.673823 0.438943 0.482162
Si Si8 0.204253 0.007210 0.241687
O O1 0.694539 0.755458 0.257108
O O2 0.828913 0.415611 0.521427
O O3 0.000000 0.500000 0.500000
O O4 0.613418 0.945608 0.338238
O O5 0.961621 0.378230 0.834432
O O6 0.085716 0.522349 0.751825
O O7 0.688409 0.914684 0.532374
O O8 0.874488 0.769563 0.771531
O O9 0.651437 0.538834 0.211367
O O10 0.500000 0.000000 0.000000
O O11 0.686456 0.162674 0.336119
O O12 0.680361 0.323107 0.430200
O O13 0.000000 0.000000 0.500000
O O14 0.667557 0.565485 0.787199
O O15 0.000000 0.000000 0.000000
O O16 0.031394 0.205107 0.063683
O O17 0.434526 0.792720 0.329450
O O18 0.762335 0.222038 0.646696
#
# Coordination Sequence:
#
# PCOD8018810 Si02
#       8
#     2   2   2   2   2   2   2   2
#     4  11  23  43  68 102 133 173 218 276 338 399
#     4  12  25  47  70  95 135 185 228 263 344 413
#     4  11  26  42  73  96 134 175 223 274 331 403
#     4  11  20  45  69  98 126 178 225 265 323 415
#     4  12  30  42  67 102 142 170 225 294 337 381
#     4  12  24  45  70  99 138 176 223 282 341 397
#     4  10  22  40  72  94 133 175 225 265 333 409
#     4  11  24  44  69  98 128 182 227 272 330 398
#
# _framework density 20.778748
#
# number of rings (size 3 to 8) (size 9 to 14) (size 15 to 20)
#    0.000    0.750    3.750    3.000   10.500    0.000 
#    0.000    0.625    0.000    0.000    0.000    0.000 
#    0.000    0.000    0.000    0.000    0.000    0.000 
#
# Total GULP energy -198388.661143 kJ/mol
# GULP energy per Si atom -12399.291321 kJ/mol
# Density = 2.073145 g / cm^3
# Si number density = 20.778748 Si / 1000 Ang^3
#
#
#
# Elastic Constant Matrix: (Units=GPa)
#
#
# Indices 1 2 3 4 5 6 
#
# 1 104.7330 20.9365 48.0665 11.8342 -9.8381 5.8028
# 2 20.9365 120.9446 32.0497 1.2869 -9.2483 1.2135
# 3 48.0665 32.0497 141.0173 -5.6659 -12.7428 3.5593
# 4 11.8342 1.2869 -5.6659 22.1600 -3.8022 0.7765
# 5 -9.8381 -9.2483 -12.7428 -3.8022 29.4990 -6.5969
# 6 5.8028 1.2135 3.5593 0.7765 -6.5969 37.0623
#
#
#
# Elastic Compliance Matrix: (Units=1/GPa)
#
#
# Indices 1 2 3 4 5 6 
#
# 1 0.012731 -0.000897 -0.004338 -0.007671 0.000825 -0.001240
# 2 -0.000897 0.008985 -0.001579 -0.000133 0.001894 0.000338
# 3 -0.004338 -0.001579 0.009393 0.005291 0.002848 0.000225
# 4 -0.007671 -0.000133 0.005291 0.051675 0.006519 0.000775
# 5 0.000825 0.001894 0.002848 0.006519 0.038226 0.006203
# 6 -0.001240 0.000338 0.000225 0.000775 0.006203 0.028231
#
#
# Mechanical properties :
#
#
# Convention : Reuss Voigt Hill
#
# Bulk Modulus (GPa) = 57.20539 63.20004 60.20271
# Shear Modulus (GPa) = 29.63908 35.45375 32.54642
#
# Velocity S-wave (km/s) = 3.78089 4.13516 3.96198
# Velocity P-wave (km/s) = 6.83013 7.29939 7.06865
#
# Compressibility (1/GPa) = 0.01748087
#
# Stress axis : x y z
#
# Youngs Moduli (GPa) = 78.54662 111.29877 106.46151
#
# Poissons Ratio (x) = 0.09986 0.46183
# Poissons Ratio (y) = 0.07047 0.16810
# Poissons Ratio (z) = 0.34074 0.17573
#
# Static dielectric constant tensor:
#      x y z
#    x 4.076890 0.031960 -0.361890 
#    y 0.031960 3.925220 -0.014800 
#    z -0.361890 -0.014800 3.768510 
# 
# 
# High freq. dielectric constant tensor:
#      x y z
#    x 1.833900 0.001680 -0.008060 
#    y 0.001680 1.823430 -0.008360 
#    z -0.008060 -0.008360 1.807710 
# 
# From -- ./inp_files/185405.got.cif
#   From: 2010.06.25/outbox.cif.g09.slc.cpg/sg2_93_cif.got.tgz:185405.got - 2010.06.27 13:26:56.
