data_PCOD8018446
_publ_section_title
;
Structure prediction by ZEFSAII (Michael W. Deem and Ramdas Pophale) SiO2 
 PCOD8018446
Probable space group: P -1
;
_chemical_formula_sum "Si O2"
_cell_formula_units_Z 14
_cell_length_a 13.758276
_cell_length_b 14.149274
_cell_length_c 13.209314
_cell_angle_alpha 50.770342
_cell_angle_beta 30.985734
_cell_angle_gamma 30.645682
_cell_volume 618.281698
_symmetry_space_group_name_H-M "P -1"
_symmetry_group_IT_number 2
_symmetry_cell_setting 'triclinic'
loop_
_space_group_symop_operation_xyz
x,y,z
-x,-y,-z
loop_
_atom_site_type_symbol
_atom_site_label
_atom_site_fract_x
_atom_site_fract_y
_atom_site_fract_z
Si Si1 0.311894 0.686914 0.111071
Si Si2 0.214667 0.197293 0.262609
Si Si3 0.457203 0.463201 0.328237
Si Si4 0.604468 0.797488 0.100542
Si Si5 0.262927 0.545421 0.747501
Si Si6 0.253249 0.928847 0.751907
Si Si7 0.686645 0.719704 0.678645
O O1 0.338778 0.619000 0.244100
O O2 0.500000 0.500000 0.000000
O O3 0.477167 0.731676 0.920109
O O4 0.938506 0.884943 0.280387
O O5 0.244521 0.212432 0.345394
O O6 0.849028 0.400567 0.420502
O O7 0.316948 0.005470 0.277782
O O8 0.417865 0.179904 0.017523
O O9 0.735997 0.387616 0.189738
O O10 0.562404 0.275524 0.327838
O O11 0.604072 0.659294 0.227297
O O12 0.906698 0.723261 0.910438
O O13 0.500000 0.500000 0.500000
O O14 0.494577 0.874757 0.648707
O O15 0.000000 0.000000 0.000000
O O16 0.000000 0.500000 0.500000
#
# Coordination Sequence:
#
# PCOD8018446 Si02
#       7
#     2   2   2   2   2   2   2
#     4  11  22  40  64  96 135 180 238 276 344 426
#     4  11  23  44  67 100 140 182 232 292 350 414
#     4  12  23  43  69  99 136 182 230 287 354 418
#     4  10  25  46  68 102 139 178 241 291 346 419
#     4  11  24  46  72 100 134 182 233 294 352 415
#     4  10  22  40  66  93 136 177 227 280 343 419
#     4  11  21  41  67  96 139 180 222 295 349 413
#
# _framework density 22.643398999999999
#
# number of rings (size 3 to 8) (size 9 to 14) (size 15 to 20)
#    0.000    1.143    5.714    0.857    4.000    1.714 
#    0.000    2.857    0.000    0.000    0.000    0.000 
#    0.000    0.000    0.000    0.000    0.000    0.000 
#
# Total GULP energy -173480.433635 kJ/mol
# GULP energy per Si atom -12391.459545 kJ/mol
# Density = 2.259186 g / cm^3
# Si number density = 22.643399 Si / 1000 Ang^3
#
#
#
# Elastic Constant Matrix: (Units=GPa)
#
#
# Indices 1 2 3 4 5 6 
#
# 1 136.1117 31.9695 26.6837 12.7592 1.2774 -0.8863
# 2 31.9695 112.3859 27.2180 16.9730 11.6158 -4.9315
# 3 26.6837 27.2180 72.5825 12.1141 5.1866 9.2083
# 4 12.7592 16.9730 12.1141 41.6277 5.2618 6.7653
# 5 1.2774 11.6158 5.1866 5.2618 33.9540 5.2308
# 6 -0.8863 -4.9315 9.2083 6.7653 5.2308 38.8001
#
#
#
# Elastic Compliance Matrix: (Units=1/GPa)
#
#
# Indices 1 2 3 4 5 6 
#
# 1 0.008320 -0.001629 -0.002352 -0.001404 0.000715 0.000690
# 2 -0.001629 0.011087 -0.003191 -0.003192 -0.003230 0.003121
# 3 -0.002352 -0.003191 0.016735 -0.002144 -0.000428 -0.003999
# 4 -0.001404 -0.003192 -0.002144 0.027360 -0.002087 -0.004418
# 5 0.000715 -0.003230 -0.000428 -0.002087 0.031563 -0.004184
# 6 0.000690 0.003121 -0.003999 -0.004418 -0.004184 0.028469
#
#
# Mechanical properties :
#
#
# Convention : Reuss Voigt Hill
#
# Bulk Modulus (GPa) = 45.87723 54.75807 50.31765
# Shear Modulus (GPa) = 34.44862 38.55695 36.50278
#
# Velocity S-wave (km/s) = 3.90468 4.13096 4.01942
# Velocity P-wave (km/s) = 6.37444 6.85481 6.61899
#
# Compressibility (1/GPa) = 0.02179730
#
# Stress axis : x y z
#
# Youngs Moduli (GPa) = 120.19283 90.19639 59.75627
#
# Poissons Ratio (x) = 0.14690 0.14056
# Poissons Ratio (y) = 0.19575 0.19070
# Poissons Ratio (z) = 0.28272 0.28784
#
# Static dielectric constant tensor:
#      x y z
#    x 4.650840 -0.368810 -0.449840 
#    y -0.368810 4.069980 0.461840 
#    z -0.449840 0.461840 4.119910 
# 
# 
# High freq. dielectric constant tensor:
#      x y z
#    x 1.904810 -0.007950 0.003370 
#    y -0.007950 1.890900 0.011190 
#    z 0.003370 0.011190 1.891020 
# 
# From -- ./inp_files/378776.got.cif
#   From: 2010.06.25/outbox.cif.g09.slc.cpg/sg2_190_cif.got.tgz:378776.got - 2010.06.27 13:26:56.
