data_PCOD8018805
_publ_section_title
;
Structure prediction by ZEFSAII (Michael W. Deem and Ramdas Pophale) SiO2 
 PCOD8018805
Probable space group: P -1
;
_chemical_formula_sum "Si O2"
_cell_formula_units_Z 16
_cell_length_a 11.699586
_cell_length_b 12.294736
_cell_length_c 11.797171
_cell_angle_alpha 107.144197
_cell_angle_beta 79.157838
_cell_angle_gamma 37.905327
_cell_volume 694.832295
_symmetry_space_group_name_H-M "P -1"
_symmetry_group_IT_number 2
_symmetry_cell_setting 'triclinic'
loop_
_space_group_symop_operation_xyz
x,y,z
-x,-y,-z
loop_
_atom_site_type_symbol
_atom_site_label
_atom_site_fract_x
_atom_site_fract_y
_atom_site_fract_z
Si Si1 0.860893 0.450233 0.593273
Si Si2 0.509519 0.546370 0.672074
Si Si3 0.557922 0.824725 0.566870
Si Si4 0.652212 0.759027 0.947243
Si Si5 0.763255 0.118688 0.368674
Si Si6 0.658833 0.331199 0.809476
Si Si7 0.398543 0.880959 0.244322
Si Si8 0.206675 0.342621 0.766330
O O1 0.748834 0.424937 0.574953
O O2 0.745076 0.641466 0.583694
O O3 0.773177 0.567741 0.770883
O O4 0.180713 0.157786 0.427856
O O5 0.571671 0.373185 0.547688
O O6 0.246124 0.834261 0.749192
O O7 0.480181 0.544235 0.809199
O O8 0.359134 0.897264 0.595527
O O9 0.756504 0.677397 0.381478
O O10 0.369669 0.095393 0.713790
O O11 0.894605 0.597223 0.927300
O O12 0.450539 0.865198 0.097523
O O13 0.500000 0.000000 0.000000
O O14 0.052848 0.863446 0.293347
O O15 0.701742 0.159178 0.735012
O O16 0.500000 0.500000 0.000000
O O17 0.678193 0.647090 0.188486
#
# Coordination Sequence:
#
# PCOD8018805 Si02
#       8
#     2   2   2   2   2   2   2   2
#     4  11  23  44  72  97 139 180 225 286 344 411
#     4  10  22  42  68 102 132 180 231 275 343 416
#     4  10  22  40  72 104 129 180 232 280 344 411
#     4  12  27  46  68 100 139 181 232 284 342 409
#     4  10  22  42  71 100 136 177 230 282 339 415
#     4  12  26  43  69 103 143 180 225 288 346 413
#     4  12  26  45  69 103 137 181 231 282 345 413
#     4  11  24  42  68  99 136 178 228 286 341 408
#
# _framework density 23.027139999999999
#
# number of rings (size 3 to 8) (size 9 to 14) (size 15 to 20)
#    0.000    1.000    1.250    5.250    5.250    2.000 
#    4.500    0.000    0.000    0.000    0.000    0.000 
#    0.000    0.000    0.000    0.000    0.000    0.000 
#
# Total GULP energy -198409.596241 kJ/mol
# GULP energy per Si atom -12400.599765 kJ/mol
# Density = 2.297473 g / cm^3
# Si number density = 23.027140 Si / 1000 Ang^3
#
#
#
# Elastic Constant Matrix: (Units=GPa)
#
#
# Indices 1 2 3 4 5 6 
#
# 1 79.8334 11.9151 7.6621 12.3870 -7.4972 -10.8444
# 2 11.9151 107.5872 20.5928 -15.7875 -1.2437 0.8604
# 3 7.6621 20.5928 90.3564 -6.9099 6.6494 4.3763
# 4 12.3870 -15.7875 -6.9099 34.7687 -2.6852 -3.2976
# 5 -7.4972 -1.2437 6.6494 -2.6852 29.5197 -3.4829
# 6 -10.8444 0.8604 4.3763 -3.2976 -3.4829 33.6140
#
#
#
# Elastic Compliance Matrix: (Units=1/GPa)
#
#
# Indices 1 2 3 4 5 6 
#
# 1 0.015004 -0.002178 -0.001775 -0.005893 0.004170 0.004981
# 2 -0.002178 0.010687 -0.001898 0.005301 0.000792 -0.000127
# 3 -0.001775 -0.001898 0.012140 0.001705 -0.003380 -0.002287
# 4 -0.005893 0.005301 0.001705 0.033844 0.001566 0.001224
# 5 0.004170 0.000792 -0.003380 0.001566 0.036545 0.005705
# 6 0.004981 -0.000127 -0.002287 0.001224 0.005705 0.032369
#
#
# Mechanical properties :
#
#
# Convention : Reuss Voigt Hill
#
# Bulk Modulus (GPa) = 38.26988 39.79075 39.03032
# Shear Modulus (GPa) = 31.05574 35.42096 33.23835
#
# Velocity S-wave (km/s) = 3.67639 3.92628 3.80339
# Velocity P-wave (km/s) = 5.88869 6.15400 6.02281
#
# Compressibility (1/GPa) = 0.02613021
#
# Stress axis : x y z
#
# Youngs Moduli (GPa) = 66.64816 93.56923 82.37081
#
# Poissons Ratio (x) = 0.20383 0.14618
# Poissons Ratio (y) = 0.14518 0.15631
# Poissons Ratio (z) = 0.11828 0.17757
#
# Static dielectric constant tensor:
#      x y z
#    x 4.246990 -0.073360 0.004020 
#    y -0.073360 4.810670 -0.049330 
#    z 0.004020 -0.049330 3.918250 
# 
# 
# High freq. dielectric constant tensor:
#      x y z
#    x 1.927750 -0.002640 -0.000550 
#    y -0.002640 1.923960 -0.013460 
#    z -0.000550 -0.013460 1.890020 
# 
# From -- ./inp_files/428378.got.cif
#   From: 2010.06.25/outbox.cif.g09.slc.cpg/sg2_215_cif.got.tgz:428378.got - 2010.06.27 13:26:56.
