data_PCOD8018536
_publ_section_title
;
Structure prediction by ZEFSAII (Michael W. Deem and Ramdas Pophale) SiO2 
 PCOD8018536
Probable space group: P -1
;
_chemical_formula_sum "Si O2"
_cell_formula_units_Z 16
_cell_length_a 18.753839
_cell_length_b 8.918769
_cell_length_c 14.501127
_cell_angle_alpha 114.673239
_cell_angle_beta 30.238506
_cell_angle_gamma 93.579203
_cell_volume 841.911443
_symmetry_space_group_name_H-M "P -1"
_symmetry_group_IT_number 2
_symmetry_cell_setting 'triclinic'
loop_
_space_group_symop_operation_xyz
x,y,z
-x,-y,-z
loop_
_atom_site_type_symbol
_atom_site_label
_atom_site_fract_x
_atom_site_fract_y
_atom_site_fract_z
Si Si1 0.782506 0.983085 0.693490
Si Si2 0.193633 0.918748 0.795488
Si Si3 0.679603 0.267721 0.211705
Si Si4 0.902431 0.543550 0.523116
Si Si5 0.531003 0.715528 0.235505
Si Si6 0.748886 0.864949 0.075353
Si Si7 0.518647 0.680658 0.029892
Si Si8 0.808094 0.239166 0.864658
O O1 0.816673 0.770380 0.629930
O O2 0.969686 0.921865 0.428926
O O3 0.621740 0.118635 0.830850
O O4 0.728861 0.129064 0.881997
O O5 0.201758 0.795413 0.844589
O O6 0.357134 0.768259 0.498697
O O7 0.207126 0.100587 0.861062
O O8 0.000000 0.000000 0.000000
O O9 0.500000 0.500000 0.500000
O O10 0.763615 0.290364 0.034728
O O11 0.661935 0.082255 0.167569
O O12 0.000000 0.500000 0.500000
O O13 0.053454 0.345794 0.237858
O O14 0.731093 0.550830 0.730302
O O15 0.477258 0.778723 0.204539
O O16 0.592539 0.841908 0.244471
O O17 0.711450 0.460525 0.973541
O O18 0.500000 0.500000 0.000000
#
# Coordination Sequence:
#
# PCOD8018536 Si02
#       8
#     2   2   2   2   2   2   2   2
#     4  11  25  40  63  99 136 172 218 271 325 390
#     4  10  25  41  65  97 124 165 215 273 331 376
#     4  10  22  40  67  92 121 166 217 265 320 391
#     4  12  23  45  66  96 135 174 221 264 335 394
#     4  12  22  45  66  94 131 174 219 263 326 395
#     4  10  23  41  69  91 126 171 215 269 319 394
#     4  12  27  40  65 101 138 178 214 276 329 385
#     4  11  21  40  67  94 128 174 222 262 324 396
#
# _framework density 19.004373000000001
#
# number of rings (size 3 to 8) (size 9 to 14) (size 15 to 20)
#    0.750    0.250    5.000    1.500    7.000    0.000 
#    0.000    0.000    0.000    2.250    0.000    0.000 
#    0.000    0.000    0.000    0.000    0.000    0.000 
#
# Total GULP energy -198255.933410 kJ/mol
# GULP energy per Si atom -12390.995838 kJ/mol
# Density = 1.896112 g / cm^3
# Si number density = 19.004373 Si / 1000 Ang^3
#
#
#
# Elastic Constant Matrix: (Units=GPa)
#
#
# Indices 1 2 3 4 5 6 
#
# 1 127.0461 37.2399 55.1259 -4.3236 -10.9855 -6.9196
# 2 37.2399 101.9695 29.6498 13.0998 -12.3617 0.6542
# 3 55.1259 29.6498 102.4280 -1.7489 -9.2884 -3.0065
# 4 -4.3236 13.0998 -1.7489 38.4250 -1.6297 -1.4782
# 5 -10.9855 -12.3617 -9.2884 -1.6297 35.5856 -2.4410
# 6 -6.9196 0.6542 -3.0065 -1.4782 -2.4410 37.5764
#
#
#
# Elastic Compliance Matrix: (Units=1/GPa)
#
#
# Indices 1 2 3 4 5 6 
#
# 1 0.011126 -0.002724 -0.004981 0.002086 0.001412 0.001871
# 2 -0.002724 0.012273 -0.001949 -0.004501 0.002648 -0.000876
# 3 -0.004981 -0.001949 0.013144 0.000767 0.001271 0.000281
# 4 0.002086 -0.004501 0.000767 0.027921 0.000674 0.001666
# 5 0.001412 0.002648 0.001271 0.000674 0.029977 0.002289
# 6 0.001871 -0.000876 0.000281 0.001666 0.002289 0.027209
#
#
# Mechanical properties :
#
#
# Convention : Reuss Voigt Hill
#
# Bulk Modulus (GPa) = 58.01877 63.94163 60.98020
# Shear Modulus (GPa) = 34.08248 36.27926 35.18087
#
# Velocity S-wave (km/s) = 4.23945 4.37394 4.30722
# Velocity P-wave (km/s) = 7.38643 7.69593 7.54277
#
# Compressibility (1/GPa) = 0.01723580
#
# Stress axis : x y z
#
# Youngs Moduli (GPa) = 89.88192 81.47862 76.07807
#
# Poissons Ratio (x) = 0.22192 0.37892
# Poissons Ratio (y) = 0.24481 0.14830
# Poissons Ratio (z) = 0.44768 0.15883
#
# Static dielectric constant tensor:
#      x y z
#    x 3.620920 -0.160080 0.021240 
#    y -0.160080 3.750950 0.082710 
#    z 0.021240 0.082710 3.399730 
# 
# 
# High freq. dielectric constant tensor:
#      x y z
#    x 1.742360 -0.003170 0.006300 
#    y -0.003170 1.737070 0.003890 
#    z 0.006300 0.003890 1.745730 
# 
# From -- ./inp_files/528388.got.cif
#   From: 2010.06.25/outbox.cif.g09.slc.cpg/sg2_265_cif.got.tgz:528388.got - 2010.06.27 13:26:56.
