data_PCOD8018126
_publ_section_title
;
Structure prediction by ZEFSAII (Michael W. Deem and Ramdas Pophale) SiO2 
 PCOD8018126
Probable space group: P -1
;
_chemical_formula_sum "Si O2"
_cell_formula_units_Z 16
_cell_length_a 12.206974
_cell_length_b 18.922933
_cell_length_c 9.289433
_cell_angle_alpha 44.669434
_cell_angle_beta 70.638232
_cell_angle_gamma 36.638782
_cell_volume 739.691021
_symmetry_space_group_name_H-M "P -1"
_symmetry_group_IT_number 2
_symmetry_cell_setting 'triclinic'
loop_
_space_group_symop_operation_xyz
x,y,z
-x,-y,-z
loop_
_atom_site_type_symbol
_atom_site_label
_atom_site_fract_x
_atom_site_fract_y
_atom_site_fract_z
Si Si1 0.001225 0.658964 0.690227
Si Si2 0.070219 0.218557 0.949587
Si Si3 0.676996 0.912286 0.701786
Si Si4 0.377466 0.340897 0.436497
Si Si5 0.534083 0.735998 0.812084
Si Si6 0.811901 0.062272 0.826899
Si Si7 0.115568 0.024852 0.751572
Si Si8 0.703654 0.831424 0.318511
O O1 0.839250 0.733917 0.778824
O O2 0.982448 0.793416 0.505193
O O3 0.926953 0.668448 0.555499
O O4 0.253022 0.438525 0.926321
O O5 0.260266 0.129732 0.895607
O O6 0.846414 0.447206 0.709239
O O7 0.166573 0.140099 0.181942
O O8 0.025048 0.139430 0.028252
O O9 0.515860 0.107724 0.401387
O O10 0.505778 0.967773 0.786982
O O11 0.421015 0.344539 0.248413
O O12 0.571225 0.237461 0.604483
O O13 0.356418 0.236777 0.602458
O O14 0.317842 0.843424 0.821073
O O15 0.913378 0.097309 0.712320
O O16 0.788097 0.049957 0.021257
#
# Coordination Sequence:
#
# PCOD8018126 Si02
#       8
#     2   2   2   2   2   2   2   2
#     4  11  22  43  64  96 132 169 211 258 318 376
#     4  12  22  43  64  94 132 168 210 262 319 372
#     4  10  22  40  62  93 133 167 214 255 311 383
#     4  11  25  42  64  99 131 167 210 262 315 384
#     4  10  22  43  64  93 130 166 212 259 314 378
#     4  11  24  46  67  95 127 162 218 268 317 373
#     4  10  25  44  70  94 122 168 216 267 316 378
#     4  11  23  40  64  97 129 173 211 255 317 379
#
# _framework density 21.630652999999999
#
# number of rings (size 3 to 8) (size 9 to 14) (size 15 to 20)
#    0.000    1.250    5.000    1.125    1.750    3.500 
#    4.500    3.750    0.000    0.000    0.000    0.000 
#    0.000    0.000    0.000    0.000    0.000    0.000 
#
# Total GULP energy -198411.826360 kJ/mol
# GULP energy per Si atom -12400.739148 kJ/mol
# Density = 2.158142 g / cm^3
# Si number density = 21.630653 Si / 1000 Ang^3
#
#
#
# Elastic Constant Matrix: (Units=GPa)
#
#
# Indices 1 2 3 4 5 6 
#
# 1 68.3883 2.1986 30.3817 2.1067 28.2991 -1.7022
# 2 2.1986 75.8323 19.4851 -4.8265 3.0748 -12.1715
# 3 30.3817 19.4851 96.2759 -4.7317 22.9217 -13.1904
# 4 2.1067 -4.8265 -4.7317 36.9923 4.1507 8.5263
# 5 28.2991 3.0748 22.9217 4.1507 24.0779 3.6201
# 6 -1.7022 -12.1715 -13.1904 8.5263 3.6201 20.5889
#
#
#
# Elastic Compliance Matrix: (Units=1/GPa)
#
#
# Indices 1 2 3 4 5 6 
#
# 1 0.030362 0.002280 0.000540 0.000448 -0.038180 0.010732
# 2 0.002280 0.015126 -0.001454 0.000107 -0.004593 0.008962
# 3 0.000540 -0.001454 0.016685 0.001059 -0.018421 0.012675
# 4 0.000448 0.000107 0.001059 0.030230 -0.005130 -0.010838
# 5 -0.038180 -0.004593 -0.018421 -0.005130 0.110676 -0.035009
# 6 0.010732 0.008962 0.012675 -0.010838 -0.035009 0.073519
#
#
# Mechanical properties :
#
#
# Convention : Reuss Voigt Hill
#
# Bulk Modulus (GPa) = 15.40733 38.29191 26.84962
# Shear Modulus (GPa) = 16.92037 28.89390 22.90714
#
# Velocity S-wave (km/s) = 2.79989 3.65880 3.25778
# Velocity P-wave (km/s) = 4.19415 5.96575 5.15660
#
# Compressibility (1/GPa) = 0.06490418
#
# Stress axis : x y z
#
# Youngs Moduli (GPa) = 32.93628 66.11096 59.93401
#
# Poissons Ratio (x) = -0.15074 -0.03235
# Poissons Ratio (y) = -0.07510 0.08716
# Poissons Ratio (z) = -0.01778 0.09614
#
# Static dielectric constant tensor:
#      x y z
#    x 3.710750 -0.007080 0.125740 
#    y -0.007080 4.228140 0.152840 
#    z 0.125740 0.152840 3.874850 
# 
# 
# High freq. dielectric constant tensor:
#      x y z
#    x 1.832180 0.002200 0.020040 
#    y 0.002200 1.860780 0.008740 
#    z 0.020040 0.008740 1.854160 
# 
# From -- ./inp_files/279018.got.cif
#   From: 2010.06.25/outbox.cif.g09.slc.cpg/sg2_140_cif.got.tgz:279018.got - 2010.06.27 13:26:56.
