data_PCOD8018442
_publ_section_title
;
Structure prediction by ZEFSAII (Michael W. Deem and Ramdas Pophale) SiO2 
 PCOD8018442
Probable space group: P -1
;
_chemical_formula_sum "Si O2"
_cell_formula_units_Z 14
_cell_length_a 5.353467
_cell_length_b 9.361172
_cell_length_c 13.525493
_cell_angle_alpha 95.108896
_cell_angle_beta 123.367933
_cell_angle_gamma 78.909299
_cell_volume 555.402194
_symmetry_space_group_name_H-M "P -1"
_symmetry_group_IT_number 2
_symmetry_cell_setting 'triclinic'
loop_
_space_group_symop_operation_xyz
x,y,z
-x,-y,-z
loop_
_atom_site_type_symbol
_atom_site_label
_atom_site_fract_x
_atom_site_fract_y
_atom_site_fract_z
Si Si1 0.196978 0.671688 0.049050
Si Si2 0.547935 0.828952 0.991718
Si Si3 0.168842 0.080208 0.621154
Si Si4 0.814884 0.368367 0.607885
Si Si5 0.187090 0.316562 0.505563
Si Si6 0.178483 0.460607 0.191260
Si Si7 0.307944 0.791866 0.734241
O O1 0.343621 0.567068 0.163860
O O2 0.447443 0.764231 0.069951
O O3 0.895540 0.772104 0.033719
O O4 0.114261 0.572353 0.934101
O O5 0.323623 0.783365 0.855836
O O6 0.500000 0.000000 0.000000
O O7 0.359271 0.180829 0.603432
O O8 0.928473 0.194942 0.639571
O O9 0.353659 0.956035 0.723430
O O10 0.000000 0.000000 0.500000
O O11 0.446012 0.396484 0.520909
O O12 0.956202 0.418692 0.538499
O O13 0.933901 0.459258 0.727040
O O14 0.005048 0.252965 0.373510
O O15 0.412148 0.315726 0.259842
#
# Coordination Sequence:
#
# PCOD8018442 Si02
#       7
#     2   2   2   2   2   2   2
#     4  10  25  47  66  96 141 172 223 283 342 390
#     4  11  25  45  72 102 128 174 228 285 332 401
#     4   8  19  41  60  93 131 173 218 278 324 384
#     4  10  22  40  66  93 129 181 223 263 336 398
#     4   9  22  41  63  96 132 173 219 276 327 389
#     4  10  24  43  70  98 136 188 219 273 341 403
#     4  10  22  42  65  98 133 174 222 276 335 396
#
# _framework density 25.206959999999999
#
# number of rings (size 3 to 8) (size 9 to 14) (size 15 to 20)
#    0.857    1.429    0.000    0.429    2.000   15.429 
#    5.143    0.000    0.000    0.000    0.000    0.000 
#    0.000    0.000    0.000    0.000    0.000    0.000 
#
# Total GULP energy -173517.293951 kJ/mol
# GULP energy per Si atom -12394.092425 kJ/mol
# Density = 2.514959 g / cm^3
# Si number density = 25.206960 Si / 1000 Ang^3
#
#
#
# Elastic Constant Matrix: (Units=GPa)
#
#
# Indices 1 2 3 4 5 6 
#
# 1 139.9140 78.4821 34.0977 -2.6387 -17.7437 10.3755
# 2 78.4821 129.4089 32.6831 -3.4698 -17.1224 -17.2546
# 3 34.0977 32.6831 48.1013 -4.1529 -4.3420 -9.0721
# 4 -2.6387 -3.4698 -4.1529 46.1902 -2.4853 -9.6497
# 5 -17.7437 -17.1224 -4.3420 -2.4853 25.9600 -4.0267
# 6 10.3755 -17.2546 -9.0721 -9.6497 -4.0267 49.0875
#
#
#
# Elastic Compliance Matrix: (Units=1/GPa)
#
#
# Indices 1 2 3 4 5 6 
#
# 1 0.013360 -0.007290 -0.005689 -0.001548 0.002206 -0.006561
# 2 -0.007290 0.014553 -0.002711 0.002197 0.005464 0.007036
# 3 -0.005689 -0.002711 0.028130 0.003295 0.000293 0.006120
# 4 -0.001548 0.002197 0.003295 0.023652 0.004247 0.006706
# 5 0.002206 0.005464 0.000293 0.004247 0.045024 0.006037
# 6 -0.006561 0.007036 0.006120 0.006706 0.006037 0.027176
#
#
# Mechanical properties :
#
#
# Convention : Reuss Voigt Hill
#
# Bulk Modulus (GPa) = 40.54730 67.54999 54.04865
# Shear Modulus (GPa) = 26.11013 35.72495 30.91754
#
# Velocity S-wave (km/s) = 3.22192 3.76874 3.50601
# Velocity P-wave (km/s) = 5.47373 6.76714 6.15451
#
# Compressibility (1/GPa) = 0.02466256
#
# Stress axis : x y z
#
# Youngs Moduli (GPa) = 74.85004 68.71340 35.54980
#
# Poissons Ratio (x) = 0.50092 0.20225
# Poissons Ratio (y) = 0.54566 0.09637
# Poissons Ratio (z) = 0.42584 0.18627
#
# Static dielectric constant tensor:
#      x y z
#    x 4.121260 0.000300 -0.364670 
#    y 0.000300 5.395900 -0.458530 
#    z -0.364670 -0.458530 4.621820 
# 
# 
# High freq. dielectric constant tensor:
#      x y z
#    x 1.984120 -0.004910 -0.020590 
#    y -0.004910 2.038080 -0.011120 
#    z -0.020590 -0.011120 1.998000 
# 
# From -- ./inp_files/479875.got.cif
#   From: 2010.06.25/outbox.cif.g09.slc.cpg/sg2_240_cif.got.tgz:479875.got - 2010.06.27 13:26:56.
