data_PCOD8018957
_publ_section_title
;
Structure prediction by ZEFSAII (Michael W. Deem and Ramdas Pophale) SiO2 
 PCOD8018957
Probable space group: P -1
;
_chemical_formula_sum "Si O2"
_cell_formula_units_Z 14
_cell_length_a 6.288669
_cell_length_b 11.141218
_cell_length_c 12.434304
_cell_angle_alpha 62.620982
_cell_angle_beta 57.608245
_cell_angle_gamma 78.748239
_cell_volume 651.707119
_symmetry_space_group_name_H-M "P -1"
_symmetry_group_IT_number 2
_symmetry_cell_setting 'triclinic'
loop_
_space_group_symop_operation_xyz
x,y,z
-x,-y,-z
loop_
_atom_site_type_symbol
_atom_site_label
_atom_site_fract_x
_atom_site_fract_y
_atom_site_fract_z
Si Si1 0.298740 0.695475 0.962824
Si Si2 0.573876 0.067866 0.317339
Si Si3 0.245287 0.341276 0.789165
Si Si4 0.362915 0.805812 0.366649
Si Si5 0.474646 0.509941 0.165437
Si Si6 0.101206 0.050573 0.566706
Si Si7 0.061534 0.535160 0.591888
O O1 0.404741 0.843187 0.832980
O O2 0.337164 0.586507 0.903941
O O3 0.447999 0.648587 0.046763
O O4 0.003742 0.709461 0.057714
O O5 0.371410 0.128510 0.429971
O O6 0.481445 0.912741 0.376640
O O7 0.838301 0.063760 0.313462
O O8 0.421716 0.216826 0.771145
O O9 0.405269 0.454013 0.767543
O O10 0.176457 0.404644 0.667348
O O11 0.265722 0.661111 0.503370
O O12 0.107643 0.859446 0.360170
O O13 0.196923 0.435045 0.287686
O O14 0.000000 0.000000 0.500000
O O15 0.000000 0.500000 0.500000
#
# Coordination Sequence:
#
# PCOD8018957 Si02
#       7
#     2   2   2   2   2   2   2
#     4  10  23  42  63  90 124 168 207 252 311 372
#     4  10  22  41  63  90 130 161 207 258 308 374
#     4  11  24  39  63  94 124 166 208 256 314 370
#     4  11  23  37  62  93 125 160 205 257 318 366
#     4  10  22  42  66  90 123 163 213 262 302 373
#     4   9  21  39  60  91 121 166 206 250 305 368
#     4  11  23  39  64  93 125 160 209 262 313 367
#
# _framework density 21.482043999999998
#
# number of rings (size 3 to 8) (size 9 to 14) (size 15 to 20)
#    0.000    1.714    1.429    1.714    2.000    6.286 
#    0.000    1.429    0.000    0.000    0.000    0.000 
#    0.000    0.000    0.000    0.000    0.000    0.000 
#
# Total GULP energy -173482.905211 kJ/mol
# GULP energy per Si atom -12391.636086 kJ/mol
# Density = 2.143315 g / cm^3
# Si number density = 21.482044 Si / 1000 Ang^3
#
#
#
# Elastic Constant Matrix: (Units=GPa)
#
#
# Indices 1 2 3 4 5 6 
#
# 1 111.2174 52.7881 48.8424 13.3752 0.1515 -16.4148
# 2 52.7881 100.3448 53.7581 14.0090 -9.0835 -19.6361
# 3 48.8424 53.7581 119.5810 3.6981 -5.4156 -14.7688
# 4 13.3752 14.0090 3.6981 38.4697 -6.9291 -15.3015
# 5 0.1515 -9.0835 -5.4156 -6.9291 37.0048 14.3326
# 6 -16.4148 -19.6361 -14.7688 -15.3015 14.3326 44.2809
#
#
#
# Elastic Compliance Matrix: (Units=1/GPa)
#
#
# Indices 1 2 3 4 5 6 
#
# 1 0.013193 -0.004902 -0.003016 -0.002292 -0.002840 0.001838
# 2 -0.004902 0.016059 -0.004777 -0.002445 0.001938 0.002238
# 3 -0.003016 -0.004777 0.011860 0.002271 0.000478 0.001349
# 4 -0.002292 -0.002445 0.002271 0.031425 0.002145 0.008988
# 5 -0.002840 0.001938 0.000478 0.002145 0.031680 -0.009547
# 6 0.001838 0.002238 0.001349 0.008988 -0.009547 0.030903
#
#
# Mechanical properties :
#
#
# Convention : Reuss Voigt Hill
#
# Bulk Modulus (GPa) = 63.60588 71.32450 67.46519
# Shear Modulus (GPa) = 30.16579 35.66806 32.91692
#
# Velocity S-wave (km/s) = 3.75137 4.07918 3.91871
# Velocity P-wave (km/s) = 6.95966 7.44717 7.20754
#
# Compressibility (1/GPa) = 0.01572182
#
# Stress axis : x y z
#
# Youngs Moduli (GPa) = 75.79513 62.27189 84.31814
#
# Poissons Ratio (x) = 0.30528 0.25427
# Poissons Ratio (y) = 0.37158 0.40279
# Poissons Ratio (z) = 0.22857 0.29747
#
# Static dielectric constant tensor:
#      x y z
#    x 4.167750 -0.463940 -0.198960 
#    y -0.463940 3.803980 0.237340 
#    z -0.198960 0.237340 3.919570 
# 
# 
# High freq. dielectric constant tensor:
#      x y z
#    x 1.855700 -0.022280 -0.006760 
#    y -0.022280 1.823620 0.017780 
#    z -0.006760 0.017780 1.836600 
# 
# From -- ./inp_files/67115.got.cif
#   From: 2010.06.25/outbox.cif.g09.slc.cpg/sg2_34_cif.got.tgz:67115.got - 2010.06.27 13:26:56.
