data_PCOD8018335
_publ_section_title
;
Structure prediction by ZEFSAII (Michael W. Deem and Ramdas Pophale) SiO2 
 PCOD8018335
Probable space group: P -1
;
_chemical_formula_sum "Si O2"
_cell_formula_units_Z 16
_cell_length_a 9.253700
_cell_length_b 12.085717
_cell_length_c 9.317319
_cell_angle_alpha 101.965135
_cell_angle_beta 45.993634
_cell_angle_gamma 103.238411
_cell_volume 727.841253
_symmetry_space_group_name_H-M "P -1"
_symmetry_group_IT_number 2
_symmetry_cell_setting 'triclinic'
loop_
_space_group_symop_operation_xyz
x,y,z
-x,-y,-z
loop_
_atom_site_type_symbol
_atom_site_label
_atom_site_fract_x
_atom_site_fract_y
_atom_site_fract_z
Si Si1 0.648941 0.498493 0.178783
Si Si2 0.792019 0.496285 0.394643
Si Si3 0.043325 0.863363 0.185592
Si Si4 0.264657 0.719731 0.469287
Si Si5 0.820368 0.335985 0.799276
Si Si6 0.715509 0.750582 0.172917
Si Si7 0.231257 0.963918 0.551101
Si Si8 0.326794 0.021992 0.828460
O O1 0.779888 0.491974 0.230440
O O2 0.414370 0.483135 0.378426
O O3 0.720289 0.619918 0.083272
O O4 0.686118 0.397656 0.019767
O O5 0.856702 0.375152 0.370580
O O6 0.957904 0.596920 0.356233
O O7 0.161169 0.792483 0.196663
O O8 0.880976 0.775108 0.190171
O O9 0.933164 0.957727 0.374543
O O10 0.208471 0.926835 0.981984
O O11 0.291498 0.670330 0.277868
O O12 0.487489 0.755632 0.395179
O O13 0.144006 0.830121 0.576306
O O14 0.737402 0.849933 0.060904
O O15 0.433469 0.983001 0.319034
O O16 0.267009 0.003624 0.699897
#
# Coordination Sequence:
#
# PCOD8018335 Si02
#       8
#     2   2   2   2   2   2   2   2
#     4  10  22  40  65  90 121 155 201 257 292 350
#     4  10  22  41  64  89 118 161 207 240 302 360
#     4  11  22  36  61  93 117 155 210 243 291 360
#     4  10  23  40  62  89 124 162 197 245 312 356
#     4  12  25  39  59  95 127 155 199 251 299 360
#     4   9  18  38  59  87 116 151 200 244 291 353
#     4   9  19  38  59  84 123 157 194 253 294 347
#     4   9  19  35  62  93 111 154 207 250 290 350
#
# _framework density 21.982816
#
# number of rings (size 3 to 8) (size 9 to 14) (size 15 to 20)
#    0.000    2.000    1.250    3.000    1.750    4.500 
#    0.000    6.250    0.000    0.000    0.000    0.000 
#    0.000    0.000    0.000    0.000    0.000    0.000 
#
# Total GULP energy -198321.926276 kJ/mol
# GULP energy per Si atom -12395.120392 kJ/mol
# Density = 2.193278 g / cm^3
# Si number density = 21.982816 Si / 1000 Ang^3
#
#
#
# Elastic Constant Matrix: (Units=GPa)
#
#
# Indices 1 2 3 4 5 6 
#
# 1 42.6203 27.7284 31.1970 -4.9186 -0.4082 -0.4412
# 2 27.7284 156.8897 50.3118 1.7410 -0.9536 -19.5646
# 3 31.1970 50.3118 80.5953 0.3662 -9.0199 -1.2546
# 4 -4.9186 1.7410 0.3662 40.7292 -3.2980 -7.0842
# 5 -0.4082 -0.9536 -9.0199 -3.2980 14.6249 0.3623
# 6 -0.4412 -19.5646 -1.2546 -7.0842 0.3623 22.9681
#
#
#
# Elastic Compliance Matrix: (Units=1/GPa)
#
#
# Indices 1 2 3 4 5 6 
#
# 1 0.034578 -0.002184 -0.012738 0.003775 -0.006167 -0.000631
# 2 -0.002184 0.009387 -0.005200 0.000531 -0.002731 0.007877
# 3 -0.012738 -0.005200 0.021945 -0.001190 0.012672 -0.004042
# 4 0.003775 0.000531 -0.001190 0.026933 0.005264 0.008684
# 5 -0.006167 -0.002731 0.012672 0.005264 0.077062 -0.001345
# 6 -0.000631 0.007877 -0.004042 0.008684 -0.001345 0.052715
#
#
# Mechanical properties :
#
#
# Convention : Reuss Voigt Hill
#
# Bulk Modulus (GPa) = 38.96268 55.39775 47.18021
# Shear Modulus (GPa) = 18.42161 27.05566 22.73863
#
# Velocity S-wave (km/s) = 2.89796 3.51203 3.21967
# Velocity P-wave (km/s) = 5.38147 6.45763 5.94396
#
# Compressibility (1/GPa) = 0.02566559
#
# Stress axis : x y z
#
# Youngs Moduli (GPa) = 28.92003 106.52671 45.56822
#
# Poissons Ratio (x) = 0.23270 0.58045
# Poissons Ratio (y) = 0.06317 0.23695
# Poissons Ratio (z) = 0.36839 0.55394
#
# Static dielectric constant tensor:
#      x y z
#    x 3.811980 -0.171370 -0.214100 
#    y -0.171370 4.446390 -0.000180 
#    z -0.214100 -0.000180 3.637720 
# 
# 
# High freq. dielectric constant tensor:
#      x y z
#    x 1.844050 -0.008030 -0.020470 
#    y -0.008030 1.890060 -0.003780 
#    z -0.020470 -0.003780 1.836160 
# 
# From -- ./inp_files/188219.got.cif
#   From: 2010.06.25/outbox.cif.g09.slc.cpg/sg2_95_cif.got.tgz:188219.got - 2010.06.27 13:26:56.
