data_PCOD8018518
_publ_section_title
;
Structure prediction by ZEFSAII (Michael W. Deem and Ramdas Pophale) SiO2 
 PCOD8018518
Probable space group: P -1
;
_chemical_formula_sum "Si O2"
_cell_formula_units_Z 16
_cell_length_a 29.718503
_cell_length_b 12.808022
_cell_length_c 5.362409
_cell_angle_alpha 99.871739
_cell_angle_beta 65.579645
_cell_angle_gamma 155.799508
_cell_volume 635.796990
_symmetry_space_group_name_H-M "P -1"
_symmetry_group_IT_number 2
_symmetry_cell_setting 'triclinic'
loop_
_space_group_symop_operation_xyz
x,y,z
-x,-y,-z
loop_
_atom_site_type_symbol
_atom_site_label
_atom_site_fract_x
_atom_site_fract_y
_atom_site_fract_z
Si Si1 0.246777 0.425069 0.726546
Si Si2 0.154390 0.930259 0.163939
Si Si3 0.746768 0.425029 0.726564
Si Si4 0.493305 0.196682 0.811060
Si Si5 0.993286 0.196629 0.811053
Si Si6 0.454593 0.496850 0.880163
Si Si7 0.345603 0.069725 0.836051
Si Si8 0.045386 0.503106 0.119847
O O1 0.249992 0.499990 0.500003
O O2 0.383527 0.625096 0.518536
O O3 0.250037 0.500088 0.999939
O O4 0.101370 0.065151 0.893958
O O5 0.115336 0.974119 0.216395
O O6 0.076574 0.690939 0.039948
O O7 0.099466 0.792751 0.511371
O O8 0.322149 0.248708 0.888330
O O9 0.883538 0.625116 0.518574
O O10 0.601375 0.065123 0.893888
O O11 0.384684 0.025928 0.783597
O O12 0.565026 0.443860 0.868239
O O13 0.064976 0.443752 0.868295
O O14 0.423396 0.309003 0.960091
O O15 0.599457 0.792737 0.511398
O O16 0.177842 0.751257 0.111626
#
# Coordination Sequence:
#
# PCOD8018518 Si02
#       8
#     2   2   2   2   2   2   2   2
#     4  12  30  50  73 104 139 186 246 308 350 412
#     4  10  22  40  67 105 142 177 225 280 348 432
#     4  12  30  50  73 104 139 186 246 308 350 412
#     4  12  25  44  76  96 142 184 235 288 366 414
#     4  12  25  44  76  96 142 184 235 288 366 414
#     4  10  22  40  67 105 142 177 225 280 348 432
#     4  10  22  40  67 105 142 177 225 280 348 432
#     4  10  22  40  67 105 142 177 225 280 348 432
#
# _framework density 25.165267
#
# number of rings (size 3 to 8) (size 9 to 14) (size 15 to 20)
#    0.000    1.000    0.000    5.250   10.500    0.000 
#    0.000   10.000    0.000    0.000    0.000    0.000 
#    0.000    0.000    0.000    0.000    0.000    0.000 
#
# Total GULP energy -198336.898241 kJ/mol
# GULP energy per Si atom -12396.056140 kJ/mol
# Density = 2.510799 g / cm^3
# Si number density = 25.165267 Si / 1000 Ang^3
#
#
#
# Elastic Constant Matrix: (Units=GPa)
#
#
# Indices 1 2 3 4 5 6 
#
# 1 117.9507 46.0426 54.0310 13.6454 -23.8523 -44.1952
# 2 46.0426 102.4404 40.4569 -3.9970 -4.0460 -27.5394
# 3 54.0310 40.4569 130.2947 3.1544 -21.1783 -20.6629
# 4 13.6454 -3.9970 3.1544 37.6298 2.1708 -9.7000
# 5 -23.8523 -4.0460 -21.1783 2.1708 52.9003 -1.9944
# 6 -44.1952 -27.5394 -20.6629 -9.7000 -1.9944 22.1732
#
#
#
# Elastic Compliance Matrix: (Units=1/GPa)
#
#
# Indices 1 2 3 4 5 6 
#
# 1 0.092788 0.023069 -0.002065 0.024574 0.050322 0.226947
# 2 0.023069 0.022690 -0.002107 0.013930 0.013720 0.079526
# 3 -0.002065 -0.002107 0.010183 0.000310 0.003091 0.003170
# 4 0.024574 0.013930 0.000310 0.040350 0.013837 0.085468
# 5 0.050322 0.013720 0.003091 0.013837 0.048237 0.130615
# 6 0.226947 0.079526 0.003170 0.085468 0.130615 0.648309
#
#
# Mechanical properties :
#
#
# Convention : Reuss Voigt Hill
#
# Bulk Modulus (GPa) = 6.11794 70.19410 38.15602
# Shear Modulus (GPa) = 5.68667 36.55101 21.11884
#
# Velocity S-wave (km/s) = 1.50487 3.81522 2.90005
# Velocity P-wave (km/s) = 2.33579 6.88198 5.13895
#
# Compressibility (1/GPa) = 0.16345358
#
# Stress axis : x y z
#
# Youngs Moduli (GPa) = 10.77729 44.07209 98.20065
#
# Poissons Ratio (x) = -1.01669 0.20282
# Poissons Ratio (y) = -0.24862 0.20691
# Poissons Ratio (z) = 0.02226 0.09286
#
# Static dielectric constant tensor:
#      x y z
#    x 5.055590 -0.109890 -0.151390 
#    y -0.109890 4.795070 -0.058550 
#    z -0.151390 -0.058550 4.207770 
# 
# 
# High freq. dielectric constant tensor:
#      x y z
#    x 2.030780 -0.008430 -0.018810 
#    y -0.008430 2.016480 -0.006200 
#    z -0.018810 -0.006200 1.998570 
# 
# From -- ./inp_files/128484.got.cif
#   From: 2010.06.25/outbox.cif.g09.slc.cpg/sg2_65_cif.got.tgz:128484.got - 2010.06.27 13:26:56.
