data_PCOD8018463
_publ_section_title
;
Structure prediction by ZEFSAII (Michael W. Deem and Ramdas Pophale) SiO2 
 PCOD8018463
Probable space group: P -1
;
_chemical_formula_sum "Si O2"
_cell_formula_units_Z 14
_cell_length_a 14.882948
_cell_length_b 9.075394
_cell_length_c 20.333952
_cell_angle_alpha 148.011899
_cell_angle_beta 152.489438
_cell_angle_gamma 46.928706
_cell_volume 644.497108
_symmetry_space_group_name_H-M "P -1"
_symmetry_group_IT_number 2
_symmetry_cell_setting 'triclinic'
loop_
_space_group_symop_operation_xyz
x,y,z
-x,-y,-z
loop_
_atom_site_type_symbol
_atom_site_label
_atom_site_fract_x
_atom_site_fract_y
_atom_site_fract_z
Si Si1 0.254910 0.657433 0.517208
Si Si2 0.858036 0.802701 0.538801
Si Si3 0.109248 0.420881 0.977951
Si Si4 0.393595 0.750677 0.044127
Si Si5 0.058509 0.447271 0.622802
Si Si6 0.060671 0.705851 0.921088
Si Si7 0.540221 0.702025 0.395296
O O1 0.324381 0.398288 0.499758
O O2 0.090871 0.741354 0.490226
O O3 0.137816 0.533415 0.327100
O O4 0.442667 0.936631 0.731304
O O5 0.837802 0.762363 0.430929
O O6 0.639040 0.777038 0.415999
O O7 0.923612 0.546384 0.519382
O O8 0.018281 0.099976 0.772633
O O9 0.102507 0.636301 0.996277
O O10 0.336762 0.444192 0.156598
O O11 0.000000 0.500000 0.000000
O O12 0.500000 0.500000 0.000000
O O13 0.226173 0.720858 0.866620
O O14 0.264989 0.719864 0.016874
O O15 0.000000 0.000000 0.000000
O O16 0.500000 0.000000 0.500000
#
# Coordination Sequence:
#
# PCOD8018463 Si02
#       7
#     2   2   2   2   2   2   2
#     4  10  24  45  70  96 138 180 221 283 346 404
#     4  10  22  40  66  95 132 172 220 276 336 399
#     4  12  26  41  69  98 135 174 226 282 337 396
#     4  11  26  43  69  98 140 178 232 279 338 409
#     4   9  22  42  66  95 132 172 221 279 334 402
#     4  11  28  46  69 102 141 180 230 280 348 410
#     4  11  22  40  67  99 131 173 228 275 337 407
#
# _framework density 21.722365
#
# number of rings (size 3 to 8) (size 9 to 14) (size 15 to 20)
#    0.000    1.429    1.429    1.714   12.000    1.714 
#    0.000    4.286    0.000    0.000    0.000    0.000 
#    0.000    0.000    0.000    0.000    0.000    0.000 
#
# Total GULP energy -173501.462706 kJ/mol
# GULP energy per Si atom -12392.961622 kJ/mol
# Density = 2.167292 g / cm^3
# Si number density = 21.722365 Si / 1000 Ang^3
#
#
#
# Elastic Constant Matrix: (Units=GPa)
#
#
# Indices 1 2 3 4 5 6 
#
# 1 177.6502 41.2159 61.3500 -2.6625 -1.6786 -11.5421
# 2 41.2159 51.3116 0.5249 -1.9676 3.4893 -6.9782
# 3 61.3500 0.5249 148.4864 -2.1270 13.4526 -4.3927
# 4 -2.6625 -1.9676 -2.1270 34.2521 -3.6179 -4.4065
# 5 -1.6786 3.4893 13.4526 -3.6179 37.1677 -4.9923
# 6 -11.5421 -6.9782 -4.3927 -4.4065 -4.9923 33.0656
#
#
#
# Elastic Compliance Matrix: (Units=1/GPa)
#
#
# Indices 1 2 3 4 5 6 
#
# 1 0.008641 -0.006852 -0.003732 0.000524 0.002643 0.001543
# 2 -0.006852 0.025653 0.003150 0.001183 -0.003327 0.003096
# 3 -0.003732 0.003150 0.008589 0.000043 -0.003573 -0.000031
# 4 0.000524 0.001183 0.000043 0.030323 0.003522 0.005011
# 5 0.002643 -0.003327 -0.003573 0.003522 0.029602 0.004684
# 6 0.001543 0.003096 -0.000031 0.005011 0.004684 0.032806
#
#
# Mechanical properties :
#
#
# Convention : Reuss Voigt Hill
#
# Bulk Modulus (GPa) = 35.69518 64.84776 50.27147
# Shear Modulus (GPa) = 31.28512 39.18757 35.23635
#
# Velocity S-wave (km/s) = 3.79915 4.25198 4.03193
# Velocity P-wave (km/s) = 5.97602 7.35008 6.69837
#
# Compressibility (1/GPa) = 0.02801499
#
# Stress axis : x y z
#
# Youngs Moduli (GPa) = 115.73093 38.98143 116.42943
#
# Poissons Ratio (x) = 0.26711 0.43453
# Poissons Ratio (y) = 0.79301 -0.36680
# Poissons Ratio (z) = 0.43192 -0.12281
#
# Static dielectric constant tensor:
#      x y z
#    x 4.507670 -0.064160 -0.084300 
#    y -0.064160 4.032630 -0.273500 
#    z -0.084300 -0.273500 4.052280 
# 
# 
# High freq. dielectric constant tensor:
#      x y z
#    x 1.872810 -0.006010 -0.002410 
#    y -0.006010 1.848090 -0.009830 
#    z -0.002410 -0.009830 1.861320 
# 
# From -- ./inp_files/69498.got.cif
#   From: 2010.06.25/outbox.cif.g09.slc.cpg/sg2_35_cif.got.tgz:69498.got - 2010.06.27 13:26:56.
