data_PCOD8018305
_publ_section_title
;
Structure prediction by ZEFSAII (Michael W. Deem and Ramdas Pophale) SiO2 
 PCOD8018305
Probable space group: P -1
;
_chemical_formula_sum "Si O2"
_cell_formula_units_Z 16
_cell_length_a 9.067949
_cell_length_b 14.741319
_cell_length_c 9.943919
_cell_angle_alpha 76.197107
_cell_angle_beta 57.866187
_cell_angle_gamma 118.296226
_cell_volume 746.207920
_symmetry_space_group_name_H-M "P -1"
_symmetry_group_IT_number 2
_symmetry_cell_setting 'triclinic'
loop_
_space_group_symop_operation_xyz
x,y,z
-x,-y,-z
loop_
_atom_site_type_symbol
_atom_site_label
_atom_site_fract_x
_atom_site_fract_y
_atom_site_fract_z
Si Si1 0.496687 0.481334 0.168631
Si Si2 0.317388 0.837647 0.543331
Si Si3 0.853505 0.030158 0.432198
Si Si4 0.636760 0.769577 0.739595
Si Si5 0.984798 0.285820 0.007019
Si Si6 0.885427 0.037467 0.129879
Si Si7 0.167014 0.636331 0.182579
Si Si8 0.014964 0.626510 0.537281
O O1 0.460971 0.356261 0.255184
O O2 0.742648 0.609257 0.087183
O O3 0.263579 0.449902 0.351158
O O4 0.500000 0.500000 0.000000
O O5 0.337393 0.957758 0.497955
O O6 0.114770 0.736646 0.560891
O O7 0.585186 0.899143 0.346944
O O8 0.216807 0.762353 0.763399
O O9 0.012449 0.076691 0.201282
O O10 0.067273 0.132827 0.402389
O O11 0.649744 0.868497 0.612177
O O12 0.449479 0.714228 0.975669
O O13 0.967588 0.353584 0.870617
O O14 0.936486 0.163454 0.008769
O O15 0.000000 0.000000 0.000000
O O16 0.988953 0.476788 0.353888
O O17 0.191339 0.698819 0.292076
#
# Coordination Sequence:
#
# PCOD8018305 Si02
#       8
#     2   2   2   2   2   2   2   2
#     4  12  21  43  69  96 127 174 227 267 322 387
#     4  11  21  44  67  89 132 174 224 264 323 397
#     4  10  22  40  64  99 123 175 219 267 320 392
#     4  11  21  39  68  92 131 168 223 267 318 395
#     4  11  24  44  71  94 131 177 222 269 322 395
#     4  11  25  40  65  96 134 167 216 272 334 381
#     4  11  25  41  61 101 136 172 214 275 333 383
#     4  11  25  41  66  96 134 178 215 273 335 381
#
# _framework density 21.441744
#
# number of rings (size 3 to 8) (size 9 to 14) (size 15 to 20)
#    0.000    1.000    3.750    3.750    1.750    5.500 
#    0.000    1.250    0.000    0.000    0.000    0.000 
#    0.000    0.000    0.000    0.000    0.000    0.000 
#
# Total GULP energy -198309.923527 kJ/mol
# GULP energy per Si atom -12394.370220 kJ/mol
# Density = 2.139294 g / cm^3
# Si number density = 21.441744 Si / 1000 Ang^3
#
#
#
# Elastic Constant Matrix: (Units=GPa)
#
#
# Indices 1 2 3 4 5 6 
#
# 1 106.0841 41.3182 58.0695 0.2930 4.0214 -2.2434
# 2 41.3182 100.4201 48.5932 5.0291 1.0793 -11.4246
# 3 58.0695 48.5932 110.5180 8.3777 2.6188 -20.2999
# 4 0.2930 5.0291 8.3777 37.3835 -3.4107 -7.6400
# 5 4.0214 1.0793 2.6188 -3.4107 44.4474 -2.2075
# 6 -2.2434 -11.4246 -20.2999 -7.6400 -2.2075 29.5905
#
#
#
# Elastic Compliance Matrix: (Units=1/GPa)
#
#
# Indices 1 2 3 4 5 6 
#
# 1 0.014497 -0.003064 -0.007207 0.000824 -0.000992 -0.004889
# 2 -0.003064 0.013339 -0.003823 -0.000441 0.000254 0.002200
# 3 -0.007207 -0.003823 0.016223 -0.001256 0.000129 0.008792
# 4 0.000824 -0.000441 -0.001256 0.028669 0.002539 0.006622
# 5 -0.000992 0.000254 0.000129 0.002539 0.022892 0.002475
# 6 -0.004889 0.002200 0.008792 0.006622 0.002475 0.042199
#
#
# Mechanical properties :
#
#
# Convention : Reuss Voigt Hill
#
# Bulk Modulus (GPa) = 63.01214 68.10930 65.56072
# Shear Modulus (GPa) = 29.18889 33.55370 31.37129
#
# Velocity S-wave (km/s) = 3.69360 3.96014 3.82919
# Velocity P-wave (km/s) = 6.90229 7.26251 7.08469
#
# Compressibility (1/GPa) = 0.01586996
#
# Stress axis : x y z
#
# Youngs Moduli (GPa) = 68.98054 74.96994 61.64035
#
# Poissons Ratio (x) = 0.22973 0.44423
# Poissons Ratio (y) = 0.21138 0.23567
# Poissons Ratio (z) = 0.49713 0.28663
#
# Static dielectric constant tensor:
#      x y z
#    x 3.899500 -0.102390 0.107070 
#    y -0.102390 3.943940 -0.026700 
#    z 0.107070 -0.026700 3.904600 
# 
# 
# High freq. dielectric constant tensor:
#      x y z
#    x 1.850590 -0.005010 -0.004190 
#    y -0.005010 1.841820 -0.009090 
#    z -0.004190 -0.009090 1.835710 
# 
# From -- ./inp_files/206783.got.cif
#   From: 2010.06.25/outbox.cif.g09.slc.cpg/sg2_104_cif.got.tgz:206783.got - 2010.06.27 13:26:56.
