data_PCOD8018582
_publ_section_title
;
Structure prediction by ZEFSAII (Michael W. Deem and Ramdas Pophale) SiO2 
 PCOD8018582
Probable space group: P -1
;
_chemical_formula_sum "Si O2"
_cell_formula_units_Z 16
_cell_length_a 8.781346
_cell_length_b 19.404901
_cell_length_c 8.416086
_cell_angle_alpha 50.165509
_cell_angle_beta 116.268038
_cell_angle_gamma 79.959658
_cell_volume 737.629601
_symmetry_space_group_name_H-M "P -1"
_symmetry_group_IT_number 2
_symmetry_cell_setting 'triclinic'
loop_
_space_group_symop_operation_xyz
x,y,z
-x,-y,-z
loop_
_atom_site_type_symbol
_atom_site_label
_atom_site_fract_x
_atom_site_fract_y
_atom_site_fract_z
Si Si1 0.394576 0.944814 0.095156
Si Si2 0.697705 0.685099 0.690963
Si Si3 0.286541 0.044402 0.230248
Si Si4 0.058803 0.963286 0.401218
Si Si5 0.111587 0.697437 0.447388
Si Si6 0.562261 0.501636 0.346671
Si Si7 0.576669 0.289409 0.197972
Si Si8 0.145094 0.562964 0.936389
O O1 0.544087 0.803884 0.333286
O O2 0.391365 0.950607 0.274571
O O3 0.500000 0.000000 0.000000
O O4 0.145191 0.017313 0.805907
O O5 0.599333 0.710799 0.784281
O O6 0.951321 0.638169 0.871554
O O7 0.728256 0.576897 0.785557
O O8 0.500000 0.000000 0.500000
O O9 0.105809 0.045751 0.235117
O O10 0.138790 0.178472 0.894632
O O11 0.277901 0.824359 0.683032
O O12 0.000000 0.000000 0.500000
O O13 0.236575 0.629750 0.438232
O O14 0.264401 0.715242 0.590653
O O15 0.063464 0.621737 0.635330
O O16 0.500000 0.500000 0.500000
O O17 0.588679 0.596392 0.167463
O O18 0.329013 0.572443 0.040749
#
# Coordination Sequence:
#
# PCOD8018582 Si02
#       8
#     2   2   2   2   2   2   2   2
#     4  12  25  44  70 100 136 188 228 285 353 411
#     4  11  21  39  70  94 130 172 237 276 336 417
#     4  12  26  44  69 102 137 182 231 286 349 413
#     4  12  27  45  69 102 139 181 234 288 348 418
#     4  11  21  44  69  95 136 178 230 276 345 423
#     4  11  24  39  66 100 133 177 223 285 340 409
#     4  11  21  45  71  95 132 185 228 276 349 420
#     4  10  22  40  67  98 127 178 226 278 343 409
#
# _framework density 21.691105
#
# number of rings (size 3 to 8) (size 9 to 14) (size 15 to 20)
#    0.000    0.750    5.000    3.375    3.500    1.000 
#    0.000    1.875    0.000    0.000    0.000    0.000 
#    0.000    0.000    0.000    0.000    0.000    0.000 
#
# Total GULP energy -198242.067632 kJ/mol
# GULP energy per Si atom -12390.129227 kJ/mol
# Density = 2.164174 g / cm^3
# Si number density = 21.691105 Si / 1000 Ang^3
#
#
#
# Elastic Constant Matrix: (Units=GPa)
#
#
# Indices 1 2 3 4 5 6 
#
# 1 147.5816 38.9192 46.2949 -5.4954 -7.7837 -13.1034
# 2 38.9192 107.5638 44.4288 -11.5146 -2.5392 -27.0784
# 3 46.2949 44.4288 117.8767 -15.6177 -13.4208 -4.3630
# 4 -5.4954 -11.5146 -15.6177 40.5204 4.1001 4.9083
# 5 -7.7837 -2.5392 -13.4208 4.1001 41.3372 -2.7162
# 6 -13.1034 -27.0784 -4.3630 4.9083 -2.7162 38.4777
#
#
#
# Elastic Compliance Matrix: (Units=1/GPa)
#
#
# Indices 1 2 3 4 5 6 
#
# 1 0.008137 -0.001557 -0.002542 -0.000580 0.000768 0.001516
# 2 -0.001557 0.013861 -0.004188 0.001109 -0.000347 0.008584
# 3 -0.002542 -0.004188 0.011654 0.003023 0.002571 -0.002696
# 4 -0.000580 0.001109 0.003023 0.026584 -0.001867 -0.002597
# 5 0.000768 -0.000347 0.002571 -0.001867 0.025489 0.002346
# 6 0.001516 0.008584 -0.002696 -0.002597 0.002346 0.032737
#
#
# Mechanical properties :
#
#
# Convention : Reuss Voigt Hill
#
# Bulk Modulus (GPa) = 58.55299 70.25642 64.40470
# Shear Modulus (GPa) = 35.52912 40.29234 37.91073
#
# Velocity S-wave (km/s) = 4.05156 4.31461 4.18515
# Velocity P-wave (km/s) = 6.99567 7.56842 7.28767
#
# Compressibility (1/GPa) = 0.01707855
#
# Stress axis : x y z
#
# Youngs Moduli (GPa) = 122.88860 72.14343 85.80790
#
# Poissons Ratio (x) = 0.11229 0.21817
# Poissons Ratio (y) = 0.19128 0.35936
# Poissons Ratio (z) = 0.31244 0.30214
#
# Static dielectric constant tensor:
#      x y z
#    x 4.408840 -0.239820 -0.213980 
#    y -0.239820 3.835560 -0.110280 
#    z -0.213980 -0.110280 4.045990 
# 
# 
# High freq. dielectric constant tensor:
#      x y z
#    x 1.874740 -0.011470 -0.010960 
#    y -0.011470 1.834730 -0.030290 
#    z -0.010960 -0.030290 1.849470 
# 
# From -- ./inp_files/223252.got.cif
#   From: 2010.06.25/outbox.cif.g09.slc.cpg/sg2_112_cif.got.tgz:223252.got - 2010.06.27 13:26:56.
