data_PCOD8018503
_publ_section_title
;
Structure prediction by ZEFSAII (Michael W. Deem and Ramdas Pophale) SiO2 
 PCOD8018503
Probable space group: P -1
;
_chemical_formula_sum "Si O2"
_cell_formula_units_Z 16
_cell_length_a 11.644685
_cell_length_b 8.917045
_cell_length_c 26.397515
_cell_angle_alpha 145.266089
_cell_angle_beta 153.453623
_cell_angle_gamma 41.274166
_cell_volume 696.527072
_symmetry_space_group_name_H-M "P -1"
_symmetry_group_IT_number 2
_symmetry_cell_setting 'triclinic'
loop_
_space_group_symop_operation_xyz
x,y,z
-x,-y,-z
loop_
_atom_site_type_symbol
_atom_site_label
_atom_site_fract_x
_atom_site_fract_y
_atom_site_fract_z
Si Si1 0.234975 0.451201 0.444192
Si Si2 0.646965 0.104266 0.716557
Si Si3 0.989627 0.450419 0.894961
Si Si4 0.991408 0.776054 0.352049
Si Si5 0.191477 0.962274 0.128543
Si Si6 0.246525 0.527386 0.293534
Si Si7 0.473833 0.577942 0.069985
Si Si8 0.088362 0.350940 0.544702
O O1 0.458827 0.539228 0.594226
O O2 0.199796 0.665181 0.444649
O O3 0.981655 0.456332 0.381582
O O4 0.307257 0.166380 0.370858
O O5 0.624654 0.056434 0.754440
O O6 0.392315 0.268762 0.641577
O O7 0.903597 0.267242 0.855636
O O8 0.783441 0.386524 0.752327
O O9 0.964172 0.758761 0.988157
O O10 0.285515 0.384069 0.972184
O O11 0.754772 0.585415 0.208413
O O12 0.119882 0.756459 0.341981
O O13 0.930144 0.088979 0.420644
O O14 0.349658 0.875281 0.115175
O O15 0.083755 0.263723 0.162833
O O16 0.500000 0.500000 0.000000
O O17 0.000000 0.500000 0.500000
#
# Coordination Sequence:
#
# PCOD8018503 Si02
#       8
#     2   2   2   2   2   2   2   2
#     4  12  26  43  74 107 139 192 231 297 360 413
#     4  12  24  48  70 106 151 182 239 285 365 431
#     4  10  25  40  71  97 148 188 228 297 343 423
#     4  12  22  45  69 102 144 175 243 293 347 422
#     4  10  22  42  69 100 136 186 234 286 352 413
#     4  12  21  42  70 104 134 185 241 292 348 416
#     4  10  22  40  67 100 136 184 239 290 338 412
#     4  12  28  44  69 105 144 187 231 299 358 422
#
# _framework density 22.971109999999999
#
# number of rings (size 3 to 8) (size 9 to 14) (size 15 to 20)
#    0.750    0.000    3.750    4.500    1.750    1.000 
#    0.000    1.875    0.000    0.000    0.000    0.000 
#    0.000    0.000    0.000    0.000    0.000    0.000 
#
# Total GULP energy -198219.247922 kJ/mol
# GULP energy per Si atom -12388.702995 kJ/mol
# Density = 2.291883 g / cm^3
# Si number density = 22.971110 Si / 1000 Ang^3
#
#
#
# Elastic Constant Matrix: (Units=GPa)
#
#
# Indices 1 2 3 4 5 6 
#
# 1 99.2501 29.3727 33.3655 10.6767 -9.3729 -19.3586
# 2 29.3727 79.8938 24.1959 1.9239 -7.2076 -5.4375
# 3 33.3655 24.1959 100.2726 -7.6889 -0.5491 -7.3482
# 4 10.6767 1.9239 -7.6889 33.2407 -1.9367 -4.0657
# 5 -9.3729 -7.2076 -0.5491 -1.9367 42.6543 3.1927
# 6 -19.3586 -5.4375 -7.3482 -4.0657 3.1927 29.6062
#
#
#
# Elastic Compliance Matrix: (Units=1/GPa)
#
#
# Indices 1 2 3 4 5 6 
#
# 1 0.014352 -0.003391 -0.003763 -0.004318 0.001809 0.007040
# 2 -0.003391 0.014639 -0.002441 -0.000267 0.001712 -0.000356
# 3 -0.003763 -0.002441 0.012190 0.004212 -0.000951 0.000798
# 4 -0.004318 -0.000267 0.004212 0.032803 0.000352 0.002640
# 5 0.001809 0.001712 -0.000951 0.000352 0.024232 -0.001303
# 6 0.007040 -0.000356 0.000798 0.002640 -0.001303 0.039016
#
#
# Mechanical properties :
#
#
# Convention : Reuss Voigt Hill
#
# Bulk Modulus (GPa) = 45.47087 50.36497 47.91792
# Shear Modulus (GPa) = 30.53359 33.93238 32.23299
#
# Velocity S-wave (km/s) = 3.64980 3.84757 3.74999
# Velocity P-wave (km/s) = 6.13181 6.45844 6.29724
#
# Compressibility (1/GPa) = 0.02199210
#
# Stress axis : x y z
#
# Youngs Moduli (GPa) = 69.67443 68.30974 82.03312
#
# Poissons Ratio (x) = 0.23162 0.30868
# Poissons Ratio (y) = 0.23625 0.20027
# Poissons Ratio (z) = 0.26217 0.16677
#
# Static dielectric constant tensor:
#      x y z
#    x 4.168890 -0.131680 -0.097250 
#    y -0.131680 3.796510 -0.085040 
#    z -0.097250 -0.085040 4.349020 
# 
# 
# High freq. dielectric constant tensor:
#      x y z
#    x 1.910060 -0.008170 -0.017580 
#    y -0.008170 1.880060 -0.004390 
#    z -0.017580 -0.004390 1.918710 
# 
# From -- ./inp_files/618242.got.cif
#   From: 2010.06.25/outbox.cif.g09.slc.cpg/sg2_310_cif.got.tgz:618242.got - 2010.06.27 13:26:56.
