data_PCOD8018379
_publ_section_title
;
Structure prediction by ZEFSAII (Michael W. Deem and Ramdas Pophale) SiO2 
 PCOD8018379
Probable space group: P -1
;
_chemical_formula_sum "Si O2"
_cell_formula_units_Z 14
_cell_length_a 5.191182
_cell_length_b 18.061414
_cell_length_c 12.388547
_cell_angle_alpha 32.345469
_cell_angle_beta 90.172652
_cell_angle_gamma 90.773661
_cell_volume 621.323443
_symmetry_space_group_name_H-M "P -1"
_symmetry_group_IT_number 2
_symmetry_cell_setting 'triclinic'
loop_
_space_group_symop_operation_xyz
x,y,z
-x,-y,-z
loop_
_atom_site_type_symbol
_atom_site_label
_atom_site_fract_x
_atom_site_fract_y
_atom_site_fract_z
Si Si1 0.256541 0.434450 0.816797
Si Si2 0.745070 0.095787 0.502164
Si Si3 0.696746 0.107372 0.920792
Si Si4 0.748211 0.817515 0.720677
Si Si5 0.773981 0.613134 0.580674
Si Si6 0.632381 0.647730 0.309276
Si Si7 0.008302 0.879174 0.304185
O O1 0.491052 0.546136 0.678886
O O2 0.225505 0.347915 0.811413
O O3 0.989485 0.508280 0.748053
O O4 0.302143 0.329812 0.043031
O O5 0.472087 0.163688 0.392711
O O6 0.789679 0.103239 0.620692
O O7 0.973000 0.178789 0.339037
O O8 0.734396 0.935860 0.665204
O O9 0.567978 0.227671 0.841075
O O10 0.847958 0.172510 0.739543
O O11 0.500000 0.000000 0.000000
O O12 0.880317 0.027745 0.102533
O O13 0.822049 0.658130 0.399437
O O14 0.799242 0.754046 0.478643
O O15 0.500000 0.500000 0.500000
#
# Coordination Sequence:
#
# PCOD8018379 Si02
#       7
#     2   2   2   2   2   2   2
#     4  11  24  41  69  92 135 172 222 272 326 381
#     4  10  24  42  69  91 128 171 213 283 329 383
#     4  11  24  41  64 100 136 170 222 265 324 415
#     4  10  23  44  64  97 124 164 233 270 325 387
#     4  11  23  42  63  98 132 176 214 269 324 411
#     4  10  22  40  65  95 133 175 215 265 330 389
#     4  11  25  41  67  94 137 173 217 267 344 386
#
# _framework density 22.532547000000001
#
# number of rings (size 3 to 8) (size 9 to 14) (size 15 to 20)
#    0.000    1.429    1.429    3.000    4.000    5.714 
#    0.000    4.286    0.000    0.000    0.000    0.000 
#    0.000    0.000    0.000    0.000    0.000    0.000 
#
# Total GULP energy -173597.878219 kJ/mol
# GULP energy per Si atom -12399.848444 kJ/mol
# Density = 2.248126 g / cm^3
# Si number density = 22.532547 Si / 1000 Ang^3
#
#
#
# Elastic Constant Matrix: (Units=GPa)
#
#
# Indices 1 2 3 4 5 6 
#
# 1 86.7584 19.8058 23.2982 -4.2261 5.9259 18.9434
# 2 19.8058 90.0117 48.7229 -4.4900 12.9767 24.5183
# 3 23.2982 48.7229 111.0908 6.1821 14.4690 6.4614
# 4 -4.2261 -4.4900 6.1821 25.7854 5.0152 11.3755
# 5 5.9259 12.9767 14.4690 5.0152 29.9091 -0.2328
# 6 18.9434 24.5183 6.4614 11.3755 -0.2328 38.2117
#
#
#
# Elastic Compliance Matrix: (Units=1/GPa)
#
#
# Indices 1 2 3 4 5 6 
#
# 1 0.015238 0.003100 -0.003865 0.010047 -0.004271 -0.011906
# 2 0.003100 0.023199 -0.009430 0.017457 -0.009201 -0.020080
# 3 -0.003865 -0.009430 0.014018 -0.009261 -0.000306 0.008352
# 4 0.010047 0.017457 -0.009261 0.063656 -0.016020 -0.033664
# 5 -0.004271 -0.009201 -0.000306 -0.016020 0.041209 0.013093
# 6 -0.011906 -0.020080 0.008352 -0.033664 0.013093 0.053646
#
#
# Mechanical properties :
#
#
# Convention : Reuss Voigt Hill
#
# Bulk Modulus (GPa) = 31.18878 52.39053 41.78965
# Shear Modulus (GPa) = 20.65738 31.85016 26.25377
#
# Velocity S-wave (km/s) = 3.03112 3.76376 3.41713
# Velocity P-wave (km/s) = 5.11097 6.49533 5.84428
#
# Compressibility (1/GPa) = 0.03206282
#
# Stress axis : x y z
#
# Youngs Moduli (GPa) = 65.62736 43.10522 71.33881
#
# Poissons Ratio (x) = -0.13361 0.27575
# Poissons Ratio (y) = -0.20342 0.67272
# Poissons Ratio (z) = 0.25368 0.40648
#
# Static dielectric constant tensor:
#      x y z
#    x 4.033380 0.169640 0.030620 
#    y 0.169640 4.350110 -0.035400 
#    z 0.030620 -0.035400 4.066880 
# 
# 
# High freq. dielectric constant tensor:
#      x y z
#    x 1.890350 0.015230 0.005450 
#    y 0.015230 1.882550 -0.010040 
#    z 0.005450 -0.010040 1.892730 
# 
# From -- ./inp_files/78383.got.cif
#   From: 2010.06.25/outbox.cif.g09.slc.cpg/sg2_40_cif.got.tgz:78383.got - 2010.06.27 13:26:56.
