data_PCOD8018489
_publ_section_title
;
Structure prediction by ZEFSAII (Michael W. Deem and Ramdas Pophale) SiO2 
 PCOD8018489
Probable space group: P -1
;
_chemical_formula_sum "Si O2"
_cell_formula_units_Z 14
_cell_length_a 23.330972
_cell_length_b 15.204747
_cell_length_c 6.466349
_cell_angle_alpha 102.248504
_cell_angle_beta 110.840039
_cell_angle_gamma 18.576105
_cell_volume 619.753649
_symmetry_space_group_name_H-M "P -1"
_symmetry_group_IT_number 2
_symmetry_cell_setting 'triclinic'
loop_
_space_group_symop_operation_xyz
x,y,z
-x,-y,-z
loop_
_atom_site_type_symbol
_atom_site_label
_atom_site_fract_x
_atom_site_fract_y
_atom_site_fract_z
Si Si1 0.601333 0.247480 0.727408
Si Si2 0.973050 0.387295 0.895662
Si Si3 0.109801 0.352725 0.781857
Si Si4 0.885316 0.341538 0.560294
Si Si5 0.244220 0.865507 0.472435
Si Si6 0.446820 0.323383 0.856689
Si Si7 0.867736 0.115798 0.019467
O O1 0.425965 0.569359 0.701913
O O2 0.678889 0.146634 0.534952
O O3 0.505689 0.284917 0.688948
O O4 0.802335 0.978352 0.998407
O O5 0.971188 0.477567 0.796557
O O6 0.816400 0.528365 0.689787
O O7 0.911895 0.512799 0.103289
O O8 0.000000 0.500000 0.500000
O O9 0.351254 0.988444 0.911043
O O10 0.685882 0.579181 0.313368
O O11 0.037042 0.164593 0.485793
O O12 0.988293 0.123477 0.731729
O O13 0.213169 0.847382 0.219282
O O14 0.325524 0.563778 0.963242
O O15 0.000000 0.000000 0.000000
#
# Coordination Sequence:
#
# PCOD8018489 Si02
#       7
#     2   2   2   2   2   2   2
#     4  10  22  40  66  98 138 180 229 270 339 400
#     4  10  24  44  68  98 135 177 230 290 337 398
#     4  10  25  48  70  95 130 181 236 291 338 396
#     4  12  24  44  68 104 144 176 224 281 345 418
#     4  11  23  37  66 103 139 183 224 274 336 418
#     4  11  24  44  70  99 140 186 222 285 343 404
#     4  12  23  40  66 104 144 182 216 272 350 410
#
# _framework density 22.589618999999999
#
# number of rings (size 3 to 8) (size 9 to 14) (size 15 to 20)
#    0.000    1.143    4.286    1.286    4.000    5.143 
#    2.571    0.714    0.000    0.000    0.000    0.000 
#    0.000    0.000    0.000    0.000    0.000    0.000 
#
# Total GULP energy -173491.904414 kJ/mol
# GULP energy per Si atom -12392.278887 kJ/mol
# Density = 2.253820 g / cm^3
# Si number density = 22.589619 Si / 1000 Ang^3
#
#
#
# Elastic Constant Matrix: (Units=GPa)
#
#
# Indices 1 2 3 4 5 6 
#
# 1 111.0683 54.0904 44.9162 8.7979 -9.6415 -13.1371
# 2 54.0904 94.3257 62.5139 1.2621 5.8020 4.8093
# 3 44.9162 62.5139 128.3497 3.5407 2.9062 10.7086
# 4 8.7979 1.2621 3.5407 35.2741 8.0691 2.6130
# 5 -9.6415 5.8020 2.9062 8.0691 33.2223 11.0890
# 6 -13.1371 4.8093 10.7086 2.6130 11.0890 34.4775
#
#
#
# Elastic Compliance Matrix: (Units=1/GPa)
#
#
# Indices 1 2 3 4 5 6 
#
# 1 0.015288 -0.008058 -0.001928 -0.004968 0.005124 0.006277
# 2 -0.008058 0.020091 -0.006744 0.003351 -0.005294 -0.002330
# 3 -0.001928 -0.006744 0.012059 -0.000420 0.000937 -0.003809
# 4 -0.004968 0.003351 -0.000420 0.031725 -0.009129 -0.001698
# 5 0.005124 -0.005294 0.000937 -0.009129 0.037658 -0.009020
# 6 0.006277 -0.002330 -0.003809 -0.001698 -0.009020 0.035934
#
#
# Mechanical properties :
#
#
# Convention : Reuss Voigt Hill
#
# Bulk Modulus (GPa) = 71.53872 72.97611 72.25741
# Shear Modulus (GPa) = 26.19521 32.07634 29.13577
#
# Velocity S-wave (km/s) = 3.40900 3.77232 3.59526
# Velocity P-wave (km/s) = 6.87260 7.16583 7.02075
#
# Compressibility (1/GPa) = 0.01397844
#
# Stress axis : x y z
#
# Youngs Moduli (GPa) = 65.41024 49.77257 82.92619
#
# Poissons Ratio (x) = 0.40105 0.15989
# Poissons Ratio (y) = 0.52706 0.55926
# Poissons Ratio (z) = 0.12612 0.33567
#
# Static dielectric constant tensor:
#      x y z
#    x 4.386160 -0.084870 -0.068240 
#    y -0.084870 4.092440 0.047640 
#    z -0.068240 0.047640 4.077810 
# 
# 
# High freq. dielectric constant tensor:
#      x y z
#    x 1.898740 -0.001380 -0.005920 
#    y -0.001380 1.873540 -0.003380 
#    z -0.005920 -0.003380 1.891360 
# 
# From -- ./inp_files/124341.got.cif
#   From: 2010.06.25/outbox.cif.g09.slc.cpg/sg2_63_cif.got.tgz:124341.got - 2010.06.27 13:26:56.
