data_PCOD8018962
_publ_section_title
;
Structure prediction by ZEFSAII (Michael W. Deem and Ramdas Pophale) SiO2 
 PCOD8018962
Probable space group: P -1
;
_chemical_formula_sum "Si O2"
_cell_formula_units_Z 16
_cell_length_a 9.531291
_cell_length_b 25.791420
_cell_length_c 9.095346
_cell_angle_alpha 31.513001
_cell_angle_beta 134.088908
_cell_angle_gamma 133.204088
_cell_volume 814.133757
_symmetry_space_group_name_H-M "P -1"
_symmetry_group_IT_number 2
_symmetry_cell_setting 'triclinic'
loop_
_space_group_symop_operation_xyz
x,y,z
-x,-y,-z
loop_
_atom_site_type_symbol
_atom_site_label
_atom_site_fract_x
_atom_site_fract_y
_atom_site_fract_z
Si Si1 0.750192 0.233371 0.805288
Si Si2 0.267753 0.964252 0.380320
Si Si3 0.720517 0.481414 0.693382
Si Si4 0.909829 0.344776 0.366970
Si Si5 0.008371 0.246387 0.390260
Si Si6 0.009527 0.926385 0.552065
Si Si7 0.699654 0.871596 0.225517
Si Si8 0.874995 0.400020 0.728331
O O1 0.770856 0.272968 0.558134
O O2 0.538102 0.154621 0.868290
O O3 0.756075 0.326658 0.693915
O O4 0.921787 0.174035 0.104903
O O5 0.187586 0.842752 0.584834
O O6 0.153496 0.991049 0.376002
O O7 0.500000 0.000000 0.500000
O O8 0.220648 0.023743 0.059492
O O9 0.500000 0.500000 0.500000
O O10 0.720144 0.429368 0.659760
O O11 0.895883 0.585629 0.577399
O O12 0.765852 0.408669 0.032055
O O13 0.989944 0.274514 0.478409
O O14 0.216671 0.213805 0.594804
O O15 0.021345 0.345418 0.058519
O O16 0.787808 0.886480 0.418313
O O17 0.000000 0.000000 0.500000
O O18 0.000000 0.500000 0.500000
#
# Coordination Sequence:
#
# PCOD8018962 Si02
#       8
#     2   2   2   2   2   2   2   2
#     4  12  24  42  63  97 130 165 217 260 321 380
#     4  11  21  43  66  93 127 170 216 263 324 385
#     4  10  23  43  65  91 125 167 216 256 323 372
#     4  10  24  41  61  93 129 162 209 270 309 377
#     4  10  22  41  63  91 127 166 213 259 320 381
#     4  11  25  42  64  96 132 166 214 267 318 379
#     4  11  24  42  66  92 128 170 216 260 328 383
#     4  11  21  42  66  91 132 168 206 269 310 378
#
# _framework density 19.652791000000001
#
# number of rings (size 3 to 8) (size 9 to 14) (size 15 to 20)
#    0.000    1.250    5.000    1.500    5.250    3.500 
#    0.000    1.250    0.000    0.000    0.000    0.000 
#    0.000    0.000    0.000    0.000    0.000    0.000 
#
# Total GULP energy -198411.206021 kJ/mol
# GULP energy per Si atom -12400.700376 kJ/mol
# Density = 1.960806 g / cm^3
# Si number density = 19.652791 Si / 1000 Ang^3
#
#
#
# Elastic Constant Matrix: (Units=GPa)
#
#
# Indices 1 2 3 4 5 6 
#
# 1 96.5266 50.5633 52.9443 -0.4341 -8.0068 -22.0819
# 2 50.5633 100.4669 37.1247 -0.7178 1.0768 -17.9102
# 3 52.9443 37.1247 120.2722 -4.5556 -10.5732 -0.8344
# 4 -0.4341 -0.7178 -4.5556 29.6619 2.7922 -0.0734
# 5 -8.0068 1.0768 -10.5732 2.7922 39.9047 -1.6767
# 6 -22.0819 -17.9102 -0.8344 -0.0734 -1.6767 43.5621
#
#
#
# Elastic Compliance Matrix: (Units=1/GPa)
#
#
# Indices 1 2 3 4 5 6 
#
# 1 0.018633 -0.005895 -0.006142 -0.001044 0.002638 0.007003
# 2 -0.005895 0.014134 -0.001916 0.000154 -0.001969 0.002710
# 3 -0.006142 -0.001916 0.011790 0.001507 0.001686 -0.003608
# 4 -0.001044 0.000154 0.001507 0.034141 -0.002223 -0.000465
# 5 0.002638 -0.001969 0.001686 -0.002223 0.026310 0.001569
# 6 0.007003 0.002710 -0.003608 -0.000465 0.001569 0.027611
#
#
# Mechanical properties :
#
#
# Convention : Reuss Voigt Hill
#
# Bulk Modulus (GPa) = 60.05823 66.50336 63.28080
# Shear Modulus (GPa) = 30.10687 34.40130 32.25409
#
# Velocity S-wave (km/s) = 3.91824 4.18838 4.05556
# Velocity P-wave (km/s) = 7.14816 7.56985 7.36203
#
# Compressibility (1/GPa) = 0.01665051
#
# Stress axis : x y z
#
# Youngs Moduli (GPa) = 53.66862 70.75138 84.81956
#
# Poissons Ratio (x) = 0.41711 0.52093
# Poissons Ratio (y) = 0.31640 0.16252
# Poissons Ratio (z) = 0.32961 0.13556
#
# Static dielectric constant tensor:
#      x y z
#    x 3.583260 0.061040 0.035690 
#    y 0.061040 2.488660 -0.492420 
#    z 0.035690 -0.492420 3.581540 
# 
# 
# High freq. dielectric constant tensor:
#      x y z
#    x 1.766690 -0.011890 -0.007710 
#    y -0.011890 1.763960 0.001260 
#    z -0.007710 0.001260 1.777950 
# 
# From -- ./inp_files/227267.got.cif
#   From: 2010.06.25/outbox.cif.g09.slc.cpg/sg2_114_cif.got.tgz:227267.got - 2010.06.27 13:26:56.
