data_PCOD8018157
_publ_section_title
;
Structure prediction by ZEFSAII (Michael W. Deem and Ramdas Pophale) SiO2 
 PCOD8018157
Probable space group: P -1
;
_chemical_formula_sum "Si O2"
_cell_formula_units_Z 10
_cell_length_a 5.007462
_cell_length_b 15.796912
_cell_length_c 10.284981
_cell_angle_alpha 33.610911
_cell_angle_beta 76.777862
_cell_angle_gamma 70.971366
_cell_volume 424.314452
_symmetry_space_group_name_H-M "P -1"
_symmetry_group_IT_number 2
_symmetry_cell_setting 'triclinic'
loop_
_space_group_symop_operation_xyz
x,y,z
-x,-y,-z
loop_
_atom_site_type_symbol
_atom_site_label
_atom_site_fract_x
_atom_site_fract_y
_atom_site_fract_z
Si Si1 0.458108 0.684763 0.273031
Si Si2 0.037747 0.174026 0.036816
Si Si3 0.845005 0.320069 0.134124
Si Si4 0.407079 0.880907 0.259270
Si Si5 0.255500 0.322902 0.305164
O O1 0.500000 0.500000 0.500000
O O2 0.267510 0.768670 0.068457
O O3 0.316236 0.750193 0.345001
O O4 0.761012 0.724379 0.176214
O O5 0.153429 0.985457 0.241290
O O6 0.004832 0.198735 0.163126
O O7 0.525957 0.305479 0.203389
O O8 0.004419 0.278843 0.307466
O O9 0.846910 0.497144 0.862535
O O10 0.669567 0.794735 0.431054
O O11 0.500000 0.000000 0.000000
#
# Coordination Sequence:
#
# PCOD8018157 Si02
#       5
#     2   2   2   2   2
#     4  11  23  40  64  90 124 168 209 252 302 368
#     4  11  23  40  62  92 127 159 207 257 310 368
#     4  10  22  40  63  91 119 163 210 254 303 358
#     4  10  24  42  63  94 130 164 202 255 316 369
#     4  10  22  40  63  89 124 161 207 255 302 366
#
# _framework density 23.567429000000001
#
# number of rings (size 3 to 8) (size 9 to 14) (size 15 to 20)
#    0.000    1.600    0.000    3.600    0.000   12.800 
#    0.000    0.000    0.000    0.000    0.000    0.000 
#    0.000    0.000    0.000    0.000    0.000    0.000 
#
# Total GULP energy -124036.692120 kJ/mol
# GULP energy per Si atom -12403.669212 kJ/mol
# Density = 2.351379 g / cm^3
# Si number density = 23.567429 Si / 1000 Ang^3
#
#
#
# Elastic Constant Matrix: (Units=GPa)
#
#
# Indices 1 2 3 4 5 6 
#
# 1 63.0482 19.5253 5.6569 -8.4675 18.0518 1.8917
# 2 19.5253 196.9964 42.2580 -12.9872 5.9273 -1.1020
# 3 5.6569 42.2580 122.9178 -6.9304 38.3190 8.1447
# 4 -8.4675 -12.9872 -6.9304 34.5000 4.9357 1.2838
# 5 18.0518 5.9273 38.3190 4.9357 40.3310 5.6024
# 6 1.8917 -1.1020 8.1447 1.2838 5.6024 22.5477
#
#
#
# Elastic Compliance Matrix: (Units=1/GPa)
#
#
# Indices 1 2 3 4 5 6 
#
# 1 0.021317 -0.002209 0.004784 0.007468 -0.014618 -0.000418
# 2 -0.002209 0.005852 -0.002698 0.000733 0.002494 0.000785
# 3 0.004784 -0.002698 0.014116 0.005291 -0.015515 -0.002078
# 4 0.007468 0.000733 0.005291 0.033988 -0.012450 -0.001344
# 5 -0.014618 0.002494 -0.015515 -0.012450 0.047822 -0.004221
# 6 -0.000418 0.000785 -0.002078 -0.001344 -0.004221 0.046300
#
#
# Mechanical properties :
#
#
# Convention : Reuss Voigt Hill
#
# Bulk Modulus (GPa) = 24.36770 57.53810 40.95290
# Shear Modulus (GPa) = 27.27470 40.51057 33.89264
#
# Velocity S-wave (km/s) = 3.40561 4.15049 3.79636
# Velocity P-wave (km/s) = 5.08195 6.88738 6.05236
#
# Compressibility (1/GPa) = 0.04103793
#
# Stress axis : x y z
#
# Youngs Moduli (GPa) = 46.91156 170.89205 70.84271
#
# Poissons Ratio (x) = 0.37755 -0.33893
# Poissons Ratio (y) = 0.10364 0.19115
# Poissons Ratio (z) = -0.22444 0.46110
#
# Static dielectric constant tensor:
#      x y z
#    x 4.069930 -0.010810 0.229400 
#    y -0.010810 4.913590 -0.167940 
#    z 0.229400 -0.167940 4.052430 
# 
# 
# High freq. dielectric constant tensor:
#      x y z
#    x 1.928280 0.001580 0.011990 
#    y 0.001580 1.948110 -0.005540 
#    z 0.011990 -0.005540 1.929960 
# 
# From -- ./inp_files/107346.got.cif
#   From: 2010.06.25/outbox.cif.g09.slc.cpg/sg2_54_cif.got.tgz:107346.got - 2010.06.27 13:26:56.
