data_PCOD8018216
_publ_section_title
;
Structure prediction by ZEFSAII (Michael W. Deem and Ramdas Pophale) SiO2 
 PCOD8018216
Probable space group: P -1
;
_chemical_formula_sum "Si O2"
_cell_formula_units_Z 16
_cell_length_a 11.556609
_cell_length_b 11.509013
_cell_length_c 17.506335
_cell_angle_alpha 125.655767
_cell_angle_beta 29.109458
_cell_angle_gamma 139.267036
_cell_volume 715.814142
_symmetry_space_group_name_H-M "P -1"
_symmetry_group_IT_number 2
_symmetry_cell_setting 'triclinic'
loop_
_space_group_symop_operation_xyz
x,y,z
-x,-y,-z
loop_
_atom_site_type_symbol
_atom_site_label
_atom_site_fract_x
_atom_site_fract_y
_atom_site_fract_z
Si Si1 0.652363 0.255127 0.798764
Si Si2 0.163566 0.898407 0.685204
Si Si3 0.688423 0.653064 0.077397
Si Si4 0.284474 0.248551 0.742628
Si Si5 0.625320 0.131858 0.225572
Si Si6 0.213976 0.716133 0.969299
Si Si7 0.752244 0.347698 0.377894
Si Si8 0.548624 0.735383 0.927395
O O1 0.500382 0.320857 0.860721
O O2 0.004851 0.431181 0.680503
O O3 0.628043 0.091533 0.707170
O O4 0.471877 0.168548 0.950028
O O5 0.078256 0.738530 0.730995
O O6 0.893386 0.804621 0.741521
O O7 0.500000 0.000000 0.500000
O O8 0.171684 0.060105 0.777808
O O9 0.552250 0.609156 0.226308
O O10 0.668732 0.477518 0.001992
O O11 0.048218 0.824811 0.936598
O O12 0.505394 0.301270 0.564895
O O13 0.994207 0.225166 0.868509
O O14 0.594475 0.193718 0.184377
O O15 0.583459 0.243672 0.355381
O O16 0.448400 0.782116 0.928353
O O17 0.000000 0.500000 0.000000
#
# Coordination Sequence:
#
# PCOD8018216 Si02
#       8
#     2   2   2   2   2   2   2   2
#     4  12  23  38  68 101 131 173 223 275 338 398
#     4  10  22  40  63  97 134 170 214 275 338 395
#     4  11  20  39  65  98 129 168 221 278 327 393
#     4  10  23  41  66  94 133 182 217 270 336 387
#     4  11  23  40  65  98 133 174 225 274 329 396
#     4  11  22  44  68  95 132 179 232 274 317 393
#     4  11  22  44  64  98 140 173 216 279 343 391
#     4  12  21  40  71  95 129 176 225 269 330 394
#
# _framework density 22.352170000000001
#
# number of rings (size 3 to 8) (size 9 to 14) (size 15 to 20)
#    0.000    1.000    5.000    3.750    0.000    2.500 
#    4.500    2.500    0.000    4.500    0.000    0.000 
#    0.000    0.000    0.000    0.000    0.000    0.000 
#
# Total GULP energy -198263.396269 kJ/mol
# GULP energy per Si atom -12391.462267 kJ/mol
# Density = 2.230130 g / cm^3
# Si number density = 22.352170 Si / 1000 Ang^3
#
#
#
# Elastic Constant Matrix: (Units=GPa)
#
#
# Indices 1 2 3 4 5 6 
#
# 1 148.7250 1.1318 40.9823 -3.5298 6.7045 12.7232
# 2 1.1318 108.2250 20.7363 -6.3254 0.8967 15.0255
# 3 40.9823 20.7363 85.1105 2.7375 13.1500 13.4636
# 4 -3.5298 -6.3254 2.7375 23.7990 3.6617 0.2035
# 5 6.7045 0.8967 13.1500 3.6617 36.0024 6.2805
# 6 12.7232 15.0255 13.4636 0.2035 6.2805 32.6060
#
#
#
# Elastic Compliance Matrix: (Units=1/GPa)
#
#
# Indices 1 2 3 4 5 6 
#
# 1 0.007995 0.001049 -0.003853 0.001917 0.000052 -0.002034
# 2 0.001049 0.010514 -0.002622 0.003144 0.000944 -0.004373
# 3 -0.003853 -0.002622 0.015404 -0.002384 -0.004105 -0.002843
# 4 0.001917 0.003144 -0.002384 0.044021 -0.003914 -0.000733
# 5 0.000052 0.000944 -0.004105 -0.003914 0.030443 -0.004599
# 6 -0.002034 -0.004373 -0.002843 -0.000733 -0.004599 0.035543
#
#
# Mechanical properties :
#
#
# Convention : Reuss Voigt Hill
#
# Bulk Modulus (GPa) = 43.36327 51.97349 47.66838
# Shear Modulus (GPa) = 30.77691 37.09550 33.93620
#
# Velocity S-wave (km/s) = 3.71470 4.07823 3.90070
# Velocity P-wave (km/s) = 6.15149 6.74378 6.45443
#
# Compressibility (1/GPa) = 0.02306099
#
# Stress axis : x y z
#
# Youngs Moduli (GPa) = 125.08248 95.10692 64.91695
#
# Poissons Ratio (x) = -0.09973 0.25013
# Poissons Ratio (y) = -0.13117 0.17020
# Poissons Ratio (z) = 0.48195 0.24935
#
# Static dielectric constant tensor:
#      x y z
#    x 4.217850 -0.008490 0.012590 
#    y -0.008490 4.484040 0.173780 
#    z 0.012590 0.173780 3.774960 
# 
# 
# High freq. dielectric constant tensor:
#      x y z
#    x 1.875290 0.004780 0.010170 
#    y 0.004780 1.899020 0.005950 
#    z 0.010170 0.005950 1.853460 
# 
# From -- ./inp_files/568801.got.cif
#   From: 2010.06.25/outbox.cif.g09.slc.cpg/sg2_285_cif.got.tgz:568801.got - 2010.06.27 13:26:56.
