data_PCOD8018908
_publ_section_title
;
Structure prediction by ZEFSAII (Michael W. Deem and Ramdas Pophale) SiO2 
 PCOD8018908
Probable space group: P -1
;
_chemical_formula_sum "Si O2"
_cell_formula_units_Z 16
_cell_length_a 8.200389
_cell_length_b 14.388258
_cell_length_c 6.523973
_cell_angle_alpha 67.514790
_cell_angle_beta 80.909638
_cell_angle_gamma 86.858925
_cell_volume 702.294419
_symmetry_space_group_name_H-M "P -1"
_symmetry_group_IT_number 2
_symmetry_cell_setting 'triclinic'
loop_
_space_group_symop_operation_xyz
x,y,z
-x,-y,-z
loop_
_atom_site_type_symbol
_atom_site_label
_atom_site_fract_x
_atom_site_fract_y
_atom_site_fract_z
Si Si1 0.237250 0.661868 0.836508
Si Si2 0.668587 0.827386 0.840345
Si Si3 0.299766 0.848492 0.954338
Si Si4 0.610228 0.665410 0.665866
Si Si5 0.835583 0.476732 0.685045
Si Si6 0.854496 0.291219 0.615818
Si Si7 0.141620 0.033878 0.601390
Si Si8 0.174230 0.208424 0.743567
O O1 0.253293 0.758666 0.889849
O O2 0.418803 0.632747 0.737122
O O3 0.122294 0.694448 0.642871
O O4 0.144166 0.570057 0.049087
O O5 0.493653 0.863646 0.929123
O O6 0.662471 0.716739 0.829000
O O7 0.714202 0.916643 0.602731
O O8 0.801372 0.824069 0.999797
O O9 0.211455 0.945405 0.801645
O O10 0.233227 0.815282 0.220377
O O11 0.714995 0.569134 0.662174
O O12 0.650083 0.750627 0.413804
O O13 0.749866 0.385723 0.648994
O O14 0.000000 0.500000 0.500000
O O15 0.037444 0.296098 0.678881
O O16 0.089031 0.118308 0.705341
O O17 0.000000 0.000000 0.500000
#
# Coordination Sequence:
#
# PCOD8018908 Si02
#       8
#     2   2   2   2   2   2   2   2
#     4  10  23  41  67  91 130 169 209 263 319 378
#     4  10  23  41  64  90 127 169 212 264 318 371
#     4  10  22  41  62  92 128 165 215 262 312 381
#     4  10  22  43  64  94 127 167 214 260 320 378
#     4  11  23  42  63  98 128 164 216 262 318 381
#     4  11  23  40  62  93 127 167 210 261 320 373
#     4  11  23  39  63  94 128 169 211 261 320 379
#     4  11  23  40  62  94 128 167 215 262 314 380
#
# _framework density 22.782468000000001
#
# number of rings (size 3 to 8) (size 9 to 14) (size 15 to 20)
#    0.000    1.500    1.250    3.000    0.000    8.500 
#    0.000    0.000    0.000    0.000    0.000    0.000 
#    0.000    0.000    0.000    0.000    0.000    0.000 
#
# Total GULP energy -198244.085413 kJ/mol
# GULP energy per Si atom -12390.255338 kJ/mol
# Density = 2.273061 g / cm^3
# Si number density = 22.782468 Si / 1000 Ang^3
#
#
#
# Elastic Constant Matrix: (Units=GPa)
#
#
# Indices 1 2 3 4 5 6 
#
# 1 91.1722 26.3938 42.4376 -11.2908 -7.8453 -4.8415
# 2 26.3938 89.9122 35.1271 -14.4090 3.5863 -8.9427
# 3 42.4376 35.1271 151.9190 -24.1358 -4.0996 -0.4347
# 4 -11.2908 -14.4090 -24.1358 32.1075 4.7312 1.2501
# 5 -7.8453 3.5863 -4.0996 4.7312 45.2180 2.2542
# 6 -4.8415 -8.9427 -0.4347 1.2501 2.2542 28.0735
#
#
#
# Elastic Compliance Matrix: (Units=1/GPa)
#
#
# Indices 1 2 3 4 5 6 
#
# 1 0.013461 -0.002605 -0.002939 0.000996 0.002110 0.001232
# 2 -0.002605 0.013743 -0.001859 0.004045 -0.002328 0.003906
# 3 -0.002939 -0.001859 0.008563 0.004616 -0.000011 -0.001171
# 4 0.000996 0.004045 0.004616 0.037311 -0.003641 0.000163
# 5 0.002110 -0.002328 -0.000011 -0.003641 0.023149 -0.002075
# 6 0.001232 0.003906 -0.001171 0.000163 -0.002075 0.037219
#
#
# Mechanical properties :
#
#
# Convention : Reuss Voigt Hill
#
# Bulk Modulus (GPa) = 47.70947 60.10227 53.90587
# Shear Modulus (GPa) = 32.20839 36.34946 34.27892
#
# Velocity S-wave (km/s) = 3.76405 3.99871 3.88315
# Velocity P-wave (km/s) = 6.31486 6.91070 6.61949
#
# Compressibility (1/GPa) = 0.02096020
#
# Stress axis : x y z
#
# Youngs Moduli (GPa) = 74.28958 72.76664 116.78040
#
# Poissons Ratio (x) = 0.18957 0.34323
# Poissons Ratio (y) = 0.19353 0.21708
# Poissons Ratio (z) = 0.21834 0.13527
#
# Static dielectric constant tensor:
#      x y z
#    x 4.047040 -0.011980 -0.308410 
#    y -0.011980 4.306780 -0.136480 
#    z -0.308410 -0.136480 4.512220 
# 
# 
# High freq. dielectric constant tensor:
#      x y z
#    x 1.882790 -0.004740 -0.016530 
#    y -0.004740 1.901220 -0.007310 
#    z -0.016530 -0.007310 1.917630 
# 
# From -- ./inp_files/37275.got.cif
#   From: 2010.06.25/outbox.cif.g09.slc.cpg/sg2_19_cif.got.tgz:37275.got - 2010.06.27 13:26:56.
