data_PCOD8018986
_publ_section_title
;
Structure prediction by ZEFSAII (Michael W. Deem and Ramdas Pophale) SiO2 
 PCOD8018986
Probable space group: P -1
;
_chemical_formula_sum "Si O2"
_cell_formula_units_Z 14
_cell_length_a 8.973375
_cell_length_b 16.288700
_cell_length_c 15.324105
_cell_angle_alpha 151.602703
_cell_angle_beta 110.134375
_cell_angle_gamma 51.164879
_cell_volume 687.535229
_symmetry_space_group_name_H-M "P -1"
_symmetry_group_IT_number 2
_symmetry_cell_setting 'triclinic'
loop_
_space_group_symop_operation_xyz
x,y,z
-x,-y,-z
loop_
_atom_site_type_symbol
_atom_site_label
_atom_site_fract_x
_atom_site_fract_y
_atom_site_fract_z
Si Si1 0.329155 0.195195 0.573431
Si Si2 0.799133 0.943913 0.741676
Si Si3 0.425902 0.810322 0.525191
Si Si4 0.410724 0.439659 0.189295
Si Si5 0.661399 0.521456 0.589484
Si Si6 0.097906 0.392141 0.014058
Si Si7 0.271146 0.292584 0.369794
O O1 0.460171 0.244865 0.596839
O O2 0.098696 0.456899 0.811427
O O3 0.500000 0.000000 0.500000
O O4 0.266176 0.089234 0.395434
O O5 0.672490 0.935603 0.787705
O O6 0.668827 0.228150 0.999437
O O7 0.072941 0.749837 0.623136
O O8 0.311536 0.711196 0.410591
O O9 0.629788 0.643858 0.483134
O O10 0.231567 0.106045 0.783556
O O11 0.403523 0.389297 0.241527
O O12 0.257002 0.431487 0.095679
O O13 0.500000 0.500000 0.500000
O O14 0.624515 0.732495 0.726707
O O15 0.000000 0.500000 0.000000
O O16 0.000000 0.500000 0.500000
#
# Coordination Sequence:
#
# PCOD8018986 Si02
#       7
#     2   2   2   2   2   2   2
#     4  11  21  44  69  92 130 171 215 276 334 390
#     4  10  22  41  63  93 134 175 217 269 330 389
#     4  11  24  43  65 100 133 169 228 266 331 397
#     4  12  24  42  68  99 135 173 220 279 321 398
#     4  11  22  39  63  96 137 173 226 266 325 391
#     4  12  24  46  72  94 130 176 219 277 337 394
#     4   9  19  40  61  89 134 173 215 263 316 389
#
# _framework density 20.362591999999999
#
# number of rings (size 3 to 8) (size 9 to 14) (size 15 to 20)
#    0.000    1.143    7.143    0.000    0.000    2.857 
#    0.000    1.429    0.000    0.000    0.000    0.000 
#    0.000    0.000    0.000    0.000    0.000    0.000 
#
# Total GULP energy -173464.887732 kJ/mol
# GULP energy per Si atom -12390.349124 kJ/mol
# Density = 2.031625 g / cm^3
# Si number density = 20.362592 Si / 1000 Ang^3
#
#
#
# Elastic Constant Matrix: (Units=GPa)
#
#
# Indices 1 2 3 4 5 6 
#
# 1 102.6448 57.8211 66.6011 -5.6234 -6.7584 3.1334
# 2 57.8211 145.1571 52.7128 -2.4495 1.5413 2.4514
# 3 66.6011 52.7128 142.5808 -7.0244 -9.2574 -1.8680
# 4 -5.6234 -2.4495 -7.0244 21.9057 1.8918 -6.6653
# 5 -6.7584 1.5413 -9.2574 1.8918 40.3498 -4.9568
# 6 3.1334 2.4514 -1.8680 -6.6653 -4.9568 38.6085
#
#
#
# Elastic Compliance Matrix: (Units=1/GPa)
#
#
# Indices 1 2 3 4 5 6 
#
# 1 0.016112 -0.004289 -0.005795 0.001408 0.001357 -0.000898
# 2 -0.004289 0.009164 -0.001518 -0.000620 -0.001462 -0.000602
# 3 -0.005795 -0.001518 0.010509 0.002073 0.001603 0.001639
# 4 0.001408 -0.000620 0.002073 0.049226 -0.000534 0.008455
# 5 0.001357 -0.001462 0.001603 -0.000534 0.025863 0.003288
# 6 -0.000898 -0.000602 0.001639 0.008455 0.003288 0.027973
#
#
# Mechanical properties :
#
#
# Convention : Reuss Voigt Hill
#
# Bulk Modulus (GPa) = 79.47931 82.73920 81.10925
# Shear Modulus (GPa) = 30.07605 34.38932 32.23268
#
# Velocity S-wave (km/s) = 3.84738 4.11402 3.98293
# Velocity P-wave (km/s) = 7.67158 7.95538 7.81477
#
# Compressibility (1/GPa) = 0.01258189
#
# Stress axis : x y z
#
# Youngs Moduli (GPa) = 62.06408 109.12243 95.15502
#
# Poissons Ratio (x) = 0.46805 0.55141
# Poissons Ratio (y) = 0.26621 0.14442
# Poissons Ratio (z) = 0.35965 0.16562
#
# Static dielectric constant tensor:
#      x y z
#    x 3.910710 -0.029480 -0.031910 
#    y -0.029480 3.316420 0.234050 
#    z -0.031910 0.234050 3.596490 
# 
# 
# High freq. dielectric constant tensor:
#      x y z
#    x 1.799530 0.001370 -0.011360 
#    y 0.001370 1.812830 0.000350 
#    z -0.011360 0.000350 1.782140 
# 
# From -- ./inp_files/504683.got.cif
#   From: 2010.06.25/outbox.cif.g09.slc.cpg/sg2_253_cif.got.tgz:504683.got - 2010.06.27 13:26:56.
