data_PCOD8018827
_publ_section_title
;
Structure prediction by ZEFSAII (Michael W. Deem and Ramdas Pophale) SiO2 
 PCOD8018827
Probable space group: P -1
;
_chemical_formula_sum "Si O2"
_cell_formula_units_Z 14
_cell_length_a 18.757803
_cell_length_b 9.380078
_cell_length_c 13.853601
_cell_angle_alpha 44.407439
_cell_angle_beta 19.403386
_cell_angle_gamma 46.961810
_cell_volume 566.260972
_symmetry_space_group_name_H-M "P -1"
_symmetry_group_IT_number 2
_symmetry_cell_setting 'triclinic'
loop_
_space_group_symop_operation_xyz
x,y,z
-x,-y,-z
loop_
_atom_site_type_symbol
_atom_site_label
_atom_site_fract_x
_atom_site_fract_y
_atom_site_fract_z
Si Si1 0.331168 0.077090 0.994296
Si Si2 0.751512 0.469425 0.846419
Si Si3 0.455477 0.606433 0.314886
Si Si4 0.360548 0.200926 0.564444
Si Si5 0.892155 0.093247 0.452574
Si Si6 0.635829 0.716141 0.698329
Si Si7 0.036313 0.907984 0.170868
O O1 0.138560 0.142548 0.137052
O O2 0.230760 0.015689 0.253219
O O3 0.475978 0.274029 0.733704
O O4 0.468720 0.890345 0.864103
O O5 0.638871 0.508692 0.864245
O O6 0.752336 0.237408 0.000327
O O7 0.000000 0.500000 0.500000
O O8 0.647375 0.625222 0.982102
O O9 0.408932 0.366443 0.506480
O O10 0.232652 0.696878 0.513574
O O11 0.403687 0.321643 0.348322
O O12 0.500000 0.000000 0.500000
O O13 0.116764 0.122038 0.921441
O O14 0.890903 0.944688 0.433943
O O15 0.877121 0.800400 0.352096
#
# Coordination Sequence:
#
# PCOD8018827 Si02
#       7
#     2   2   2   2   2   2   2
#     4  11  23  43  73 110 141 183 237 302 362 415
#     4  10  22  40  76 106 136 180 240 295 352 415
#     4  12  24  46  71 103 147 184 238 295 360 418
#     4  12  27  46  67 102 149 194 238 288 355 435
#     4  11  24  43  75 106 144 181 241 297 362 425
#     4  11  23  45  76 105 140 189 240 299 362 416
#     4  11  23  47  71 106 146 188 237 296 356 428
#
# _framework density 24.723583999999999
#
# number of rings (size 3 to 8) (size 9 to 14) (size 15 to 20)
#    0.000    0.857    4.286    3.429    0.000    5.714 
#    2.571    1.429    0.000    0.000    0.000    0.000 
#    0.000    0.000    0.000    0.000    0.000    0.000 
#
# Total GULP energy -173550.022443 kJ/mol
# GULP energy per Si atom -12396.430175 kJ/mol
# Density = 2.466731 g / cm^3
# Si number density = 24.723584 Si / 1000 Ang^3
#
#
#
# Elastic Constant Matrix: (Units=GPa)
#
#
# Indices 1 2 3 4 5 6 
#
# 1 82.3566 27.1765 25.2282 8.0194 -18.7404 -0.2546
# 2 27.1765 140.9343 27.6646 11.2332 -14.9961 -3.5605
# 3 25.2282 27.6646 80.8114 -2.9419 -8.6569 -15.9684
# 4 8.0194 11.2332 -2.9419 51.8856 -8.6520 1.5785
# 5 -18.7404 -14.9961 -8.6569 -8.6520 39.3971 11.1606
# 6 -0.2546 -3.5605 -15.9684 1.5785 11.1606 30.7190
#
#
#
# Elastic Compliance Matrix: (Units=1/GPa)
#
#
# Indices 1 2 3 4 5 6 
#
# 1 0.015751 -0.001399 -0.004704 -0.001060 0.007112 -0.005006
# 2 -0.001399 0.008112 -0.002369 -0.001335 0.001867 -0.000913
# 3 -0.004704 -0.002369 0.016245 0.001620 -0.001665 0.008652
# 4 -0.001060 -0.001335 0.001620 0.020618 0.004436 -0.001992
# 5 0.007112 0.001867 -0.001665 0.004436 0.033794 -0.013096
# 6 -0.005006 -0.000913 0.008652 -0.001992 -0.013096 0.041764
#
#
# Mechanical properties :
#
#
# Convention : Reuss Voigt Hill
#
# Bulk Modulus (GPa) = 43.17324 51.58232 47.37778
# Shear Modulus (GPa) = 31.06532 39.33586 35.20059
#
# Velocity S-wave (km/s) = 3.54857 3.99309 3.77738
# Velocity P-wave (km/s) = 5.85577 6.49374 6.18299
#
# Compressibility (1/GPa) = 0.02316249
#
# Stress axis : x y z
#
# Youngs Moduli (GPa) = 63.48762 123.26775 61.55918
#
# Poissons Ratio (x) = 0.17247 0.28959
# Poissons Ratio (y) = 0.08883 0.14585
# Poissons Ratio (z) = 0.29867 0.29206
#
# Static dielectric constant tensor:
#      x y z
#    x 4.774420 -0.395080 0.008720 
#    y -0.395080 4.974850 -0.381520 
#    z 0.008720 -0.381520 5.137440 
# 
# 
# High freq. dielectric constant tensor:
#      x y z
#    x 1.976810 0.001550 -0.027400 
#    y 0.001550 1.986320 -0.005290 
#    z -0.027400 -0.005290 2.015710 
# 
# From -- ./inp_files/540402.got.cif
#   From: 2010.06.25/outbox.cif.g09.slc.cpg/sg2_271_cif.got.tgz:540402.got - 2010.06.27 13:26:56.
