data_PCOD8018473
_publ_section_title
;
Structure prediction by ZEFSAII (Michael W. Deem and Ramdas Pophale) SiO2 
 PCOD8018473
Probable space group: P -1
;
_chemical_formula_sum "Si O2"
_cell_formula_units_Z 14
_cell_length_a 11.880621
_cell_length_b 13.182503
_cell_length_c 14.034794
_cell_angle_alpha 146.687316
_cell_angle_beta 144.179578
_cell_angle_gamma 58.928070
_cell_volume 610.843490
_symmetry_space_group_name_H-M "P -1"
_symmetry_group_IT_number 2
_symmetry_cell_setting 'triclinic'
loop_
_space_group_symop_operation_xyz
x,y,z
-x,-y,-z
loop_
_atom_site_type_symbol
_atom_site_label
_atom_site_fract_x
_atom_site_fract_y
_atom_site_fract_z
Si Si1 0.255584 0.301802 0.775951
Si Si2 0.614519 0.270209 0.883464
Si Si3 0.153911 0.496111 0.182642
Si Si4 0.738476 0.931477 0.678817
Si Si5 0.072407 0.077059 0.861575
Si Si6 0.501801 0.489865 0.706650
Si Si7 0.550925 0.225459 0.245030
O O1 0.458844 0.262950 0.857065
O O2 0.230060 0.479357 0.837348
O O3 0.303093 0.369607 0.972234
O O4 0.026785 0.086688 0.424690
O O5 0.469745 0.165315 0.608901
O O6 0.748064 0.143017 0.899511
O O7 0.383881 0.548190 0.334422
O O8 0.228154 0.670580 0.455151
O O9 0.013588 0.262678 0.949503
O O10 0.000000 0.500000 0.000000
O O11 0.693603 0.742711 0.574282
O O12 0.961421 0.979345 0.811650
O O13 0.337653 0.187176 0.130969
O O14 0.398158 0.626753 0.698413
O O15 0.500000 0.000000 0.000000
#
# Coordination Sequence:
#
# PCOD8018473 Si02
#       7
#     2   2   2   2   2   2   2
#     4   9  18  31  60 102 134 170 216 266 312 390
#     4   8  16  30  52  97 147 166 209 264 323 371
#     4  11  27  44  67  93 127 174 224 267 331 401
#     4   9  18  34  64  95 131 178 212 270 320 387
#     4  10  22  40  66  96 138 166 225 263 332 384
#     4  10  22  40  66  96 138 166 225 263 332 384
#     4  11  27  48  65  91 137 173 215 284 332 381
#
# _framework density 22.919129000000002
#
# number of rings (size 3 to 8) (size 9 to 14) (size 15 to 20)
#    0.000    2.286    0.000    2.571   12.000    1.143 
#    0.000    3.571    0.000    0.000    0.000    0.000 
#    0.000    0.000    0.000    0.000    0.000    0.000 
#
# Total GULP energy -173446.145431 kJ/mol
# GULP energy per Si atom -12389.010388 kJ/mol
# Density = 2.286696 g / cm^3
# Si number density = 22.919129 Si / 1000 Ang^3
#
#
#
# Elastic Constant Matrix: (Units=GPa)
#
#
# Indices 1 2 3 4 5 6 
#
# 1 69.2111 28.6048 19.5700 24.2719 7.4605 12.8683
# 2 28.6048 124.4694 60.9401 26.2750 1.8998 10.8865
# 3 19.5700 60.9401 140.9866 13.8906 -16.5605 12.1168
# 4 24.2719 26.2750 13.8906 41.2741 1.7720 -1.5317
# 5 7.4605 1.8998 -16.5605 1.7720 36.2139 10.2876
# 6 12.8683 10.8865 12.1168 -1.5317 10.2876 27.8717
#
#
#
# Elastic Compliance Matrix: (Units=1/GPa)
#
#
# Indices 1 2 3 4 5 6 
#
# 1 0.021075 -0.001265 -0.000613 -0.011659 -0.001402 -0.009093
# 2 -0.001265 0.011790 -0.004440 -0.005264 -0.001625 -0.001780
# 3 -0.000613 -0.004440 0.010366 -0.000766 0.006542 -0.004946
# 4 -0.011659 -0.005264 -0.000766 0.035190 -0.002403 0.010593
# 5 -0.001402 -0.001625 0.006542 -0.002403 0.035277 -0.014715
# 6 -0.009093 -0.001780 -0.004946 0.010593 -0.014715 0.048936
#
#
# Mechanical properties :
#
#
# Convention : Reuss Voigt Hill
#
# Bulk Modulus (GPa) = 32.68472 61.43298 47.05885
# Shear Modulus (GPa) = 26.95854 36.10874 31.53364
#
# Velocity S-wave (km/s) = 3.43337 3.97354 3.71329
# Velocity P-wave (km/s) = 5.47806 6.92203 6.24194
#
# Compressibility (1/GPa) = 0.03059533
#
# Stress axis : x y z
#
# Youngs Moduli (GPa) = 47.44860 84.81546 96.46850
#
# Poissons Ratio (x) = 0.10733 0.05913
# Poissons Ratio (y) = 0.06004 0.42831
# Poissons Ratio (z) = 0.02908 0.37657
#
# Static dielectric constant tensor:
#      x y z
#    x 4.179800 -0.140220 -0.114190 
#    y -0.140220 4.445550 0.488060 
#    z -0.114190 0.488060 4.195010 
# 
# 
# High freq. dielectric constant tensor:
#      x y z
#    x 1.896520 0.002730 -0.007410 
#    y 0.002730 1.887710 0.023540 
#    z -0.007410 0.023540 1.910220 
# 
# From -- ./inp_files/522697.got.cif
#   From: 2010.06.25/outbox.cif.g09.slc.cpg/sg2_262_cif.got.tgz:522697.got - 2010.06.27 13:26:56.
