data_PCOD8018966
_publ_section_title
;
Structure prediction by ZEFSAII (Michael W. Deem and Ramdas Pophale) SiO2 
 PCOD8018966
Probable space group: P -1
;
_chemical_formula_sum "Si O2"
_cell_formula_units_Z 14
_cell_length_a 11.651479
_cell_length_b 11.227102
_cell_length_c 14.023033
_cell_angle_alpha 137.733949
_cell_angle_beta 30.884760
_cell_angle_gamma 124.208308
_cell_volume 619.029088
_symmetry_space_group_name_H-M "P -1"
_symmetry_group_IT_number 2
_symmetry_cell_setting 'triclinic'
loop_
_space_group_symop_operation_xyz
x,y,z
-x,-y,-z
loop_
_atom_site_type_symbol
_atom_site_label
_atom_site_fract_x
_atom_site_fract_y
_atom_site_fract_z
Si Si1 0.244108 0.195448 0.826745
Si Si2 0.246663 0.074260 0.397282
Si Si3 0.246954 0.815667 0.550763
Si Si4 0.921452 0.451976 0.348557
Si Si5 0.003372 0.292471 0.868660
Si Si6 0.513527 0.340994 0.321056
Si Si7 0.081582 0.801683 0.457301
O O1 0.484736 0.254814 0.711880
O O2 0.197711 0.202223 0.751065
O O3 0.246061 0.984041 0.723661
O O4 0.034864 0.320485 0.105341
O O5 0.059651 0.210720 0.675755
O O6 0.473988 0.154906 0.287896
O O7 0.147567 0.089309 0.368513
O O8 0.284621 0.868659 0.290875
O O9 0.132890 0.664106 0.591958
O O10 0.096123 0.873725 0.597248
O O11 0.683837 0.582946 0.568593
O O12 0.097611 0.585134 0.323504
O O13 0.000000 0.500000 0.000000
O O14 0.751203 0.269938 0.059300
O O15 0.500000 0.500000 0.500000
#
# Coordination Sequence:
#
# PCOD8018966 Si02
#       7
#     2   2   2   2   2   2   2
#     4  11  24  40  64  98 123 164 213 255 322 367
#     4  10  22  41  63  91 132 162 208 265 308 375
#     4  11  24  43  65  91 129 169 210 257 312 377
#     4  11  23  42  63  95 128 164 212 257 313 380
#     4  12  20  37  66  97 127 158 203 267 318 364
#     4  11  21  36  65  99 124 160 207 261 321 362
#     4  10  22  44  64  88 129 173 206 256 314 373
#
# _framework density 22.616061999999999
#
# number of rings (size 3 to 8) (size 9 to 14) (size 15 to 20)
#    0.000    1.143    4.286    2.571    0.000    0.571 
#    2.571   10.714    0.000    0.000    0.000    0.000 
#    0.000    0.000    0.000    0.000    0.000    0.000 
#
# Total GULP energy -173440.478067 kJ/mol
# GULP energy per Si atom -12388.605576 kJ/mol
# Density = 2.256459 g / cm^3
# Si number density = 22.616062 Si / 1000 Ang^3
#
#
#
# Elastic Constant Matrix: (Units=GPa)
#
#
# Indices 1 2 3 4 5 6 
#
# 1 97.8335 43.2097 25.5510 -5.5914 6.2149 0.7234
# 2 43.2097 228.0727 27.7120 -15.6083 1.2086 3.0597
# 3 25.5510 27.7120 78.9595 -17.7304 -4.0688 7.8854
# 4 -5.5914 -15.6083 -17.7304 30.7160 1.6813 0.9247
# 5 6.2149 1.2086 -4.0688 1.6813 19.2153 1.3838
# 6 0.7234 3.0597 7.8854 0.9247 1.3838 33.1645
#
#
#
# Elastic Compliance Matrix: (Units=1/GPa)
#
#
# Indices 1 2 3 4 5 6 
#
# 1 0.012309 -0.001906 -0.003817 -0.000706 -0.004682 0.001030
# 2 -0.001906 0.004955 -0.000691 0.001780 0.000024 -0.000302
# 3 -0.003817 -0.000691 0.016696 0.008479 0.004377 -0.004242
# 4 -0.000706 0.001780 0.008479 0.038389 -0.001218 -0.003184
# 5 -0.004682 0.000024 0.004377 -0.001218 0.054818 -0.003194
# 6 0.001030 -0.000302 -0.004242 -0.003184 -0.003194 0.031389
#
#
# Mechanical properties :
#
#
# Convention : Reuss Voigt Hill
#
# Bulk Modulus (GPa) = 47.32094 66.42345 56.87219
# Shear Modulus (GPa) = 28.02231 37.17869 32.60050
#
# Velocity S-wave (km/s) = 3.52383 4.05891 3.80080
# Velocity P-wave (km/s) = 6.12580 7.16939 6.66804
#
# Compressibility (1/GPa) = 0.02113230
#
# Stress axis : x y z
#
# Youngs Moduli (GPa) = 81.23824 201.80293 59.89543
#
# Poissons Ratio (x) = 0.38456 0.22863
# Poissons Ratio (y) = 0.15481 0.04141
# Poissons Ratio (z) = 0.31009 0.13954
#
# Static dielectric constant tensor:
#      x y z
#    x 3.916210 0.125200 -0.109340 
#    y 0.125200 4.910970 -0.147200 
#    z -0.109340 -0.147200 3.468300 
# 
# 
# High freq. dielectric constant tensor:
#      x y z
#    x 1.886680 0.009770 0.006060 
#    y 0.009770 1.929650 0.000350 
#    z 0.006060 0.000350 1.851040 
# 
# From -- ./inp_files/519200.got.cif
#   From: 2010.06.25/outbox.cif.g09.slc.cpg/sg2_260_cif.got.tgz:519200.got - 2010.06.27 13:26:56.
