data_PCOD8018160
_publ_section_title
;
Structure prediction by ZEFSAII (Michael W. Deem and Ramdas Pophale) SiO2 
 PCOD8018160
Probable space group: P -1
;
_chemical_formula_sum "Si O2"
_cell_formula_units_Z 14
_cell_length_a 20.129559
_cell_length_b 5.827507
_cell_length_c 5.305414
_cell_angle_alpha 95.239857
_cell_angle_beta 71.677512
_cell_angle_gamma 108.774988
_cell_volume 559.330250
_symmetry_space_group_name_H-M "P -1"
_symmetry_group_IT_number 2
_symmetry_cell_setting 'triclinic'
loop_
_space_group_symop_operation_xyz
x,y,z
-x,-y,-z
loop_
_atom_site_type_symbol
_atom_site_label
_atom_site_fract_x
_atom_site_fract_y
_atom_site_fract_z
Si Si1 0.182721 0.112263 0.695853
Si Si2 0.690693 0.861784 0.141850
Si Si3 0.351258 0.594917 0.152091
Si Si4 0.048140 0.908743 0.129134
Si Si5 0.090633 0.335088 0.508521
Si Si6 0.783087 0.247063 0.746110
Si Si7 0.414175 0.871387 0.592732
O O1 0.256288 0.260723 0.779471
O O2 0.144146 0.309050 0.671299
O O3 0.214802 0.988006 0.428865
O O4 0.122132 0.893541 0.903060
O O5 0.625484 0.919920 0.381971
O O6 0.656562 0.685844 0.928888
O O7 0.746134 0.131248 0.039164
O O8 0.269994 0.616218 0.300772
O O9 0.395829 0.675630 0.367139
O O10 0.392345 0.752661 0.881421
O O11 0.989754 0.659478 0.289112
O O12 0.077651 0.094901 0.338369
O O13 0.000000 0.000000 0.000000
O O14 0.132867 0.571349 0.316805
O O15 0.500000 0.000000 0.500000
#
# Coordination Sequence:
#
# PCOD8018160 Si02
#       7
#     2   2   2   2   2   2   2
#     4  11  21  39  64  92 132 175 235 287 348 419
#     4  11  26  43  69 103 140 183 235 281 359 415
#     4  11  25  44  74 103 148 186 231 293 351 412
#     4   9  20  39  60  89 127 177 227 289 351 415
#     4  10  22  40  63  89 130 177 232 289 351 407
#     4  11  23  39  63  99 134 174 239 286 343 421
#     4  11  26  48  74 110 145 184 236 286 349 428
#
# _framework density 25.029935999999999
#
# number of rings (size 3 to 8) (size 9 to 14) (size 15 to 20)
#    0.000    1.429    1.429    3.000    4.000    4.000 
#    0.000   10.000    0.000    0.000    0.000    0.000 
#    0.000    0.000    0.000    0.000    0.000    0.000 
#
# Total GULP energy -173452.967304 kJ/mol
# GULP energy per Si atom -12389.497665 kJ/mol
# Density = 2.497297 g / cm^3
# Si number density = 25.029936 Si / 1000 Ang^3
#
#
#
# Elastic Constant Matrix: (Units=GPa)
#
#
# Indices 1 2 3 4 5 6 
#
# 1 116.9839 23.7830 34.3145 9.7976 -17.4765 30.5194
# 2 23.7830 82.7449 16.0617 4.3666 -9.2825 23.1080
# 3 34.3145 16.0617 93.3894 1.7123 -13.9578 18.4715
# 4 9.7976 4.3666 1.7123 36.4601 12.0851 -4.4546
# 5 -17.4765 -9.2825 -13.9578 12.0851 42.0151 -0.9172
# 6 30.5194 23.1080 18.4715 -4.4546 -0.9172 35.3303
#
#
#
# Elastic Compliance Matrix: (Units=1/GPa)
#
#
# Indices 1 2 3 4 5 6 
#
# 1 0.013845 0.001106 -0.001509 -0.007809 0.007471 -0.012685
# 2 0.001106 0.015990 0.000120 -0.005457 0.005340 -0.012026
# 3 -0.001509 0.000120 0.013072 -0.002354 0.004292 -0.005795
# 4 -0.007809 -0.005457 -0.002354 0.037415 -0.015651 0.015856
# 5 0.007471 0.005340 0.004292 -0.015651 0.033726 -0.013289
# 6 -0.012685 -0.012026 -0.005795 0.015856 -0.013289 0.051812
#
#
# Mechanical properties :
#
#
# Convention : Reuss Voigt Hill
#
# Bulk Modulus (GPa) = 23.61661 49.04852 36.33257
# Shear Modulus (GPa) = 27.69484 37.35837 32.52661
#
# Velocity S-wave (km/s) = 3.32997 3.86754 3.60878
# Velocity P-wave (km/s) = 4.92349 6.29145 5.64903
#
# Compressibility (1/GPa) = 0.04234307
#
# Stress axis : x y z
#
# Youngs Moduli (GPa) = 72.22607 62.54101 76.49674
#
# Poissons Ratio (x) = -0.06918 0.11541
# Poissons Ratio (y) = -0.07989 -0.00920
# Poissons Ratio (z) = 0.10896 -0.00753
#
# Static dielectric constant tensor:
#      x y z
#    x 4.684370 0.284880 -0.160190 
#    y 0.284880 4.222710 -0.232190 
#    z -0.160190 -0.232190 4.888310 
# 
# 
# High freq. dielectric constant tensor:
#      x y z
#    x 1.991830 0.020680 -0.010820 
#    y 0.020680 1.975990 -0.009610 
#    z -0.010820 -0.009610 2.008510 
# 
# From -- ./inp_files/7421.got.cif
#   From: 2010.06.25/outbox.cif.g09.slc.cpg/sg2_4_cif.got.tgz:7421.got - 2010.06.27 13:26:56.
