data_PCOD8018220
_publ_section_title
;
Structure prediction by ZEFSAII (Michael W. Deem and Ramdas Pophale) SiO2 
 PCOD8018220
Probable space group: P -1
;
_chemical_formula_sum "Si O2"
_cell_formula_units_Z 14
_cell_length_a 5.321661
_cell_length_b 12.473816
_cell_length_c 10.697977
_cell_angle_alpha 90.395316
_cell_angle_beta 120.005381
_cell_angle_gamma 65.567457
_cell_volume 541.597005
_symmetry_space_group_name_H-M "P -1"
_symmetry_group_IT_number 2
_symmetry_cell_setting 'triclinic'
loop_
_space_group_symop_operation_xyz
x,y,z
-x,-y,-z
loop_
_atom_site_type_symbol
_atom_site_label
_atom_site_fract_x
_atom_site_fract_y
_atom_site_fract_z
Si Si1 0.951801 0.809661 0.124753
Si Si2 0.605114 0.082692 0.388472
Si Si3 0.657714 0.408202 0.219661
Si Si4 0.506116 0.409087 0.607682
Si Si5 0.219503 0.243048 0.500299
Si Si6 0.455516 0.902933 0.202455
Si Si7 0.819538 0.682627 0.860782
O O1 0.587836 0.894178 0.093497
O O2 0.156345 0.714175 0.283765
O O3 0.113605 0.895813 0.124398
O O4 0.928753 0.741946 0.997217
O O5 0.475874 0.114139 0.499094
O O6 0.474077 0.215572 0.294925
O O7 0.423800 0.023838 0.260792
O O8 0.000000 0.000000 0.500000
O O9 0.599871 0.527263 0.282998
O O10 0.312092 0.406208 0.112860
O O11 0.861382 0.286311 0.354067
O O12 0.849731 0.399236 0.138366
O O13 0.500000 0.500000 0.500000
O O14 0.260436 0.363600 0.490503
O O15 0.254023 0.213352 0.654814
#
# Coordination Sequence:
#
# PCOD8018220 Si02
#       7
#     2   2   2   2   2   2   2
#     4  11  26  44  64  95 132 170 216 265 315 380
#     4  11  22  41  69  97 130 169 214 264 322 381
#     4  11  23  41  66  94 129 171 213 263 320 377
#     4  11  22  41  69  97 130 169 214 264 322 381
#     4  10  22  40  64 100 132 162 214 270 320 380
#     4  11  23  41  66  94 129 171 213 263 320 377
#     4  11  26  44  64  95 132 170 216 265 315 380
#
# _framework density 25.84948
#
# number of rings (size 3 to 8) (size 9 to 14) (size 15 to 20)
#    0.000    1.143    0.000    6.857    0.000   10.286 
#    0.000    0.000    0.000    0.000    0.000    0.000 
#    0.000    0.000    0.000    0.000    0.000    0.000 
#
# Total GULP energy -173478.693523 kJ/mol
# GULP energy per Si atom -12391.335252 kJ/mol
# Density = 2.579065 g / cm^3
# Si number density = 25.849480 Si / 1000 Ang^3
#
#
#
# Elastic Constant Matrix: (Units=GPa)
#
#
# Indices 1 2 3 4 5 6 
#
# 1 184.6247 65.1207 34.6408 34.9834 1.0361 -16.1005
# 2 65.1207 119.9363 9.7646 47.6603 0.9998 -5.9875
# 3 34.6408 9.7646 52.6952 36.0126 3.7514 -10.1386
# 4 34.9834 47.6603 36.0126 62.6626 -4.7783 -10.7247
# 5 1.0361 0.9998 3.7514 -4.7783 36.2788 -0.3030
# 6 -16.1005 -5.9875 -10.1386 -10.7247 -0.3030 17.1281
#
#
#
# Elastic Compliance Matrix: (Units=1/GPa)
#
#
# Indices 1 2 3 4 5 6 
#
# 1 0.008067 -0.005193 -0.006184 0.003862 0.001099 0.004545
# 2 -0.005193 0.017227 0.012292 -0.018082 -0.004004 -0.002977
# 3 -0.006184 0.012292 0.043171 -0.030550 -0.008610 0.004757
# 4 0.003862 -0.018082 -0.030550 0.047422 0.009869 0.009093
# 5 0.001099 -0.004004 -0.008610 0.009869 0.029844 0.001244
# 6 0.004545 -0.002977 0.004757 0.009093 0.001244 0.070146
#
#
# Mechanical properties :
#
#
# Convention : Reuss Voigt Hill
#
# Bulk Modulus (GPa) = 14.22597 64.03425 39.13011
# Shear Modulus (GPa) = 21.05454 39.72926 30.39190
#
# Velocity S-wave (km/s) = 2.85705 3.92464 3.43261
# Velocity P-wave (km/s) = 4.04957 6.73519 5.55706
#
# Compressibility (1/GPa) = 0.07029397
#
# Stress axis : x y z
#
# Youngs Moduli (GPa) = 123.96401 58.04767 23.16390
#
# Poissons Ratio (x) = 0.30147 0.14324
# Poissons Ratio (y) = 0.64380 -0.28473
# Poissons Ratio (z) = 0.76656 -0.71351
#
# Static dielectric constant tensor:
#      x y z
#    x 4.604810 -0.003070 -0.018620 
#    y -0.003070 4.735020 0.079460 
#    z -0.018620 0.079460 4.715580 
# 
# 
# High freq. dielectric constant tensor:
#      x y z
#    x 2.031380 -0.001020 -0.002120 
#    y -0.001020 2.045650 0.006890 
#    z -0.002120 0.006890 2.041490 
# 
# From -- ./inp_files/364902.got.cif
#   From: 2010.06.25/outbox.cif.g09.slc.cpg/sg2_183_cif.got.tgz:364902.got - 2010.06.27 13:26:56.
