data_PCOD8018488
_publ_section_title
;
Structure prediction by ZEFSAII (Michael W. Deem and Ramdas Pophale) SiO2 
 PCOD8018488
Probable space group: P -1
;
_chemical_formula_sum "Si O2"
_cell_formula_units_Z 16
_cell_length_a 10.411162
_cell_length_b 8.867451
_cell_length_c 18.960893
_cell_angle_alpha 57.981172
_cell_angle_beta 35.066385
_cell_angle_gamma 44.552547
_cell_volume 699.417174
_symmetry_space_group_name_H-M "P -1"
_symmetry_group_IT_number 2
_symmetry_cell_setting 'triclinic'
loop_
_space_group_symop_operation_xyz
x,y,z
-x,-y,-z
loop_
_atom_site_type_symbol
_atom_site_label
_atom_site_fract_x
_atom_site_fract_y
_atom_site_fract_z
Si Si1 0.324897 0.413653 0.624926
Si Si2 0.879417 0.647118 0.872556
Si Si3 0.251571 0.505213 0.912937
Si Si4 0.528588 0.285327 0.063999
Si Si5 0.139426 0.422775 0.322717
Si Si6 0.872091 0.196521 0.709592
Si Si7 0.160271 0.037537 0.476684
Si Si8 0.962573 0.921124 0.867035
O O1 0.500000 0.500000 0.500000
O O2 0.188128 0.519363 0.736278
O O3 0.098790 0.467899 0.655557
O O4 0.522235 0.157230 0.613685
O O5 0.680364 0.755889 0.869415
O O6 0.809890 0.832631 0.914578
O O7 0.807562 0.483082 0.979160
O O8 0.554270 0.289898 0.817962
O O9 0.231392 0.709453 0.834683
O O10 0.000000 0.500000 0.000000
O O11 0.441330 0.309222 0.179491
O O12 0.500000 0.500000 0.000000
O O13 0.816687 0.072574 0.963741
O O14 0.091903 0.609025 0.349634
O O15 0.132403 0.255661 0.416698
O O16 0.008542 0.051743 0.755179
O O17 0.031641 0.049917 0.607127
O O18 0.000000 0.000000 0.500000
#
# Coordination Sequence:
#
# PCOD8018488 Si02
#       8
#     2   2   2   2   2   2   2   2
#     4  11  24  46  68 103 137 179 240 288 343 413
#     4  10  22  40  66  98 137 175 230 287 334 416
#     4  10  24  39  67 106 136 179 230 288 337 420
#     4  11  21  42  67 100 142 173 227 280 351 412
#     4  11  26  46  71 100 144 185 228 299 343 417
#     4  12  26  48  67 104 145 177 240 286 351 415
#     4  12  28  44  76 101 135 192 234 294 348 411
#     4  11  23  39  70  96 136 188 214 281 352 400
#
# _framework density 22.876187000000002
#
# number of rings (size 3 to 8) (size 9 to 14) (size 15 to 20)
#    0.000    1.000    3.750    1.500    8.750    2.500 
#    0.000    1.250    0.000    0.000    0.000    0.000 
#    0.000    0.000    0.000    0.000    0.000    0.000 
#
# Total GULP energy -198216.785847 kJ/mol
# GULP energy per Si atom -12388.549115 kJ/mol
# Density = 2.282412 g / cm^3
# Si number density = 22.876187 Si / 1000 Ang^3
#
#
#
# Elastic Constant Matrix: (Units=GPa)
#
#
# Indices 1 2 3 4 5 6 
#
# 1 43.7151 14.6130 6.0152 2.6494 6.3331 4.3226
# 2 14.6130 116.0896 29.2140 -9.1342 8.9208 -8.0148
# 3 6.0152 29.2140 109.0913 1.4342 16.6238 -3.2320
# 4 2.6494 -9.1342 1.4342 40.4375 5.9035 5.9920
# 5 6.3331 8.9208 16.6238 5.9035 31.9163 -1.8248
# 6 4.3226 -8.0148 -3.2320 5.9920 -1.8248 38.0730
#
#
#
# Elastic Compliance Matrix: (Units=1/GPa)
#
#
# Indices 1 2 3 4 5 6 
#
# 1 0.024940 -0.003169 0.000001 -0.001243 -0.004034 -0.003496
# 2 -0.003169 0.010010 -0.002281 0.002475 -0.001335 0.001820
# 3 0.000001 -0.002281 0.010516 -0.000222 -0.004787 0.000218
# 4 -0.001243 0.002475 -0.000222 0.026748 -0.005496 -0.003830
# 5 -0.004034 -0.001335 -0.004787 -0.005496 0.036151 0.002368
# 6 -0.003496 0.001820 0.000218 -0.003830 0.002368 0.027780
#
#
# Mechanical properties :
#
#
# Convention : Reuss Voigt Hill
#
# Bulk Modulus (GPa) = 28.92856 40.95336 34.94096
# Shear Modulus (GPa) = 31.53278 36.68894 34.11086
#
# Velocity S-wave (km/s) = 3.71672 4.00910 3.86568
# Velocity P-wave (km/s) = 5.57601 6.27467 5.93563
#
# Compressibility (1/GPa) = 0.03456791
#
# Stress axis : x y z
#
# Youngs Moduli (GPa) = 40.09634 99.90135 95.09119
#
# Poissons Ratio (x) = 0.31657 -0.00008
# Poissons Ratio (y) = 0.12706 0.21691
# Poissons Ratio (z) = -0.00003 0.22789
#
# Static dielectric constant tensor:
#      x y z
#    x 4.709000 -0.433590 0.632930 
#    y -0.433590 4.579600 -0.193820 
#    z 0.632930 -0.193820 4.663290 
# 
# 
# High freq. dielectric constant tensor:
#      x y z
#    x 1.901830 -0.002170 0.011890 
#    y -0.002170 1.906820 -0.006280 
#    z 0.011890 -0.006280 1.902830 
# 
# From -- ./inp_files/278884.got.cif
#   From: 2010.06.25/outbox.cif.g09.slc.cpg/sg2_140_cif.got.tgz:278884.got - 2010.06.27 13:26:56.
