data_PCOD8018191
_publ_section_title
;
Structure prediction by ZEFSAII (Michael W. Deem and Ramdas Pophale) SiO2 
 PCOD8018191
Probable space group: P -1
;
_chemical_formula_sum "Si O2"
_cell_formula_units_Z 14
_cell_length_a 14.278689
_cell_length_b 11.579684
_cell_length_c 5.836741
_cell_angle_alpha 46.558241
_cell_angle_beta 70.376664
_cell_angle_gamma 58.210409
_cell_volume 595.047171
_symmetry_space_group_name_H-M "P -1"
_symmetry_group_IT_number 2
_symmetry_cell_setting 'triclinic'
loop_
_space_group_symop_operation_xyz
x,y,z
-x,-y,-z
loop_
_atom_site_type_symbol
_atom_site_label
_atom_site_fract_x
_atom_site_fract_y
_atom_site_fract_z
Si Si1 0.124736 0.372012 0.636167
Si Si2 0.662370 0.260604 0.680196
Si Si3 0.286611 0.296575 0.228681
Si Si4 0.768391 0.937460 0.711280
Si Si5 0.528324 0.601032 0.038951
Si Si6 0.030771 0.056824 0.646637
Si Si7 0.165423 0.614442 0.587591
O O1 0.207120 0.262376 0.517924
O O2 0.180424 0.494063 0.518974
O O3 0.000000 0.500000 0.500000
O O4 0.133885 0.217623 0.013125
O O5 0.597981 0.455762 0.364225
O O6 0.586081 0.250561 0.964513
O O7 0.777592 0.253332 0.686346
O O8 0.684665 0.102647 0.701292
O O9 0.309215 0.143413 0.230535
O O10 0.401052 0.291170 0.241035
O O11 0.215466 0.494222 0.930163
O O12 0.837610 0.998862 0.391478
O O13 0.500000 0.500000 0.000000
O O14 0.963567 0.268591 0.417155
O O15 0.000000 0.000000 0.500000
O O16 0.000000 0.000000 0.000000
#
# Coordination Sequence:
#
# PCOD8018191 Si02
#       7
#     2   2   2   2   2   2   2
#     4  11  23  39  66  92 136 178 227 273 335 410
#     4  10  22  42  65  91 134 165 229 280 350 408
#     4  10  23  41  64  93 132 175 228 280 346 410
#     4  11  25  43  62  99 133 179 223 282 345 412
#     4  10  22  42  68  94 122 173 226 288 349 414
#     4  12  27  42  68 104 142 183 232 288 345 413
#     4  10  22  40  63  93 129 179 224 276 340 407
#
# _framework density 23.527545
#
# number of rings (size 3 to 8) (size 9 to 14) (size 15 to 20)
#    0.000    1.429    1.429    2.571    6.000    6.286 
#    0.000    1.429    0.000    0.000    0.000    0.000 
#    0.000    0.000    0.000    0.000    0.000    0.000 
#
# Total GULP energy -173436.931710 kJ/mol
# GULP energy per Si atom -12388.352265 kJ/mol
# Density = 2.347400 g / cm^3
# Si number density = 23.527545 Si / 1000 Ang^3
#
#
#
# Elastic Constant Matrix: (Units=GPa)
#
#
# Indices 1 2 3 4 5 6 
#
# 1 104.0421 37.4688 30.6005 17.9226 -26.7741 10.6841
# 2 37.4688 157.2373 28.9208 21.0248 -22.4902 5.4509
# 3 30.6005 28.9208 74.5362 23.0464 -14.2640 4.4656
# 4 17.9226 21.0248 23.0464 36.7715 -2.6381 -6.2355
# 5 -26.7741 -22.4902 -14.2640 -2.6381 32.0070 4.4419
# 6 10.6841 5.4509 4.4656 -6.2355 4.4419 36.8459
#
#
#
# Elastic Compliance Matrix: (Units=1/GPa)
#
#
# Indices 1 2 3 4 5 6 
#
# 1 0.015099 -0.000531 -0.001255 -0.006540 0.012091 -0.006712
# 2 -0.000531 0.007880 -0.000578 -0.003909 0.004816 -0.002184
# 3 -0.001255 -0.000578 0.019280 -0.011439 0.006838 -0.004647
# 4 -0.006540 -0.003909 -0.011439 0.041022 -0.011628 0.012205
# 5 0.012091 0.004816 0.006838 -0.011628 0.048617 -0.012876
# 6 -0.006712 -0.002184 -0.004647 0.012205 -0.012876 0.033590
#
#
# Mechanical properties :
#
#
# Convention : Reuss Voigt Hill
#
# Bulk Modulus (GPa) = 26.64461 58.86620 42.75540
# Shear Modulus (GPa) = 27.36326 37.04658 32.20492
#
# Velocity S-wave (km/s) = 3.41402 3.97243 3.70377
# Velocity P-wave (km/s) = 5.18557 6.79078 6.04173
#
# Compressibility (1/GPa) = 0.03753105
#
# Stress axis : x y z
#
# Youngs Moduli (GPa) = 66.22973 126.90443 51.86789
#
# Poissons Ratio (x) = 0.06734 0.06508
# Poissons Ratio (y) = 0.03514 0.03000
# Poissons Ratio (z) = 0.08310 0.07341
#
# Static dielectric constant tensor:
#      x y z
#    x 4.553300 -0.092010 -0.095170 
#    y -0.092010 4.291690 0.157740 
#    z -0.095170 0.157740 4.236250 
# 
# 
# High freq. dielectric constant tensor:
#      x y z
#    x 1.932560 0.005430 -0.007380 
#    y 0.005430 1.940780 0.004860 
#    z -0.007380 0.004860 1.915480 
# 
# From -- ./inp_files/38385.got.cif
#   From: 2010.06.25/outbox.cif.g09.slc.cpg/sg2_20_cif.got.tgz:38385.got - 2010.06.27 13:26:56.
