data_PCOD8018981
_publ_section_title
;
Structure prediction by ZEFSAII (Michael W. Deem and Ramdas Pophale) SiO2 
 PCOD8018981
Probable space group: P -1
;
_chemical_formula_sum "Si O2"
_cell_formula_units_Z 16
_cell_length_a 8.519173
_cell_length_b 20.724793
_cell_length_c 17.969541
_cell_angle_alpha 19.874859
_cell_angle_beta 116.220947
_cell_angle_gamma 125.803261
_cell_volume 804.438936
_symmetry_space_group_name_H-M "P -1"
_symmetry_group_IT_number 2
_symmetry_cell_setting 'triclinic'
loop_
_space_group_symop_operation_xyz
x,y,z
-x,-y,-z
loop_
_atom_site_type_symbol
_atom_site_label
_atom_site_fract_x
_atom_site_fract_y
_atom_site_fract_z
Si Si1 0.087701 0.395678 0.685488
Si Si2 0.546307 0.066242 0.276450
Si Si3 0.257766 0.693401 0.090249
Si Si4 0.666862 0.006719 0.083015
Si Si5 0.510044 0.497922 0.415860
Si Si6 0.245634 0.159570 0.359513
Si Si7 0.788623 0.409410 0.344032
Si Si8 0.571726 0.631889 0.984040
O O1 0.247474 0.357519 0.715713
O O2 0.202077 0.576404 0.580250
O O3 0.000000 0.500000 0.500000
O O4 0.898861 0.151068 0.940083
O O5 0.476798 0.211587 0.147993
O O6 0.649538 0.978691 0.449243
O O7 0.349778 0.851637 0.426982
O O8 0.714833 0.225257 0.076968
O O9 0.397197 0.596345 0.242538
O O10 0.014389 0.500541 0.257913
O O11 0.336777 0.900387 0.938438
O O12 0.608702 0.758900 0.357653
O O13 0.500000 0.000000 0.000000
O O14 0.500000 0.500000 0.500000
O O15 0.282599 0.217191 0.217795
O O16 0.352982 0.399543 0.165939
O O17 0.000000 0.000000 0.500000
O O18 0.705366 0.563360 0.133599
#
# Coordination Sequence:
#
# PCOD8018981 Si02
#       8
#     2   2   2   2   2   2   2   2
#     4  11  22  39  64  85 120 166 206 259 314 361
#     4  11  23  39  65  93 125 163 202 253 307 365
#     4  11  24  39  59  88 122 157 209 257 304 370
#     4  11  22  42  60  83 119 161 203 261 313 360
#     4  12  23  38  58  86 114 153 210 257 309 370
#     4  10  22  41  66  94 127 162 197 245 307 367
#     4  10  23  41  59  88 125 163 206 255 311 361
#     4  10  22  41  63  93 126 159 205 248 298 375
#
# _framework density 19.889638999999999
#
# number of rings (size 3 to 8) (size 9 to 14) (size 15 to 20)
#    0.000    1.250    2.500    3.375    0.000    6.000 
#    0.000    0.000    0.000    0.000    0.000    0.000 
#    0.000    0.000    0.000    0.000    0.000    0.000 
#
# Total GULP energy -198448.789329 kJ/mol
# GULP energy per Si atom -12403.049333 kJ/mol
# Density = 1.984437 g / cm^3
# Si number density = 19.889639 Si / 1000 Ang^3
#
#
#
# Elastic Constant Matrix: (Units=GPa)
#
#
# Indices 1 2 3 4 5 6 
#
# 1 152.2796 53.5163 58.3245 -9.6587 -4.2292 -2.1129
# 2 53.5163 99.6737 33.7752 6.4882 -3.6469 -4.7934
# 3 58.3245 33.7752 98.5853 4.2573 5.5534 -3.7343
# 4 -9.6587 6.4882 4.2573 34.2575 1.1922 -4.9497
# 5 -4.2292 -3.6469 5.5534 1.1922 37.2092 0.9532
# 6 -2.1129 -4.7934 -3.7343 -4.9497 0.9532 33.8913
#
#
#
# Elastic Compliance Matrix: (Units=1/GPa)
#
#
# Indices 1 2 3 4 5 6 
#
# 1 0.010155 -0.004016 -0.004885 0.004198 0.001353 0.000102
# 2 -0.004016 0.013179 -0.002033 -0.003292 0.001222 0.000874
# 3 -0.004885 -0.002033 0.014022 -0.002543 -0.002783 0.000660
# 4 0.004198 -0.003292 -0.002543 0.031941 -0.000597 0.004198
# 5 0.001353 0.001222 -0.002783 -0.000597 0.027606 -0.000913
# 6 0.000102 0.000874 0.000660 0.004198 -0.000913 0.030348
#
#
# Mechanical properties :
#
#
# Convention : Reuss Voigt Hill
#
# Bulk Modulus (GPa) = 64.56947 71.30782 67.93865
# Shear Modulus (GPa) = 32.40858 34.73311 33.57085
#
# Velocity S-wave (km/s) = 4.04099 4.18340 4.11281
# Velocity P-wave (km/s) = 7.36934 7.69831 7.53562
#
# Compressibility (1/GPa) = 0.01548720
#
# Stress axis : x y z
#
# Youngs Moduli (GPa) = 98.47836 75.88049 71.31740
#
# Poissons Ratio (x) = 0.30470 0.34842
# Poissons Ratio (y) = 0.39544 0.14498
# Poissons Ratio (z) = 0.48111 0.15426
#
# Static dielectric constant tensor:
#      x y z
#    x 2.897470 -0.045870 0.001990 
#    y -0.045870 3.746780 0.050480 
#    z 0.001990 0.050480 3.693350 
# 
# 
# High freq. dielectric constant tensor:
#      x y z
#    x 1.785570 -0.000440 -0.005780 
#    y -0.000440 1.784840 0.004830 
#    z -0.005780 0.004830 1.787620 
# 
# From -- ./inp_files/337833.got.cif
#   From: 2010.06.25/outbox.cif.g09.slc.cpg/sg2_169_cif.got.tgz:337833.got - 2010.06.27 13:26:56.
