data_PCOD8018004
_publ_section_title
;
Structure prediction by ZEFSAII (Michael W. Deem and Ramdas Pophale) SiO2 
 PCOD8018004
Probable space group: P -1
;
_chemical_formula_sum "Si O2"
_cell_formula_units_Z 14
_cell_length_a 14.577207
_cell_length_b 14.028616
_cell_length_c 6.857976
_cell_angle_alpha 107.237622
_cell_angle_beta 61.493464
_cell_angle_gamma 144.845556
_cell_volume 697.282932
_symmetry_space_group_name_H-M "P -1"
_symmetry_group_IT_number 2
_symmetry_cell_setting 'triclinic'
loop_
_space_group_symop_operation_xyz
x,y,z
-x,-y,-z
loop_
_atom_site_type_symbol
_atom_site_label
_atom_site_fract_x
_atom_site_fract_y
_atom_site_fract_z
Si Si1 0.317839 0.985262 0.177607
Si Si2 0.151123 0.354806 0.939665
Si Si3 0.854797 0.810013 0.466413
Si Si4 0.475836 0.309950 0.292060
Si Si5 0.935891 0.701351 0.577624
Si Si6 0.583785 0.092926 0.267468
Si Si7 0.743936 0.422099 0.336888
O O1 0.123827 0.849572 0.374391
O O2 0.401327 0.158136 0.154845
O O3 0.426628 0.005815 0.235264
O O4 0.316507 0.925553 0.937232
O O5 0.088033 0.208427 0.795021
O O6 0.360379 0.511466 0.879017
O O7 0.124760 0.433855 0.879420
O O8 0.037563 0.274357 0.202490
O O9 0.673467 0.723735 0.542436
O O10 0.825649 0.711637 0.616450
O O11 0.000000 0.000000 0.500000
O O12 0.551622 0.325810 0.433005
O O13 0.825492 0.517024 0.520027
O O14 0.729511 0.291920 0.266669
O O15 0.500000 0.000000 0.500000
#
# Coordination Sequence:
#
# PCOD8018004 Si02
#       7
#     2   2   2   2   2   2   2
#     4  10  22  40  59  89 124 148 199 258 285 352
#     4   9  22  38  59  86 124 158 198 237 298 355
#     4  11  21  39  60  89 124 158 200 249 286 343
#     4   9  19  41  58  81 129 157 190 252 286 346
#     4  11  22  38  62  91 120 161 196 242 303 346
#     4  10  22  40  65  87 113 160 203 236 310 357
#     4   8  21  39  58  85 125 151 196 251 292 347
#
# _framework density 20.077933000000002
#
# number of rings (size 3 to 8) (size 9 to 14) (size 15 to 20)
#    0.857    1.429    1.429    0.429    2.000    4.000 
#    0.000    1.429    0.000    0.000    0.000    0.000 
#    0.000    0.000    0.000    0.000    0.000    0.000 
#
# Total GULP energy -173480.567263 kJ/mol
# GULP energy per Si atom -12391.469090 kJ/mol
# Density = 2.003223 g / cm^3
# Si number density = 20.077933 Si / 1000 Ang^3
#
#
#
# Elastic Constant Matrix: (Units=GPa)
#
#
# Indices 1 2 3 4 5 6 
#
# 1 37.0799 17.0695 31.5114 4.0471 -1.5338 -11.4494
# 2 17.0695 143.2393 60.9988 28.1488 -6.2858 -11.4220
# 3 31.5114 60.9988 147.2162 12.9023 9.0504 -16.7906
# 4 4.0471 28.1488 12.9023 30.4430 1.8639 -7.2601
# 5 -1.5338 -6.2858 9.0504 1.8639 21.5147 -1.2725
# 6 -11.4494 -11.4220 -16.7906 -7.2601 -1.2725 27.8287
#
#
#
# Elastic Compliance Matrix: (Units=1/GPa)
#
#
# Indices 1 2 3 4 5 6 
#
# 1 0.036582 -0.000461 -0.006789 0.000756 0.005928 0.011234
# 2 -0.000461 0.010579 -0.003896 -0.008437 0.005419 -0.000152
# 3 -0.006789 -0.003896 0.010353 0.000915 -0.005949 0.001822
# 4 0.000756 -0.008437 0.000915 0.042486 -0.005991 0.008210
# 5 0.005928 0.005419 -0.005949 -0.005991 0.051618 0.001871
# 6 0.011234 -0.000152 0.001822 0.008210 0.001871 0.043820
#
#
# Mechanical properties :
#
#
# Convention : Reuss Voigt Hill
#
# Bulk Modulus (GPa) = 28.39052 60.74387 44.56720
# Shear Modulus (GPa) = 21.78938 30.48767 26.13853
#
# Velocity S-wave (km/s) = 3.29787 3.90098 3.61204
# Velocity P-wave (km/s) = 5.35464 7.11406 6.29611
#
# Compressibility (1/GPa) = 0.03522303
#
# Stress axis : x y z
#
# Youngs Moduli (GPa) = 27.33619 94.52680 96.58822
#
# Poissons Ratio (x) = 0.04359 0.65570
# Poissons Ratio (y) = 0.01260 0.37627
# Poissons Ratio (z) = 0.18558 0.36824
#
# Static dielectric constant tensor:
#      x y z
#    x 3.588670 -0.042740 -0.045930 
#    y -0.042740 3.836690 0.244800 
#    z -0.045930 0.244800 3.396220 
# 
# 
# High freq. dielectric constant tensor:
#      x y z
#    x 1.772430 0.001330 -0.003810 
#    y 0.001330 1.798560 0.021730 
#    z -0.003810 0.021730 1.754830 
# 
# From -- ./inp_files/98387.got.cif
#   From: 2010.06.25/outbox.cif.g09.slc.cpg/sg2_50_cif.got.tgz:98387.got - 2010.06.27 13:26:56.
