data_PCOD8018384
_publ_section_title
;
Structure prediction by ZEFSAII (Michael W. Deem and Ramdas Pophale) SiO2 
 PCOD8018384
Probable space group: P -1
;
_chemical_formula_sum "Si O2"
_cell_formula_units_Z 16
_cell_length_a 19.993446
_cell_length_b 8.562657
_cell_length_c 9.350107
_cell_angle_alpha 120.779171
_cell_angle_beta 118.270849
_cell_angle_gamma 30.983472
_cell_volume 705.752132
_symmetry_space_group_name_H-M "P -1"
_symmetry_group_IT_number 2
_symmetry_cell_setting 'triclinic'
loop_
_space_group_symop_operation_xyz
x,y,z
-x,-y,-z
loop_
_atom_site_type_symbol
_atom_site_label
_atom_site_fract_x
_atom_site_fract_y
_atom_site_fract_z
Si Si1 0.814096 0.045935 0.899817
Si Si2 0.234133 0.555431 0.749150
Si Si3 0.591060 0.653518 0.424349
Si Si4 0.995295 0.807300 0.585503
Si Si5 0.753342 0.405810 0.747156
Si Si6 0.681114 0.854766 0.100683
Si Si7 0.536585 0.451928 0.853076
Si Si8 0.066761 0.415513 0.737520
O O1 0.770644 0.205928 0.778162
O O2 0.693112 0.154414 0.870380
O O3 0.838429 0.158529 0.090133
O O4 0.950927 0.671779 0.855370
O O5 0.322794 0.491731 0.698845
O O6 0.311711 0.267769 0.799384
O O7 0.125565 0.657432 0.594894
O O8 0.663172 0.506766 0.578472
O O9 0.507737 0.632519 0.324679
O O10 0.500000 0.000000 0.500000
O O11 0.931122 0.805177 0.396639
O O12 0.037944 0.592510 0.654614
O O13 0.895880 0.156782 0.703000
O O14 0.698776 0.689976 0.903657
O O15 0.790158 0.801259 0.165580
O O16 0.536634 0.223299 0.125524
O O17 0.500000 0.500000 0.000000
#
# Coordination Sequence:
#
# PCOD8018384 Si02
#       8
#     2   2   2   2   2   2   2   2
#     4  10  22  40  68  93 125 169 214 253 311 379
#     4  10  22  41  66  92 127 167 207 256 314 372
#     4  12  27  42  60  91 134 163 209 261 318 365
#     4   9  18  36  64  95 129 157 207 262 313 366
#     4  10  22  40  65  96 125 165 209 260 312 373
#     4  10  22  42  71  92 124 169 214 252 310 381
#     4  12  25  44  65  92 129 166 212 263 312 370
#     4   9  18  37  64  98 123 161 213 261 304 369
#
# _framework density 22.670849
#
# number of rings (size 3 to 8) (size 9 to 14) (size 15 to 20)
#    0.000    1.750    1.250    2.250    3.500    6.000 
#    0.000    0.625    0.000    0.000    0.000    0.000 
#    0.000    0.000    0.000    0.000    0.000    0.000 
#
# Total GULP energy -198339.146116 kJ/mol
# GULP energy per Si atom -12396.196632 kJ/mol
# Density = 2.261925 g / cm^3
# Si number density = 22.670849 Si / 1000 Ang^3
#
#
#
# Elastic Constant Matrix: (Units=GPa)
#
#
# Indices 1 2 3 4 5 6 
#
# 1 66.9739 -8.8664 14.3544 -0.2599 15.0232 -14.2895
# 2 -8.8664 25.9804 0.6344 14.7971 3.1063 -5.9105
# 3 14.3544 0.6344 93.3944 -6.0670 10.3767 9.8345
# 4 -0.2599 14.7971 -6.0670 35.6261 -3.5601 5.5385
# 5 15.0232 3.1063 10.3767 -3.5601 36.1309 2.0045
# 6 -14.2895 -5.9105 9.8345 5.5385 2.0045 29.4011
#
#
#
# Elastic Compliance Matrix: (Units=1/GPa)
#
#
# Indices 1 2 3 4 5 6 
#
# 1 0.029792 0.029427 -0.007105 -0.019115 -0.016285 0.027483
# 2 0.029427 0.090069 -0.010516 -0.048689 -0.024351 0.046758
# 3 -0.007105 -0.010516 0.013508 0.008600 0.001481 -0.011807
# 4 -0.019115 -0.048689 0.008600 0.056578 0.017113 -0.033779
# 5 -0.016285 -0.024351 0.001481 0.017113 0.038867 -0.019179
# 6 0.027483 0.046758 -0.011807 -0.033779 -0.019179 0.068390
#
#
# Mechanical properties :
#
#
# Convention : Reuss Voigt Hill
#
# Bulk Modulus (GPa) = 6.37013 22.06595 14.21804
# Shear Modulus (GPa) = 15.34120 32.24669 23.79395
#
# Velocity S-wave (km/s) = 2.60415 3.77554 3.24317
# Velocity P-wave (km/s) = 3.44356 5.36289 4.50659
#
# Compressibility (1/GPa) = 0.15698255
#
# Stress axis : x y z
#
# Youngs Moduli (GPa) = 33.56560 11.10254 74.02977
#
# Poissons Ratio (x) = -0.32672 0.52600
# Poissons Ratio (y) = -0.98774 0.77848
# Poissons Ratio (z) = 0.23849 0.11675
#
# Static dielectric constant tensor:
#      x y z
#    x 4.035100 -0.153530 0.178330 
#    y -0.153530 4.060020 0.084650 
#    z 0.178330 0.084650 4.224650 
# 
# 
# High freq. dielectric constant tensor:
#      x y z
#    x 1.885470 -0.010180 0.007540 
#    y -0.010180 1.894650 0.001680 
#    z 0.007540 0.001680 1.901120 
# 
# From -- ./inp_files/223880.got.cif
#   From: 2010.06.25/outbox.cif.g09.slc.cpg/sg2_112_cif.got.tgz:223880.got - 2010.06.27 13:26:56.
