data_PCOD8018388
_publ_section_title
;
Structure prediction by ZEFSAII (Michael W. Deem and Ramdas Pophale) SiO2 
 PCOD8018388
Probable space group: P -1
;
_chemical_formula_sum "Si O2"
_cell_formula_units_Z 14
_cell_length_a 16.469785
_cell_length_b 8.343765
_cell_length_c 11.514036
_cell_angle_alpha 101.710615
_cell_angle_beta 141.245403
_cell_angle_gamma 109.132567
_cell_volume 590.934081
_symmetry_space_group_name_H-M "P -1"
_symmetry_group_IT_number 2
_symmetry_cell_setting 'triclinic'
loop_
_space_group_symop_operation_xyz
x,y,z
-x,-y,-z
loop_
_atom_site_type_symbol
_atom_site_label
_atom_site_fract_x
_atom_site_fract_y
_atom_site_fract_z
Si Si1 0.849412 0.224246 0.040427
Si Si2 0.372788 0.491793 0.112009
Si Si3 0.008443 0.742408 0.235741
Si Si4 0.822919 0.957230 0.766127
Si Si5 0.418183 0.878096 0.087864
Si Si6 0.356354 0.230998 0.869669
Si Si7 0.716243 0.339434 0.333687
O O1 0.937915 0.486124 0.135789
O O2 0.058664 0.345739 0.347171
O O3 0.661892 0.065341 0.901369
O O4 0.766963 0.026543 0.817636
O O5 0.596340 0.648412 0.436835
O O6 0.421864 0.701555 0.120056
O O7 0.264134 0.240311 0.877141
O O8 0.206501 0.363988 0.009491
O O9 0.098110 0.854300 0.224381
O O10 0.168278 0.961987 0.546999
O O11 0.000000 0.000000 0.000000
O O12 0.658834 0.156012 0.350044
O O13 0.265049 0.729475 0.781315
O O14 0.500000 0.500000 0.000000
O O15 0.514707 0.254827 0.099488
#
# Coordination Sequence:
#
# PCOD8018388 Si02
#       7
#     2   2   2   2   2   2   2
#     4  11  25  41  67  97 132 172 217 263 321 389
#     4  11  24  44  67  95 133 171 218 266 325 388
#     4  11  25  44  67  96 128 175 221 265 328 382
#     4  12  26  44  67  94 133 175 218 267 322 387
#     4  10  22  40  65  96 129 168 216 266 324 381
#     4  12  22  42  69  94 135 172 210 269 328 381
#     4  11  21  39  65  95 133 165 213 267 322 381
#
# _framework density 23.691306000000001
#
# number of rings (size 3 to 8) (size 9 to 14) (size 15 to 20)
#    0.000    0.857    2.857    4.714    0.000    6.286 
#    0.000    0.000    0.000    0.000    0.000    0.000 
#    0.000    0.000    0.000    0.000    0.000    0.000 
#
# Total GULP energy -173532.646009 kJ/mol
# GULP energy per Si atom -12395.189001 kJ/mol
# Density = 2.363738 g / cm^3
# Si number density = 23.691306 Si / 1000 Ang^3
#
#
#
# Elastic Constant Matrix: (Units=GPa)
#
#
# Indices 1 2 3 4 5 6 
#
# 1 177.3345 27.7866 45.7356 -0.9538 -17.4627 0.6372
# 2 27.7866 40.0481 13.2760 -2.2854 -11.7187 -9.5594
# 3 45.7356 13.2760 97.4916 -9.9469 -0.6832 -5.6072
# 4 -0.9538 -2.2854 -9.9469 25.4151 -5.5336 -1.6600
# 5 -17.4627 -11.7187 -0.6832 -5.5336 41.2564 -0.4193
# 6 0.6372 -9.5594 -5.6072 -1.6600 -0.4193 28.9395
#
#
#
# Elastic Compliance Matrix: (Units=1/GPa)
#
#
# Indices 1 2 3 4 5 6 
#
# 1 0.007236 -0.004084 -0.003058 -0.001065 0.001688 -0.002137
# 2 -0.004084 0.033815 -0.001470 0.004934 0.008629 0.011383
# 3 -0.003058 -0.001470 0.012485 0.004598 -0.000866 0.002252
# 4 -0.001065 0.004934 0.004598 0.043387 0.006899 0.005133
# 5 0.001688 0.008629 -0.000866 0.006899 0.028350 0.003452
# 6 -0.002137 0.011383 0.002252 0.005133 0.003452 0.039143
#
#
# Mechanical properties :
#
#
# Convention : Reuss Voigt Hill
#
# Bulk Modulus (GPa) = 27.54016 54.27450 40.90733
# Shear Modulus (GPa) = 25.80739 34.32730 30.06734
#
# Velocity S-wave (km/s) = 3.30406 3.81063 3.56635
# Velocity P-wave (km/s) = 5.11914 6.50538 5.85344
#
# Compressibility (1/GPa) = 0.03631061
#
# Stress axis : x y z
#
# Youngs Moduli (GPa) = 138.20199 29.57303 80.09808
#
# Poissons Ratio (x) = 0.12077 0.24495
# Poissons Ratio (y) = 0.56439 0.11777
# Poissons Ratio (z) = 0.42264 0.04348
#
# Static dielectric constant tensor:
#      x y z
#    x 4.660350 -0.229990 0.093370 
#    y -0.229990 4.450430 0.024450 
#    z 0.093370 0.024450 4.382210 
# 
# 
# High freq. dielectric constant tensor:
#      x y z
#    x 1.955670 -0.003960 0.010050 
#    y -0.003960 1.931560 -0.002460 
#    z 0.010050 -0.002460 1.935160 
# 
# From -- ./inp_files/461431.got.cif
#   From: 2010.06.25/outbox.cif.g09.slc.cpg/sg2_231_cif.got.tgz:461431.got - 2010.06.27 13:26:56.
