data_PCOD8018230
_publ_section_title
;
Structure prediction by ZEFSAII (Michael W. Deem and Ramdas Pophale) SiO2 
 PCOD8018230
Probable space group: P -1
;
_chemical_formula_sum "Si O2"
_cell_formula_units_Z 16
_cell_length_a 9.498127
_cell_length_b 21.153156
_cell_length_c 24.517295
_cell_angle_alpha 18.903472
_cell_angle_beta 27.531135
_cell_angle_gamma 29.071968
_cell_volume 717.137003
_symmetry_space_group_name_H-M "P -1"
_symmetry_group_IT_number 2
_symmetry_cell_setting 'triclinic'
loop_
_space_group_symop_operation_xyz
x,y,z
-x,-y,-z
loop_
_atom_site_type_symbol
_atom_site_label
_atom_site_fract_x
_atom_site_fract_y
_atom_site_fract_z
Si Si1 0.971943 0.031058 0.661018
Si Si2 0.357587 0.904017 0.010178
Si Si3 0.231069 0.736856 0.081539
Si Si4 0.324954 0.394914 0.780611
Si Si5 0.821032 0.181168 0.474634
Si Si6 0.152743 0.531099 0.615233
Si Si7 0.575290 0.858983 0.767453
Si Si8 0.266309 0.715763 0.894870
O O1 0.980602 0.033412 0.589999
O O2 0.018581 0.243074 0.494610
O O3 0.631463 0.018690 0.810865
O O4 0.262014 0.851298 0.730489
O O5 0.370567 0.739739 0.091573
O O6 0.377196 0.780351 0.161700
O O7 0.027449 0.057195 0.004921
O O8 0.075647 0.546687 0.284572
O O9 0.505416 0.725787 0.951178
O O10 0.378762 0.614388 0.596848
O O11 0.202664 0.384326 0.770231
O O12 0.064187 0.336947 0.955371
O O13 0.085014 0.231283 0.303012
O O14 0.579356 0.081860 0.605383
O O15 0.500000 0.500000 0.500000
O O16 0.309314 0.860849 0.811689
O O17 0.500000 0.500000 0.000000
#
# Coordination Sequence:
#
# PCOD8018230 Si02
#       8
#     2   2   2   2   2   2   2   2
#     4  10  22  41  64  91 125 163 203 256 314 360
#     4  10  22  40  64  91 122 171 200 250 316 367
#     4  11  22  40  64  91 129 162 209 249 306 377
#     4  10  22  40  64  88 128 162 203 254 316 362
#     4  10  22  42  62  89 127 160 205 261 305 360
#     4  11  22  39  63  94 123 158 208 261 301 362
#     4  11  22  39  63  91 123 162 205 256 303 363
#     4  11  22  41  63  91 123 162 206 251 308 372
#
# _framework density 22.310938
#
# number of rings (size 3 to 8) (size 9 to 14) (size 15 to 20)
#    0.000    1.500    5.000    0.000    0.000    3.000 
#    0.000    5.000    0.000    0.000    0.000    0.000 
#    0.000    0.000    0.000    0.000    0.000    0.000 
#
# Total GULP energy -198230.639347 kJ/mol
# GULP energy per Si atom -12389.414959 kJ/mol
# Density = 2.226016 g / cm^3
# Si number density = 22.310938 Si / 1000 Ang^3
#
#
#
# Elastic Constant Matrix: (Units=GPa)
#
#
# Indices 1 2 3 4 5 6 
#
# 1 105.7913 13.3723 47.5542 -25.9471 -7.2277 2.9127
# 2 13.3723 46.7939 21.5823 -4.2243 13.3729 -2.0857
# 3 47.5542 21.5823 101.5199 -4.8186 -6.1901 -0.4289
# 4 -25.9471 -4.2243 -4.8186 29.7057 -0.2360 5.0278
# 5 -7.2277 13.3729 -6.1901 -0.2360 51.5440 -8.5614
# 6 2.9127 -2.0857 -0.4289 5.0278 -8.5614 28.8832
#
#
#
# Elastic Compliance Matrix: (Units=1/GPa)
#
#
# Indices 1 2 3 4 5 6 
#
# 1 0.016017 -0.000773 -0.006650 0.013452 0.001080 -0.003791
# 2 -0.000773 0.026607 -0.005667 0.002261 -0.007814 -0.000795
# 3 -0.006650 -0.005667 0.014113 -0.004650 0.002550 0.002036
# 4 0.013452 0.002261 -0.004650 0.046594 -0.000633 -0.009561
# 5 0.001080 -0.007814 0.002550 -0.000633 0.022924 0.006270
# 6 -0.003791 -0.000795 0.002036 -0.009561 0.006270 0.038500
#
#
# Mechanical properties :
#
#
# Convention : Reuss Voigt Hill
#
# Bulk Modulus (GPa) = 32.72550 46.56920 39.64735
# Shear Modulus (GPa) = 24.86062 33.46632 29.16347
#
# Velocity S-wave (km/s) = 3.34170 3.87718 3.61936
# Velocity P-wave (km/s) = 5.43958 6.40012 5.93930
#
# Compressibility (1/GPa) = 0.03055721
#
# Stress axis : x y z
#
# Youngs Moduli (GPa) = 62.43329 37.58475 70.85480
#
# Poissons Ratio (x) = 0.02906 0.47119
# Poissons Ratio (y) = 0.04828 0.40150
# Poissons Ratio (z) = 0.41519 0.21298
#
# Static dielectric constant tensor:
#      x y z
#    x 4.498500 -0.108010 -0.039300 
#    y -0.108010 3.776690 -0.171360 
#    z -0.039300 -0.171360 4.043040 
# 
# 
# High freq. dielectric constant tensor:
#      x y z
#    x 1.887140 0.008970 -0.010380 
#    y 0.008970 1.843620 0.002510 
#    z -0.010380 0.002510 1.889940 
# 
# From -- ./inp_files/299319.got.cif
#   From: 2010.06.25/outbox.cif.g09.slc.cpg/sg2_150_cif.got.tgz:299319.got - 2010.06.27 13:26:56.
