data_PCOD8018026
_publ_section_title
;
Structure prediction by ZEFSAII (Michael W. Deem and Ramdas Pophale) SiO2 
 PCOD8018026
Probable space group: P -1
;
_chemical_formula_sum "Si O2"
_cell_formula_units_Z 16
_cell_length_a 12.325958
_cell_length_b 14.328280
_cell_length_c 21.565500
_cell_angle_alpha 32.974505
_cell_angle_beta 155.167045
_cell_angle_gamma 134.915278
_cell_volume 844.732409
_symmetry_space_group_name_H-M "P -1"
_symmetry_group_IT_number 2
_symmetry_cell_setting 'triclinic'
loop_
_space_group_symop_operation_xyz
x,y,z
-x,-y,-z
loop_
_atom_site_type_symbol
_atom_site_label
_atom_site_fract_x
_atom_site_fract_y
_atom_site_fract_z
Si Si1 0.499473 0.210569 0.207452
Si Si2 0.368046 0.337348 0.821481
Si Si3 0.003769 0.290805 0.550340
Si Si4 0.333166 0.991646 0.478851
Si Si5 0.093986 0.234695 0.493720
Si Si6 0.037887 0.637332 0.892190
Si Si7 0.463173 0.865589 0.862875
Si Si8 0.871318 0.418573 0.163366
O O1 0.458049 0.094494 0.310070
O O2 0.389454 0.148271 0.120336
O O3 0.815899 0.178388 0.382304
O O4 0.367701 0.415419 0.036819
O O5 0.236969 0.263025 0.736963
O O6 0.232624 0.540685 0.651227
O O7 0.675240 0.320860 0.974556
O O8 0.333521 0.218832 0.929608
O O9 0.132610 0.314949 0.536551
O O10 0.883666 0.120197 0.584359
O O11 0.500000 0.000000 0.500000
O O12 0.188775 0.186137 0.316511
O O13 0.083035 0.379146 0.352192
O O14 0.335864 0.068481 0.698917
O O15 0.999140 0.553469 0.851132
O O16 0.000000 0.500000 0.000000
O O17 0.239230 0.755159 0.805595
#
# Coordination Sequence:
#
# PCOD8018026 Si02
#       8
#     2   2   2   2   2   2   2   2
#     4  10  17  28  46  69  97 127 163 205 249 291
#     4  10  20  34  52  75 103 134 168 206 249 296
#     4  10  20  34  52  75 103 134 168 206 249 296
#     4  11  21  34  52  75 103 133 168 206 249 298
#     4  10  17  27  45  70  98 127 163 205 248 291
#     4  11  21  34  52  75 103 133 168 206 249 298
#     4  10  17  27  45  70  98 127 163 205 248 291
#     4  10  17  28  46  69  97 127 163 205 249 291
#
# _framework density 18.940909999999999
#
# number of rings (size 3 to 8) (size 9 to 14) (size 15 to 20)
#    0.000    1.750    0.000   12.000    0.000    2.000 
#    0.000    0.000    0.000    1.500    0.000    0.000 
#    0.000    0.000    0.000    0.000    0.000    0.000 
#
# Total GULP energy -198325.195657 kJ/mol
# GULP energy per Si atom -12395.324729 kJ/mol
# Density = 1.889780 g / cm^3
# Si number density = 18.940910 Si / 1000 Ang^3
#
#
#
# Elastic Constant Matrix: (Units=GPa)
#
#
# Indices 1 2 3 4 5 6 
#
# 1 156.3558 37.3397 52.7881 8.4178 -35.2856 -26.9516
# 2 37.3397 44.6849 28.1690 1.7179 -13.0750 -18.9910
# 3 52.7881 28.1690 107.1290 -2.1492 -23.6422 -13.6232
# 4 8.4178 1.7179 -2.1492 26.0129 -10.0987 -6.1383
# 5 -35.2856 -13.0750 -23.6422 -10.0987 47.6686 2.7688
# 6 -26.9516 -18.9910 -13.6232 -6.1383 2.7688 29.5865
#
#
#
# Elastic Compliance Matrix: (Units=1/GPa)
#
#
# Indices 1 2 3 4 5 6 
#
# 1 0.010024 -0.003018 -0.002284 0.000108 0.005152 0.005683
# 2 -0.003018 0.037691 -0.004521 0.005045 0.005777 0.019869
# 3 -0.002284 -0.004521 0.012835 0.004059 0.004215 0.001375
# 4 0.000108 0.005045 0.004059 0.046504 0.012534 0.013681
# 5 0.005152 0.005777 0.004215 0.012534 0.030537 0.010085
# 6 0.005683 0.019869 0.001375 0.013681 0.010085 0.054257
#
#
# Mechanical properties :
#
#
# Convention : Reuss Voigt Hill
#
# Bulk Modulus (GPa) = 24.44688 60.52926 42.48807
# Shear Modulus (GPa) = 22.20950 33.31178 27.76064
#
# Velocity S-wave (km/s) = 3.42799 4.19826 3.83253
# Velocity P-wave (km/s) = 5.34819 7.45163 6.48575
#
# Compressibility (1/GPa) = 0.04090501
#
# Stress axis : x y z
#
# Youngs Moduli (GPa) = 99.76118 26.53139 77.91010
#
# Poissons Ratio (x) = 0.08007 0.17794
# Poissons Ratio (y) = 0.30107 0.35222
# Poissons Ratio (z) = 0.22785 0.11995
#
# Static dielectric constant tensor:
#      x y z
#    x 4.112200 -0.434220 -0.478690 
#    y -0.434220 2.969980 -0.060010 
#    z -0.478690 -0.060010 3.709890 
# 
# 
# High freq. dielectric constant tensor:
#      x y z
#    x 1.752170 -0.043000 -0.018620 
#    y -0.043000 1.672880 -0.019590 
#    z -0.018620 -0.019590 1.755260 
# 
# From -- ./inp_files/344537.got.cif
#   From: 2010.06.25/outbox.cif.g09.slc.cpg/sg2_173_cif.got.tgz:344537.got - 2010.06.27 13:26:56.
