data_PCOD8018331
_publ_section_title
;
Structure prediction by ZEFSAII (Michael W. Deem and Ramdas Pophale) SiO2 
 PCOD8018331
Probable space group: P -1
;
_chemical_formula_sum "Si O2"
_cell_formula_units_Z 16
_cell_length_a 8.656353
_cell_length_b 15.346088
_cell_length_c 14.871227
_cell_angle_alpha 36.540127
_cell_angle_beta 98.430967
_cell_angle_gamma 125.071860
_cell_volume 734.383087
_symmetry_space_group_name_H-M "P -1"
_symmetry_group_IT_number 2
_symmetry_cell_setting 'triclinic'
loop_
_space_group_symop_operation_xyz
x,y,z
-x,-y,-z
loop_
_atom_site_type_symbol
_atom_site_label
_atom_site_fract_x
_atom_site_fract_y
_atom_site_fract_z
Si Si1 0.629067 0.227444 0.869848
Si Si2 0.681222 0.497855 0.495871
Si Si3 0.219844 0.948244 0.206721
Si Si4 0.455025 0.832867 0.389725
Si Si5 0.281313 0.281679 0.038951
Si Si6 0.579324 0.211912 0.365644
Si Si7 0.248129 0.224973 0.284514
Si Si8 0.958479 0.306823 0.961920
O O1 0.693399 0.401672 0.662656
O O2 0.879544 0.342562 0.837778
O O3 0.500000 0.000000 0.000000
O O4 0.440806 0.153899 0.988566
O O5 0.500000 0.500000 0.500000
O O6 0.592038 0.345412 0.526765
O O7 0.959128 0.759574 0.287743
O O8 0.257649 0.816011 0.363677
O O9 0.218194 0.071105 0.180885
O O10 0.448595 0.784383 0.532983
O O11 0.724992 0.093431 0.177754
O O12 0.188365 0.241281 0.166836
O O13 0.577302 0.531198 0.848921
O O14 0.118504 0.279396 0.968941
O O15 0.406503 0.194356 0.310260
O O16 0.863596 0.455428 0.162612
O O17 0.500000 0.000000 0.500000
O O18 0.000000 0.000000 0.500000
#
# Coordination Sequence:
#
# PCOD8018331 Si02
#       8
#     2   2   2   2   2   2   2   2
#     4  11  24  44  66  94 130 175 217 265 332 386
#     4  12  26  42  66  98 131 175 222 270 326 396
#     4  11  24  39  68  93 134 171 219 275 325 391
#     4  11  23  41  63  92 128 173 212 266 328 378
#     4  10  22  41  62  99 125 173 218 268 333 384
#     4  11  24  39  64  95 123 169 216 265 328 387
#     4  10  22  40  65  89 133 167 216 276 325 385
#     4  10  22  41  66  88 133 167 212 270 317 392
#
# _framework density 21.786992999999999
#
# number of rings (size 3 to 8) (size 9 to 14) (size 15 to 20)
#    0.000    1.250    2.500    3.375    1.750    6.000 
#    0.000    0.000    0.000    0.000    0.000    0.000 
#    0.000    0.000    0.000    0.000    0.000    0.000 
#
# Total GULP energy -198377.286092 kJ/mol
# GULP energy per Si atom -12398.580381 kJ/mol
# Density = 2.173741 g / cm^3
# Si number density = 21.786993 Si / 1000 Ang^3
#
#
#
# Elastic Constant Matrix: (Units=GPa)
#
#
# Indices 1 2 3 4 5 6 
#
# 1 121.1159 60.6840 36.4434 -22.8963 13.1478 5.8150
# 2 60.6840 98.2030 47.5312 -13.0498 1.2695 1.4431
# 3 36.4434 47.5312 110.2134 -24.3996 -2.9622 -0.4301
# 4 -22.8963 -13.0498 -24.3996 49.3055 0.7925 4.5748
# 5 13.1478 1.2695 -2.9622 0.7925 37.5919 -9.2229
# 6 5.8150 1.4431 -0.4301 4.5748 -9.2229 35.8928
#
#
#
# Elastic Compliance Matrix: (Units=1/GPa)
#
#
# Indices 1 2 3 4 5 6 
#
# 1 0.013912 -0.007626 -0.000443 0.004688 -0.005729 -0.004022
# 2 -0.007626 0.017135 -0.005190 -0.001720 0.002016 0.001222
# 3 -0.000443 -0.005190 0.012505 0.004573 0.001261 0.000172
# 4 0.004688 -0.001720 0.004573 0.024732 -0.002852 -0.004521
# 5 -0.005729 0.002016 0.001261 -0.002852 0.030948 0.009178
# 6 -0.004022 0.001222 0.000172 -0.004521 0.009178 0.031400
#
#
# Mechanical properties :
#
#
# Convention : Reuss Voigt Hill
#
# Bulk Modulus (GPa) = 58.70791 68.76103 63.73447
# Shear Modulus (GPa) = 30.70716 36.88297 33.79506
#
# Velocity S-wave (km/s) = 3.75831 4.11894 3.94275
# Velocity P-wave (km/s) = 6.77037 7.36546 7.07418
#
# Compressibility (1/GPa) = 0.01703348
#
# Stress axis : x y z
#
# Youngs Moduli (GPa) = 71.87893 58.36002 79.96852
#
# Poissons Ratio (x) = 0.44508 0.03543
# Poissons Ratio (y) = 0.54818 0.41503
# Poissons Ratio (z) = 0.03185 0.30288
#
# Static dielectric constant tensor:
#      x y z
#    x 3.942890 0.279700 0.182780 
#    y 0.279700 4.038410 -0.057700 
#    z 0.182780 -0.057700 3.609790 
# 
# 
# High freq. dielectric constant tensor:
#      x y z
#    x 1.853950 0.020760 0.004470 
#    y 0.020760 1.852990 -0.011760 
#    z 0.004470 -0.011760 1.874180 
# 
# From -- ./inp_files/505280.got.cif
#   From: 2010.06.25/outbox.cif.g09.slc.cpg/sg2_253_cif.got.tgz:505280.got - 2010.06.27 13:26:56.
