data_PCOD8018697
_publ_section_title
;
Structure prediction by ZEFSAII (Michael W. Deem and Ramdas Pophale) SiO2 
 PCOD8018697
Probable space group: P -1
;
_chemical_formula_sum "Si O2"
_cell_formula_units_Z 16
_cell_length_a 8.287216
_cell_length_b 16.367101
_cell_length_c 8.923955
_cell_angle_alpha 37.096542
_cell_angle_beta 90.521568
_cell_angle_gamma 98.721281
_cell_volume 708.827202
_symmetry_space_group_name_H-M "P -1"
_symmetry_group_IT_number 2
_symmetry_cell_setting 'triclinic'
loop_
_space_group_symop_operation_xyz
x,y,z
-x,-y,-z
loop_
_atom_site_type_symbol
_atom_site_label
_atom_site_fract_x
_atom_site_fract_y
_atom_site_fract_z
Si Si1 0.827142 0.798366 0.003769
Si Si2 0.691139 0.327788 0.409855
Si Si3 0.681118 0.755297 0.372220
Si Si4 0.693951 0.013720 0.479297
Si Si5 0.093050 0.780948 0.616866
Si Si6 0.055756 0.461018 0.717290
Si Si7 0.837642 0.530590 0.863539
Si Si8 0.871153 0.978459 0.243820
O O1 0.693571 0.732062 0.227886
O O2 0.882186 0.682643 0.071596
O O3 0.749133 0.896866 0.752423
O O4 0.989251 0.878483 0.983766
O O5 0.507194 0.259458 0.560056
O O6 0.781082 0.202730 0.549418
O O7 0.786120 0.416433 0.417500
O O8 0.701841 0.422978 0.119329
O O9 0.750604 0.643268 0.628249
O O10 0.783203 0.913370 0.184619
O O11 0.731651 0.998894 0.327875
O O12 0.500000 0.000000 0.500000
O O13 0.794486 0.167484 0.310559
O O14 0.991953 0.614901 0.850847
O O15 0.958625 0.868838 0.480805
O O16 0.000000 0.500000 0.500000
O O17 0.901046 0.450164 0.843967
#
# Coordination Sequence:
#
# PCOD8018697 Si02
#       8
#     2   2   2   2   2   2   2   2
#     4  11  24  44  69  93 135 174 217 267 328 394
#     4  11  24  39  68  94 138 172 216 276 318 387
#     4  11  23  45  60 101 135 172 215 273 334 380
#     4  11  24  43  66 101 128 168 220 281 325 376
#     4   9  19  39  65  93 125 163 224 266 313 382
#     4  11  23  44  67 100 129 173 221 264 325 394
#     4  10  22  40  69  95 129 178 223 261 322 395
#     4  10  23  41  72  92 123 173 227 267 316 394
#
# _framework density 22.572496999999998
#
# number of rings (size 3 to 8) (size 9 to 14) (size 15 to 20)
#    0.000    1.500    1.250    4.500    8.750    0.500 
#    4.500    3.125    0.000    0.000    0.000    0.000 
#    0.000    0.000    0.000    0.000    0.000    0.000 
#
# Total GULP energy -198313.350489 kJ/mol
# GULP energy per Si atom -12394.584406 kJ/mol
# Density = 2.252112 g / cm^3
# Si number density = 22.572497 Si / 1000 Ang^3
#
#
#
# Elastic Constant Matrix: (Units=GPa)
#
#
# Indices 1 2 3 4 5 6 
#
# 1 114.4750 28.0634 9.2187 -7.4433 -9.7724 -17.5341
# 2 28.0634 113.9917 5.4931 -14.1782 5.3957 -11.0985
# 3 9.2187 5.4931 46.8564 6.4737 5.7500 -4.5630
# 4 -7.4433 -14.1782 6.4737 39.4780 -5.7210 0.8494
# 5 -9.7724 5.3957 5.7500 -5.7210 28.9365 5.9071
# 6 -17.5341 -11.0985 -4.5630 0.8494 5.9071 38.4734
#
#
#
# Elastic Compliance Matrix: (Units=1/GPa)
#
#
# Indices 1 2 3 4 5 6 
#
# 1 0.010407 -0.002072 -0.002293 0.002123 0.004125 0.003193
# 2 -0.002072 0.009997 -0.000680 0.002934 -0.002287 0.002145
# 3 -0.002293 -0.000680 0.023794 -0.005662 -0.007065 0.002790
# 4 0.002123 0.002934 -0.005662 0.028754 0.007099 -0.000582
# 5 0.004125 -0.002287 -0.007065 0.007099 0.040406 -0.005978
# 6 0.003193 0.002145 0.002790 -0.000582 -0.005978 0.029328
#
#
# Mechanical properties :
#
#
# Convention : Reuss Voigt Hill
#
# Bulk Modulus (GPa) = 29.31874 40.09703 34.70789
# Shear Modulus (GPa) = 30.46064 36.88079 33.67071
#
# Velocity S-wave (km/s) = 3.67748 4.04652 3.86640
# Velocity P-wave (km/s) = 5.57214 6.29560 5.94489
#
# Compressibility (1/GPa) = 0.03410788
#
# Stress axis : x y z
#
# Youngs Moduli (GPa) = 96.08534 100.02549 42.02791
#
# Poissons Ratio (x) = 0.20725 0.09638
# Poissons Ratio (y) = 0.19908 0.02859
# Poissons Ratio (z) = 0.22034 0.06804
#
# Static dielectric constant tensor:
#      x y z
#    x 4.036020 -0.090710 0.011250 
#    y -0.090710 4.708140 -0.294820 
#    z 0.011250 -0.294820 3.956660 
# 
# 
# High freq. dielectric constant tensor:
#      x y z
#    x 1.887540 -0.017860 0.002500 
#    y -0.017860 1.911680 -0.006860 
#    z 0.002500 -0.006860 1.879860 
# 
# From -- ./inp_files/205250.got.cif
#   From: 2010.06.25/outbox.cif.g09.slc.cpg/sg2_103_cif.got.tgz:205250.got - 2010.06.27 13:26:56.
