data_PCOD8018271
_publ_section_title
;
Structure prediction by ZEFSAII (Michael W. Deem and Ramdas Pophale) SiO2 
 PCOD8018271
Probable space group: P -1
;
_chemical_formula_sum "Si O2"
_cell_formula_units_Z 16
_cell_length_a 6.371910
_cell_length_b 8.577435
_cell_length_c 14.079071
_cell_angle_alpha 119.672180
_cell_angle_beta 100.876000
_cell_angle_gamma 86.573088
_cell_volume 656.065942
_symmetry_space_group_name_H-M "P -1"
_symmetry_group_IT_number 2
_symmetry_cell_setting 'triclinic'
loop_
_space_group_symop_operation_xyz
x,y,z
-x,-y,-z
loop_
_atom_site_type_symbol
_atom_site_label
_atom_site_fract_x
_atom_site_fract_y
_atom_site_fract_z
Si Si1 0.756368 0.219697 0.077362
Si Si2 0.989878 0.288240 0.939567
Si Si3 0.787897 0.643084 0.641506
Si Si4 0.470162 0.349282 0.568243
Si Si5 0.633003 0.931379 0.125749
Si Si6 0.165316 0.881389 0.419804
Si Si7 0.861824 0.564625 0.295726
Si Si8 0.309885 0.977405 0.261677
O O1 0.757171 0.430368 0.168747
O O2 0.760380 0.097747 0.135059
O O3 0.549117 0.159198 0.982412
O O4 0.963126 0.210493 0.022301
O O5 0.201816 0.221879 0.888402
O O6 0.790695 0.211883 0.838153
O O7 0.000000 0.500000 0.000000
O O8 0.601909 0.537468 0.652993
O O9 0.703991 0.638250 0.525405
O O10 0.015016 0.552556 0.649015
O O11 0.809173 0.850582 0.739973
O O12 0.642503 0.193012 0.520514
O O13 0.328568 0.321166 0.641982
O O14 0.549254 0.990615 0.240909
O O15 0.288234 0.991202 0.378800
O O16 0.030903 0.711988 0.311078
O O17 0.000000 0.000000 0.500000
#
# Coordination Sequence:
#
# PCOD8018271 Si02
#       8
#     2   2   2   2   2   2   2   2
#     4  10  22  40  67  96 124 164 211 260 315 371
#     4  11  24  41  62  93 133 169 204 258 317 374
#     4  10  22  40  64  94 123 157 212 267 316 376
#     4  10  23  42  65  92 124 165 209 262 323 378
#     4  10  23  42  64  92 127 165 211 263 311 374
#     4  11  26  43  62  93 131 169 212 262 318 382
#     4  11  22  40  66  92 124 165 209 261 316 380
#     4  11  24  41  64  92 124 168 214 258 316 378
#
# _framework density 24.387792999999999
#
# number of rings (size 3 to 8) (size 9 to 14) (size 15 to 20)
#    0.000    1.500    0.000    3.750    0.000   14.000 
#    0.000    0.000    0.000    0.000    0.000    0.000 
#    0.000    0.000    0.000    0.000    0.000    0.000 
#
# Total GULP energy -198233.536299 kJ/mol
# GULP energy per Si atom -12389.596019 kJ/mol
# Density = 2.433229 g / cm^3
# Si number density = 24.387793 Si / 1000 Ang^3
#
#
#
# Elastic Constant Matrix: (Units=GPa)
#
#
# Indices 1 2 3 4 5 6 
#
# 1 100.7821 42.0081 39.5855 -2.0684 -38.2012 9.4757
# 2 42.0081 110.1279 29.1576 7.9954 -19.8252 18.5512
# 3 39.5855 29.1576 73.1830 3.2296 -19.6472 14.1991
# 4 -2.0684 7.9954 3.2296 42.5204 11.9136 -4.9878
# 5 -38.2012 -19.8252 -19.6472 11.9136 53.6471 5.2126
# 6 9.4757 18.5512 14.1991 -4.9878 5.2126 37.3256
#
#
#
# Elastic Compliance Matrix: (Units=1/GPa)
#
#
# Indices 1 2 3 4 5 6 
#
# 1 0.016944 -0.002901 -0.004836 -0.001297 0.009758 -0.002556
# 2 -0.002901 0.012457 -0.001034 -0.004154 0.003677 -0.006130
# 3 -0.004836 -0.001034 0.019458 -0.003656 0.004774 -0.006816
# 4 -0.001297 -0.004154 -0.003656 0.028687 -0.011059 0.009163
# 5 0.009758 0.003677 0.004774 -0.011059 0.032329 -0.012114
# 6 -0.002556 -0.006130 -0.006816 0.009163 -0.012114 0.035996
#
#
# Mechanical properties :
#
#
# Convention : Reuss Voigt Hill
#
# Bulk Modulus (GPa) = 31.93298 56.17727 44.05512
# Shear Modulus (GPa) = 28.76002 38.25472 33.50737
#
# Velocity S-wave (km/s) = 3.43779 3.96485 3.71069
# Velocity P-wave (km/s) = 5.37402 6.63665 6.03843
#
# Compressibility (1/GPa) = 0.03131559
#
# Stress axis : x y z
#
# Youngs Moduli (GPa) = 59.01804 80.27637 51.39335
#
# Poissons Ratio (x) = 0.23291 0.24855
# Poissons Ratio (y) = 0.17124 0.05313
# Poissons Ratio (z) = 0.28543 0.08299
#
# Static dielectric constant tensor:
#      x y z
#    x 4.461620 0.373780 -0.060600 
#    y 0.373780 4.514000 0.189980 
#    z -0.060600 0.189980 4.281780 
# 
# 
# High freq. dielectric constant tensor:
#      x y z
#    x 1.972640 0.020440 0.001390 
#    y 0.020440 1.967360 0.018550 
#    z 0.001390 0.018550 1.962910 
# 
# From -- ./inp_files/548418.got.cif
#   From: 2010.06.25/outbox.cif.g09.slc.cpg/sg2_275_cif.got.tgz:548418.got - 2010.06.27 13:26:56.
