data_PCOD8018406
_publ_section_title
;
Structure prediction by ZEFSAII (Michael W. Deem and Ramdas Pophale) SiO2 
 PCOD8018406
Probable space group: P -1
;
_chemical_formula_sum "Si O2"
_cell_formula_units_Z 16
_cell_length_a 17.160851
_cell_length_b 8.162110
_cell_length_c 19.562980
_cell_angle_alpha 44.043009
_cell_angle_beta 20.445763
_cell_angle_gamma 43.737496
_cell_volume 651.764953
_symmetry_space_group_name_H-M "P -1"
_symmetry_group_IT_number 2
_symmetry_cell_setting 'triclinic'
loop_
_space_group_symop_operation_xyz
x,y,z
-x,-y,-z
loop_
_atom_site_type_symbol
_atom_site_label
_atom_site_fract_x
_atom_site_fract_y
_atom_site_fract_z
Si Si1 0.633011 0.999233 0.692784
Si Si2 0.245897 0.274373 0.127405
Si Si3 0.123031 0.454918 0.314921
Si Si4 0.383384 0.986025 0.672836
Si Si5 0.333803 0.759148 0.544903
Si Si6 0.920878 0.264203 0.930223
Si Si7 0.880149 0.038368 0.883117
Si Si8 0.278040 0.792547 0.301096
O O1 0.689926 0.173414 0.535001
O O2 0.749226 0.092291 0.635797
O O3 0.755284 0.710500 0.671618
O O4 0.360835 0.033607 0.910850
O O5 0.286199 0.357222 0.146380
O O6 0.050184 0.467120 0.193723
O O7 0.196260 0.006600 0.247822
O O8 0.462530 0.314434 0.894842
O O9 0.104188 0.741987 0.248764
O O10 0.868845 0.410837 0.524222
O O11 0.554572 0.035980 0.574233
O O12 0.148491 0.180090 0.811435
O O13 0.500000 0.000000 0.500000
O O14 0.299723 0.741339 0.837421
O O15 0.500000 0.500000 0.500000
O O16 0.077450 0.802382 0.774379
O O17 0.906800 0.110789 0.918465
#
# Coordination Sequence:
#
# PCOD8018406 Si02
#       8
#     2   2   2   2   2   2   2   2
#     4  11  24  44  64  99 146 174 225 283 352 405
#     4   9  20  37  65  99 132 167 223 272 333 397
#     4  10  23  41  72 101 134 179 233 277 332 419
#     4  11  23  44  69  95 128 174 233 281 330 404
#     4  12  29  45  66  99 140 181 233 286 352 405
#     4  10  22  40  70  94 125 172 232 280 329 399
#     4  11  24  44  69 100 135 180 225 285 348 408
#     4  10  22  40  66 101 138 179 222 272 336 412
#
# _framework density 24.548728000000001
#
# number of rings (size 3 to 8) (size 9 to 14) (size 15 to 20)
#    0.000    1.500    2.500    1.875    1.750   10.000 
#    0.000    0.000    0.000    0.000    0.000    0.000 
#    0.000    0.000    0.000    0.000    0.000    0.000 
#
# Total GULP energy -198221.433158 kJ/mol
# GULP energy per Si atom -12388.839572 kJ/mol
# Density = 2.449285 g / cm^3
# Si number density = 24.548728 Si / 1000 Ang^3
#
#
#
# Elastic Constant Matrix: (Units=GPa)
#
#
# Indices 1 2 3 4 5 6 
#
# 1 60.1803 10.4245 24.0653 -10.2478 13.0287 -21.6673
# 2 10.4245 78.5444 3.9602 -8.4318 16.0508 -20.4230
# 3 24.0653 3.9602 115.0625 1.3863 10.8959 3.5416
# 4 -10.2478 -8.4318 1.3863 26.4468 -6.0282 5.0796
# 5 13.0287 16.0508 10.8959 -6.0282 43.3264 -3.5153
# 6 -21.6673 -20.4230 3.5416 5.0796 -3.5153 32.5874
#
#
#
# Elastic Compliance Matrix: (Units=1/GPa)
#
#
# Indices 1 2 3 4 5 6 
#
# 1 0.028065 0.003692 -0.006164 0.007269 -0.005631 0.019904
# 2 0.003692 0.016955 -0.001233 0.003292 -0.005642 0.012093
# 3 -0.006164 -0.001233 0.010332 -0.002473 -0.001097 -0.005727
# 4 0.007269 0.003292 -0.002473 0.042359 0.003184 0.000906
# 5 -0.005631 -0.005642 -0.001097 0.003184 0.027200 -0.004723
# 6 0.019904 0.012093 -0.005727 0.000906 -0.004723 0.051471
#
#
# Mechanical properties :
#
#
# Convention : Reuss Voigt Hill
#
# Bulk Modulus (GPa) = 20.85845 36.74303 28.80074
# Shear Modulus (GPa) = 25.02841 34.82794 29.92817
#
# Velocity S-wave (km/s) = 3.19649 3.77069 3.49540
# Velocity P-wave (km/s) = 4.70516 5.82729 5.29603
#
# Compressibility (1/GPa) = 0.04794221
#
# Stress axis : x y z
#
# Youngs Moduli (GPa) = 35.63154 58.98124 96.78205
#
# Poissons Ratio (x) = -0.21778 0.59655
# Poissons Ratio (y) = -0.13156 0.11937
# Poissons Ratio (z) = 0.21963 0.07275
#
# Static dielectric constant tensor:
#      x y z
#    x 4.353010 -0.308570 0.216280 
#    y -0.308570 4.504770 -0.007620 
#    z 0.216280 -0.007620 4.657430 
# 
# 
# High freq. dielectric constant tensor:
#      x y z
#    x 1.962800 -0.027870 0.008200 
#    y -0.027870 1.967010 0.004210 
#    z 0.008200 0.004210 1.991710 
# 
# From -- ./inp_files/599696.got.cif
#   From: 2010.06.25/outbox.cif.g09.slc.cpg/sg2_300_cif.got.tgz:599696.got - 2010.06.27 13:26:56.
