data_PCOD8018795
_publ_section_title
;
Structure prediction by ZEFSAII (Michael W. Deem and Ramdas Pophale) SiO2 
 PCOD8018795
Probable space group: P -1
;
_chemical_formula_sum "Si O2"
_cell_formula_units_Z 16
_cell_length_a 8.687576
_cell_length_b 9.248542
_cell_length_c 12.880515
_cell_angle_alpha 101.361875
_cell_angle_beta 50.607831
_cell_angle_gamma 102.343753
_cell_volume 778.731786
_symmetry_space_group_name_H-M "P -1"
_symmetry_group_IT_number 2
_symmetry_cell_setting 'triclinic'
loop_
_space_group_symop_operation_xyz
x,y,z
-x,-y,-z
loop_
_atom_site_type_symbol
_atom_site_label
_atom_site_fract_x
_atom_site_fract_y
_atom_site_fract_z
Si Si1 0.068383 0.760006 0.264984
Si Si2 0.375435 0.752625 0.558116
Si Si3 0.170600 0.451685 0.495504
Si Si4 0.484428 0.739743 0.741306
Si Si5 0.754549 0.941384 0.353613
Si Si6 0.820547 0.885776 0.092302
Si Si7 0.466947 0.955190 0.128426
Si Si8 0.911765 0.345108 0.981217
O O1 0.289539 0.826576 0.213267
O O2 0.945342 0.663077 0.391036
O O3 0.971845 0.908022 0.292542
O O4 0.082293 0.657357 0.145295
O O5 0.286799 0.598433 0.520746
O O6 0.361508 0.732812 0.685036
O O7 0.609533 0.802833 0.443729
O O8 0.268962 0.890723 0.576551
O O9 0.337441 0.367263 0.352110
O O10 0.000000 0.500000 0.500000
O O11 0.318185 0.691973 0.892365
O O12 0.571697 0.905820 0.761955
O O13 0.715397 0.939705 0.247647
O O14 0.661303 0.877305 0.066479
O O15 0.920332 0.739676 0.048996
O O16 0.000000 0.000000 0.000000
O O17 0.500000 0.000000 0.000000
O O18 0.000000 0.500000 0.000000
#
# Coordination Sequence:
#
# PCOD8018795 Si02
#       8
#     2   2   2   2   2   2   2   2
#     4  11  25  45  69 104 139 184 226 288 351 406
#     4  11  23  44  70  99 136 180 237 280 338 415
#     4  12  30  46  66 103 149 183 225 288 355 413
#     4  12  24  46  70 101 135 190 225 280 350 406
#     4  10  22  40  72 101 126 182 237 281 336 404
#     4  11  21  42  68 103 131 177 232 280 337 408
#     4  12  24  44  72 107 144 173 231 296 343 410
#     4  11  24  43  72 102 134 178 236 282 340 412
#
# _framework density 20.546226000000001
#
# number of rings (size 3 to 8) (size 9 to 14) (size 15 to 20)
#    0.000    0.750    5.000    1.875    7.000    0.500 
#    2.250    1.250    0.000    0.000    0.000    0.000 
#    0.000    0.000    0.000    0.000    0.000    0.000 
#
# Total GULP energy -198263.888998 kJ/mol
# GULP energy per Si atom -12391.493062 kJ/mol
# Density = 2.049946 g / cm^3
# Si number density = 20.546226 Si / 1000 Ang^3
#
#
#
# Elastic Constant Matrix: (Units=GPa)
#
#
# Indices 1 2 3 4 5 6 
#
# 1 125.1953 38.4384 30.1799 17.0355 -4.1045 -3.9125
# 2 38.4384 111.2180 23.9740 24.0243 -1.0043 15.0728
# 3 30.1799 23.9740 96.8241 11.4972 -4.4220 -9.5060
# 4 17.0355 24.0243 11.4972 34.0821 -0.3644 2.6024
# 5 -4.1045 -1.0043 -4.4220 -0.3644 33.4849 -3.4085
# 6 -3.9125 15.0728 -9.5060 2.6024 -3.4085 31.5275
#
#
#
# Elastic Compliance Matrix: (Units=1/GPa)
#
#
# Indices 1 2 3 4 5 6 
#
# 1 0.009701 -0.002734 -0.001777 -0.002486 0.001079 0.002297
# 2 -0.002734 0.012676 -0.002236 -0.006317 -0.000997 -0.006660
# 3 -0.001777 -0.002236 0.012239 -0.002019 0.001808 0.004901
# 4 -0.002486 -0.006317 -0.002019 0.035781 -0.000463 -0.000901
# 5 0.001079 -0.000997 0.001808 -0.000463 0.030659 0.004509
# 6 0.002297 -0.006660 0.004901 -0.000901 0.004509 0.037227
#
#
# Mechanical properties :
#
#
# Convention : Reuss Voigt Hill
#
# Bulk Modulus (GPa) = 47.34283 57.60244 52.47263
# Shear Modulus (GPa) = 31.48256 35.86191 33.67223
#
# Velocity S-wave (km/s) = 3.91868 4.18236 4.05267
# Velocity P-wave (km/s) = 6.60052 7.17072 6.89152
#
# Compressibility (1/GPa) = 0.02112252
#
# Stress axis : x y z
#
# Youngs Moduli (GPa) = 103.08465 78.88658 81.70656
#
# Poissons Ratio (x) = 0.21570 0.14516
# Poissons Ratio (y) = 0.28187 0.18268
# Poissons Ratio (z) = 0.18315 0.17637
#
# Static dielectric constant tensor:
#      x y z
#    x 3.634380 0.035350 -0.080330 
#    y 0.035350 3.637470 0.073590 
#    z -0.080330 0.073590 3.790670 
# 
# 
# High freq. dielectric constant tensor:
#      x y z
#    x 1.806310 -0.003850 -0.006360 
#    y -0.003850 1.810840 -0.003500 
#    z -0.006360 -0.003500 1.816740 
# 
# From -- ./inp_files/216356.got.cif
#   From: 2010.06.25/outbox.cif.g09.slc.cpg/sg2_109_cif.got.tgz:216356.got - 2010.06.27 13:26:56.
