data_PCOD8018186
_publ_section_title
;
Structure prediction by ZEFSAII (Michael W. Deem and Ramdas Pophale) SiO2 
 PCOD8018186
Probable space group: P -1
;
_chemical_formula_sum "Si O2"
_cell_formula_units_Z 14
_cell_length_a 11.629147
_cell_length_b 11.716583
_cell_length_c 13.143496
_cell_angle_alpha 49.430393
_cell_angle_beta 47.299838
_cell_angle_gamma 89.241333
_cell_volume 642.260480
_symmetry_space_group_name_H-M "P -1"
_symmetry_group_IT_number 2
_symmetry_cell_setting 'triclinic'
loop_
_space_group_symop_operation_xyz
x,y,z
-x,-y,-z
loop_
_atom_site_type_symbol
_atom_site_label
_atom_site_fract_x
_atom_site_fract_y
_atom_site_fract_z
Si Si1 0.343431 0.251608 0.786181
Si Si2 0.703793 0.253238 0.085921
Si Si3 0.150120 0.176067 0.167402
Si Si4 0.371734 0.250165 0.194571
Si Si5 0.803670 0.470512 0.318606
Si Si6 0.370212 0.644868 0.730033
Si Si7 0.834543 0.025181 0.131384
O O1 0.500000 0.500000 0.500000
O O2 0.122281 0.033533 0.968574
O O3 0.550520 0.272173 0.646800
O O4 0.244993 0.193740 0.991100
O O5 0.567583 0.261102 0.084521
O O6 0.613732 0.211166 0.280412
O O7 0.664550 0.050161 0.196904
O O8 0.000180 0.497611 0.766728
O O9 0.278460 0.171249 0.180482
O O10 0.228338 0.404391 0.008923
O O11 0.858486 0.943874 0.480172
O O12 0.500000 0.500000 0.000000
O O13 0.777952 0.415566 0.246790
O O14 0.915777 0.730541 0.106863
O O15 0.646898 0.793510 0.449512
#
# Coordination Sequence:
#
# PCOD8018186 Si02
#       7
#     2   2   2   2   2   2   2
#     4  11  21  43  63  96 136 164 212 259 325 396
#     4  10  22  40  63  92 135 165 220 261 314 391
#     4  11  25  41  68  96 124 171 217 267 315 379
#     4  11  25  47  65  92 124 176 224 263 312 369
#     4   9  22  36  61  98 128 166 200 261 334 369
#     4  11  19  38  64  98 132 162 206 275 326 376
#     4   9  22  37  60 101 128 169 201 263 333 376
#
# _framework density 21.798010999999999
#
# number of rings (size 3 to 8) (size 9 to 14) (size 15 to 20)
#    0.857    0.857    4.286    0.857    2.000    4.000 
#    0.000    1.429    0.000    0.000    0.000    0.000 
#    0.000    0.000    0.000    0.000    0.000    0.000 
#
# Total GULP energy -173464.092441 kJ/mol
# GULP energy per Si atom -12390.292317 kJ/mol
# Density = 2.174840 g / cm^3
# Si number density = 21.798011 Si / 1000 Ang^3
#
#
#
# Elastic Constant Matrix: (Units=GPa)
#
#
# Indices 1 2 3 4 5 6 
#
# 1 113.4135 16.7995 39.8615 5.1558 -15.1524 20.9115
# 2 16.7995 100.6197 16.3704 11.4081 11.5942 17.0281
# 3 39.8615 16.3704 123.7852 0.4319 -3.6940 14.6685
# 4 5.1558 11.4081 0.4319 40.1400 5.9930 4.0146
# 5 -15.1524 11.5942 -3.6940 5.9930 32.0268 -8.2986
# 6 20.9115 17.0281 14.6685 4.0146 -8.2986 25.9193
#
#
#
# Elastic Compliance Matrix: (Units=1/GPa)
#
#
# Indices 1 2 3 4 5 6 
#
# 1 0.011604 -0.000871 -0.002823 -0.001286 0.004262 -0.005629
# 2 -0.000871 0.012782 -0.000494 -0.001476 -0.007287 -0.009520
# 3 -0.002823 -0.000494 0.009396 0.000880 -0.001065 -0.003193
# 4 -0.001286 -0.001476 0.000880 0.026878 -0.006205 -0.004641
# 5 0.004262 -0.007287 -0.001065 -0.006205 0.041079 0.016065
# 6 -0.005629 -0.009520 -0.003193 -0.004641 0.016065 0.057046
#
#
# Mechanical properties :
#
#
# Convention : Reuss Voigt Hill
#
# Bulk Modulus (GPa) = 39.35969 53.76458 46.56214
# Shear Modulus (GPa) = 28.46873 37.26969 32.86921
#
# Velocity S-wave (km/s) = 3.61782 4.13943 3.88738
# Velocity P-wave (km/s) = 5.96215 6.89673 6.44640
#
# Compressibility (1/GPa) = 0.02540670
#
# Stress axis : x y z
#
# Youngs Moduli (GPa) = 86.17582 78.23367 106.42359
#
# Poissons Ratio (x) = 0.06813 0.30043
# Poissons Ratio (y) = 0.07505 0.05260
# Poissons Ratio (z) = 0.24327 0.03866
#
# Static dielectric constant tensor:
#      x y z
#    x 4.006840 -0.103950 -0.704790 
#    y -0.103950 4.097870 0.080750 
#    z -0.704790 0.080750 4.797700 
# 
# 
# High freq. dielectric constant tensor:
#      x y z
#    x 1.838190 0.005040 -0.043110 
#    y 0.005040 1.871120 -0.005290 
#    z -0.043110 -0.005290 1.858040 
# 
# From -- ./inp_files/427725.got.cif
#   From: 2010.06.25/outbox.cif.g09.slc.cpg/sg2_214_cif.got.tgz:427725.got - 2010.06.27 13:26:56.
