data_PCOD8018602
_publ_section_title
;
Structure prediction by ZEFSAII (Michael W. Deem and Ramdas Pophale) SiO2 
 PCOD8018602
Probable space group: P -1
;
_chemical_formula_sum "Si O2"
_cell_formula_units_Z 14
_cell_length_a 7.592786
_cell_length_b 10.390282
_cell_length_c 11.270098
_cell_angle_alpha 127.799011
_cell_angle_beta 55.636267
_cell_angle_gamma 114.165344
_cell_volume 577.182270
_symmetry_space_group_name_H-M "P -1"
_symmetry_group_IT_number 2
_symmetry_cell_setting 'triclinic'
loop_
_space_group_symop_operation_xyz
x,y,z
-x,-y,-z
loop_
_atom_site_type_symbol
_atom_site_label
_atom_site_fract_x
_atom_site_fract_y
_atom_site_fract_z
Si Si1 0.968393 0.656097 0.523997
Si Si2 0.636330 0.375810 0.948337
Si Si3 0.900061 0.533507 0.214288
Si Si4 0.090597 0.821551 0.973131
Si Si5 0.316161 0.861025 0.394849
Si Si6 0.255078 0.176897 0.099658
Si Si7 0.234387 0.177409 0.701573
O O1 0.803241 0.764446 0.713755
O O2 0.000000 0.500000 0.500000
O O3 0.901458 0.604325 0.387065
O O4 0.195736 0.767152 0.498023
O O5 0.866787 0.474208 0.948801
O O6 0.744017 0.234046 0.755808
O O7 0.500000 0.500000 0.000000
O O8 0.486148 0.278363 0.047127
O O9 0.793159 0.345281 0.149971
O O10 0.744581 0.641304 0.260002
O O11 0.922940 0.782915 0.906782
O O12 0.975634 0.861177 0.161595
O O13 0.264275 0.979076 0.975546
O O14 0.568910 0.850494 0.303524
O O15 0.243553 0.043891 0.517106
#
# Coordination Sequence:
#
# PCOD8018602 Si02
#       7
#     2   2   2   2   2   2   2
#     4  11  21  40  65  95 126 173 207 267 319 390
#     4  11  20  40  65  97 120 175 215 260 310 395
#     4  11  24  40  70  93 133 162 224 269 315 369
#     4  11  21  38  65  99 124 171 209 273 309 384
#     4  10  22  40  68  89 122 171 223 250 323 392
#     4  11  21  38  68  91 133 164 222 247 330 382
#     4  11  22  41  66  96 123 170 217 272 313 382
#
# _framework density 24.255773000000001
#
# number of rings (size 3 to 8) (size 9 to 14) (size 15 to 20)
#    0.000    1.143    5.714    1.286    0.000    2.286 
#    0.000    1.429    6.286    0.000    0.000    0.000 
#    0.000    0.000    0.000    0.000    0.000    0.000 
#
# Total GULP energy -173461.376839 kJ/mol
# GULP energy per Si atom -12390.098346 kJ/mol
# Density = 2.420057 g / cm^3
# Si number density = 24.255773 Si / 1000 Ang^3
#
#
#
# Elastic Constant Matrix: (Units=GPa)
#
#
# Indices 1 2 3 4 5 6 
#
# 1 42.9046 16.8941 19.6240 5.4717 -1.6732 2.5613
# 2 16.8941 151.9438 50.8532 22.3382 -9.7416 5.1786
# 3 19.6240 50.8532 134.3646 9.2520 0.6305 5.9954
# 4 5.4717 22.3382 9.2520 51.8512 1.4208 -8.3069
# 5 -1.6732 -9.7416 0.6305 1.4208 16.6335 5.4621
# 6 2.5613 5.1786 5.9954 -8.3069 5.4621 33.5731
#
#
#
# Elastic Compliance Matrix: (Units=1/GPa)
#
#
# Indices 1 2 3 4 5 6 
#
# 1 0.025707 -0.001282 -0.003044 -0.002046 0.002844 -0.002189
# 2 -0.001282 0.008685 -0.002753 -0.003717 0.006262 -0.002689
# 3 -0.003044 -0.002753 0.008978 -0.000143 -0.002033 -0.000651
# 4 -0.002046 -0.003717 -0.000143 0.022502 -0.006736 0.007418
# 5 0.002844 0.006262 -0.002033 -0.006736 0.069241 -0.013752
# 6 -0.002189 -0.002689 -0.000651 0.007418 -0.013752 0.034557
#
#
# Mechanical properties :
#
#
# Convention : Reuss Voigt Hill
#
# Bulk Modulus (GPa) = 34.23338 55.99505 45.11422
# Shear Modulus (GPa) = 25.83111 36.53435 31.18273
#
# Velocity S-wave (km/s) = 3.26689 3.88521 3.58939
# Velocity P-wave (km/s) = 5.32675 6.57737 5.98482
#
# Compressibility (1/GPa) = 0.02921125
#
# Stress axis : x y z
#
# Youngs Moduli (GPa) = 38.89979 115.14045 111.38939
#
# Poissons Ratio (x) = 0.14757 0.33910
# Poissons Ratio (y) = 0.04986 0.30669
# Poissons Ratio (z) = 0.11842 0.31701
#
# Static dielectric constant tensor:
#      x y z
#    x 4.208890 0.281560 0.315850 
#    y 0.281560 4.813600 0.145070 
#    z 0.315850 0.145070 4.790960 
# 
# 
# High freq. dielectric constant tensor:
#      x y z
#    x 1.930400 0.011880 0.016600 
#    y 0.011880 1.977100 0.015860 
#    z 0.016600 0.015860 1.977500 
# 
# From -- ./inp_files/196582.got.cif
#   From: 2010.06.25/outbox.cif.g09.slc.cpg/sg2_99_cif.got.tgz:196582.got - 2010.06.27 13:26:56.
