data_PCOD8018508
_publ_section_title
;
Structure prediction by ZEFSAII (Michael W. Deem and Ramdas Pophale) SiO2 
 PCOD8018508
Probable space group: P -1
;
_chemical_formula_sum "Si O2"
_cell_formula_units_Z 16
_cell_length_a 17.790944
_cell_length_b 8.608948
_cell_length_c 13.097298
_cell_angle_alpha 120.385847
_cell_angle_beta 152.299990
_cell_angle_gamma 49.738263
_cell_volume 698.995695
_symmetry_space_group_name_H-M "P -1"
_symmetry_group_IT_number 2
_symmetry_cell_setting 'triclinic'
loop_
_space_group_symop_operation_xyz
x,y,z
-x,-y,-z
loop_
_atom_site_type_symbol
_atom_site_label
_atom_site_fract_x
_atom_site_fract_y
_atom_site_fract_z
Si Si1 0.898229 0.900067 0.906414
Si Si2 0.643943 0.909343 0.440213
Si Si3 0.227535 0.495855 0.644558
Si Si4 0.883835 0.886716 0.315152
Si Si5 0.239831 0.094317 0.051500
Si Si6 0.242526 0.498133 0.208745
Si Si7 0.444238 0.676809 0.631440
Si Si8 0.555269 0.292931 0.122012
O O1 0.706409 0.952443 0.638917
O O2 0.852996 0.979935 0.996928
O O3 0.029200 0.653603 0.978506
O O4 0.000000 0.000000 0.000000
O O5 0.785439 0.682597 0.493180
O O6 0.447288 0.912895 0.214939
O O7 0.636156 0.083624 0.413457
O O8 0.329210 0.599465 0.740811
O O9 0.008168 0.670604 0.455762
O O10 0.349531 0.392180 0.858193
O O11 0.676862 0.041833 0.163113
O O12 0.876410 0.835758 0.169656
O O13 0.000000 0.000000 0.500000
O O14 0.259885 0.280950 0.188414
O O15 0.299657 0.597561 0.404047
O O16 0.365032 0.471600 0.247302
O O17 0.487662 0.655888 0.795001
#
# Coordination Sequence:
#
# PCOD8018508 Si02
#       8
#     2   2   2   2   2   2   2   2
#     4  12  25  40  65 104 137 171 229 284 337 404
#     4  11  23  44  65 102 142 176 230 279 347 408
#     4  10  22  40  67 101 130 180 238 277 332 422
#     4  10  22  42  67 101 136 175 236 276 339 409
#     4  11  24  43  71  95 138 188 220 282 342 411
#     4  10  23  44  63  99 130 184 232 269 348 411
#     4  10  23  43  68  93 144 181 215 296 349 389
#     4  10  22  43  67  99 138 179 226 286 346 394
#
# _framework density 22.889983999999998
#
# number of rings (size 3 to 8) (size 9 to 14) (size 15 to 20)
#    0.000    1.500    2.500    1.500    5.250    1.500 
#    2.250    0.625    0.000    0.000    0.000    0.000 
#    0.000    0.000    0.000    0.000    0.000    0.000 
#
# Total GULP energy -198325.653039 kJ/mol
# GULP energy per Si atom -12395.353315 kJ/mol
# Density = 2.283789 g / cm^3
# Si number density = 22.889984 Si / 1000 Ang^3
#
#
#
# Elastic Constant Matrix: (Units=GPa)
#
#
# Indices 1 2 3 4 5 6 
#
# 1 92.9084 25.1622 51.4660 -2.5155 -24.1275 -9.9402
# 2 25.1622 111.2778 45.1311 -11.2797 -8.7633 -19.1051
# 3 51.4660 45.1311 140.4023 -19.3872 -20.0551 -11.6320
# 4 -2.5155 -11.2797 -19.3872 43.8844 1.1982 2.4661
# 5 -24.1275 -8.7633 -20.0551 1.1982 32.7081 6.4823
# 6 -9.9402 -19.1051 -11.6320 2.4661 6.4823 18.9515
#
#
#
# Elastic Compliance Matrix: (Units=1/GPa)
#
#
# Indices 1 2 3 4 5 6 
#
# 1 0.015769 -0.000974 -0.004327 -0.001598 0.008386 0.001973
# 2 -0.000974 0.012094 -0.002666 0.001330 -0.001199 0.010282
# 3 -0.004327 -0.002666 0.010405 0.003591 0.002308 0.000172
# 4 -0.001598 0.001330 0.003591 0.024647 0.000618 -0.000712
# 5 0.008386 -0.001199 0.002308 0.000618 0.039620 -0.009026
# 6 0.001973 0.010282 0.000172 -0.000712 -0.009026 0.067452
#
#
# Mechanical properties :
#
#
# Convention : Reuss Voigt Hill
#
# Bulk Modulus (GPa) = 44.77320 65.34525 55.05922
# Shear Modulus (GPa) = 25.85775 33.96407 29.91091
#
# Velocity S-wave (km/s) = 3.36468 3.85619 3.61879
# Velocity P-wave (km/s) = 5.89045 6.95963 6.44724
#
# Compressibility (1/GPa) = 0.02233479
#
# Stress axis : x y z
#
# Youngs Moduli (GPa) = 63.41382 82.68776 96.10481
#
# Poissons Ratio (x) = 0.08051 0.41582
# Poissons Ratio (y) = 0.06175 0.25625
# Poissons Ratio (z) = 0.27437 0.22048
#
# Static dielectric constant tensor:
#      x y z
#    x 3.870420 -0.182660 0.112840 
#    y -0.182660 4.497150 -0.310320 
#    z 0.112840 -0.310320 4.324520 
# 
# 
# High freq. dielectric constant tensor:
#      x y z
#    x 1.878680 -0.008070 -0.002840 
#    y -0.008070 1.909840 -0.007300 
#    z -0.002840 -0.007300 1.914460 
# 
# From -- ./inp_files/462373.got.cif
#   From: 2010.06.25/outbox.cif.g09.slc.cpg/sg2_232_cif.got.tgz:462373.got - 2010.06.27 13:26:56.
