data_PCOD8018108
_publ_section_title
;
Structure prediction by ZEFSAII (Michael W. Deem and Ramdas Pophale) SiO2 
 PCOD8018108
Probable space group: P -1
;
_chemical_formula_sum "Si O2"
_cell_formula_units_Z 16
_cell_length_a 10.865370
_cell_length_b 9.395203
_cell_length_c 14.396097
_cell_angle_alpha 122.317966
_cell_angle_beta 140.486025
_cell_angle_gamma 58.614471
_cell_volume 773.994723
_symmetry_space_group_name_H-M "P -1"
_symmetry_group_IT_number 2
_symmetry_cell_setting 'triclinic'
loop_
_space_group_symop_operation_xyz
x,y,z
-x,-y,-z
loop_
_atom_site_type_symbol
_atom_site_label
_atom_site_fract_x
_atom_site_fract_y
_atom_site_fract_z
Si Si1 0.904889 0.242415 0.735300
Si Si2 0.559189 0.921017 0.791050
Si Si3 0.994256 0.863166 0.049977
Si Si4 0.681967 0.582222 0.656549
Si Si5 0.055423 0.219016 0.209352
Si Si6 0.621809 0.987319 0.473253
Si Si7 0.998290 0.305434 0.402826
Si Si8 0.850528 0.033920 0.337714
O O1 0.867757 0.432124 0.737362
O O2 0.718119 0.154987 0.577393
O O3 0.094502 0.122067 0.757024
O O4 0.945444 0.267894 0.876642
O O5 0.764700 0.968315 0.961479
O O6 0.614724 0.712705 0.747301
O O7 0.373440 0.971662 0.768338
O O8 0.511796 0.012454 0.695696
O O9 0.043296 0.759492 0.944611
O O10 0.121259 0.012674 0.190086
O O11 0.500000 0.500000 0.500000
O O12 0.751542 0.692658 0.651058
O O13 0.924237 0.302796 0.250500
O O14 0.782302 0.809886 0.505955
O O15 0.500000 0.000000 0.500000
O O16 0.000000 0.500000 0.500000
O O17 0.860454 0.218082 0.360451
O O18 0.000000 0.000000 0.500000
#
# Coordination Sequence:
#
# PCOD8018108 Si02
#       8
#     2   2   2   2   2   2   2   2
#     4  11  23  38  66  92 127 168 211 260 328 379
#     4  11  23  37  65  91 127 169 215 264 315 381
#     4  10  22  43  64  91 126 179 215 255 319 396
#     4  11  22  37  65  98 125 159 218 276 312 358
#     4  10  22  40  62  91 129 168 209 264 319 379
#     4  11  21  38  61  98 122 163 221 266 313 370
#     4  11  24  38  67  95 126 167 212 266 333 368
#     4  11  21  42  61  92 128 168 211 260 327 380
#
# _framework density 20.671976999999998
#
# number of rings (size 3 to 8) (size 9 to 14) (size 15 to 20)
#    0.000    1.250    6.250    1.500    5.250    2.500 
#    0.000    0.000    2.750    1.500    0.000    0.000 
#    0.000    0.000    0.000    0.000    0.000    0.000 
#
# Total GULP energy -198227.833675 kJ/mol
# GULP energy per Si atom -12389.239605 kJ/mol
# Density = 2.062493 g / cm^3
# Si number density = 20.671977 Si / 1000 Ang^3
#
#
#
# Elastic Constant Matrix: (Units=GPa)
#
#
# Indices 1 2 3 4 5 6 
#
# 1 124.8989 44.5887 28.5980 4.7071 -5.2975 17.8840
# 2 44.5887 117.1153 28.8728 9.2959 -0.6869 2.4376
# 3 28.5980 28.8728 69.5449 1.4330 -11.2800 12.7028
# 4 4.7071 9.2959 1.4330 29.6884 -2.4141 -2.5485
# 5 -5.2975 -0.6869 -11.2800 -2.4141 41.0652 1.9102
# 6 17.8840 2.4376 12.7028 -2.5485 1.9102 30.3372
#
#
#
# Elastic Compliance Matrix: (Units=1/GPa)
#
#
# Indices 1 2 3 4 5 6 
#
# 1 0.010439 -0.003356 -0.001753 -0.000892 0.001003 -0.005289
# 2 -0.003356 0.010901 -0.003819 -0.002603 -0.001573 0.002582
# 3 -0.001753 -0.003819 0.018765 0.000406 0.005205 -0.006811
# 4 -0.000892 -0.002603 0.000406 0.035062 0.001856 0.003394
# 5 0.001003 -0.001573 0.005205 0.001856 0.026186 -0.004137
# 6 -0.005289 0.002582 -0.006811 0.003394 -0.004137 0.039271
#
#
# Mechanical properties :
#
#
# Convention : Reuss Voigt Hill
#
# Bulk Modulus (GPa) = 44.94078 57.29756 51.11917
# Shear Modulus (GPa) = 30.13930 34.18480 32.16205
#
# Velocity S-wave (km/s) = 3.82249 4.07096 3.94868
# Velocity P-wave (km/s) = 6.42410 7.06219 6.75069
#
# Compressibility (1/GPa) = 0.02225150
#
# Stress axis : x y z
#
# Youngs Moduli (GPa) = 95.79361 91.73188 53.28950
#
# Poissons Ratio (x) = 0.30781 0.09339
# Poissons Ratio (y) = 0.32144 0.20351
# Poissons Ratio (z) = 0.16789 0.35033
#
# Static dielectric constant tensor:
#      x y z
#    x 3.822240 -0.047850 -0.333730 
#    y -0.047850 3.586320 -0.342740 
#    z -0.333730 -0.342740 3.372740 
# 
# 
# High freq. dielectric constant tensor:
#      x y z
#    x 1.814590 0.019600 -0.006470 
#    y 0.019600 1.796860 0.001680 
#    z -0.006470 0.001680 1.798460 
# 
# From -- ./inp_files/390920.got.cif
#   From: 2010.06.25/outbox.cif.g09.slc.cpg/sg2_196_cif.got.tgz:390920.got - 2010.06.27 13:26:56.
