data_PCOD8018974
_publ_section_title
;
Structure prediction by ZEFSAII (Michael W. Deem and Ramdas Pophale) SiO2 
 PCOD8018974
Probable space group: P -1
;
_chemical_formula_sum "Si O2"
_cell_formula_units_Z 16
_cell_length_a 8.734285
_cell_length_b 13.604832
_cell_length_c 11.439525
_cell_angle_alpha 35.255711
_cell_angle_beta 90.060514
_cell_angle_gamma 78.803282
_cell_volume 738.498178
_symmetry_space_group_name_H-M "P -1"
_symmetry_group_IT_number 2
_symmetry_cell_setting 'triclinic'
loop_
_space_group_symop_operation_xyz
x,y,z
-x,-y,-z
loop_
_atom_site_type_symbol
_atom_site_label
_atom_site_fract_x
_atom_site_fract_y
_atom_site_fract_z
Si Si1 0.085941 0.823340 0.921642
Si Si2 0.755695 0.936267 0.931637
Si Si3 0.457890 0.193694 0.556196
Si Si4 0.716070 0.266099 0.762003
Si Si5 0.948511 0.328246 0.164089
Si Si6 0.352102 0.340891 0.659306
Si Si7 0.763161 0.967262 0.432629
Si Si8 0.377075 0.676287 0.767925
O O1 0.125137 0.679447 0.956585
O O2 0.895853 0.872053 0.898900
O O3 0.136309 0.992315 0.714988
O O4 0.193040 0.733989 0.118205
O O5 0.584500 0.014411 0.788856
O O6 0.801653 0.085930 0.862439
O O7 0.753593 0.768248 0.175587
O O8 0.355243 0.315996 0.542625
O O9 0.343981 0.144029 0.510839
O O10 0.554551 0.302981 0.380007
O O11 0.533213 0.269975 0.781657
O O12 0.722215 0.444858 0.520196
O O13 0.798120 0.347109 0.232999
O O14 0.104060 0.151512 0.360290
O O15 0.000000 0.500000 0.000000
O O16 0.646831 0.145650 0.325142
O O17 0.500000 0.500000 0.000000
#
# Coordination Sequence:
#
# PCOD8018974 Si02
#       8
#     2   2   2   2   2   2   2   2
#     4  11  23  41  67  89 130 174 210 265 340 381
#     4  11  22  43  63  99 129 172 220 268 325 398
#     4  11  22  40  68  93 128 172 214 264 336 382
#     4  10  22  41  63  92 129 167 218 272 325 388
#     4  11  25  45  62  98 136 171 221 274 324 400
#     4  10  23  41  64  95 133 163 223 272 320 396
#     4  11  23  42  68  92 135 174 215 274 330 393
#     4  11  24  41  66  98 129 170 227 271 322 400
#
# _framework density 21.665592
#
# number of rings (size 3 to 8) (size 9 to 14) (size 15 to 20)
#    0.000    1.250    0.000    7.500    5.250    1.500 
#   11.250    0.000    0.000    0.000    0.000    0.000 
#    0.000    0.000    0.000    0.000    0.000    0.000 
#
# Total GULP energy -198415.030187 kJ/mol
# GULP energy per Si atom -12400.939387 kJ/mol
# Density = 2.161628 g / cm^3
# Si number density = 21.665592 Si / 1000 Ang^3
#
#
#
# Elastic Constant Matrix: (Units=GPa)
#
#
# Indices 1 2 3 4 5 6 
#
# 1 93.3009 38.1502 33.8388 -0.5956 -15.7602 6.8758
# 2 38.1502 46.3865 29.9444 -1.4138 -8.6964 2.5576
# 3 33.8388 29.9444 107.5531 -7.0997 -13.9461 -6.1440
# 4 -0.5956 -1.4138 -7.0997 36.3367 2.7267 -2.6068
# 5 -15.7602 -8.6964 -13.9461 2.7267 48.9594 11.4137
# 6 6.8758 2.5576 -6.1440 -2.6068 11.4137 39.3281
#
#
#
# Elastic Compliance Matrix: (Units=1/GPa)
#
#
# Indices 1 2 3 4 5 6 
#
# 1 0.017245 -0.012110 -0.001845 -0.001099 0.003796 -0.003690
# 2 -0.012110 0.035729 -0.006096 -0.000186 0.001067 -0.001481
# 3 -0.001845 -0.006096 0.011994 0.002172 0.001052 0.002431
# 4 -0.001099 -0.000186 0.002172 0.028289 -0.002046 0.003012
# 5 0.003796 0.001067 0.001052 -0.002046 0.024041 -0.007681
# 6 -0.003690 -0.001481 0.002431 0.003012 -0.007681 0.028977
#
#
# Mechanical properties :
#
#
# Convention : Reuss Voigt Hill
#
# Bulk Modulus (GPa) = 40.21582 50.12302 45.16942
# Shear Modulus (GPa) = 25.68484 34.61199 30.14841
#
# Velocity S-wave (km/s) = 3.44686 4.00128 3.73437
# Velocity P-wave (km/s) = 5.86886 6.67323 6.28393
#
# Compressibility (1/GPa) = 0.02486583
#
# Stress axis : x y z
#
# Youngs Moduli (GPa) = 57.98689 27.98825 83.37448
#
# Poissons Ratio (x) = 0.33895 0.15384
# Poissons Ratio (y) = 0.70225 0.50823
# Poissons Ratio (z) = 0.10699 0.17061
#
# Static dielectric constant tensor:
#      x y z
#    x 4.122270 -0.025860 0.035590 
#    y -0.025860 3.859620 -0.010870 
#    z 0.035590 -0.010870 4.228170 
# 
# 
# High freq. dielectric constant tensor:
#      x y z
#    x 1.856210 0.005310 -0.004800 
#    y 0.005310 1.842560 0.001720 
#    z -0.004800 0.001720 1.858030 
# 
# From -- ./inp_files/187281.got.cif
#   From: 2010.06.25/outbox.cif.g09.slc.cpg/sg2_94_cif.got.tgz:187281.got - 2010.06.27 13:26:56.
