data_PCOD8018611
_publ_section_title
;
Structure prediction by ZEFSAII (Michael W. Deem and Ramdas Pophale) SiO2 
 PCOD8018611
Probable space group: P -1
;
_chemical_formula_sum "Si O2"
_cell_formula_units_Z 16
_cell_length_a 16.322919
_cell_length_b 8.364494
_cell_length_c 9.414056
_cell_angle_alpha 101.493004
_cell_angle_beta 125.417738
_cell_angle_gamma 117.061933
_cell_volume 718.394934
_symmetry_space_group_name_H-M "P -1"
_symmetry_group_IT_number 2
_symmetry_cell_setting 'triclinic'
loop_
_space_group_symop_operation_xyz
x,y,z
-x,-y,-z
loop_
_atom_site_type_symbol
_atom_site_label
_atom_site_fract_x
_atom_site_fract_y
_atom_site_fract_z
Si Si1 0.146243 0.429042 0.400806
Si Si2 0.346102 0.858134 0.177266
Si Si3 0.402347 0.621735 0.526072
Si Si4 0.341336 0.885484 0.854730
Si Si5 0.718638 0.584562 0.907081
Si Si6 0.097224 0.740719 0.063768
Si Si7 0.426119 0.330298 0.030069
Si Si8 0.032430 0.973288 0.184845
O O1 0.253945 0.542667 0.396438
O O2 0.213696 0.633897 0.614028
O O3 0.125803 0.219876 0.405701
O O4 0.988438 0.301363 0.170346
O O5 0.348222 0.668095 0.169014
O O6 0.246858 0.838565 0.184947
O O7 0.502168 0.120457 0.395320
O O8 0.296513 0.831988 0.963096
O O9 0.360995 0.448845 0.325568
O O10 0.462820 0.601162 0.723064
O O11 0.500000 0.000000 0.000000
O O12 0.340626 0.073919 0.838213
O O13 0.685336 0.673019 0.013716
O O14 0.889533 0.769687 0.094692
O O15 0.124628 0.916033 0.238881
O O16 0.000000 0.500000 0.000000
O O17 0.500000 0.500000 0.000000
O O18 0.000000 0.000000 0.000000
#
# Coordination Sequence:
#
# PCOD8018611 Si02
#       8
#     2   2   2   2   2   2   2   2
#     4  11  23  43  71  90 138 182 226 268 352 397
#     4  11  24  41  73  99 142 173 227 284 337 408
#     4  11  23  43  73 102 130 184 226 286 344 398
#     4  11  23  47  68  94 138 182 225 280 345 407
#     4  12  23  44  68 107 136 178 231 284 339 402
#     4  11  22  44  65 103 135 175 224 281 342 396
#     4  11  26  43  68 101 138 177 224 286 341 404
#     4  10  22  40  68  92 142 173 220 279 337 400
#
# _framework density 22.271871999999998
#
# number of rings (size 3 to 8) (size 9 to 14) (size 15 to 20)
#    0.000    1.000    6.250    1.500    7.000    1.500 
#    2.250    0.625    0.000    0.000    0.000    0.000 
#    0.000    0.000    0.000    0.000    0.000    0.000 
#
# Total GULP energy -198277.616467 kJ/mol
# GULP energy per Si atom -12392.351029 kJ/mol
# Density = 2.222118 g / cm^3
# Si number density = 22.271872 Si / 1000 Ang^3
#
#
#
# Elastic Constant Matrix: (Units=GPa)
#
#
# Indices 1 2 3 4 5 6 
#
# 1 138.2308 53.0779 15.5879 13.3286 -13.9877 -12.5626
# 2 53.0779 135.5952 26.6572 21.2026 -13.9730 -9.5280
# 3 15.5879 26.6572 56.0187 32.2159 -18.3803 -12.5044
# 4 13.3286 21.2026 32.2159 32.3736 -7.2722 -6.9116
# 5 -13.9877 -13.9730 -18.3803 -7.2722 37.5097 8.5657
# 6 -12.5626 -9.5280 -12.5044 -6.9116 8.5657 45.1409
#
#
#
# Elastic Compliance Matrix: (Units=1/GPa)
#
#
# Indices 1 2 3 4 5 6 
#
# 1 0.008801 -0.003049 0.001111 -0.001981 0.001979 0.001435
# 2 -0.003049 0.009473 -0.001399 -0.003308 0.001052 0.000057
# 3 0.001111 -0.001399 0.049725 -0.044855 0.014616 0.004147
# 4 -0.001981 -0.003308 -0.044855 0.076415 -0.009078 -0.000252
# 5 0.001979 0.001052 0.014616 -0.009078 0.033876 -0.002997
# 6 0.001435 0.000057 0.004147 -0.000252 -0.002997 0.024243
#
#
# Mechanical properties :
#
#
# Convention : Reuss Voigt Hill
#
# Bulk Modulus (GPa) = 16.30665 57.83231 37.06948
# Shear Modulus (GPa) = 21.77230 38.63962 30.20596
#
# Velocity S-wave (km/s) = 3.13000 4.16974 3.68671
# Velocity P-wave (km/s) = 4.51664 7.01464 5.89938
#
# Compressibility (1/GPa) = 0.06132468
#
# Stress axis : x y z
#
# Youngs Moduli (GPa) = 113.61712 105.56080 20.11069
#
# Poissons Ratio (x) = 0.32187 -0.02234
# Poissons Ratio (y) = 0.34643 0.02814
# Poissons Ratio (z) = -0.12620 0.14768
#
# Static dielectric constant tensor:
#      x y z
#    x 2.137160 0.323400 -1.738480 
#    y 0.323400 4.246650 0.665140 
#    z -1.738480 0.665140 2.919690 
# 
# 
# High freq. dielectric constant tensor:
#      x y z
#    x 1.885820 -0.003150 -0.010110 
#    y -0.003150 1.891250 0.021040 
#    z -0.010110 0.021040 1.851740 
# 
# From -- ./inp_files/298931.got.cif
#   From: 2010.06.25/outbox.cif.g09.slc.cpg/sg2_150_cif.got.tgz:298931.got - 2010.06.27 13:26:56.
