data_PCOD8018382
_publ_section_title
;
Structure prediction by ZEFSAII (Michael W. Deem and Ramdas Pophale) SiO2 
 PCOD8018382
Probable space group: P -1
;
_chemical_formula_sum "Si O2"
_cell_formula_units_Z 16
_cell_length_a 27.549344
_cell_length_b 16.631677
_cell_length_c 10.823004
_cell_angle_alpha 144.761935
_cell_angle_beta 157.142740
_cell_angle_gamma 22.549985
_cell_volume 718.895018
_symmetry_space_group_name_H-M "P -1"
_symmetry_group_IT_number 2
_symmetry_cell_setting 'triclinic'
loop_
_space_group_symop_operation_xyz
x,y,z
-x,-y,-z
loop_
_atom_site_type_symbol
_atom_site_label
_atom_site_fract_x
_atom_site_fract_y
_atom_site_fract_z
Si Si1 0.292171 0.835782 0.227876
Si Si2 0.624863 0.522014 0.778931
Si Si3 0.872450 0.129166 0.706447
Si Si4 0.558288 0.822926 0.328067
Si Si5 0.208939 0.097058 0.675165
Si Si6 0.710395 0.875136 0.369177
Si Si7 0.152096 0.455217 0.531791
Si Si8 0.487011 0.577609 0.933349
O O1 0.457080 0.752032 0.606695
O O2 0.378782 0.638821 0.103350
O O3 0.264768 0.015618 0.335671
O O4 0.094047 0.947302 0.958891
O O5 0.500000 0.500000 0.500000
O O6 0.803378 0.326111 0.863744
O O7 0.710442 0.526439 0.103041
O O8 0.735249 0.231067 0.392128
O O9 0.850693 0.015085 0.602609
O O10 0.770643 0.673454 0.578537
O O11 0.500000 0.000000 0.500000
O O12 0.562188 0.673597 0.226054
O O13 0.419732 0.935604 0.025026
O O14 0.186802 0.170013 0.575175
O O15 0.068479 0.308144 0.699175
O O16 0.828944 0.654359 0.438875
O O17 0.500000 0.000000 0.000000
O O18 0.500000 0.500000 0.000000
#
# Coordination Sequence:
#
# PCOD8018382 Si02
#       8
#     2   2   2   2   2   2   2   2
#     4  11  22  40  62  91 130 166 211 263 316 379
#     4  11  20  34  62  92 123 161 201 254 319 384
#     4  10  22  40  65  96 124 167 214 264 323 381
#     4  11  25  45  68  93 128 174 217 271 326 379
#     4  11  23  42  66  95 133 166 214 266 319 392
#     4  12  23  40  64  98 138 175 202 261 330 388
#     4  12  24  41  63  95 134 169 216 258 325 393
#     4  10  24  43  67  93 122 168 225 273 319 374
#
# _framework density 22.256377000000001
#
# number of rings (size 3 to 8) (size 9 to 14) (size 15 to 20)
#    0.000    1.000    2.500    5.625    1.750    2.500 
#    2.250    0.000    0.000    0.000    0.000    0.000 
#    0.000    0.000    0.000    0.000    0.000    0.000 
#
# Total GULP energy -198239.898140 kJ/mol
# GULP energy per Si atom -12389.993634 kJ/mol
# Density = 2.220572 g / cm^3
# Si number density = 22.256377 Si / 1000 Ang^3
#
#
#
# Elastic Constant Matrix: (Units=GPa)
#
#
# Indices 1 2 3 4 5 6 
#
# 1 110.2965 43.0421 23.9224 -2.1924 11.2862 6.8255
# 2 43.0421 127.0194 34.4755 -3.5021 15.5610 -17.4710
# 3 23.9224 34.4755 54.7811 9.4285 16.8586 -7.2139
# 4 -2.1924 -3.5021 9.4285 45.5201 0.9647 5.6869
# 5 11.2862 15.5610 16.8586 0.9647 23.8659 -1.9703
# 6 6.8255 -17.4710 -7.2139 5.6869 -1.9703 42.4393
#
#
#
# Elastic Compliance Matrix: (Units=1/GPa)
#
#
# Indices 1 2 3 4 5 6 
#
# 1 0.011510 -0.003359 -0.003302 0.001515 -0.001316 -0.004059
# 2 -0.003359 0.011095 -0.004510 0.001162 -0.002170 0.004085
# 3 -0.003302 -0.004510 0.028889 -0.006635 -0.015326 0.003763
# 4 0.001515 0.001162 -0.006635 0.023966 0.001913 -0.004016
# 5 -0.001316 -0.002170 -0.015326 0.001913 0.054603 -0.001008
# 6 -0.004059 0.004085 0.003763 -0.004016 -0.001008 0.027028
#
#
# Mechanical properties :
#
#
# Convention : Reuss Voigt Hill
#
# Bulk Modulus (GPa) = 34.30478 54.99747 44.65112
# Shear Modulus (GPa) = 26.43402 35.07551 30.75477
#
# Velocity S-wave (km/s) = 3.45005 3.97416 3.72134
# Velocity P-wave (km/s) = 5.59619 6.76928 6.21050
#
# Compressibility (1/GPa) = 0.02915046
#
# Stress axis : x y z
#
# Youngs Moduli (GPa) = 86.88376 90.13234 34.61577
#
# Poissons Ratio (x) = 0.30277 0.11431
# Poissons Ratio (y) = 0.29186 0.15611
# Poissons Ratio (z) = 0.28692 0.40647
#
# Static dielectric constant tensor:
#      x y z
#    x 3.694810 -0.294120 0.201590 
#    y -0.294120 4.734630 -0.007210 
#    z 0.201590 -0.007210 4.098750 
# 
# 
# High freq. dielectric constant tensor:
#      x y z
#    x 1.856300 0.001250 0.019220 
#    y 0.001250 1.912250 -0.000340 
#    z 0.019220 -0.000340 1.863540 
# 
# From -- ./inp_files/477722.got.cif
#   From: 2010.06.25/outbox.cif.g09.slc.cpg/sg2_239_cif.got.tgz:477722.got - 2010.06.27 13:26:56.
