data_PCOD8018527
_publ_section_title
;
Structure prediction by ZEFSAII (Michael W. Deem and Ramdas Pophale) SiO2 
 PCOD8018527
Probable space group: P -1
;
_chemical_formula_sum "Si O2"
_cell_formula_units_Z 14
_cell_length_a 16.872297
_cell_length_b 9.539932
_cell_length_c 9.694521
_cell_angle_alpha 29.770806
_cell_angle_beta 121.080191
_cell_angle_gamma 107.448763
_cell_volume 621.949301
_symmetry_space_group_name_H-M "P -1"
_symmetry_group_IT_number 2
_symmetry_cell_setting 'triclinic'
loop_
_space_group_symop_operation_xyz
x,y,z
-x,-y,-z
loop_
_atom_site_type_symbol
_atom_site_label
_atom_site_fract_x
_atom_site_fract_y
_atom_site_fract_z
Si Si1 0.155579 0.549409 0.885594
Si Si2 0.465471 0.988941 0.823113
Si Si3 0.414322 0.225668 0.137904
Si Si4 0.635194 0.444418 0.923994
Si Si5 0.038348 0.203112 0.198791
Si Si6 0.090948 0.886992 0.074140
Si Si7 0.801709 0.653529 0.200843
O O1 0.151164 0.545993 0.719861
O O2 0.079382 0.875698 0.591030
O O3 0.262220 0.528074 0.054446
O O4 0.130125 0.255533 0.157359
O O5 0.444728 0.304175 0.456878
O O6 0.546470 0.740434 0.009852
O O7 0.500000 0.000000 0.000000
O O8 0.371290 0.879792 0.841275
O O9 0.381468 0.523416 0.951364
O O10 0.500000 0.000000 0.500000
O O11 0.314233 0.145886 0.096082
O O12 0.000000 0.500000 0.000000
O O13 0.947117 0.204589 0.023202
O O14 0.182005 0.596592 0.453204
O O15 0.135954 0.144793 0.868056
O O16 0.000000 0.000000 0.000000
#
# Coordination Sequence:
#
# PCOD8018527 Si02
#       7
#     2   2   2   2   2   2   2
#     4  11  21  41  65  89 122 162 221 252 306 382
#     4  11  22  41  62  93 132 163 200 261 330 375
#     4   9  22  42  68  95 129 165 218 262 310 383
#     4  10  22  40  67  90 119 170 214 258 307 381
#     4  12  25  41  61  90 128 169 204 257 321 379
#     4  12  22  41  66  91 131 159 213 265 316 368
#     4  11  22  39  68  99 117 168 215 266 312 364
#
# _framework density 22.509875000000001
#
# number of rings (size 3 to 8) (size 9 to 14) (size 15 to 20)
#    0.000    1.143    2.857    3.429    0.000    8.000 
#    7.714    0.000    0.000    0.000    0.000    0.000 
#    0.000    0.000    0.000    0.000    0.000    0.000 
#
# Total GULP energy -173473.712332 kJ/mol
# GULP energy per Si atom -12390.979452 kJ/mol
# Density = 2.245864 g / cm^3
# Si number density = 22.509875 Si / 1000 Ang^3
#
#
#
# Elastic Constant Matrix: (Units=GPa)
#
#
# Indices 1 2 3 4 5 6 
#
# 1 58.6832 39.5444 6.1013 4.4942 11.9474 15.2309
# 2 39.5444 150.2956 20.4242 5.5771 1.9210 13.5071
# 3 6.1013 20.4242 69.4693 -4.2941 1.0671 2.2835
# 4 4.4942 5.5771 -4.2941 36.6418 6.6214 -8.8413
# 5 11.9474 1.9210 1.0671 6.6214 34.1628 -1.3511
# 6 15.2309 13.5071 2.2835 -8.8413 -1.3511 37.1566
#
#
#
# Elastic Compliance Matrix: (Units=1/GPa)
#
#
# Indices 1 2 3 4 5 6 
#
# 1 0.025109 -0.005507 -0.000342 -0.003034 -0.008240 -0.009291
# 2 -0.005507 0.008506 -0.002099 -0.001418 0.001749 -0.000979
# 3 -0.000342 -0.002099 0.015183 0.002387 -0.000679 0.000514
# 4 -0.003034 -0.001418 0.002387 0.031129 -0.004617 0.008852
# 5 -0.008240 0.001749 -0.000679 -0.004617 0.033085 0.002888
# 6 -0.009291 -0.000979 0.000514 0.008852 0.002888 0.033257
#
#
# Mechanical properties :
#
#
# Convention : Reuss Voigt Hill
#
# Bulk Modulus (GPa) = 30.39375 45.62088 38.00731
# Shear Modulus (GPa) = 28.87953 35.75077 32.31515
#
# Velocity S-wave (km/s) = 3.58575 3.98958 3.79304
# Velocity P-wave (km/s) = 5.53851 6.44464 6.00868
#
# Compressibility (1/GPa) = 0.03290150
#
# Stress axis : x y z
#
# Youngs Moduli (GPa) = 39.82712 117.56295 65.86212
#
# Poissons Ratio (x) = 0.64742 0.02251
# Poissons Ratio (y) = 0.21933 0.13827
# Poissons Ratio (z) = 0.01361 0.24682
#
# Static dielectric constant tensor:
#      x y z
#    x 5.013220 0.413580 -0.488980 
#    y 0.413580 4.367030 -0.174650 
#    z -0.488980 -0.174650 4.179450 
# 
# 
# High freq. dielectric constant tensor:
#      x y z
#    x 1.882830 0.017700 -0.000070 
#    y 0.017700 1.891840 -0.002290 
#    z -0.000070 -0.002290 1.877170 
# 
# From -- ./inp_files/38407.got.cif
#   From: 2010.06.25/outbox.cif.g09.slc.cpg/sg2_20_cif.got.tgz:38407.got - 2010.06.27 13:26:56.
