data_PCOD8018048
_publ_section_title
;
Structure prediction by ZEFSAII (Michael W. Deem and Ramdas Pophale) SiO2 
 PCOD8018048
Probable space group: P -1
;
_chemical_formula_sum "Si O2"
_cell_formula_units_Z 16
_cell_length_a 8.912201
_cell_length_b 6.659126
_cell_length_c 17.306489
_cell_angle_alpha 75.592440
_cell_angle_beta 131.014902
_cell_angle_gamma 95.368735
_cell_volume 747.187276
_symmetry_space_group_name_H-M "P -1"
_symmetry_group_IT_number 2
_symmetry_cell_setting 'triclinic'
loop_
_space_group_symop_operation_xyz
x,y,z
-x,-y,-z
loop_
_atom_site_type_symbol
_atom_site_label
_atom_site_fract_x
_atom_site_fract_y
_atom_site_fract_z
Si Si1 0.747101 0.804894 0.392108
Si Si2 0.013116 0.362709 0.290643
Si Si3 0.783170 0.768094 0.938269
Si Si4 0.882144 0.518040 0.850470
Si Si5 0.549406 0.489824 0.107611
Si Si6 0.304351 0.549985 0.478543
Si Si7 0.853536 0.058724 0.541714
Si Si8 0.592042 0.212178 0.838669
O O1 0.697757 0.585119 0.431281
O O2 0.593743 0.860911 0.265248
O O3 0.975118 0.797264 0.441148
O O4 0.725439 0.981179 0.434514
O O5 0.119447 0.372551 0.243043
O O6 0.109299 0.518199 0.365783
O O7 0.781432 0.434647 0.203881
O O8 0.047797 0.128411 0.355287
O O9 0.885313 0.704463 0.896376
O O10 0.561814 0.694836 0.874857
O O11 0.761909 0.016501 0.922317
O O12 0.920627 0.645894 0.061381
O O13 0.687059 0.395464 0.807176
O O14 0.477542 0.706810 0.107079
O O15 0.500000 0.500000 0.000000
O O16 0.500000 0.500000 0.500000
O O17 0.302137 0.792757 0.475509
#
# Coordination Sequence:
#
# PCOD8018048 Si02
#       8
#     2   2   2   2   2   2   2   2
#     4  10  22  41  65  92 123 163 211 259 307 373
#     4  11  23  41  64  94 128 165 210 257 317 369
#     4  10  22  42  63  88 123 171 213 252 315 371
#     4  10  22  40  61  89 129 164 207 265 305 370
#     4  11  23  42  63  92 129 162 208 266 309 363
#     4  11  24  41  64  96 130 163 206 261 315 374
#     4  10  23  42  65  91 124 167 209 257 317 373
#     4  11  23  39  65  92 121 167 215 250 318 381
#
# _framework density 21.413639
#
# number of rings (size 3 to 8) (size 9 to 14) (size 15 to 20)
#    0.000    1.500    1.250    3.000    0.000    9.500 
#    2.250    0.000    0.000    0.000    0.000    0.000 
#    0.000    0.000    0.000    0.000    0.000    0.000 
#
# Total GULP energy -198432.324213 kJ/mol
# GULP energy per Si atom -12402.020263 kJ/mol
# Density = 2.136490 g / cm^3
# Si number density = 21.413639 Si / 1000 Ang^3
#
#
#
# Elastic Constant Matrix: (Units=GPa)
#
#
# Indices 1 2 3 4 5 6 
#
# 1 103.7826 55.7730 40.8419 -5.4549 -6.2870 -15.2132
# 2 55.7730 133.7540 44.6584 -4.9976 -4.1181 -29.9593
# 3 40.8419 44.6584 109.2384 11.2324 -4.4432 -17.1113
# 4 -5.4549 -4.9976 11.2324 22.3916 4.3454 4.0584
# 5 -6.2870 -4.1181 -4.4432 4.3454 39.4203 0.4015
# 6 -15.2132 -29.9593 -17.1113 4.0584 0.4015 38.6285
#
#
#
# Elastic Compliance Matrix: (Units=1/GPa)
#
#
# Indices 1 2 3 4 5 6 
#
# 1 0.013674 -0.004276 -0.003757 0.004101 0.000859 -0.000035
# 2 -0.004276 0.011428 -0.002294 0.001569 0.000019 0.005998
# 3 -0.003757 -0.002294 0.013009 -0.008878 0.001571 0.003420
# 4 0.004101 0.001569 -0.008878 0.052808 -0.005937 -0.006587
# 5 0.000859 0.000019 0.001571 -0.005937 0.026324 0.001399
# 6 -0.000035 0.005998 0.003420 -0.006587 0.001399 0.032718
#
#
# Mechanical properties :
#
#
# Convention : Reuss Voigt Hill
#
# Bulk Modulus (GPa) = 57.28013 69.92464 63.60239
# Shear Modulus (GPa) = 28.33899 33.78819 31.06359
#
# Velocity S-wave (km/s) = 3.64181 3.97657 3.81287
# Velocity P-wave (km/s) = 6.67017 7.33548 7.01072
#
# Compressibility (1/GPa) = 0.01745806
#
# Stress axis : x y z
#
# Youngs Moduli (GPa) = 73.13053 87.50396 76.86763
#
# Poissons Ratio (x) = 0.37414 0.28877
# Poissons Ratio (y) = 0.31268 0.17637
# Poissons Ratio (z) = 0.27473 0.20077
#
# Static dielectric constant tensor:
#      x y z
#    x 3.956640 -0.033760 -0.036850 
#    y -0.033760 4.078100 0.264290 
#    z -0.036850 0.264290 3.913230 
# 
# 
# High freq. dielectric constant tensor:
#      x y z
#    x 1.848390 -0.001410 0.004940 
#    y -0.001410 1.839310 0.009900 
#    z 0.004940 0.009900 1.839730 
# 
# From -- ./inp_files/106984.got.cif
#   From: 2010.06.25/outbox.cif.g09.slc.cpg/sg2_54_cif.got.tgz:106984.got - 2010.06.27 13:26:56.
