data_PCOD8018716
_publ_section_title
;
Structure prediction by ZEFSAII (Michael W. Deem and Ramdas Pophale) SiO2 
 PCOD8018716
Probable space group: P -1
;
_chemical_formula_sum "Si O2"
_cell_formula_units_Z 16
_cell_length_a 26.705845
_cell_length_b 9.303497
_cell_length_c 9.886219
_cell_angle_alpha 136.480615
_cell_angle_beta 152.905747
_cell_angle_gamma 44.159586
_cell_volume 749.881799
_symmetry_space_group_name_H-M "P -1"
_symmetry_group_IT_number 2
_symmetry_cell_setting 'triclinic'
loop_
_space_group_symop_operation_xyz
x,y,z
-x,-y,-z
loop_
_atom_site_type_symbol
_atom_site_label
_atom_site_fract_x
_atom_site_fract_y
_atom_site_fract_z
Si Si1 0.756243 0.953340 0.466792
Si Si2 0.789809 0.397376 0.785140
Si Si3 0.707043 0.898361 0.607318
Si Si4 0.030134 0.202166 0.784240
Si Si5 0.345736 0.172319 0.130748
Si Si6 0.383767 0.483805 0.779818
Si Si7 0.013838 0.349235 0.135523
Si Si8 0.598736 0.183468 0.752722
O O1 0.692339 0.907819 0.417627
O O2 0.872481 0.778745 0.607981
O O3 0.779553 0.189048 0.703250
O O4 0.678217 0.940178 0.141775
O O5 0.749390 0.611680 0.922906
O O6 0.717702 0.400689 0.479221
O O7 0.919088 0.369592 0.035040
O O8 0.624574 0.758426 0.377503
O O9 0.660697 0.131639 0.721987
O O10 0.836255 0.807846 0.900255
O O11 0.969590 0.415682 0.704443
O O12 0.986741 0.221732 0.848896
O O13 0.000000 0.000000 0.500000
O O14 0.464909 0.234682 0.448155
O O15 0.350332 0.009444 0.153823
O O16 0.500000 0.500000 0.000000
O O17 0.370043 0.602124 0.971390
#
# Coordination Sequence:
#
# PCOD8018716 Si02
#       8
#     2   2   2   2   2   2   2   2
#     4  11  27  43  63  97 144 173 213 284 339 382
#     4  12  23  42  66  96 134 175 225 272 331 393
#     4  11  25  44  66 103 134 171 223 277 330 398
#     4  10  22  40  69  99 132 173 225 273 325 394
#     4  11  23  41  66  98 128 171 228 271 325 401
#     4  12  22  42  72  98 128 175 228 278 321 393
#     4  10  23  42  63  99 134 175 223 271 330 398
#     4  11  22  40  70  96 123 175 228 268 327 394
#
# _framework density 21.336696
#
# number of rings (size 3 to 8) (size 9 to 14) (size 15 to 20)
#    0.000    1.000    5.000    1.125    1.750    5.000 
#    0.000    1.250    0.000    0.000    0.000    0.000 
#    0.000    0.000    0.000    0.000    0.000    0.000 
#
# Total GULP energy -198439.310628 kJ/mol
# GULP energy per Si atom -12402.456914 kJ/mol
# Density = 2.128813 g / cm^3
# Si number density = 21.336696 Si / 1000 Ang^3
#
#
#
# Elastic Constant Matrix: (Units=GPa)
#
#
# Indices 1 2 3 4 5 6 
#
# 1 111.1620 32.5133 37.6219 1.0168 0.2534 -16.4403
# 2 32.5133 83.2217 23.9645 16.4527 -8.1404 -9.3204
# 3 37.6219 23.9645 71.8772 14.5956 -12.7416 0.6247
# 4 1.0168 16.4527 14.5956 31.0835 -4.2322 -4.3819
# 5 0.2534 -8.1404 -12.7416 -4.2322 29.0490 6.7922
# 6 -16.4403 -9.3204 0.6247 -4.3819 6.7922 38.2382
#
#
#
# Elastic Compliance Matrix: (Units=1/GPa)
#
#
# Indices 1 2 3 4 5 6 
#
# 1 0.013874 -0.003987 -0.008128 0.005670 -0.005559 0.006763
# 2 -0.003987 0.015690 -0.001237 -0.007113 0.002656 0.000844
# 3 -0.008128 -0.001237 0.022232 -0.009168 0.009764 -0.006944
# 4 0.005670 -0.007113 -0.009168 0.040668 -0.001491 0.005779
# 5 -0.005559 0.002656 0.009764 -0.001491 0.041491 -0.009443
# 6 0.006763 0.000844 -0.006944 0.005779 -0.009443 0.031718
#
#
# Mechanical properties :
#
#
# Convention : Reuss Voigt Hill
#
# Bulk Modulus (GPa) = 39.85105 50.49559 45.17332
# Shear Modulus (GPa) = 24.90772 31.15156 28.02964
#
# Velocity S-wave (km/s) = 3.42038 3.82514 3.62841
# Velocity P-wave (km/s) = 5.85802 6.57468 6.22667
#
# Compressibility (1/GPa) = 0.02509344
#
# Stress axis : x y z
#
# Youngs Moduli (GPa) = 72.07774 63.73340 44.97968
#
# Poissons Ratio (x) = 0.25410 0.36560
# Poissons Ratio (y) = 0.28737 0.05562
# Poissons Ratio (z) = 0.58585 0.07881
#
# Static dielectric constant tensor:
#      x y z
#    x 3.879730 -0.179400 -0.046620 
#    y -0.179400 3.961820 0.123930 
#    z -0.046620 0.123930 3.952960 
# 
# 
# High freq. dielectric constant tensor:
#      x y z
#    x 1.837020 -0.017650 -0.002940 
#    y -0.017650 1.843060 0.002060 
#    z -0.002940 0.002060 1.831700 
# 
# From -- ./inp_files/352460.got.cif
#   From: 2010.06.25/outbox.cif.g09.slc.cpg/sg2_177_cif.got.tgz:352460.got - 2010.06.27 13:26:56.
