data_PCOD8018492
_publ_section_title
;
Structure prediction by ZEFSAII (Michael W. Deem and Ramdas Pophale) SiO2 
 PCOD8018492
Probable space group: P -1
;
_chemical_formula_sum "Si O2"
_cell_formula_units_Z 16
_cell_length_a 10.886847
_cell_length_b 9.223192
_cell_length_c 14.091246
_cell_angle_alpha 94.977851
_cell_angle_beta 135.947387
_cell_angle_gamma 58.864616
_cell_volume 739.391564
_symmetry_space_group_name_H-M "P -1"
_symmetry_group_IT_number 2
_symmetry_cell_setting 'triclinic'
loop_
_space_group_symop_operation_xyz
x,y,z
-x,-y,-z
loop_
_atom_site_type_symbol
_atom_site_label
_atom_site_fract_x
_atom_site_fract_y
_atom_site_fract_z
Si Si1 0.552687 0.479460 0.636385
Si Si2 0.932708 0.346016 0.554474
Si Si3 0.757740 0.909782 0.114457
Si Si4 0.051843 0.608858 0.647106
Si Si5 0.002456 0.252384 0.183200
Si Si6 0.045891 0.530761 0.131341
Si Si7 0.593629 0.261714 0.928002
Si Si8 0.239777 0.900130 0.178273
O O1 0.500000 0.500000 0.500000
O O2 0.320591 0.592162 0.577006
O O3 0.687552 0.557069 0.732673
O O4 0.720248 0.253634 0.737377
O O5 0.008884 0.289207 0.483448
O O6 0.099258 0.172475 0.711697
O O7 0.922339 0.523431 0.582863
O O8 0.875574 0.750259 0.087487
O O9 0.500000 0.000000 0.000000
O O10 0.730880 0.088254 0.070773
O O11 0.959616 0.774474 0.683247
O O12 0.327290 0.440573 0.815960
O O13 0.010996 0.418192 0.177084
O O14 0.751356 0.322798 0.013886
O O15 0.219541 0.057457 0.238734
O O16 0.000000 0.500000 0.000000
O O17 0.571452 0.194353 0.807994
O O18 0.000000 0.000000 0.000000
#
# Coordination Sequence:
#
# PCOD8018492 Si02
#       8
#     2   2   2   2   2   2   2   2
#     4  12  23  44  72  97 137 185 225 274 340 407
#     4  11  24  43  69  94 134 181 229 267 348 398
#     4  12  23  44  70  99 130 181 228 275 333 412
#     4  11  22  43  68  97 131 177 225 276 334 404
#     4  11  22  40  65 103 132 169 222 278 334 392
#     4  12  24  42  68 105 138 173 225 285 338 395
#     4  11  21  40  70  96 132 174 221 274 330 413
#     4  10  22  40  66  99 130 174 223 266 332 410
#
# _framework density 21.639413999999999
#
# number of rings (size 3 to 8) (size 9 to 14) (size 15 to 20)
#    0.000    0.750    5.000    4.125    0.000    0.000 
#    0.000    4.375    0.000    0.000    0.000    0.000 
#    0.000    0.000    0.000    0.000    0.000    0.000 
#
# Total GULP energy -198322.119686 kJ/mol
# GULP energy per Si atom -12395.132480 kJ/mol
# Density = 2.159016 g / cm^3
# Si number density = 21.639414 Si / 1000 Ang^3
#
#
#
# Elastic Constant Matrix: (Units=GPa)
#
#
# Indices 1 2 3 4 5 6 
#
# 1 117.3850 38.3671 54.3055 10.2183 0.2840 2.1039
# 2 38.3671 66.4687 43.4036 4.4990 -11.0487 -3.3728
# 3 54.3055 43.4036 125.6150 6.0517 -13.9883 0.9447
# 4 10.2183 4.4990 6.0517 37.0630 3.8725 -13.4758
# 5 0.2840 -11.0487 -13.9883 3.8725 62.6135 10.0985
# 6 2.1039 -3.3728 0.9447 -13.4758 10.0985 43.1996
#
#
#
# Elastic Compliance Matrix: (Units=1/GPa)
#
#
# Indices 1 2 3 4 5 6 
#
# 1 0.011941 -0.004685 -0.003558 -0.002494 -0.001305 -0.001342
# 2 -0.004685 0.021622 -0.005168 -0.000249 0.002476 0.001373
# 3 -0.003558 -0.005168 0.011555 -0.000927 0.001941 -0.001226
# 4 -0.002494 -0.000249 -0.000927 0.032326 -0.004037 0.011150
# 5 -0.001305 0.002476 0.001941 -0.004037 0.017942 -0.005239
# 6 -0.001342 0.001373 -0.001226 0.011150 -0.005239 0.028051
#
#
# Mechanical properties :
#
#
# Convention : Reuss Voigt Hill
#
# Bulk Modulus (GPa) = 54.66221 64.62456 59.64339
# Shear Modulus (GPa) = 31.97793 40.13472 36.05633
#
# Velocity S-wave (km/s) = 3.84834 4.31130 4.08638
# Velocity P-wave (km/s) = 6.71279 7.39677 7.06307
#
# Compressibility (1/GPa) = 0.01829417
#
# Stress axis : x y z
#
# Youngs Moduli (GPa) = 83.74598 46.24954 86.54314
#
# Poissons Ratio (x) = 0.21668 0.30796
# Poissons Ratio (y) = 0.39236 0.44727
# Poissons Ratio (z) = 0.29801 0.23902
#
# Static dielectric constant tensor:
#      x y z
#    x -0.227130 -1.855240 0.060430 
#    y -1.855240 3.637240 0.143070 
#    z 0.060430 0.143070 4.028510 
# 
# 
# High freq. dielectric constant tensor:
#      x y z
#    x 1.875260 -0.001470 -0.010400 
#    y -0.001470 1.825220 0.006140 
#    z -0.010400 0.006140 1.851740 
# 
# From -- ./inp_files/514470.got.cif
#   From: 2010.06.25/outbox.cif.g09.slc.cpg/sg2_258_cif.got.tgz:514470.got - 2010.06.27 13:26:56.
