data_PCOD8018122
_publ_section_title
;
Structure prediction by ZEFSAII (Michael W. Deem and Ramdas Pophale) SiO2 
 PCOD8018122
Probable space group: P -1
;
_chemical_formula_sum "Si O2"
_cell_formula_units_Z 16
_cell_length_a 11.558062
_cell_length_b 9.227383
_cell_length_c 13.437333
_cell_angle_alpha 57.144976
_cell_angle_beta 54.673547
_cell_angle_gamma 40.890353
_cell_volume 750.340269
_symmetry_space_group_name_H-M "P -1"
_symmetry_group_IT_number 2
_symmetry_cell_setting 'triclinic'
loop_
_space_group_symop_operation_xyz
x,y,z
-x,-y,-z
loop_
_atom_site_type_symbol
_atom_site_label
_atom_site_fract_x
_atom_site_fract_y
_atom_site_fract_z
Si Si1 0.589703 0.022825 0.741524
Si Si2 0.749029 0.133824 0.270864
Si Si3 0.721856 0.792200 0.950633
Si Si4 0.786723 0.821493 0.521853
Si Si5 0.027505 0.720962 0.955915
Si Si6 0.757137 0.857263 0.205000
Si Si7 0.441097 0.559810 0.393163
Si Si8 0.822089 0.532583 0.454569
O O1 0.741141 0.806814 0.815772
O O2 0.626965 0.992728 0.615788
O O3 0.393164 0.075833 0.830458
O O4 0.582172 0.224939 0.707992
O O5 0.579806 0.367198 0.317061
O O6 0.905659 0.139445 0.151402
O O7 0.839930 0.942159 0.381746
O O8 0.683247 0.066780 0.236044
O O9 0.864547 0.811741 0.924073
O O10 0.792638 0.546831 0.039596
O O11 0.500000 0.000000 0.000000
O O12 0.715192 0.720439 0.525896
O O13 0.961536 0.629729 0.570841
O O14 0.943330 0.774844 0.088514
O O15 0.793839 0.649346 0.320701
O O16 0.500000 0.500000 0.500000
O O17 0.247477 0.608978 0.462572
#
# Coordination Sequence:
#
# PCOD8018122 Si02
#       8
#     2   2   2   2   2   2   2   2
#     4  12  23  40  68  94 129 167 218 267 335 383
#     4  11  24  42  64  95 130 171 218 268 324 387
#     4  11  24  44  67  97 131 169 219 274 324 380
#     4  10  22  40  62  93 129 169 209 271 325 391
#     4  11  25  44  69  94 131 177 221 268 320 384
#     4  11  22  43  68  90 131 176 217 267 321 386
#     4  12  23  38  63  97 130 163 212 269 327 395
#     4  10  22  40  62  93 130 166 216 262 330 388
#
# _framework density 21.323661000000001
#
# number of rings (size 3 to 8) (size 9 to 14) (size 15 to 20)
#    0.000    1.000    3.750    2.625    3.500    3.500 
#    0.000    0.625    0.000    0.000    0.000    0.000 
#    0.000    0.000    0.000    0.000    0.000    0.000 
#
# Total GULP energy -198356.825054 kJ/mol
# GULP energy per Si atom -12397.301566 kJ/mol
# Density = 2.127513 g / cm^3
# Si number density = 21.323661 Si / 1000 Ang^3
#
#
#
# Elastic Constant Matrix: (Units=GPa)
#
#
# Indices 1 2 3 4 5 6 
#
# 1 101.4875 21.4733 46.1237 -17.8053 -2.8499 -2.7641
# 2 21.4733 74.1828 25.2556 -3.0076 -0.4823 -0.8675
# 3 46.1237 25.2556 101.4493 -3.1529 -10.6147 -0.0617
# 4 -17.8053 -3.0076 -3.1529 34.8830 1.5649 1.5738
# 5 -2.8499 -0.4823 -10.6147 1.5649 36.1839 -7.8982
# 6 -2.7641 -0.8675 -0.0617 1.5738 -7.8982 31.1584
#
#
#
# Elastic Compliance Matrix: (Units=1/GPa)
#
#
# Indices 1 2 3 4 5 6 
#
# 1 0.014002 -0.001816 -0.005791 0.006471 -0.000756 0.000662
# 2 -0.001816 0.015027 -0.002997 0.000133 -0.000820 0.000037
# 3 -0.005791 -0.002997 0.013554 -0.002176 0.003677 0.000472
# 4 0.006471 0.000133 -0.002176 0.031935 -0.001836 -0.001505
# 5 -0.000756 -0.000820 0.003677 -0.001836 0.030409 0.007718
# 6 0.000662 0.000037 0.000472 -0.001505 0.007718 0.034187
#
#
# Mechanical properties :
#
#
# Convention : Reuss Voigt Hill
#
# Bulk Modulus (GPa) = 46.78677 51.42499 49.10588
# Shear Modulus (GPa) = 29.86025 32.72952 31.29489
#
# Velocity S-wave (km/s) = 3.74616 3.92202 3.83510
# Velocity P-wave (km/s) = 6.37970 6.68419 6.53372
#
# Compressibility (1/GPa) = 0.02137356
#
# Stress axis : x y z
#
# Youngs Moduli (GPa) = 71.41940 66.54834 73.78120
#
# Poissons Ratio (x) = 0.12086 0.42729
# Poissons Ratio (y) = 0.12971 0.22110
# Poissons Ratio (z) = 0.41361 0.19943
#
# Static dielectric constant tensor:
#      x y z
#    x 3.891870 0.186380 0.092890 
#    y 0.186380 3.880010 -0.026820 
#    z 0.092890 -0.026820 4.040620 
# 
# 
# High freq. dielectric constant tensor:
#      x y z
#    x 1.842270 0.006800 0.006860 
#    y 0.006800 1.829690 0.005650 
#    z 0.006860 0.005650 1.847270 
# 
# From -- ./inp_files/314777.got.cif
#   From: 2010.06.25/outbox.cif.g09.slc.cpg/sg2_158_cif.got.tgz:314777.got - 2010.06.27 13:26:56.
