data_PCOD8018836
_publ_section_title
;
Structure prediction by ZEFSAII (Michael W. Deem and Ramdas Pophale) SiO2 
 PCOD8018836
Probable space group: P -1
;
_chemical_formula_sum "Si O2"
_cell_formula_units_Z 16
_cell_length_a 6.419778
_cell_length_b 10.685941
_cell_length_c 18.687054
_cell_angle_alpha 131.638609
_cell_angle_beta 113.605088
_cell_angle_gamma 60.407558
_cell_volume 827.926550
_symmetry_space_group_name_H-M "P -1"
_symmetry_group_IT_number 2
_symmetry_cell_setting 'triclinic'
loop_
_space_group_symop_operation_xyz
x,y,z
-x,-y,-z
loop_
_atom_site_type_symbol
_atom_site_label
_atom_site_fract_x
_atom_site_fract_y
_atom_site_fract_z
Si Si1 0.517919 0.531235 0.249658
Si Si2 0.986327 0.220966 0.179210
Si Si3 0.655936 0.703488 0.204905
Si Si4 0.498625 0.968562 0.777564
Si Si5 0.280689 0.048084 0.933716
Si Si6 0.185615 0.994571 0.617822
Si Si7 0.660709 0.121167 0.557170
Si Si8 0.093877 0.381005 0.112760
O O1 0.783786 0.392969 0.249685
O O2 0.501847 0.617350 0.200883
O O3 0.471531 0.678257 0.360368
O O4 0.325118 0.430515 0.188204
O O5 0.902024 0.050848 0.105012
O O6 0.235059 0.175468 0.240624
O O7 0.036229 0.259045 0.119224
O O8 0.864966 0.555521 0.134187
O O9 0.488462 0.840239 0.175662
O O10 0.777918 0.813538 0.315639
O O11 0.373287 0.993423 0.846298
O O12 0.332057 0.902061 0.674096
O O13 0.500000 0.000000 0.000000
O O14 0.147274 0.261410 0.002693
O O15 0.279219 0.869576 0.514701
O O16 0.901733 0.032065 0.603347
O O17 0.500000 0.000000 0.500000
#
# Coordination Sequence:
#
# PCOD8018836 Si02
#       8
#     2   2   2   2   2   2   2   2
#     4  11  20  37  63  93 118 156 207 245 298 362
#     4  11  23  38  64  84 124 161 205 250 297 353
#     4   9  21  38  58  88 124 154 188 257 300 343
#     4  10  22  41  58  90 128 157 199 250 307 352
#     4  12  23  39  63  89 115 172 208 242 297 364
#     4   9  21  37  59  91 121 154 190 251 301 348
#     4  11  19  36  66  92 118 157 204 239 302 370
#     4  11  22  39  61  90 122 156 213 248 293 356
#
# _framework density 19.325386999999999
#
# number of rings (size 3 to 8) (size 9 to 14) (size 15 to 20)
#    0.750    0.750    5.000    0.375    0.000    3.500 
#    0.000    1.875    0.000    3.750    0.000    0.000 
#    0.000    0.000    0.000    0.000    0.000    0.000 
#
# Total GULP energy -198338.767016 kJ/mol
# GULP energy per Si atom -12396.172939 kJ/mol
# Density = 1.928140 g / cm^3
# Si number density = 19.325387 Si / 1000 Ang^3
#
#
#
# Elastic Constant Matrix: (Units=GPa)
#
#
# Indices 1 2 3 4 5 6 
#
# 1 100.1359 38.4252 52.7176 8.0340 -4.3975 -7.2120
# 2 38.4252 89.5352 22.8131 -3.1721 -7.0550 -8.8572
# 3 52.7176 22.8131 92.3896 5.0552 -2.0956 -3.6895
# 4 8.0340 -3.1721 5.0552 36.9250 -1.6370 0.3044
# 5 -4.3975 -7.0550 -2.0956 -1.6370 31.9999 6.9242
# 6 -7.2120 -8.8572 -3.6895 0.3044 6.9242 30.6004
#
#
#
# Elastic Compliance Matrix: (Units=1/GPa)
#
#
# Indices 1 2 3 4 5 6 
#
# 1 0.016406 -0.004970 -0.007912 -0.002918 0.000175 0.001464
# 2 -0.004970 0.013925 -0.000598 0.002428 0.001971 0.002317
# 3 -0.007912 -0.000598 0.015502 -0.000460 -0.000202 -0.000119
# 4 -0.002918 0.002428 -0.000460 0.028069 0.001692 -0.000703
# 5 0.000175 0.001971 -0.000202 0.001692 0.033288 -0.006962
# 6 0.001464 0.002317 -0.000119 -0.000703 -0.006962 0.035263
#
#
# Mechanical properties :
#
#
# Convention : Reuss Voigt Hill
#
# Bulk Modulus (GPa) = 52.98708 56.66361 54.82534
# Shear Modulus (GPa) = 28.45699 31.11204 29.78451
#
# Velocity S-wave (km/s) = 3.84150 4.01672 3.93009
# Velocity P-wave (km/s) = 6.86688 7.13418 7.00181
#
# Compressibility (1/GPa) = 0.01887253
#
# Stress axis : x y z
#
# Youngs Moduli (GPa) = 60.95309 71.81583 64.50798
#
# Poissons Ratio (x) = 0.35690 0.51040
# Poissons Ratio (y) = 0.30292 0.03859
# Poissons Ratio (z) = 0.48227 0.04296
#
# Static dielectric constant tensor:
#      x y z
#    x 3.707390 -0.142690 -0.114240 
#    y -0.142690 3.446540 0.164190 
#    z -0.114240 0.164190 3.594000 
# 
# 
# High freq. dielectric constant tensor:
#      x y z
#    x 1.766680 -0.009930 -0.003970 
#    y -0.009930 1.736290 0.012880 
#    z -0.003970 0.012880 1.740990 
# 
# From -- ./inp_files/583118.got.cif
#   From: 2010.06.25/outbox.cif.g09.slc.cpg/sg2_292_cif.got.tgz:583118.got - 2010.06.27 13:26:56.
