data_PCOD8018864
_publ_section_title
;
Structure prediction by ZEFSAII (Michael W. Deem and Ramdas Pophale) SiO2 
 PCOD8018864
Probable space group: P -1
;
_chemical_formula_sum "Si O2"
_cell_formula_units_Z 14
_cell_length_a 17.100659
_cell_length_b 11.975157
_cell_length_c 8.589252
_cell_angle_alpha 114.826846
_cell_angle_beta 115.676545
_cell_angle_gamma 23.525321
_cell_volume 631.508051
_symmetry_space_group_name_H-M "P -1"
_symmetry_group_IT_number 2
_symmetry_cell_setting 'triclinic'
loop_
_space_group_symop_operation_xyz
x,y,z
-x,-y,-z
loop_
_atom_site_type_symbol
_atom_site_label
_atom_site_fract_x
_atom_site_fract_y
_atom_site_fract_z
Si Si1 0.343921 0.283778 0.343752
Si Si2 0.946498 0.879150 0.946151
Si Si3 0.858501 0.791962 0.602554
Si Si4 0.507067 0.162830 0.718717
Si Si5 0.943592 0.704308 0.124852
Si Si6 0.318923 0.571480 0.058665
Si Si7 0.413246 0.842822 0.702688
O O1 0.360577 0.344901 0.550371
O O2 0.433247 0.243067 0.250230
O O3 0.113218 0.548387 0.285948
O O4 0.482740 0.986882 0.290375
O O5 0.990405 0.736318 0.749519
O O6 0.133066 0.727781 0.046252
O O7 0.896569 0.861306 0.042020
O O8 0.750347 0.209747 0.939483
O O9 0.000000 0.500000 0.500000
O O10 0.728312 0.912672 0.706521
O O11 0.707932 0.039796 0.488207
O O12 0.436873 0.349452 0.895306
O O13 0.751566 0.909646 0.172865
O O14 0.000000 0.500000 0.000000
O O15 0.453393 0.426942 0.244949
#
# Coordination Sequence:
#
# PCOD8018864 Si02
#       7
#     2   2   2   2   2   2   2
#     4  10  22  41  61 102 137 165 223 284 326 405
#     4  11  26  45  68  94 144 175 229 278 330 410
#     4  11  24  43  67 106 132 173 225 286 336 397
#     4  10  23  39  69  94 134 183 215 272 348 393
#     4  12  24  40  67 101 131 175 222 282 341 391
#     4  11  25  46  66  98 133 193 219 271 341 399
#     4  11  24  40  69  97 131 178 224 273 343 393
#
# _framework density 22.169153999999999
#
# number of rings (size 3 to 8) (size 9 to 14) (size 15 to 20)
#    0.000    1.143    1.429    4.286   10.000    4.000 
#    0.000    2.143    0.000    0.000    0.000    0.000 
#    0.000    0.000    0.000    0.000    0.000    0.000 
#
# Total GULP energy -173485.302671 kJ/mol
# GULP energy per Si atom -12391.807334 kJ/mol
# Density = 2.211870 g / cm^3
# Si number density = 22.169154 Si / 1000 Ang^3
#
#
#
# Elastic Constant Matrix: (Units=GPa)
#
#
# Indices 1 2 3 4 5 6 
#
# 1 76.0900 24.2103 19.6727 -5.1760 -21.8173 11.8735
# 2 24.2103 100.0955 35.6805 -16.0610 -11.6757 8.7247
# 3 19.6727 35.6805 84.0577 -17.4987 -3.8879 11.5632
# 4 -5.1760 -16.0610 -17.4987 47.2979 -6.6762 0.5023
# 5 -21.8173 -11.6757 -3.8879 -6.6762 38.1879 -2.9358
# 6 11.8735 8.7247 11.5632 0.5023 -2.9358 37.0950
#
#
#
# Elastic Compliance Matrix: (Units=1/GPa)
#
#
# Indices 1 2 3 4 5 6 
#
# 1 0.017662 -0.001819 -0.001988 0.001944 0.009373 -0.003890
# 2 -0.001819 0.012809 -0.004109 0.003053 0.002919 -0.000960
# 3 -0.001988 -0.004109 0.015386 0.004062 -0.000367 -0.003277
# 4 0.001944 0.003053 0.004062 0.024854 0.006617 -0.002419
# 5 0.009373 0.002919 -0.000367 0.006617 0.033475 -0.001012
# 6 -0.003890 -0.000960 -0.003277 -0.002419 -0.001012 0.029403
#
#
# Mechanical properties :
#
#
# Convention : Reuss Voigt Hill
#
# Bulk Modulus (GPa) = 33.30622 46.59670 39.95146
# Shear Modulus (GPa) = 31.36196 36.56145 33.96171
#
# Velocity S-wave (km/s) = 3.76529 4.06544 3.91824
# Velocity P-wave (km/s) = 5.82747 6.56517 6.20729
#
# Compressibility (1/GPa) = 0.03002443
#
# Stress axis : x y z
#
# Youngs Moduli (GPa) = 56.61929 78.07012 64.99619
#
# Poissons Ratio (x) = 0.14200 0.12922
# Poissons Ratio (y) = 0.10299 0.26706
# Poissons Ratio (z) = 0.11257 0.32078
#
# Static dielectric constant tensor:
#      x y z
#    x 3.954730 0.027670 0.241290 
#    y 0.027670 4.062860 -0.551140 
#    z 0.241290 -0.551140 3.944600 
# 
# 
# High freq. dielectric constant tensor:
#      x y z
#    x 1.878570 -0.011190 -0.012390 
#    y -0.011190 1.873410 -0.026690 
#    z -0.012390 -0.026690 1.872260 
# 
# From -- ./inp_files/211736.got.cif
#   From: 2010.06.25/outbox.cif.g09.slc.cpg/sg2_106_cif.got.tgz:211736.got - 2010.06.27 13:26:56.
