data_PCOD8018758
_publ_section_title
;
Structure prediction by ZEFSAII (Michael W. Deem and Ramdas Pophale) SiO2 
 PCOD8018758
Probable space group: P -1
;
_chemical_formula_sum "Si O2"
_cell_formula_units_Z 12
_cell_length_a 18.848750
_cell_length_b 16.268494
_cell_length_c 10.752626
_cell_angle_alpha 33.983310
_cell_angle_beta 157.502544
_cell_angle_gamma 158.100648
_cell_volume 461.401501
_symmetry_space_group_name_H-M "P -1"
_symmetry_group_IT_number 2
_symmetry_cell_setting 'triclinic'
loop_
_space_group_symop_operation_xyz
x,y,z
-x,-y,-z
loop_
_atom_site_type_symbol
_atom_site_label
_atom_site_fract_x
_atom_site_fract_y
_atom_site_fract_z
Si Si1 0.422736 0.794149 0.285141
Si Si2 0.886112 0.619604 0.547024
Si Si3 0.608225 0.717569 0.454429
Si Si4 0.975891 0.810184 0.194441
Si Si5 0.168000 0.121278 0.745353
Si Si6 0.296739 0.596567 0.870412
O O1 0.279767 0.631792 0.378512
O O2 0.506954 0.711777 0.431486
O O3 0.697033 0.047976 0.458938
O O4 0.220220 0.790937 0.895015
O O5 0.775459 0.672532 0.399874
O O6 0.830413 0.649760 0.281765
O O7 0.500000 0.500000 0.500000
O O8 0.451605 0.728502 0.084555
O O9 0.956096 0.935364 0.743490
O O10 0.794439 0.634595 0.004324
O O11 0.000000 0.000000 0.000000
O O12 0.477521 0.229370 0.094113
O O13 0.000000 0.000000 0.500000
O O14 0.000000 0.500000 0.500000
#
# Coordination Sequence:
#
# PCOD8018758 Si02
#       6
#     2   2   2   2   2   2
#     4  11  24  43  74 103 134 190 238 295 335 428
#     4  11  24  44  72 102 138 183 248 278 352 425
#     4  11  22  45  70  99 138 186 239 279 350 432
#     4  12  25  44  71 104 146 183 226 298 363 412
#     4  10  22  40  70  96 136 184 229 286 348 422
#     4  11  26  44  69 104 144 181 232 299 361 412
#
# _framework density 26.007718000000001
#
# number of rings (size 3 to 8) (size 9 to 14) (size 15 to 20)
#    0.000    1.000    1.667    5.500    4.667    2.667 
#    0.000    0.833    0.000    0.000    0.000    0.000 
#    0.000    0.000    0.000    0.000    0.000    0.000 
#
# Total GULP energy -148660.106473 kJ/mol
# GULP energy per Si atom -12388.342206 kJ/mol
# Density = 2.594852 g / cm^3
# Si number density = 26.007718 Si / 1000 Ang^3
#
#
#
# Elastic Constant Matrix: (Units=GPa)
#
#
# Indices 1 2 3 4 5 6 
#
# 1 76.8174 30.9264 34.8031 22.0978 -2.3266 11.0981
# 2 30.9264 78.9198 25.1047 23.4548 -5.2167 9.4672
# 3 34.8031 25.1047 87.5835 24.3534 25.0515 15.4007
# 4 22.0978 23.4548 24.3534 49.3207 7.9113 -0.1162
# 5 -2.3266 -5.2167 25.0515 7.9113 53.1825 11.8274
# 6 11.0981 9.4672 15.4007 -0.1162 11.8274 43.8906
#
#
#
# Elastic Compliance Matrix: (Units=1/GPa)
#
#
# Indices 1 2 3 4 5 6 
#
# 1 0.019144 -0.003455 -0.006112 -0.004694 0.004800 -0.003257
# 2 -0.003455 0.017339 -0.002592 -0.006128 0.004384 -0.003154
# 3 -0.006112 -0.002592 0.018345 -0.003789 -0.008120 -0.002154
# 4 -0.004694 -0.006128 -0.003789 0.027865 -0.004294 0.005069
# 5 0.004800 0.004384 -0.008120 -0.004294 0.025271 -0.006131
# 6 -0.003257 -0.003154 -0.002154 0.005069 -0.006131 0.026709
#
#
# Mechanical properties :
#
#
# Convention : Reuss Voigt Hill
#
# Bulk Modulus (GPa) = 32.77693 47.22101 39.99897
# Shear Modulus (GPa) = 29.55763 39.44452 34.50108
#
# Velocity S-wave (km/s) = 3.37485 3.89864 3.64616
# Velocity P-wave (km/s) = 5.27411 6.20176 5.75665
#
# Compressibility (1/GPa) = 0.03050927
#
# Stress axis : x y z
#
# Youngs Moduli (GPa) = 52.23514 57.67314 54.51195
#
# Poissons Ratio (x) = 0.19924 0.33319
# Poissons Ratio (y) = 0.18045 0.14132
# Poissons Ratio (z) = 0.31927 0.14952
#
# Static dielectric constant tensor:
#      x y z
#    x 5.346170 0.542730 0.037870 
#    y 0.542730 5.900390 0.940250 
#    z 0.037870 0.940250 5.562630 
# 
# 
# High freq. dielectric constant tensor:
#      x y z
#    x 2.037960 0.001150 0.000770 
#    y 0.001150 2.053590 0.021930 
#    z 0.000770 0.021930 2.045030 
# 
# From -- ./inp_files/472376.got.cif
#   From: 2010.06.25/outbox.cif.g09.slc.cpg/sg2_237_cif.got.tgz:472376.got - 2010.06.27 13:26:56.
