data_PCOD8018820
_publ_section_title
;
Structure prediction by ZEFSAII (Michael W. Deem and Ramdas Pophale) SiO2 
 PCOD8018820
Probable space group: P -1
;
_chemical_formula_sum "Si O2"
_cell_formula_units_Z 14
_cell_length_a 20.245765
_cell_length_b 11.429624
_cell_length_c 13.943357
_cell_angle_alpha 32.012228
_cell_angle_beta 156.749701
_cell_angle_gamma 149.838577
_cell_volume 616.180958
_symmetry_space_group_name_H-M "P -1"
_symmetry_group_IT_number 2
_symmetry_cell_setting 'triclinic'
loop_
_space_group_symop_operation_xyz
x,y,z
-x,-y,-z
loop_
_atom_site_type_symbol
_atom_site_label
_atom_site_fract_x
_atom_site_fract_y
_atom_site_fract_z
Si Si1 0.187844 0.478998 0.745051
Si Si2 0.643936 0.467343 0.645601
Si Si3 0.948709 0.247110 0.014505
Si Si4 0.779298 0.793008 0.206966
Si Si5 0.469714 0.936713 0.734597
Si Si6 0.319212 0.111883 0.243680
Si Si7 0.301588 0.505355 0.507607
O O1 0.197833 0.393577 0.708130
O O2 0.000000 0.500000 0.500000
O O3 0.350841 0.745356 0.789085
O O4 0.221048 0.299677 0.989550
O O5 0.500000 0.500000 0.500000
O O6 0.607777 0.184292 0.795919
O O7 0.619119 0.557291 0.442060
O O8 0.848578 0.625224 0.847534
O O9 0.867070 0.441991 0.799820
O O10 0.804003 0.100557 0.841884
O O11 0.942529 0.060260 0.221385
O O12 0.781626 0.709257 0.377632
O O13 0.588743 0.821363 0.913903
O O14 0.326773 0.993544 0.437743
O O15 0.530100 0.262985 0.381885
#
# Coordination Sequence:
#
# PCOD8018820 Si02
#       7
#     2   2   2   2   2   2   2
#     4  11  25  40  65 109 146 172 226 283 352 403
#     4  11  27  48  67  97 144 187 227 283 348 413
#     4  11  23  42  70 101 137 178 235 280 338 415
#     4  11  23  41  74 103 137 175 233 288 337 409
#     4  11  23  45  73  96 139 181 230 286 340 404
#     4  10  22  40  74 102 132 173 228 287 344 392
#     4  11  22  44  71 104 132 179 235 281 349 402
#
# _framework density 22.720597999999999
#
# number of rings (size 3 to 8) (size 9 to 14) (size 15 to 20)
#    0.000    1.143    4.286    2.143    8.000    1.143 
#    7.714    0.714    0.000    0.000    0.000    0.000 
#    0.000    0.000    0.000    0.000    0.000    0.000 
#
# Total GULP energy -173503.366311 kJ/mol
# GULP energy per Si atom -12393.097594 kJ/mol
# Density = 2.266888 g / cm^3
# Si number density = 22.720598 Si / 1000 Ang^3
#
#
#
# Elastic Constant Matrix: (Units=GPa)
#
#
# Indices 1 2 3 4 5 6 
#
# 1 116.0009 57.6549 65.5288 2.4631 14.7842 4.5959
# 2 57.6549 104.4252 38.2100 1.5463 11.3023 25.6863
# 3 65.5288 38.2100 122.9039 -3.4484 19.4000 11.7166
# 4 2.4631 1.5463 -3.4484 40.9585 11.9538 1.7266
# 5 14.7842 11.3023 19.4000 11.9538 44.3084 4.4340
# 6 4.5959 25.6863 11.7166 1.7266 4.4340 19.6950
#
#
#
# Elastic Compliance Matrix: (Units=1/GPa)
#
#
# Indices 1 2 3 4 5 6 
#
# 1 0.017502 -0.010309 -0.007363 -0.001595 -0.000967 0.014098
# 2 -0.010309 0.021163 0.001486 0.001135 -0.000302 -0.026110
# 3 -0.007363 0.001486 0.012954 0.002846 -0.003625 -0.007359
# 4 -0.001595 0.001135 0.002846 0.027185 -0.007999 -0.003383
# 5 -0.000967 -0.000302 -0.003625 -0.007999 0.026974 -0.002595
# 6 0.014098 -0.026110 -0.007359 -0.003383 -0.002595 0.086796
#
#
# Mechanical properties :
#
#
# Convention : Reuss Voigt Hill
#
# Bulk Modulus (GPa) = 51.95649 74.01305 62.98477
# Shear Modulus (GPa) = 21.61133 33.12147 27.36640
#
# Velocity S-wave (km/s) = 3.08746 3.82222 3.47432
# Velocity P-wave (km/s) = 5.96885 7.21978 6.62391
#
# Compressibility (1/GPa) = 0.01924687
#
# Stress axis : x y z
#
# Youngs Moduli (GPa) = 57.13635 47.25313 77.19735
#
# Poissons Ratio (x) = 0.48711 0.56839
# Poissons Ratio (y) = 0.58899 -0.11468
# Poissons Ratio (z) = 0.42068 -0.07020
#
# Static dielectric constant tensor:
#      x y z
#    x 3.784340 0.200720 0.011010 
#    y 0.200720 4.425320 -0.158040 
#    z 0.011010 -0.158040 4.122910 
# 
# 
# High freq. dielectric constant tensor:
#      x y z
#    x 1.864560 0.013710 -0.000470 
#    y 0.013710 1.912550 -0.001990 
#    z -0.000470 -0.001990 1.893530 
# 
# From -- ./inp_files/244544.got.cif
#   From: 2010.06.25/outbox.cif.g09.slc.cpg/sg2_123_cif.got.tgz:244544.got - 2010.06.27 13:26:56.
