data_PCOD8018103
_publ_section_title
;
Structure prediction by ZEFSAII (Michael W. Deem and Ramdas Pophale) SiO2 
 PCOD8018103
Probable space group: P -1
;
_chemical_formula_sum "Si O2"
_cell_formula_units_Z 8
_cell_length_a 7.265306
_cell_length_b 10.920444
_cell_length_c 7.444545
_cell_angle_alpha 47.841603
_cell_angle_beta 81.134904
_cell_angle_gamma 111.048335
_cell_volume 335.412652
_symmetry_space_group_name_H-M "P -1"
_symmetry_group_IT_number 2
_symmetry_cell_setting 'triclinic'
loop_
_space_group_symop_operation_xyz
x,y,z
-x,-y,-z
loop_
_atom_site_type_symbol
_atom_site_label
_atom_site_fract_x
_atom_site_fract_y
_atom_site_fract_z
Si Si1 0.460555 0.286365 0.244697
Si Si2 0.310900 0.727359 0.104387
Si Si3 0.914572 0.068066 0.104485
Si Si4 0.196958 0.528209 0.676751
O O1 0.199798 0.105482 0.548024
O O2 0.668060 0.337100 0.298390
O O3 0.500000 0.500000 0.000000
O O4 0.479368 0.196290 0.144232
O O5 0.364880 0.663659 0.345351
O O6 0.056290 0.515784 0.267666
O O7 0.285867 0.911412 0.956721
O O8 0.000000 0.000000 0.000000
O O9 0.143651 0.299918 0.917041
#
# Coordination Sequence:
#
# PCOD8018103 Si02
#       4
#     2   2   2   2
#     4  12  24  38  65  93 120 159 204 244 301 361
#     4   9  21  45  62  88 122 158 203 248 298 356
#     4  10  22  40  62  91 122 158 202 246 302 355
#     4   9  22  43  64  84 127 156 199 253 299 347
#
# _framework density 23.851217999999999
#
# number of rings (size 3 to 8) (size 9 to 14) (size 15 to 20)
#    1.500    0.500    0.000    3.000    0.000    6.000 
#    0.000    0.000    0.000    0.000    0.000    0.000 
#    0.000    0.000    0.000    0.000    0.000    0.000 
#
# Total GULP energy -99152.510111 kJ/mol
# GULP energy per Si atom -12394.063764 kJ/mol
# Density = 2.379693 g / cm^3
# Si number density = 23.851218 Si / 1000 Ang^3
#
#
#
# Elastic Constant Matrix: (Units=GPa)
#
#
# Indices 1 2 3 4 5 6 
#
# 1 59.6515 14.9797 40.1257 8.2868 -7.1452 -35.0023
# 2 14.9797 53.4398 47.0801 -2.1225 -7.2970 -28.8756
# 3 40.1257 47.0801 211.5637 6.8966 -16.0315 -32.4457
# 4 8.2868 -2.1225 6.8966 36.9829 -11.0969 -0.9356
# 5 -7.1452 -7.2970 -16.0315 -11.0969 38.3978 12.9720
# 6 -35.0023 -28.8756 -32.4457 -0.9356 12.9720 48.7982
#
#
#
# Elastic Compliance Matrix: (Units=1/GPa)
#
#
# Indices 1 2 3 4 5 6 
#
# 1 0.034308 0.008152 -0.004207 -0.007343 -0.005379 0.027925
# 2 0.008152 0.033281 -0.005713 0.001200 -0.001703 0.022218
# 3 -0.004207 -0.005713 0.006545 -0.000172 0.001656 -0.002490
# 4 -0.007343 0.001200 -0.000172 0.031687 0.010240 -0.006786
# 5 -0.005379 -0.001703 0.001656 0.010240 0.032493 -0.012206
# 6 0.027925 0.022218 -0.002490 -0.006786 -0.012206 0.055129
#
#
# Mechanical properties :
#
#
# Convention : Reuss Voigt Hill
#
# Bulk Modulus (GPa) = 14.16459 58.78065 36.47262
# Shear Modulus (GPa) = 22.67458 39.66707 31.17082
#
# Velocity S-wave (km/s) = 3.08663 4.08254 3.61901
# Velocity P-wave (km/s) = 4.31911 6.84990 5.72607
#
# Compressibility (1/GPa) = 0.07059856
#
# Stress axis : x y z
#
# Youngs Moduli (GPa) = 29.14772 30.04703 152.78457
#
# Poissons Ratio (x) = -0.24494 0.64272
# Poissons Ratio (y) = -0.23761 0.87287
# Poissons Ratio (z) = 0.12262 0.17166
#
# Static dielectric constant tensor:
#      x y z
#    x 3.852790 0.043880 -0.017930 
#    y 0.043880 3.908530 -0.031330 
#    z -0.017930 -0.031330 4.507790 
# 
# 
# High freq. dielectric constant tensor:
#      x y z
#    x 1.913020 -0.003060 -0.001680 
#    y -0.003060 1.923730 -0.000760 
#    z -0.001680 -0.000760 1.965200 
# 
# From -- ./inp_files/15421.got.cif
#   From: 2010.06.25/outbox.cif.g09.slc.cpg/sg2_8_cif.got.tgz:15421.got - 2010.06.27 13:26:56.
