data_PCOD8018497
_publ_section_title
;
Structure prediction by ZEFSAII (Michael W. Deem and Ramdas Pophale) SiO2 
 PCOD8018497
Probable space group: P -1
;
_chemical_formula_sum "Si O2"
_cell_formula_units_Z 14
_cell_length_a 10.880699
_cell_length_b 19.180969
_cell_length_c 6.764843
_cell_angle_alpha 76.498085
_cell_angle_beta 105.253629
_cell_angle_gamma 151.215005
_cell_volume 655.871565
_symmetry_space_group_name_H-M "P -1"
_symmetry_group_IT_number 2
_symmetry_cell_setting 'triclinic'
loop_
_space_group_symop_operation_xyz
x,y,z
-x,-y,-z
loop_
_atom_site_type_symbol
_atom_site_label
_atom_site_fract_x
_atom_site_fract_y
_atom_site_fract_z
Si Si1 0.240814 0.343928 0.584654
Si Si2 0.037240 0.838470 0.797172
Si Si3 0.829149 0.351777 0.949873
Si Si4 0.087112 0.739499 0.178426
Si Si5 0.366754 0.129122 0.157524
Si Si6 0.188177 0.196424 0.948723
Si Si7 0.520712 0.854385 0.375676
O O1 0.500000 0.500000 0.500000
O O2 0.127994 0.344835 0.696361
O O3 0.303357 0.299672 0.750483
O O4 0.039390 0.233908 0.395469
O O5 0.230469 0.998740 0.736899
O O6 0.159707 0.839920 0.996681
O O7 0.789865 0.751745 0.864873
O O8 0.639446 0.281848 0.733927
O O9 0.006864 0.372712 0.930758
O O10 0.634140 0.228282 0.119667
O O11 0.000000 0.500000 0.000000
O O12 0.342183 0.838400 0.340535
O O13 0.395128 0.144758 0.393831
O O14 0.337296 0.195016 0.017901
O O15 0.119722 0.961153 0.112144
#
# Coordination Sequence:
#
# PCOD8018497 Si02
#       7
#     2   2   2   2   2   2   2
#     4  11  25  43  68  97 131 175 220 271 336 384
#     4  11  21  42  69  96 133 169 218 277 324 389
#     4  10  24  43  64  96 135 168 216 270 330 388
#     4   9  24  41  66 100 128 167 224 265 334 387
#     4  11  22  41  68  95 137 171 221 266 324 394
#     4  10  23  42  65 100 130 175 222 270 318 390
#     4  10  22  40  67 100 127 175 218 263 335 387
#
# _framework density 21.345642999999999
#
# number of rings (size 3 to 8) (size 9 to 14) (size 15 to 20)
#    0.857    0.857    2.857    0.429    2.000    7.429 
#    0.000    0.000    0.000    0.000    0.000    0.000 
#    0.000    0.000    0.000    0.000    0.000    0.000 
#
# Total GULP energy -173465.648516 kJ/mol
# GULP energy per Si atom -12390.403465 kJ/mol
# Density = 2.129706 g / cm^3
# Si number density = 21.345643 Si / 1000 Ang^3
#
#
#
# Elastic Constant Matrix: (Units=GPa)
#
#
# Indices 1 2 3 4 5 6 
#
# 1 89.3689 33.0785 47.8252 -7.7537 -11.8963 -9.4553
# 2 33.0785 107.5709 56.3247 -8.4039 -9.2828 -8.0164
# 3 47.8252 56.3247 143.2701 -14.2737 -6.7385 -0.9862
# 4 -7.7537 -8.4039 -14.2737 36.4693 -3.7429 -6.4674
# 5 -11.8963 -9.2828 -6.7385 -3.7429 35.8423 0.0470
# 6 -9.4553 -8.0164 -0.9862 -6.4674 0.0470 27.3714
#
#
#
# Elastic Compliance Matrix: (Units=1/GPa)
#
#
# Indices 1 2 3 4 5 6 
#
# 1 0.015259 -0.001669 -0.003938 0.002680 0.004165 0.005266
# 2 -0.001669 0.012504 -0.004063 0.001745 0.002098 0.003348
# 3 -0.003938 -0.004063 0.010048 0.001819 -0.000278 -0.001758
# 4 0.002680 0.001745 0.001819 0.031181 0.004928 0.008861
# 5 0.004165 0.002098 -0.000278 0.004928 0.030284 0.003156
# 6 0.005266 0.003348 -0.001758 0.008861 0.003156 0.041359
#
#
# Mechanical properties :
#
#
# Convention : Reuss Voigt Hill
#
# Bulk Modulus (GPa) = 54.14172 68.29632 61.21902
# Shear Modulus (GPa) = 30.09655 33.46871 31.78263
#
# Velocity S-wave (km/s) = 3.75902 3.96402 3.86288
# Velocity P-wave (km/s) = 6.65279 7.28122 6.97409
#
# Compressibility (1/GPa) = 0.01847004
#
# Stress axis : x y z
#
# Youngs Moduli (GPa) = 65.53526 79.97641 99.52404
#
# Poissons Ratio (x) = 0.13346 0.39197
# Poissons Ratio (y) = 0.10937 0.40436
# Poissons Ratio (z) = 0.25811 0.32494
#
# Static dielectric constant tensor:
#      x y z
#    x 3.855920 -0.003670 -0.140040 
#    y -0.003670 3.625850 0.087080 
#    z -0.140040 0.087080 3.981460 
# 
# 
# High freq. dielectric constant tensor:
#      x y z
#    x 1.832400 -0.003090 -0.015970 
#    y -0.003090 1.817110 -0.004290 
#    z -0.015970 -0.004290 1.848260 
# 
# From -- ./inp_files/82558.got.cif
#   From: 2010.06.25/outbox.cif.g09.slc.cpg/sg2_42_cif.got.tgz:82558.got - 2010.06.27 13:26:56.
