data_PCOD8018175
_publ_section_title
;
Structure prediction by ZEFSAII (Michael W. Deem and Ramdas Pophale) SiO2 
 PCOD8018175
Probable space group: P -1
;
_chemical_formula_sum "Si O2"
_cell_formula_units_Z 14
_cell_length_a 12.417015
_cell_length_b 9.390539
_cell_length_c 9.436405
_cell_angle_alpha 97.577025
_cell_angle_beta 75.418747
_cell_angle_gamma 147.321051
_cell_volume 568.170241
_symmetry_space_group_name_H-M "P -1"
_symmetry_group_IT_number 2
_symmetry_cell_setting 'triclinic'
loop_
_space_group_symop_operation_xyz
x,y,z
-x,-y,-z
loop_
_atom_site_type_symbol
_atom_site_label
_atom_site_fract_x
_atom_site_fract_y
_atom_site_fract_z
Si Si1 0.964253 0.771566 0.653936
Si Si2 0.550300 0.436397 0.090161
Si Si3 0.722439 0.435467 0.432920
Si Si4 0.921865 0.387015 0.237479
Si Si5 0.238148 0.901825 0.030424
Si Si6 0.963384 0.865097 0.170548
Si Si7 0.616946 0.751967 0.574840
O O1 0.017686 0.692725 0.718624
O O2 0.758836 0.521270 0.595752
O O3 0.932347 0.870871 0.782699
O O4 0.143574 0.991918 0.508151
O O5 0.791733 0.705057 0.084064
O O6 0.403742 0.299204 0.258062
O O7 0.479961 0.201463 0.022519
O O8 0.500000 0.500000 0.000000
O O9 0.783584 0.335475 0.379872
O O10 0.856498 0.680195 0.317184
O O11 0.483671 0.205861 0.439362
O O12 0.133963 0.697944 0.164721
O O13 0.780415 0.205282 0.122891
O O14 0.130472 0.941152 0.057093
O O15 0.500000 0.500000 0.500000
#
# Coordination Sequence:
#
# PCOD8018175 Si02
#       7
#     2   2   2   2   2   2   2
#     4  12  22  39  68  97 131 163 217 269 317 386
#     4  11  23  40  65  96 127 165 215 267 317 379
#     4  10  22  40  63  91 131 170 207 263 327 376
#     4  10  23  43  64  94 128 176 218 255 317 397
#     4  10  23  45  65  86 137 173 207 269 322 372
#     4  10  22  40  64  98 122 166 219 265 319 379
#     4  11  23  40  63  97 131 163 210 268 325 374
#
# _framework density 24.640501
#
# number of rings (size 3 to 8) (size 9 to 14) (size 15 to 20)
#    0.000    1.429    2.857    3.429    2.000    2.857 
#    0.000   15.714    0.000    0.000    0.000    0.000 
#    0.000    0.000    0.000    0.000    0.000    0.000 
#
# Total GULP energy -173616.604716 kJ/mol
# GULP energy per Si atom -12401.186051 kJ/mol
# Density = 2.458442 g / cm^3
# Si number density = 24.640501 Si / 1000 Ang^3
#
#
#
# Elastic Constant Matrix: (Units=GPa)
#
#
# Indices 1 2 3 4 5 6 
#
# 1 87.1853 10.6849 11.4804 3.2778 -4.5536 -14.0255
# 2 10.6849 74.9754 25.9196 30.8900 -6.0013 -8.5885
# 3 11.4804 25.9196 76.6264 16.3500 6.2474 -0.7907
# 4 3.2778 30.8900 16.3500 34.2202 -7.2118 0.0463
# 5 -4.5536 -6.0013 6.2474 -7.2118 33.7077 4.8589
# 6 -14.0255 -8.5885 -0.7907 0.0463 4.8589 36.9901
#
#
#
# Elastic Compliance Matrix: (Units=1/GPa)
#
#
# Indices 1 2 3 4 5 6 
#
# 1 0.012558 -0.000849 -0.001819 0.000725 0.001412 0.004339
# 2 -0.000849 0.023137 -0.003549 -0.019149 -0.000158 0.005019
# 3 -0.001819 -0.003549 0.016056 -0.005330 -0.004919 -0.000518
# 4 0.000725 -0.019149 -0.005330 0.050970 0.009386 -0.005582
# 5 0.001412 -0.000158 -0.004919 0.009386 0.033325 -0.003996
# 6 0.004339 0.005019 -0.000518 -0.005582 -0.003996 0.030366
#
#
# Mechanical properties :
#
#
# Convention : Reuss Voigt Hill
#
# Bulk Modulus (GPa) = 25.43415 37.21745 31.32580
# Shear Modulus (GPa) = 26.04812 33.69709 29.87261
#
# Velocity S-wave (km/s) = 3.25488 3.70205 3.48564
# Velocity P-wave (km/s) = 4.94673 5.78018 5.37962
#
# Compressibility (1/GPa) = 0.03931722
#
# Stress axis : x y z
#
# Youngs Moduli (GPa) = 79.63053 43.22073 62.28121
#
# Poissons Ratio (x) = 0.03670 0.11330
# Poissons Ratio (y) = 0.06762 0.22101
# Poissons Ratio (z) = 0.14486 0.15337
#
# Static dielectric constant tensor:
#      x y z
#    x 5.262890 0.525300 -0.360870 
#    y 0.525300 5.050790 0.005240 
#    z -0.360870 0.005240 4.710140 
# 
# 
# High freq. dielectric constant tensor:
#      x y z
#    x 1.977550 -0.006340 0.010920 
#    y -0.006340 1.977530 0.012220 
#    z 0.010920 0.012220 1.988420 
# 
# From -- ./inp_files/186580.got.cif
#   From: 2010.06.25/outbox.cif.g09.slc.cpg/sg2_94_cif.got.tgz:186580.got - 2010.06.27 13:26:56.
