data_PCOD8018478
_publ_section_title
;
Structure prediction by ZEFSAII (Michael W. Deem and Ramdas Pophale) SiO2 
 PCOD8018478
Probable space group: P -1
;
_chemical_formula_sum "Si O2"
_cell_formula_units_Z 16
_cell_length_a 11.404747
_cell_length_b 9.342783
_cell_length_c 12.062111
_cell_angle_alpha 57.539994
_cell_angle_beta 45.657943
_cell_angle_gamma 77.800156
_cell_volume 746.451628
_symmetry_space_group_name_H-M "P -1"
_symmetry_group_IT_number 2
_symmetry_cell_setting 'triclinic'
loop_
_space_group_symop_operation_xyz
x,y,z
-x,-y,-z
loop_
_atom_site_type_symbol
_atom_site_label
_atom_site_fract_x
_atom_site_fract_y
_atom_site_fract_z
Si Si1 0.764596 0.110123 0.083507
Si Si2 0.628333 0.741996 0.215794
Si Si3 0.720489 0.400191 0.376917
Si Si4 0.309194 0.916505 0.619923
Si Si5 0.250517 0.481076 0.315907
Si Si6 0.535395 0.821048 0.013291
Si Si7 0.403442 0.182819 0.267893
Si Si8 0.022691 0.443146 0.684078
O O1 0.808619 0.082337 0.195403
O O2 0.599531 0.185281 0.154748
O O3 0.738597 0.927063 0.113248
O O4 0.924913 0.247819 0.867467
O O5 0.705038 0.588634 0.270065
O O6 0.435013 0.707477 0.399591
O O7 0.633185 0.747837 0.076332
O O8 0.726856 0.285109 0.311967
O O9 0.894049 0.435038 0.317873
O O10 0.500000 0.000000 0.500000
O O11 0.275669 0.033272 0.489875
O O12 0.353553 0.685265 0.164102
O O13 0.381193 0.370790 0.240854
O O14 0.173243 0.420911 0.512861
O O15 0.098114 0.454800 0.339106
O O16 0.646861 0.853093 0.813429
O O17 0.500000 0.000000 0.000000
#
# Coordination Sequence:
#
# PCOD8018478 Si02
#       8
#     2   2   2   2   2   2   2   2
#     4  11  23  43  70  99 136 174 226 275 337 396
#     4  11  23  39  69 103 125 183 230 268 322 408
#     4  11  23  41  67  97 136 178 222 276 335 395
#     4  10  22  40  66  97 134 169 224 282 322 383
#     4  11  25  42  68  99 136 182 218 272 345 402
#     4  12  21  40  71 100 133 165 232 277 318 396
#     4  11  23  41  69 101 124 184 228 273 322 401
#     4  11  25  44  67  97 144 174 221 277 348 391
#
# _framework density 21.434744999999999
#
# number of rings (size 3 to 8) (size 9 to 14) (size 15 to 20)
#    0.000    1.000    6.250    0.375    5.250    1.000 
#    0.000    0.625    0.000    0.000    0.000    0.000 
#    0.000    0.000    0.000    0.000    0.000    0.000 
#
# Total GULP energy -198432.638652 kJ/mol
# GULP energy per Si atom -12402.039916 kJ/mol
# Density = 2.138596 g / cm^3
# Si number density = 21.434745 Si / 1000 Ang^3
#
#
#
# Elastic Constant Matrix: (Units=GPa)
#
#
# Indices 1 2 3 4 5 6 
#
# 1 90.2465 42.4820 30.0830 0.9336 16.9432 28.6884
# 2 42.4820 119.6689 34.7921 -10.3655 -4.9586 23.0415
# 3 30.0830 34.7921 115.2589 -4.9671 29.2246 12.9076
# 4 0.9336 -10.3655 -4.9671 31.8028 13.6406 1.6485
# 5 16.9432 -4.9586 29.2246 13.6406 36.4289 2.8097
# 6 28.6884 23.0415 12.9076 1.6485 2.8097 31.2861
#
#
#
# Elastic Compliance Matrix: (Units=1/GPa)
#
#
# Indices 1 2 3 4 5 6 
#
# 1 0.019284 -0.004496 0.000587 0.003135 -0.010156 -0.013867
# 2 -0.004496 0.012141 -0.003719 0.000830 0.006720 -0.003932
# 3 0.000587 -0.003719 0.013925 0.007292 -0.014478 -0.002628
# 4 0.003135 0.000830 0.007292 0.042856 -0.022724 -0.006712
# 5 -0.010156 0.006720 -0.014478 -0.022724 0.052688 0.006803
# 6 -0.013867 -0.003932 -0.002628 -0.006712 0.006803 0.048402
#
#
# Mechanical properties :
#
#
# Convention : Reuss Voigt Hill
#
# Bulk Modulus (GPa) = 33.22854 59.98760 46.60807
# Shear Modulus (GPa) = 23.30103 34.42471 28.86287
#
# Velocity S-wave (km/s) = 3.30065 4.01187 3.67351
# Velocity P-wave (km/s) = 5.48284 7.03612 6.30748
#
# Compressibility (1/GPa) = 0.03009462
#
# Stress axis : x y z
#
# Youngs Moduli (GPa) = 51.85683 82.36519 71.81248
#
# Poissons Ratio (x) = 0.37028 -0.04217
# Poissons Ratio (y) = 0.23313 0.26709
# Poissons Ratio (z) = -0.03045 0.30634
#
# Static dielectric constant tensor:
#      x y z
#    x 4.043210 0.267670 0.612420 
#    y 0.267670 3.727980 0.045580 
#    z 0.612420 0.045580 4.428110 
# 
# 
# High freq. dielectric constant tensor:
#      x y z
#    x 1.830160 0.017750 0.029120 
#    y 0.017750 1.836250 -0.010420 
#    z 0.029120 -0.010420 1.849530 
# 
# From -- ./inp_files/274359.got.cif
#   From: 2010.06.25/outbox.cif.g09.slc.cpg/sg2_138_cif.got.tgz:274359.got - 2010.06.27 13:26:56.
