data_PCOD8018993
_publ_section_title
;
Structure prediction by ZEFSAII (Michael W. Deem and Ramdas Pophale) SiO2 
 PCOD8018993
Probable space group: P -1
;
_chemical_formula_sum "Si O2"
_cell_formula_units_Z 16
_cell_length_a 14.795969
_cell_length_b 7.873485
_cell_length_c 10.020259
_cell_angle_alpha 136.208644
_cell_angle_beta 89.497037
_cell_angle_gamma 69.804639
_cell_volume 695.785337
_symmetry_space_group_name_H-M "P -1"
_symmetry_group_IT_number 2
_symmetry_cell_setting 'triclinic'
loop_
_space_group_symop_operation_xyz
x,y,z
-x,-y,-z
loop_
_atom_site_type_symbol
_atom_site_label
_atom_site_fract_x
_atom_site_fract_y
_atom_site_fract_z
Si Si1 0.815519 0.091326 0.424602
Si Si2 0.153042 0.520422 0.919203
Si Si3 0.382352 0.407194 0.200074
Si Si4 0.891325 0.530322 0.390008
Si Si5 0.011531 0.103977 0.379979
Si Si6 0.481219 0.349048 0.633783
Si Si7 0.386641 0.232727 0.807940
Si Si8 0.302743 0.425282 0.480370
O O1 0.849104 0.766851 0.215029
O O2 0.720646 0.271503 0.634130
O O3 0.774607 0.239924 0.363662
O O4 0.914734 0.133026 0.486882
O O5 0.109948 0.631231 0.834769
O O6 0.269838 0.462734 0.897854
O O7 0.081171 0.768927 0.162282
O O8 0.490068 0.404952 0.228930
O O9 0.363661 0.261571 0.249288
O O10 0.401077 0.229955 0.965172
O O11 0.920889 0.770915 0.480499
O O12 0.771298 0.699525 0.544267
O O13 0.973742 0.291044 0.351403
O O14 0.466496 0.296440 0.759857
O O15 0.379632 0.410505 0.586536
O O16 0.584454 0.082317 0.415617
#
# Coordination Sequence:
#
# PCOD8018993 Si02
#       8
#     2   2   2   2   2   2   2   2
#     4   9  22  42  64  96 134 167 217 273 320 391
#     4  12  22  41  66  96 131 172 221 270 325 390
#     4  10  22  41  63  94 135 167 216 267 324 389
#     4  10  22  44  64  95 130 171 222 270 319 397
#     4  10  23  42  67  95 128 177 216 271 330 382
#     4  11  21  43  65  94 134 174 214 274 323 382
#     4  11  24  38  65  99 130 172 221 262 330 392
#     4   9  20  42  70  91 134 177 212 269 332 378
#
# _framework density 22.995595999999999
#
# number of rings (size 3 to 8) (size 9 to 14) (size 15 to 20)
#    0.750    1.000    2.500    1.500    1.750    1.000 
#    4.500    3.750    0.000    0.000    0.000    0.000 
#    0.000    0.000    0.000    0.000    0.000    0.000 
#
# Total GULP energy -198244.868356 kJ/mol
# GULP energy per Si atom -12390.304272 kJ/mol
# Density = 2.294326 g / cm^3
# Si number density = 22.995596 Si / 1000 Ang^3
#
#
#
# Elastic Constant Matrix: (Units=GPa)
#
#
# Indices 1 2 3 4 5 6 
#
# 1 129.5760 20.6169 41.1175 -7.9028 -2.3729 0.0566
# 2 20.6169 23.3802 27.2590 -11.5136 1.3637 8.4158
# 3 41.1175 27.2590 91.4186 -10.6872 -5.2196 0.4695
# 4 -7.9028 -11.5136 -10.6872 34.4827 -2.1839 2.4980
# 5 -2.3729 1.3637 -5.2196 -2.1839 20.5331 0.2719
# 6 0.0566 8.4158 0.4695 2.4980 0.2719 34.6083
#
#
#
# Elastic Compliance Matrix: (Units=1/GPa)
#
#
# Indices 1 2 3 4 5 6 
#
# 1 0.009490 -0.006770 -0.002312 -0.000873 0.000843 0.001719
# 2 -0.006770 0.098833 -0.023941 0.025211 -0.010414 -0.025435
# 3 -0.002312 -0.023941 0.019111 -0.002646 0.005824 0.005712
# 4 -0.000873 0.025211 -0.002646 0.037137 0.001618 -0.008786
# 5 0.000843 -0.010414 0.005824 0.001618 0.051118 0.001934
# 6 0.001719 -0.025435 0.005712 -0.008786 0.001934 0.035619
#
#
# Mechanical properties :
#
#
# Convention : Reuss Voigt Hill
#
# Bulk Modulus (GPa) = 16.29028 46.92906 31.60967
# Shear Modulus (GPa) = 14.80089 28.28358 21.54223
#
# Velocity S-wave (km/s) = 2.53976 3.51088 3.06404
# Velocity P-wave (km/s) = 3.96232 6.07348 5.12773
#
# Compressibility (1/GPa) = 0.06138628
#
# Stress axis : x y z
#
# Youngs Moduli (GPa) = 105.37557 10.11809 52.32466
#
# Poissons Ratio (x) = 0.06850 0.12099
# Poissons Ratio (y) = 0.71341 1.25273
# Poissons Ratio (z) = 0.24367 0.24224
#
# Static dielectric constant tensor:
#      x y z
#    x 4.311800 -0.041320 -0.146400 
#    y -0.041320 4.016470 -0.063680 
#    z -0.146400 -0.063680 3.752870 
# 
# 
# High freq. dielectric constant tensor:
#      x y z
#    x 1.924250 -0.006950 -0.009650 
#    y -0.006950 1.911540 -0.008680 
#    z -0.009650 -0.008680 1.876270 
# 
# From -- ./inp_files/448351.got.cif
#   From: 2010.06.25/outbox.cif.g09.slc.cpg/sg2_225_cif.got.tgz:448351.got - 2010.06.27 13:26:56.
