data_PCOD8018684
_publ_section_title
;
Structure prediction by ZEFSAII (Michael W. Deem and Ramdas Pophale) SiO2 
 PCOD8018684
Probable space group: P -1
;
_chemical_formula_sum "Si O2"
_cell_formula_units_Z 16
_cell_length_a 11.690889
_cell_length_b 8.893895
_cell_length_c 9.192424
_cell_angle_alpha 78.811053
_cell_angle_beta 68.039278
_cell_angle_gamma 58.170285
_cell_volume 753.141233
_symmetry_space_group_name_H-M "P -1"
_symmetry_group_IT_number 2
_symmetry_cell_setting 'triclinic'
loop_
_space_group_symop_operation_xyz
x,y,z
-x,-y,-z
loop_
_atom_site_type_symbol
_atom_site_label
_atom_site_fract_x
_atom_site_fract_y
_atom_site_fract_z
Si Si1 0.214135 0.145358 0.799551
Si Si2 0.149489 0.925561 0.666499
Si Si3 0.679840 0.440897 0.498100
Si Si4 0.863087 0.599136 0.453057
Si Si5 0.425528 0.644530 0.136628
Si Si6 0.843393 0.979205 0.864349
Si Si7 0.761503 0.912841 0.622506
Si Si8 0.457657 0.239186 0.709339
O O1 0.109433 0.319265 0.722401
O O2 0.357614 0.154115 0.755584
O O3 0.235705 0.970254 0.739091
O O4 0.145537 0.143725 0.984282
O O5 0.256883 0.726129 0.606454
O O6 0.118600 0.058158 0.520898
O O7 0.995570 0.966744 0.787059
O O8 0.814939 0.460925 0.463986
O O9 0.617527 0.425636 0.685825
O O10 0.567081 0.609762 0.425495
O O11 0.748220 0.754894 0.583610
O O12 0.000000 0.500000 0.500000
O O13 0.285163 0.816011 0.105251
O O14 0.541621 0.694920 0.136410
O O15 0.500000 0.500000 0.000000
O O16 0.811569 0.877867 0.770650
O O17 0.615045 0.087897 0.630141
#
# Coordination Sequence:
#
# PCOD8018684 Si02
#       8
#     2   2   2   2   2   2   2   2
#     4  10  25  41  67  93 136 176 211 274 322 394
#     4  11  22  41  68  96 127 181 219 262 327 388
#     4  11  23  42  68  99 129 170 223 275 312 395
#     4  10  23  41  65  95 128 171 221 265 325 390
#     4  11  26  40  67 100 132 171 210 285 328 377
#     4  11  23  42  66  98 134 168 224 267 331 392
#     4  10  22  40  69  93 127 182 214 273 318 395
#     4  10  23  46  64  98 131 174 229 254 332 387
#
# _framework density 21.244357000000001
#
# number of rings (size 3 to 8) (size 9 to 14) (size 15 to 20)
#    0.000    1.500    2.500    1.875    5.250    9.500 
#    0.000    5.625    0.000    0.000    0.000    0.000 
#    0.000    0.000    0.000    0.000    0.000    0.000 
#
# Total GULP energy -198219.382999 kJ/mol
# GULP energy per Si atom -12388.711437 kJ/mol
# Density = 2.119600 g / cm^3
# Si number density = 21.244357 Si / 1000 Ang^3
#
#
#
# Elastic Constant Matrix: (Units=GPa)
#
#
# Indices 1 2 3 4 5 6 
#
# 1 132.9117 67.4495 70.7663 -8.4698 13.3087 5.5469
# 2 67.4495 81.1597 54.5094 0.1930 5.1461 14.5025
# 3 70.7663 54.5094 151.7058 -3.9628 8.0289 2.1466
# 4 -8.4698 0.1930 -3.9628 22.4492 2.6073 3.3110
# 5 13.3087 5.1461 8.0289 2.6073 30.7037 -1.1859
# 6 5.5469 14.5025 2.1466 3.3110 -1.1859 29.7811
#
#
#
# Elastic Compliance Matrix: (Units=1/GPa)
#
#
# Indices 1 2 3 4 5 6 
#
# 1 0.015273 -0.010815 -0.002882 0.005594 -0.004458 0.001830
# 2 -0.010815 0.025852 -0.004279 -0.003779 0.001417 -0.009790
# 3 -0.002882 -0.004279 0.009483 0.000402 -0.000475 0.001874
# 4 0.005594 -0.003779 0.000402 0.048189 -0.006176 -0.004835
# 5 -0.004458 0.001417 -0.000475 -0.006176 0.035000 0.002255
# 6 0.001830 -0.009790 0.001874 -0.004835 0.002255 0.038497
#
#
# Mechanical properties :
#
#
# Convention : Reuss Voigt Hill
#
# Bulk Modulus (GPa) = 68.23550 83.46973 75.85262
# Shear Modulus (GPa) = 23.45951 28.12359 25.79155
#
# Velocity S-wave (km/s) = 3.32666 3.64237 3.48809
# Velocity P-wave (km/s) = 6.85162 7.55412 7.21143
#
# Compressibility (1/GPa) = 0.01465513
#
# Stress axis : x y z
#
# Youngs Moduli (GPa) = 65.47336 38.68188 105.45226
#
# Poissons Ratio (x) = 0.41834 0.30396
# Poissons Ratio (y) = 0.70809 0.45125
# Poissons Ratio (z) = 0.18873 0.16553
#
# Static dielectric constant tensor:
#      x y z
#    x 3.594670 -0.523360 0.124380 
#    y -0.523360 2.756400 -0.175610 
#    z 0.124380 -0.175610 3.908780 
# 
# 
# High freq. dielectric constant tensor:
#      x y z
#    x 1.850390 0.013700 0.015530 
#    y 0.013700 1.834900 -0.006890 
#    z 0.015530 -0.006890 1.827470 
# 
# From -- ./inp_files/242891.got.cif
#   From: 2010.06.25/outbox.cif.g09.slc.cpg/sg2_122_cif.got.tgz:242891.got - 2010.06.27 13:26:56.
