data_PCOD8018860
_publ_section_title
;
Structure prediction by ZEFSAII (Michael W. Deem and Ramdas Pophale) SiO2 
 PCOD8018860
Probable space group: P -1
;
_chemical_formula_sum "Si O2"
_cell_formula_units_Z 16
_cell_length_a 11.089644
_cell_length_b 21.996099
_cell_length_c 8.002197
_cell_angle_alpha 52.298853
_cell_angle_beta 133.620297
_cell_angle_gamma 148.986664
_cell_volume 726.995690
_symmetry_space_group_name_H-M "P -1"
_symmetry_group_IT_number 2
_symmetry_cell_setting 'triclinic'
loop_
_space_group_symop_operation_xyz
x,y,z
-x,-y,-z
loop_
_atom_site_type_symbol
_atom_site_label
_atom_site_fract_x
_atom_site_fract_y
_atom_site_fract_z
Si Si1 0.379646 0.621696 0.030696
Si Si2 0.838889 0.892593 0.403964
Si Si3 0.068440 0.430148 0.318632
Si Si4 0.031643 0.202517 0.135863
Si Si5 0.331051 0.022369 0.035911
Si Si6 0.107775 0.773082 0.703031
Si Si7 0.646632 0.588101 0.143425
Si Si8 0.065250 0.144320 0.774604
O O1 0.276050 0.560343 0.217074
O O2 0.436763 0.562139 0.089952
O O3 0.634896 0.763114 0.052163
O O4 0.160942 0.598328 0.773092
O O5 0.006325 0.925090 0.348229
O O6 0.764398 0.789428 0.609345
O O7 0.000000 0.000000 0.500000
O O8 0.616172 0.872270 0.162703
O O9 0.214242 0.431376 0.592941
O O10 0.938352 0.330727 0.219086
O O11 0.986631 0.249499 0.158351
O O12 0.764367 0.068191 0.050740
O O13 0.141454 0.278346 0.946183
O O14 0.112575 0.949787 0.090829
O O15 0.600313 0.093321 0.253023
O O16 0.961488 0.773566 0.424449
O O17 0.500000 0.500000 0.000000
#
# Coordination Sequence:
#
# PCOD8018860 Si02
#       8
#     2   2   2   2   2   2   2   2
#     4  11  24  45  70  97 134 170 229 282 329 402
#     4   9  21  36  57  88 131 173 216 268 327 393
#     4  11  25  44  68 102 128 175 231 273 340 400
#     4  10  22  41  60  95 134 177 218 269 345 397
#     4  11  20  39  61  99 130 173 231 269 335 398
#     4  11  22  39  64  95 134 178 220 280 334 400
#     4  12  25  44  71  98 135 176 221 281 341 399
#     4  11  21  38  67  90 131 180 218 278 334 393
#
# _framework density 22.008384
#
# number of rings (size 3 to 8) (size 9 to 14) (size 15 to 20)
#    0.000    1.250    2.500    3.000    3.500    0.500 
#    2.250    1.250    0.000    0.000    0.000    0.000 
#    0.000    0.000    0.000    0.000    0.000    0.000 
#
# Total GULP energy -198305.268561 kJ/mol
# GULP energy per Si atom -12394.079285 kJ/mol
# Density = 2.195829 g / cm^3
# Si number density = 22.008384 Si / 1000 Ang^3
#
#
#
# Elastic Constant Matrix: (Units=GPa)
#
#
# Indices 1 2 3 4 5 6 
#
# 1 88.7836 23.7268 61.1311 9.0193 11.4574 5.7069
# 2 23.7268 68.6190 24.9262 5.2782 6.1071 7.8066
# 3 61.1311 24.9262 122.8138 -1.7218 15.9956 2.7994
# 4 9.0193 5.2782 -1.7218 32.0905 -1.0667 -0.9550
# 5 11.4574 6.1071 15.9956 -1.0667 35.8986 2.6647
# 6 5.7069 7.8066 2.7994 -0.9550 2.6647 35.6049
#
#
#
# Elastic Compliance Matrix: (Units=1/GPa)
#
#
# Indices 1 2 3 4 5 6 
#
# 1 0.018793 -0.002585 -0.008639 -0.005431 -0.001738 -0.001782
# 2 -0.002585 0.016792 -0.001952 -0.002266 -0.000999 -0.003100
# 3 -0.008639 -0.001952 0.013224 0.003398 -0.002782 0.001072
# 4 -0.005431 -0.002266 0.003398 0.033348 0.001456 0.001886
# 5 -0.001738 -0.000999 -0.002782 0.001456 0.029974 -0.001488
# 6 -0.001782 -0.003100 0.001072 0.001886 -0.001488 0.029129
#
#
# Mechanical properties :
#
#
# Convention : Reuss Voigt Hill
#
# Bulk Modulus (GPa) = 44.52978 55.53161 50.03070
# Shear Modulus (GPa) = 28.55550 32.08095 30.31823
#
# Velocity S-wave (km/s) = 3.60597 3.82209 3.71560
# Velocity P-wave (km/s) = 6.13305 6.69063 6.41790
#
# Compressibility (1/GPa) = 0.02245688
#
# Stress axis : x y z
#
# Youngs Moduli (GPa) = 53.21192 59.55176 75.61928
#
# Poissons Ratio (x) = 0.15393 0.65325
# Poissons Ratio (y) = 0.13755 0.14765
# Poissons Ratio (z) = 0.45968 0.11627
#
# Static dielectric constant tensor:
#      x y z
#    x 4.095760 -0.150500 0.175910 
#    y -0.150500 3.909650 -0.224480 
#    z 0.175910 -0.224480 4.436010 
# 
# 
# High freq. dielectric constant tensor:
#      x y z
#    x 1.866800 -0.019830 0.001190 
#    y -0.019830 1.854910 -0.004910 
#    z 0.001190 -0.004910 1.872240 
# 
# From -- ./inp_files/284767.got.cif
#   From: 2010.06.25/outbox.cif.g09.slc.cpg/sg2_143_cif.got.tgz:284767.got - 2010.06.27 13:26:56.
