data_PCOD8018159
_publ_section_title
;
Structure prediction by ZEFSAII (Michael W. Deem and Ramdas Pophale) SiO2 
 PCOD8018159
Probable space group: P -1
;
_chemical_formula_sum "Si O2"
_cell_formula_units_Z 14
_cell_length_a 12.341982
_cell_length_b 11.359972
_cell_length_c 14.154910
_cell_angle_alpha 150.006011
_cell_angle_beta 42.094038
_cell_angle_gamma 128.979879
_cell_volume 664.511503
_symmetry_space_group_name_H-M "P -1"
_symmetry_group_IT_number 2
_symmetry_cell_setting 'triclinic'
loop_
_space_group_symop_operation_xyz
x,y,z
-x,-y,-z
loop_
_atom_site_type_symbol
_atom_site_label
_atom_site_fract_x
_atom_site_fract_y
_atom_site_fract_z
Si Si1 0.407109 0.965266 0.768722
Si Si2 0.111099 0.787815 0.179527
Si Si3 0.328187 0.909634 0.575395
Si Si4 0.756540 0.863042 0.518371
Si Si5 0.770696 0.341685 0.190277
Si Si6 0.119347 0.372997 0.030354
Si Si7 0.326004 0.479285 0.143741
O O1 0.334358 0.850644 0.641784
O O2 0.603068 0.983136 0.645707
O O3 0.364508 0.809001 0.777513
O O4 0.324688 0.224641 0.017408
O O5 0.918080 0.849784 0.340110
O O6 0.204963 0.990987 0.311688
O O7 0.184770 0.774616 0.019423
O O8 0.139726 0.538267 0.040562
O O9 0.283837 0.676589 0.385919
O O10 0.500000 0.000000 0.500000
O O11 0.198765 0.117505 0.779899
O O12 0.700699 0.606470 0.406675
O O13 0.930696 0.342477 0.152502
O O14 0.193319 0.500654 0.161802
O O15 0.500000 0.500000 0.000000
#
# Coordination Sequence:
#
# PCOD8018159 Si02
#       7
#     2   2   2   2   2   2   2
#     4  11  25  41  63  92 131 157 207 255 307 370
#     4  10  23  38  67  93 121 165 209 251 307 357
#     4  11  24  38  65  93 116 160 206 255 312 353
#     4  10  22  40  63  93 124 164 209 251 298 371
#     4  11  25  41  60  94 127 170 197 251 315 361
#     4  10  22  40  63  89 128 157 209 255 295 374
#     4  11  22  39  63  95 117 158 208 258 307 355
#
# _framework density 21.068109
#
# number of rings (size 3 to 8) (size 9 to 14) (size 15 to 20)
#    0.000    1.429    2.857    3.000    4.000    6.286 
#    0.000    1.429    0.000    0.000    0.000    0.000 
#    0.000    0.000    0.000    0.000    0.000    0.000 
#
# Total GULP energy -173635.814546 kJ/mol
# GULP energy per Si atom -12402.558182 kJ/mol
# Density = 2.102016 g / cm^3
# Si number density = 21.068109 Si / 1000 Ang^3
#
#
#
# Elastic Constant Matrix: (Units=GPa)
#
#
# Indices 1 2 3 4 5 6 
#
# 1 117.0899 16.4861 62.8782 -5.6825 9.7848 1.2927
# 2 16.4861 64.2561 23.5813 -8.6923 18.5269 -9.0133
# 3 62.8782 23.5813 119.9190 5.4875 25.5218 -0.5391
# 4 -5.6825 -8.6923 5.4875 19.4388 11.5007 5.4245
# 5 9.7848 18.5269 25.5218 11.5007 42.1481 1.8860
# 6 1.2927 -9.0133 -0.5391 5.4245 1.8860 23.9917
#
#
#
# Elastic Compliance Matrix: (Units=1/GPa)
#
#
# Indices 1 2 3 4 5 6 
#
# 1 0.012572 -0.000047 -0.006794 0.006473 -0.000449 -0.002276
# 2 -0.000047 0.023839 -0.002445 0.018073 -0.014184 0.005932
# 3 -0.006794 -0.002445 0.013518 -0.004663 -0.004313 0.001145
# 4 0.006473 0.018073 -0.004663 0.082516 -0.028688 -0.010066
# 5 -0.000449 -0.014184 -0.004313 -0.028688 0.040598 -0.002107
# 6 -0.002276 0.005932 0.001145 -0.010066 -0.002107 0.046500
#
#
# Mechanical properties :
#
#
# Convention : Reuss Voigt Hill
#
# Bulk Modulus (GPa) = 31.88930 56.35068 44.11999
# Shear Modulus (GPa) = 20.11539 30.33699 25.22619
#
# Velocity S-wave (km/s) = 3.09330 3.79878 3.46405
# Velocity P-wave (km/s) = 5.28462 6.78572 6.08166
#
# Compressibility (1/GPa) = 0.03135848
#
# Stress axis : x y z
#
# Youngs Moduli (GPa) = 79.54130 41.94882 73.97343
#
# Poissons Ratio (x) = 0.00196 0.50256
# Poissons Ratio (y) = 0.00371 0.18085
# Poissons Ratio (z) = 0.54039 0.10256
#
# Static dielectric constant tensor:
#      x y z
#    x 3.973770 0.119560 0.168770 
#    y 0.119560 3.582940 0.255770 
#    z 0.168770 0.255770 3.746790 
# 
# 
# High freq. dielectric constant tensor:
#      x y z
#    x 1.839670 0.005090 -0.003990 
#    y 0.005090 1.803590 0.017410 
#    z -0.003990 0.017410 1.833850 
# 
# From -- ./inp_files/294140.got.cif
#   From: 2010.06.25/outbox.cif.g09.slc.cpg/sg2_148_cif.got.tgz:294140.got - 2010.06.27 13:26:56.
