data_PCOD8018035
_publ_section_title
;
Structure prediction by ZEFSAII (Michael W. Deem and Ramdas Pophale) SiO2 
 PCOD8018035
Probable space group: P -1
;
_chemical_formula_sum "Si O2"
_cell_formula_units_Z 16
_cell_length_a 8.262627
_cell_length_b 30.533976
_cell_length_c 9.128338
_cell_angle_alpha 38.494629
_cell_angle_beta 32.955166
_cell_angle_gamma 40.268679
_cell_volume 740.371965
_symmetry_space_group_name_H-M "P -1"
_symmetry_group_IT_number 2
_symmetry_cell_setting 'triclinic'
loop_
_space_group_symop_operation_xyz
x,y,z
-x,-y,-z
loop_
_atom_site_type_symbol
_atom_site_label
_atom_site_fract_x
_atom_site_fract_y
_atom_site_fract_z
Si Si1 0.067638 0.914187 0.647916
Si Si2 0.200898 0.797512 0.342017
Si Si3 0.726778 0.339257 0.151508
Si Si4 0.865582 0.572723 0.500243
Si Si5 0.529636 0.847789 0.213416
Si Si6 0.533687 0.801841 0.782255
Si Si7 0.286062 0.297895 0.373454
Si Si8 0.855470 0.452379 0.335118
O O1 0.269818 0.886683 0.424245
O O2 0.242501 0.870812 0.771000
O O3 0.000000 0.000000 0.500000
O O4 0.745426 0.899099 0.898279
O O5 0.173797 0.732816 0.637520
O O6 0.356180 0.847548 0.190536
O O7 0.832669 0.832868 0.487305
O O8 0.417781 0.773662 0.095075
O O9 0.548960 0.329951 0.160724
O O10 0.507916 0.402273 0.260545
O O11 0.035712 0.359413 0.820682
O O12 0.009401 0.549630 0.605460
O O13 0.000000 0.500000 0.500000
O O14 0.740295 0.766100 0.325781
O O15 0.611883 0.734797 0.780249
O O16 0.955634 0.365598 0.431212
O O17 0.500000 0.500000 0.500000
O O18 0.000000 0.500000 0.000000
#
# Coordination Sequence:
#
# PCOD8018035 Si02
#       8
#     2   2   2   2   2   2   2   2
#     4  11  23  43  67  95 129 175 214 245 303 384
#     4  11  23  40  63  99 126 154 210 268 319 357
#     4  10  22  40  61  81 114 159 200 250 310 377
#     4  11  23  40  57  80 114 158 202 246 310 385
#     4  10  22  42  68  91 128 173 209 254 312 382
#     4  11  23  39  64  97 128 158 209 270 306 365
#     4   9  22  41  63  87 119 165 210 251 313 380
#     4  11  24  39  58  86 120 156 200 258 312 362
#
# _framework density 21.610757
#
# number of rings (size 3 to 8) (size 9 to 14) (size 15 to 20)
#    0.000    1.500    0.000    5.250    0.000   16.000 
#    0.000    3.750    0.000    0.000    0.000    0.000 
#    0.000    0.000    0.000    0.000    0.000    0.000 
#
# Total GULP energy -198267.197464 kJ/mol
# GULP energy per Si atom -12391.699841 kJ/mol
# Density = 2.156157 g / cm^3
# Si number density = 21.610757 Si / 1000 Ang^3
#
#
#
# Elastic Constant Matrix: (Units=GPa)
#
#
# Indices 1 2 3 4 5 6 
#
# 1 94.8115 38.6744 50.6794 1.3797 2.7144 12.0539
# 2 38.6744 139.3191 36.9842 -3.0243 3.3846 3.7066
# 3 50.6794 36.9842 133.6300 10.8622 0.7721 13.4935
# 4 1.3797 -3.0243 10.8622 32.4995 3.1490 -5.6494
# 5 2.7144 3.3846 0.7721 3.1490 32.8421 5.2772
# 6 12.0539 3.7066 13.4935 -5.6494 5.2772 29.7610
#
#
#
# Elastic Compliance Matrix: (Units=1/GPa)
#
#
# Indices 1 2 3 4 5 6 
#
# 1 0.014455 -0.002755 -0.004367 0.000008 -0.000249 -0.003486
# 2 -0.002755 0.008378 -0.001537 0.001724 -0.000969 0.001268
# 3 -0.004367 -0.001537 0.010270 -0.004159 0.001273 -0.003712
# 4 0.000008 0.001724 -0.004159 0.034360 -0.004829 0.009046
# 5 -0.000249 -0.000969 0.001273 -0.004829 0.032122 -0.006968
# 6 -0.003486 0.001268 -0.003712 0.009046 -0.006968 0.039491
#
#
# Mechanical properties :
#
#
# Convention : Reuss Voigt Hill
#
# Bulk Modulus (GPa) = 63.34339 68.93740 66.14040
# Shear Modulus (GPa) = 30.93016 35.11536 33.02276
#
# Velocity S-wave (km/s) = 3.78728 4.03538 3.91330
# Velocity P-wave (km/s) = 6.96414 7.32675 7.14774
#
# Compressibility (1/GPa) = 0.01578697
#
# Stress axis : x y z
#
# Youngs Moduli (GPa) = 69.17854 119.36675 97.36821
#
# Poissons Ratio (x) = 0.32880 0.42521
# Poissons Ratio (y) = 0.19055 0.14961
# Poissons Ratio (z) = 0.30210 0.18342
#
# Static dielectric constant tensor:
#      x y z
#    x 4.227510 -0.064310 0.017460 
#    y -0.064310 3.867570 -0.023100 
#    z 0.017460 -0.023100 3.906110 
# 
# 
# High freq. dielectric constant tensor:
#      x y z
#    x 1.853060 0.001640 0.005720 
#    y 0.001640 1.841930 0.016050 
#    z 0.005720 0.016050 1.858450 
# 
# From -- ./inp_files/223349.got.cif
#   From: 2010.06.25/outbox.cif.g09.slc.cpg/sg2_112_cif.got.tgz:223349.got - 2010.06.27 13:26:56.
