data_PCOD8018964
_publ_section_title
;
Structure prediction by ZEFSAII (Michael W. Deem and Ramdas Pophale) SiO2 
 PCOD8018964
Probable space group: P -1
;
_chemical_formula_sum "Si O2"
_cell_formula_units_Z 16
_cell_length_a 13.173660
_cell_length_b 24.587961
_cell_length_c 8.654328
_cell_angle_alpha 131.114579
_cell_angle_beta 149.969558
_cell_angle_gamma 33.403416
_cell_volume 750.422775
_symmetry_space_group_name_H-M "P -1"
_symmetry_group_IT_number 2
_symmetry_cell_setting 'triclinic'
loop_
_space_group_symop_operation_xyz
x,y,z
-x,-y,-z
loop_
_atom_site_type_symbol
_atom_site_label
_atom_site_fract_x
_atom_site_fract_y
_atom_site_fract_z
Si Si1 0.126968 0.655233 0.766927
Si Si2 0.711280 0.116229 0.305498
Si Si3 0.985436 0.154135 0.943631
Si Si4 0.276924 0.453584 0.176631
Si Si5 0.955607 0.095537 0.115856
Si Si6 0.383589 0.513514 0.125351
Si Si7 0.536296 0.746082 0.048120
Si Si8 0.457459 0.034948 0.840706
O O1 0.381036 0.590811 0.855216
O O2 0.851916 0.698535 0.390446
O O3 0.165252 0.594900 0.856281
O O4 0.098144 0.742541 0.954847
O O5 0.720227 0.181726 0.556849
O O6 0.668339 0.156925 0.153675
O O7 0.456966 0.122635 0.004074
O O8 0.000000 0.000000 0.500000
O O9 0.050328 0.097981 0.080888
O O10 0.291237 0.069546 0.110606
O O11 0.222548 0.507093 0.036844
O O12 0.469526 0.454910 0.541442
O O13 0.454746 0.337894 0.155217
O O14 0.000000 0.500000 0.000000
O O15 0.149190 0.087212 0.479661
O O16 0.627944 0.203130 0.911341
O O17 0.000000 0.000000 0.000000
O O18 0.500000 0.000000 0.000000
#
# Coordination Sequence:
#
# PCOD8018964 Si02
#       8
#     2   2   2   2   2   2   2   2
#     4  11  23  44  67 103 132 180 227 286 353 411
#     4  10  22  41  63  91 129 173 223 276 328 399
#     4  11  22  40  62  94 128 170 228 275 341 410
#     4  11  23  47  70 104 134 181 231 285 346 413
#     4  12  23  39  62  95 134 173 224 283 341 401
#     4  10  24  46  72  96 144 175 227 295 347 408
#     4  12  24  42  68  97 134 180 228 274 346 411
#     4  11  22  40  62  87 130 176 221 278 332 399
#
# _framework density 21.321315999999999
#
# number of rings (size 3 to 8) (size 9 to 14) (size 15 to 20)
#    0.000    1.000    1.250    7.125    0.000    0.500 
#    6.750    0.000    0.000    0.000    0.000    0.000 
#    0.000    0.000    0.000    0.000    0.000    0.000 
#
# Total GULP energy -198296.376236 kJ/mol
# GULP energy per Si atom -12393.523515 kJ/mol
# Density = 2.127279 g / cm^3
# Si number density = 21.321316 Si / 1000 Ang^3
#
#
#
# Elastic Constant Matrix: (Units=GPa)
#
#
# Indices 1 2 3 4 5 6 
#
# 1 156.7952 51.4014 25.9855 -7.5640 2.7221 9.1890
# 2 51.4014 124.4705 30.2612 9.2712 6.4509 -0.1705
# 3 25.9855 30.2612 96.8696 1.7665 -3.1121 17.1797
# 4 -7.5640 9.2712 1.7665 35.2786 4.9178 -1.9078
# 5 2.7221 6.4509 -3.1121 4.9178 36.0219 -2.7138
# 6 9.1890 -0.1705 17.1797 -1.9078 -2.7138 35.2545
#
#
#
# Elastic Compliance Matrix: (Units=1/GPa)
#
#
# Indices 1 2 3 4 5 6 
#
# 1 0.007783 -0.003158 -0.000897 0.002540 -0.000561 -0.001512
# 2 -0.003158 0.010283 -0.002694 -0.002961 -0.001286 0.001926
# 3 -0.000897 -0.002694 0.012486 -0.000601 0.001274 -0.005798
# 4 0.002540 -0.002961 -0.000601 0.030277 -0.003774 0.000964
# 5 -0.000561 -0.001286 0.001274 -0.003774 0.028774 0.001530
# 6 -0.001512 0.001926 -0.005798 0.000964 0.001530 0.031764
#
#
# Mechanical properties :
#
#
# Convention : Reuss Voigt Hill
#
# Bulk Modulus (GPa) = 58.64296 65.93682 62.28989
# Shear Modulus (GPa) = 35.57472 39.34349 37.45910
#
# Velocity S-wave (km/s) = 4.08917 4.30032 4.19607
# Velocity P-wave (km/s) = 7.06110 7.45985 7.26321
#
# Compressibility (1/GPa) = 0.01705235
#
# Stress axis : x y z
#
# Youngs Moduli (GPa) = 128.49180 97.24791 80.09208
#
# Poissons Ratio (x) = 0.30710 0.07187
# Poissons Ratio (y) = 0.40577 0.21578
# Poissons Ratio (z) = 0.11530 0.26200
#
# Static dielectric constant tensor:
#      x y z
#    x 4.234010 -0.017720 0.021860 
#    y -0.017720 4.071310 0.212290 
#    z 0.021860 0.212290 4.176770 
# 
# 
# High freq. dielectric constant tensor:
#      x y z
#    x 1.851810 0.004320 -0.008670 
#    y 0.004320 1.838830 0.015400 
#    z -0.008670 0.015400 1.843960 
# 
# From -- ./inp_files/283303.got.cif
#   From: 2010.06.25/outbox.cif.g09.slc.cpg/sg2_142_cif.got.tgz:283303.got - 2010.06.27 13:26:56.
