data_PCOD8018554
_publ_section_title
;
Structure prediction by ZEFSAII (Michael W. Deem and Ramdas Pophale) SiO2 
 PCOD8018554
Probable space group: P -1
;
_chemical_formula_sum "Si O2"
_cell_formula_units_Z 16
_cell_length_a 15.163200
_cell_length_b 9.008463
_cell_length_c 9.001168
_cell_angle_alpha 100.217763
_cell_angle_beta 134.059152
_cell_angle_gamma 101.362002
_cell_volume 775.225140
_symmetry_space_group_name_H-M "P -1"
_symmetry_group_IT_number 2
_symmetry_cell_setting 'triclinic'
loop_
_space_group_symop_operation_xyz
x,y,z
-x,-y,-z
loop_
_atom_site_type_symbol
_atom_site_label
_atom_site_fract_x
_atom_site_fract_y
_atom_site_fract_z
Si Si1 0.575531 0.645152 0.417821
Si Si2 0.189992 0.444175 0.397332
Si Si3 0.228373 0.797747 0.501515
Si Si4 0.673903 0.692683 0.873118
Si Si5 0.542005 0.967020 0.380963
Si Si6 0.942731 0.364997 0.277355
Si Si7 0.705005 0.039717 0.084646
Si Si8 0.909507 0.605299 0.060449
O O1 0.701233 0.630207 0.481251
O O2 0.611831 0.694348 0.639952
O O3 0.438123 0.471129 0.201847
O O4 0.549671 0.791939 0.341619
O O5 0.257481 0.641292 0.558054
O O6 0.067212 0.335853 0.347776
O O7 0.131082 0.445725 0.165355
O O8 0.067840 0.741293 0.278820
O O9 0.309186 0.881211 0.459248
O O10 0.282443 0.933730 0.720318
O O11 0.702112 0.860607 0.022959
O O12 0.818823 0.688547 0.036404
O O13 0.500000 0.000000 0.500000
O O14 0.435476 0.964482 0.134053
O O15 0.878974 0.436477 0.087680
O O16 0.000000 0.500000 0.500000
O O17 0.831421 0.185100 0.171162
#
# Coordination Sequence:
#
# PCOD8018554 Si02
#       8
#     2   2   2   2   2   2   2   2
#     4  10  22  43  63  97 125 164 221 270 310 371
#     4  10  22  40  70  92 132 169 212 265 315 378
#     4  11  24  43  60  96 132 165 212 262 326 378
#     4  10  22  40  67  94 129 170 211 263 324 372
#     4  12  26  41  68  95 122 168 222 265 314 382
#     4  11  21  41  64  99 129 168 211 257 322 382
#     4  12  24  42  65  93 133 170 209 266 320 386
#     4  10  22  40  67  95 126 173 212 264 318 379
#
# _framework density 20.639165999999999
#
# number of rings (size 3 to 8) (size 9 to 14) (size 15 to 20)
#    0.000    1.250    3.750    3.375    7.000    1.500 
#    2.250    3.750    0.000    0.000    0.000    0.000 
#    0.000    0.000    0.000    0.000    0.000    0.000 
#
# Total GULP energy -198459.486240 kJ/mol
# GULP energy per Si atom -12403.717890 kJ/mol
# Density = 2.059219 g / cm^3
# Si number density = 20.639166 Si / 1000 Ang^3
#
#
#
# Elastic Constant Matrix: (Units=GPa)
#
#
# Indices 1 2 3 4 5 6 
#
# 1 129.5940 51.8078 50.4033 -0.1719 4.6353 -5.6442
# 2 51.8078 93.5831 29.0755 17.8168 12.8054 -6.4197
# 3 50.4033 29.0755 84.3839 14.9354 4.3210 -7.4493
# 4 -0.1719 17.8168 14.9354 28.3549 -2.1330 -0.6073
# 5 4.6353 12.8054 4.3210 -2.1330 31.5942 6.9787
# 6 -5.6442 -6.4197 -7.4493 -0.6073 6.9787 40.7729
#
#
#
# Elastic Compliance Matrix: (Units=1/GPa)
#
#
# Indices 1 2 3 4 5 6 
#
# 1 0.013248 -0.007170 -0.007180 0.008553 0.002731 -0.000947
# 2 -0.007170 0.018022 0.000955 -0.012399 -0.007925 0.003191
# 3 -0.007180 0.000955 0.018048 -0.010324 -0.003125 0.002835
# 4 0.008553 -0.012399 -0.010324 0.049171 0.009278 -0.003510
# 5 0.002731 -0.007925 -0.003125 0.009278 0.037211 -0.007672
# 6 -0.000947 0.003191 0.002835 -0.003510 -0.007672 0.026676
#
#
# Mechanical properties :
#
#
# Convention : Reuss Voigt Hill
#
# Bulk Modulus (GPa) = 44.38897 63.34824 53.86860
# Shear Modulus (GPa) = 25.42275 31.89602 28.65938
#
# Velocity S-wave (km/s) = 3.51347 3.93544 3.73042
# Velocity P-wave (km/s) = 6.16548 7.17008 6.68667
#
# Compressibility (1/GPa) = 0.02252812
#
# Stress axis : x y z
#
# Youngs Moduli (GPa) = 75.48532 55.48682 55.40922
#
# Poissons Ratio (x) = 0.39785 0.39781
# Poissons Ratio (y) = 0.54125 -0.05292
# Poissons Ratio (z) = 0.54195 -0.05299
#
# Static dielectric constant tensor:
#      x y z
#    x 4.040900 0.076720 0.129640 
#    y 0.076720 3.706590 0.083790 
#    z 0.129640 0.083790 3.733970 
# 
# 
# High freq. dielectric constant tensor:
#      x y z
#    x 1.826530 -0.001450 0.006360 
#    y -0.001450 1.799690 0.006390 
#    z 0.006360 0.006390 1.806520 
# 
# From -- ./inp_files/181344.got.cif
#   From: 2010.06.25/outbox.cif.g09.slc.cpg/sg2_91_cif.got.tgz:181344.got - 2010.06.27 13:26:56.
