data_PCOD8018007
_publ_section_title
;
Structure prediction by ZEFSAII (Michael W. Deem and Ramdas Pophale) SiO2 
 PCOD8018007
Probable space group: P -1
;
_chemical_formula_sum "Si O2"
_cell_formula_units_Z 16
_cell_length_a 10.711241
_cell_length_b 8.022002
_cell_length_c 19.518962
_cell_angle_alpha 51.049372
_cell_angle_beta 146.328467
_cell_angle_gamma 119.851304
_cell_volume 721.897370
_symmetry_space_group_name_H-M "P -1"
_symmetry_group_IT_number 2
_symmetry_cell_setting 'triclinic'
loop_
_space_group_symop_operation_xyz
x,y,z
-x,-y,-z
loop_
_atom_site_type_symbol
_atom_site_label
_atom_site_fract_x
_atom_site_fract_y
_atom_site_fract_z
Si Si1 0.697647 0.765407 0.689624
Si Si2 0.855194 0.463290 0.088261
Si Si3 0.867973 0.200169 0.812136
Si Si4 0.255902 0.868882 0.076362
Si Si5 0.699741 0.252386 0.577766
Si Si6 0.620774 0.041249 0.117205
Si Si7 0.902848 0.614245 0.358888
Si Si8 0.565860 0.551874 0.812747
O O1 0.542940 0.665056 0.584998
O O2 0.571064 0.744251 0.710518
O O3 0.933325 0.631823 0.834306
O O4 0.742223 0.010809 0.631045
O O5 0.718017 0.274644 0.106423
O O6 0.944655 0.621206 0.145789
O O7 0.700904 0.608639 0.927930
O O8 0.725364 0.191104 0.819343
O O9 0.695064 0.257377 0.656792
O O10 0.004222 0.971136 0.918576
O O11 0.311829 0.661834 0.108932
O O12 0.439106 0.038886 0.096170
O O13 0.900480 0.394891 0.605973
O O14 0.821400 0.862391 0.269905
O O15 0.500000 0.000000 0.000000
O O16 0.689482 0.484675 0.271246
O O17 0.000000 0.500000 0.500000
#
# Coordination Sequence:
#
# PCOD8018007 Si02
#       8
#     2   2   2   2   2   2   2   2
#     4  11  23  40  65  92 122 166 217 260 302 377
#     4  12  23  38  65  96 125 165 211 259 315 369
#     4  11  25  39  61  93 130 165 200 263 322 379
#     4  10  22  40  59  92 124 167 203 257 316 363
#     4  11  24  42  63  92 128 163 210 257 318 380
#     4  11  21  40  67  92 123 168 214 264 301 371
#     4  11  21  40  67  95 124 159 211 266 316 358
#     4  11  22  39  67  94 122 164 217 263 301 373
#
# _framework density 22.163817000000002
#
# number of rings (size 3 to 8) (size 9 to 14) (size 15 to 20)
#    0.000    1.000    6.250    1.875    3.500    1.000 
#    0.000    0.000    0.000    1.500    0.000    0.000 
#    0.000    0.000    0.000    0.000    0.000    0.000 
#
# Total GULP energy -198394.459043 kJ/mol
# GULP energy per Si atom -12399.653690 kJ/mol
# Density = 2.211337 g / cm^3
# Si number density = 22.163817 Si / 1000 Ang^3
#
#
#
# Elastic Constant Matrix: (Units=GPa)
#
#
# Indices 1 2 3 4 5 6 
#
# 1 96.1757 27.1154 26.8430 14.1361 -14.8207 31.3704
# 2 27.1154 70.3852 23.8498 12.8186 -7.3976 20.4860
# 3 26.8430 23.8498 124.7642 20.1799 -27.7026 10.7890
# 4 14.1361 12.8186 20.1799 34.2352 2.2984 -1.0108
# 5 -14.8207 -7.3976 -27.7026 2.2984 37.3721 -0.1753
# 6 31.3704 20.4860 10.7890 -1.0108 -0.1753 37.0569
#
#
#
# Elastic Compliance Matrix: (Units=1/GPa)
#
#
# Indices 1 2 3 4 5 6 
#
# 1 0.017763 -0.000204 0.000723 -0.008674 0.008001 -0.015333
# 2 -0.000204 0.019277 -0.000783 -0.007218 0.003549 -0.010436
# 3 0.000723 -0.000783 0.011590 -0.007562 0.009171 -0.003716
# 4 -0.008674 -0.007218 -0.007562 0.041252 -0.012943 0.014599
# 5 0.008001 0.003549 0.009171 -0.012943 0.038173 -0.011578
# 6 -0.015333 -0.010436 -0.003716 0.014599 -0.011578 0.047160
#
#
# Mechanical properties :
#
#
# Convention : Reuss Voigt Hill
#
# Bulk Modulus (GPa) = 20.78989 49.66017 35.22503
# Shear Modulus (GPa) = 26.07197 35.96729 31.01963
#
# Velocity S-wave (km/s) = 3.43349 4.03276 3.74513
# Velocity P-wave (km/s) = 5.01188 6.64371 5.88463
#
# Compressibility (1/GPa) = 0.04810030
#
# Stress axis : x y z
#
# Youngs Moduli (GPa) = 56.29762 51.87652 86.28067
#
# Poissons Ratio (x) = 0.01061 -0.06237
# Poissons Ratio (y) = 0.01151 0.06755
# Poissons Ratio (z) = -0.04070 0.04061
#
# Static dielectric constant tensor:
#      x y z
#    x 4.012350 0.472640 -0.023110 
#    y 0.472640 4.037840 -0.023930 
#    z -0.023110 -0.023930 4.124120 
# 
# 
# High freq. dielectric constant tensor:
#      x y z
#    x 1.860800 0.032720 -0.006100 
#    y 0.032720 1.863240 -0.000730 
#    z -0.006100 -0.000730 1.876730 
# 
# From -- ./inp_files/594054.got.cif
#   From: 2010.06.25/outbox.cif.g09.slc.cpg/sg2_298_cif.got.tgz:594054.got - 2010.06.27 13:26:56.
