data_PCOD8018082
_publ_section_title
;
Structure prediction by ZEFSAII (Michael W. Deem and Ramdas Pophale) SiO2 
 PCOD8018082
Probable space group: P -1
;
_chemical_formula_sum "Si O2"
_cell_formula_units_Z 14
_cell_length_a 15.223374
_cell_length_b 17.183415
_cell_length_c 5.300941
_cell_angle_alpha 101.802110
_cell_angle_beta 83.785846
_cell_angle_gamma 154.328357
_cell_volume 578.478801
_symmetry_space_group_name_H-M "P -1"
_symmetry_group_IT_number 2
_symmetry_cell_setting 'triclinic'
loop_
_space_group_symop_operation_xyz
x,y,z
-x,-y,-z
loop_
_atom_site_type_symbol
_atom_site_label
_atom_site_fract_x
_atom_site_fract_y
_atom_site_fract_z
Si Si1 0.925528 0.194696 0.323543
Si Si2 0.738439 0.647748 0.788982
Si Si3 0.746064 0.747550 0.347544
Si Si4 0.550538 0.819982 0.964395
Si Si5 0.701605 0.884327 0.453093
Si Si6 0.755872 0.292568 0.967810
Si Si7 0.830519 0.293812 0.445293
O O1 0.943116 0.301261 0.460618
O O2 0.143529 0.340699 0.247350
O O3 0.746756 0.039143 0.064219
O O4 0.859708 0.087253 0.515902
O O5 0.799488 0.746475 0.587072
O O6 0.498073 0.435392 0.730216
O O7 0.822565 0.762755 0.086420
O O8 0.835394 0.910805 0.443253
O O9 0.557556 0.765550 0.166349
O O10 0.340631 0.699134 0.958041
O O11 0.560243 0.777770 0.675122
O O12 0.679222 0.189933 0.661260
O O13 0.699940 0.190447 0.156671
O O14 0.000000 0.500000 0.000000
O O15 0.000000 0.500000 0.500000
#
# Coordination Sequence:
#
# PCOD8018082 Si02
#       7
#     2   2   2   2   2   2   2
#     4  10  26  40  64  91 127 161 207 254 313 360
#     4  10  23  40  65  90 126 162 206 254 301 367
#     4  10  22  42  63  95 122 164 207 250 305 363
#     4  10  23  40  59  93 124 162 202 255 308 361
#     4  10  23  41  63  92 127 162 200 257 304 367
#     4  10  22  40  62  87 119 161 209 250 305 364
#     4  10  23  41  63  91 118 162 209 252 306 367
#
# _framework density 24.201405000000001
#
# number of rings (size 3 to 8) (size 9 to 14) (size 15 to 20)
#    0.857    1.143    0.000    1.714    4.000    6.857 
#    0.000    0.000    0.000    0.000    0.000    0.000 
#    0.000    0.000    0.000    0.000    0.000    0.000 
#
# Total GULP energy -173514.534996 kJ/mol
# GULP energy per Si atom -12393.895357 kJ/mol
# Density = 2.414632 g / cm^3
# Si number density = 24.201405 Si / 1000 Ang^3
#
#
#
# Elastic Constant Matrix: (Units=GPa)
#
#
# Indices 1 2 3 4 5 6 
#
# 1 147.5176 -4.1864 48.7096 -26.4322 -17.1843 -18.5853
# 2 -4.1864 21.0716 1.8444 -3.1552 1.2606 -6.9403
# 3 48.7096 1.8444 205.4257 -43.5515 3.6713 -13.9176
# 4 -26.4322 -3.1552 -43.5515 26.8421 -0.5591 -8.1591
# 5 -17.1843 1.2606 3.6713 -0.5591 44.2505 -3.6154
# 6 -18.5853 -6.9403 -13.9176 -8.1591 -3.6154 42.2408
#
#
#
# Elastic Compliance Matrix: (Units=1/GPa)
#
#
# Indices 1 2 3 4 5 6 
#
# 1 0.011984 0.008621 0.001909 0.019538 0.005441 0.011558
# 2 0.008621 0.060314 0.005411 0.031045 0.003351 0.021769
# 3 0.001909 0.005411 0.009210 0.020126 0.000790 0.008719
# 4 0.019538 0.031045 0.020126 0.105637 0.009764 0.041569
# 5 0.005441 0.003351 0.000790 0.009764 0.025267 0.007254
# 6 0.011558 0.021769 0.008719 0.041569 0.007254 0.043859
#
#
# Mechanical properties :
#
#
# Convention : Reuss Voigt Hill
#
# Bulk Modulus (GPa) = 8.81910 51.86111 30.34011
# Shear Modulus (GPa) = 19.07043 44.50984 31.79013
#
# Velocity S-wave (km/s) = 2.81016 4.29318 3.62825
# Velocity P-wave (km/s) = 3.76580 6.78606 5.48780
#
# Compressibility (1/GPa) = 0.11339021
#
# Stress axis : x y z
#
# Youngs Moduli (GPa) = 83.44484 16.57977 108.57643
#
# Poissons Ratio (x) = -0.14293 -0.20728
# Poissons Ratio (y) = -0.71935 -0.58752
# Poissons Ratio (z) = -0.15930 -0.08972
#
# Static dielectric constant tensor:
#      x y z
#    x 4.201700 0.035800 -0.092890 
#    y 0.035800 3.874590 -0.191810 
#    z -0.092890 -0.191810 3.243100 
# 
# 
# High freq. dielectric constant tensor:
#      x y z
#    x 1.968160 0.008310 0.003400 
#    y 0.008310 1.935990 -0.011690 
#    z 0.003400 -0.011690 1.971240 
# 
# From -- ./inp_files/61069.got.cif
#   From: 2010.06.25/outbox.cif.g09.slc.cpg/sg2_31_cif.got.tgz:61069.got - 2010.06.27 13:26:56.
