data_PCOD8018075
_publ_section_title
;
Structure prediction by ZEFSAII (Michael W. Deem and Ramdas Pophale) SiO2 
 PCOD8018075
Probable space group: P -1
;
_chemical_formula_sum "Si O2"
_cell_formula_units_Z 16
_cell_length_a 20.782553
_cell_length_b 9.340100
_cell_length_c 6.610306
_cell_angle_alpha 45.044434
_cell_angle_beta 67.502499
_cell_angle_gamma 57.129808
_cell_volume 762.644065
_symmetry_space_group_name_H-M "P -1"
_symmetry_group_IT_number 2
_symmetry_cell_setting 'triclinic'
loop_
_space_group_symop_operation_xyz
x,y,z
-x,-y,-z
loop_
_atom_site_type_symbol
_atom_site_label
_atom_site_fract_x
_atom_site_fract_y
_atom_site_fract_z
Si Si1 0.691521 0.121779 0.376590
Si Si2 0.137743 0.008749 0.806978
Si Si3 0.330459 0.562620 0.562123
Si Si4 0.657436 0.715302 0.792789
Si Si5 0.907498 0.617767 0.208245
Si Si6 0.036252 0.150008 0.418915
Si Si7 0.420310 0.490493 0.145389
Si Si8 0.789390 0.435171 0.615257
O O1 0.780461 0.996954 0.343639
O O2 0.681380 0.216172 0.521815
O O3 0.648134 0.964032 0.570946
O O4 0.651646 0.310745 0.070123
O O5 0.089018 0.247256 0.730900
O O6 0.091551 0.992380 0.681594
O O7 0.147010 0.802553 0.147094
O O8 0.405833 0.494567 0.398620
O O9 0.256520 0.608990 0.469236
O O10 0.344005 0.363782 0.898445
O O11 0.584095 0.725224 0.740190
O O12 0.736564 0.556314 0.748105
O O13 0.827680 0.591994 0.323983
O O14 0.973227 0.369871 0.377373
O O15 0.912611 0.767361 0.866856
O O16 0.000000 0.000000 0.500000
O O17 0.500000 0.500000 0.000000
#
# Coordination Sequence:
#
# PCOD8018075 Si02
#       8
#     2   2   2   2   2   2   2   2
#     4  11  23  40  66 101 126 168 220 264 321 380
#     4  12  24  42  67  93 130 165 215 275 320 386
#     4  10  22  40  63  96 132 164 213 266 319 375
#     4  10  22  40  62 100 130 164 218 264 317 386
#     4  11  26  43  66  93 128 173 215 266 333 386
#     4  11  28  47  63  95 130 173 220 265 331 392
#     4  10  23  45  66  95 139 175 210 260 323 383
#     4  11  23  40  66  96 127 168 211 270 329 376
#
# _framework density 20.979642999999999
#
# number of rings (size 3 to 8) (size 9 to 14) (size 15 to 20)
#    0.000    1.250    5.000    1.125    5.250    8.500 
#    0.000    1.250    0.000    0.000    0.000    0.000 
#    0.000    0.000    0.000    0.000    0.000    0.000 
#
# Total GULP energy -198391.320418 kJ/mol
# GULP energy per Si atom -12399.457526 kJ/mol
# Density = 2.093189 g / cm^3
# Si number density = 20.979643 Si / 1000 Ang^3
#
#
#
# Elastic Constant Matrix: (Units=GPa)
#
#
# Indices 1 2 3 4 5 6 
#
# 1 110.0817 37.2624 47.8333 12.4765 -21.5887 16.1180
# 2 37.2624 80.7541 46.8038 12.4842 -10.3953 24.6371
# 3 47.8333 46.8038 104.1433 23.3770 -23.0454 11.9479
# 4 12.4765 12.4842 23.3770 33.4927 5.6708 -7.4546
# 5 -21.5887 -10.3953 -23.0454 5.6708 39.7604 -1.9389
# 6 16.1180 24.6371 11.9479 -7.4546 -1.9389 35.6560
#
#
#
# Elastic Compliance Matrix: (Units=1/GPa)
#
#
# Indices 1 2 3 4 5 6 
#
# 1 0.012998 -0.001864 -0.002405 -0.004393 0.005588 -0.004396
# 2 -0.001864 0.021970 -0.005375 -0.007176 0.001961 -0.013931
# 3 -0.002405 -0.005375 0.018387 -0.012309 0.009535 -0.003415
# 4 -0.004393 -0.007176 -0.012309 0.050327 -0.017568 0.020636
# 5 0.005588 0.001961 0.009535 -0.017568 0.036302 -0.008775
# 6 -0.004396 -0.013931 -0.003415 0.020636 -0.008775 0.044641
#
#
# Mechanical properties :
#
#
# Convention : Reuss Voigt Hill
#
# Bulk Modulus (GPa) = 29.35324 62.08644 45.71984
# Shear Modulus (GPa) = 23.22677 32.65378 27.94027
#
# Velocity S-wave (km/s) = 3.33094 3.94947 3.65332
# Velocity P-wave (km/s) = 5.36798 7.10321 6.29567
#
# Compressibility (1/GPa) = 0.03406779
#
# Stress axis : x y z
#
# Youngs Moduli (GPa) = 76.93674 45.51563 54.38553
#
# Poissons Ratio (x) = 0.08483 0.13081
# Poissons Ratio (y) = 0.14339 0.29231
# Poissons Ratio (z) = 0.18505 0.24464
#
# Static dielectric constant tensor:
#      x y z
#    x 3.853690 0.233130 -0.231620 
#    y 0.233130 3.865190 0.100720 
#    z -0.231620 0.100720 3.843650 
# 
# 
# High freq. dielectric constant tensor:
#      x y z
#    x 1.819820 0.015450 -0.015150 
#    y 0.015450 1.824010 0.008400 
#    z -0.015150 0.008400 1.827720 
# 
# From -- ./inp_files/48451.got.cif
#   From: 2010.06.25/outbox.cif.g09.slc.cpg/sg2_25_cif.got.tgz:48451.got - 2010.06.27 13:26:56.
