data_PCOD8018718
_publ_section_title
;
Structure prediction by ZEFSAII (Michael W. Deem and Ramdas Pophale) SiO2 
 PCOD8018718
Probable space group: P -1
;
_chemical_formula_sum "Si O2"
_cell_formula_units_Z 14
_cell_length_a 9.498811
_cell_length_b 14.415716
_cell_length_c 16.084999
_cell_angle_alpha 154.643934
_cell_angle_beta 44.854251
_cell_angle_gamma 118.178389
_cell_volume 552.280783
_symmetry_space_group_name_H-M "P -1"
_symmetry_group_IT_number 2
_symmetry_cell_setting 'triclinic'
loop_
_space_group_symop_operation_xyz
x,y,z
-x,-y,-z
loop_
_atom_site_type_symbol
_atom_site_label
_atom_site_fract_x
_atom_site_fract_y
_atom_site_fract_z
Si Si1 0.220204 0.557117 0.187010
Si Si2 0.738493 0.985625 0.414564
Si Si3 0.229179 0.358519 0.473480
Si Si4 0.272524 0.139428 0.107616
Si Si5 0.416815 0.081468 0.828828
Si Si6 0.939399 0.787813 0.341018
Si Si7 0.038335 0.066348 0.892880
O O1 0.337146 0.725501 0.286638
O O2 0.972411 0.691310 0.452292
O O3 0.153315 0.538310 0.101777
O O4 0.403105 0.265726 0.909061
O O5 0.500000 0.000000 0.500000
O O6 0.896311 0.764653 0.241831
O O7 0.922444 0.908455 0.200073
O O8 0.271671 0.321482 0.325878
O O9 0.157774 0.644547 0.758013
O O10 0.486164 0.148224 0.234418
O O11 0.264252 0.258367 0.116370
O O12 0.046913 0.122197 0.205202
O O13 0.290686 0.939181 0.733237
O O14 0.695657 0.872843 0.561272
O O15 0.000000 0.000000 0.500000
#
# Coordination Sequence:
#
# PCOD8018718 Si02
#       7
#     2   2   2   2   2   2   2
#     4  10  22  43  69  99 135 177 234 275 336 419
#     4  11  22  43  69  97 139 179 226 291 343 399
#     4  10  22  40  69  99 134 181 225 275 345 407
#     4  11  22  43  69  97 144 177 220 288 342 408
#     4  11  23  42  70 100 134 183 231 273 349 408
#     4  10  22  41  70  94 135 180 226 287 337 399
#     4  11  23  41  66 105 134 175 233 281 335 411
#
# _framework density 25.349423999999999
#
# number of rings (size 3 to 8) (size 9 to 14) (size 15 to 20)
#    0.000    1.429    4.286    0.857    0.000    4.571 
#    2.571    2.857   15.714    0.000    0.000    0.000 
#    0.000    0.000    0.000    0.000    0.000    0.000 
#
# Total GULP energy -173521.108110 kJ/mol
# GULP energy per Si atom -12394.364865 kJ/mol
# Density = 2.529173 g / cm^3
# Si number density = 25.349424 Si / 1000 Ang^3
#
#
#
# Elastic Constant Matrix: (Units=GPa)
#
#
# Indices 1 2 3 4 5 6 
#
# 1 141.6934 42.5432 16.8864 -7.5660 -0.4546 -14.8362
# 2 42.5432 100.3701 1.8424 -22.5474 3.4083 -17.5884
# 3 16.8864 1.8424 50.2088 -2.4631 4.3015 2.1414
# 4 -7.5660 -22.5474 -2.4631 42.3610 -10.1789 1.0578
# 5 -0.4546 3.4083 4.3015 -10.1789 41.7312 -20.6785
# 6 -14.8362 -17.5884 2.1414 1.0578 -20.6785 44.4944
#
#
#
# Elastic Compliance Matrix: (Units=1/GPa)
#
#
# Indices 1 2 3 4 5 6 
#
# 1 0.008682 -0.003192 -0.003090 0.000097 0.002052 0.002733
# 2 -0.003192 0.013922 0.000378 0.007569 0.003555 0.005893
# 3 -0.003090 0.000378 0.021466 -0.000014 -0.004195 -0.003863
# 4 0.000097 0.007569 -0.000014 0.029920 0.010171 0.007040
# 5 0.002052 0.003555 -0.004195 0.010171 0.035888 0.018729
# 6 0.002733 0.005893 -0.003863 0.007040 0.018729 0.034438
#
#
# Mechanical properties :
#
#
# Convention : Reuss Voigt Hill
#
# Bulk Modulus (GPa) = 30.99792 46.09072 38.54432
# Shear Modulus (GPa) = 29.96186 41.11734 35.53960
#
# Velocity S-wave (km/s) = 3.44169 4.03180 3.74838
# Velocity P-wave (km/s) = 5.29607 6.31629 5.82855
#
# Compressibility (1/GPa) = 0.03226022
#
# Stress axis : x y z
#
# Youngs Moduli (GPa) = 115.17789 71.83112 46.58566
#
# Poissons Ratio (x) = 0.22931 0.14397
# Poissons Ratio (y) = 0.36769 -0.01762
# Poissons Ratio (z) = 0.35596 -0.02717
#
# Static dielectric constant tensor:
#      x y z
#    x 4.988990 -0.327040 -0.054560 
#    y -0.327040 4.756540 -0.276940 
#    z -0.054560 -0.276940 4.303400 
# 
# 
# High freq. dielectric constant tensor:
#      x y z
#    x 2.030400 -0.010030 -0.005300 
#    y -0.010030 2.018190 -0.029380 
#    z -0.005300 -0.029380 2.000480 
# 
# From -- ./inp_files/505681.got.cif
#   From: 2010.06.25/outbox.cif.g09.slc.cpg/sg2_253_cif.got.tgz:505681.got - 2010.06.27 13:26:56.
