data_PCOD8018461
_publ_section_title
;
Structure prediction by ZEFSAII (Michael W. Deem and Ramdas Pophale) SiO2 
 PCOD8018461
Probable space group: P -1
;
_chemical_formula_sum "Si O2"
_cell_formula_units_Z 16
_cell_length_a 11.118134
_cell_length_b 11.794106
_cell_length_c 8.305572
_cell_angle_alpha 58.726434
_cell_angle_beta 80.674925
_cell_angle_gamma 53.502368
_cell_volume 731.028783
_symmetry_space_group_name_H-M "P -1"
_symmetry_group_IT_number 2
_symmetry_cell_setting 'triclinic'
loop_
_space_group_symop_operation_xyz
x,y,z
-x,-y,-z
loop_
_atom_site_type_symbol
_atom_site_label
_atom_site_fract_x
_atom_site_fract_y
_atom_site_fract_z
Si Si1 0.996439 0.786936 0.342075
Si Si2 0.445320 0.679701 0.428925
Si Si3 0.275475 0.164230 0.776730
Si Si4 0.459872 0.196544 0.963124
Si Si5 0.105440 0.956158 0.355718
Si Si6 0.253969 0.440533 0.400073
Si Si7 0.929348 0.745859 0.741942
Si Si8 0.782971 0.569886 0.941473
O O1 0.036798 0.918651 0.245248
O O2 0.151912 0.601489 0.417586
O O3 0.873062 0.835997 0.190606
O O4 0.922241 0.800347 0.520382
O O5 0.500000 0.500000 0.500000
O O6 0.444868 0.778596 0.202417
O O7 0.278815 0.788995 0.466933
O O8 0.566159 0.651061 0.554368
O O9 0.315590 0.213972 0.897631
O O10 0.229205 0.302537 0.549773
O O11 0.426699 0.979045 0.840461
O O12 0.384461 0.340093 0.009177
O O13 0.108658 0.113531 0.221739
O O14 0.000000 0.000000 0.500000
O O15 0.206715 0.502249 0.182558
O O16 0.806271 0.712472 0.819504
O O17 0.098123 0.579397 0.858299
#
# Coordination Sequence:
#
# PCOD8018461 Si02
#       8
#     2   2   2   2   2   2   2   2
#     4  11  21  43  67  96 129 177 226 265 325 399
#     4  11  23  47  70  91 135 178 218 263 337 403
#     4  10  22  40  66  95 130 172 219 276 320 392
#     4  10  25  41  65  96 133 173 216 276 337 382
#     4  10  24  42  69  97 127 176 219 268 327 394
#     4  11  23  39  70  97 128 178 223 268 326 389
#     4  10  23  40  64  97 136 168 214 279 330 382
#     4  11  24  39  63 101 133 168 219 278 329 381
#
# _framework density 21.886963999999999
#
# number of rings (size 3 to 8) (size 9 to 14) (size 15 to 20)
#    0.000    1.500    2.500    1.875   10.500    2.500 
#    2.250    1.875    0.000    0.000    0.000    0.000 
#    0.000    0.000    0.000    0.000    0.000    0.000 
#
# Total GULP energy -198310.115128 kJ/mol
# GULP energy per Si atom -12394.382195 kJ/mol
# Density = 2.183715 g / cm^3
# Si number density = 21.886964 Si / 1000 Ang^3
#
#
#
# Elastic Constant Matrix: (Units=GPa)
#
#
# Indices 1 2 3 4 5 6 
#
# 1 114.7120 48.9093 6.4387 -2.2999 7.7346 6.0141
# 2 48.9093 128.0849 23.7706 -9.3339 -5.3912 -5.2754
# 3 6.4387 23.7706 41.8189 2.8099 4.4246 3.5529
# 4 -2.2999 -9.3339 2.8099 24.2894 2.4393 -5.9683
# 5 7.7346 -5.3912 4.4246 2.4393 18.9636 -6.0599
# 6 6.0141 -5.2754 3.5529 -5.9683 -6.0599 41.9752
#
#
#
# Elastic Compliance Matrix: (Units=1/GPa)
#
#
# Indices 1 2 3 4 5 6 
#
# 1 0.011655 -0.005553 0.002649 -0.001505 -0.008023 -0.003964
# 2 -0.005553 0.012354 -0.007865 0.005512 0.008509 0.005026
# 3 0.002649 -0.007865 0.030210 -0.006712 -0.011596 -0.006553
# 4 -0.001505 0.005512 -0.006712 0.045860 0.000423 0.008058
# 5 -0.008023 0.008509 -0.011596 0.000423 0.065121 0.012662
# 6 -0.003964 0.005026 -0.006553 0.008058 0.012662 0.028552
#
#
# Mechanical properties :
#
#
# Convention : Reuss Voigt Hill
#
# Bulk Modulus (GPa) = 30.59892 49.20589 39.90241
# Shear Modulus (GPa) = 22.10592 30.74546 26.42569
#
# Velocity S-wave (km/s) = 3.18150 3.75205 3.47849
# Velocity P-wave (km/s) = 5.24469 6.42660 5.86549
#
# Compressibility (1/GPa) = 0.03268089
#
# Stress axis : x y z
#
# Youngs Moduli (GPa) = 85.80078 80.94512 33.10155
#
# Poissons Ratio (x) = 0.44946 -0.08767
# Poissons Ratio (y) = 0.47642 0.26034
# Poissons Ratio (z) = -0.22725 0.63663
#
# Static dielectric constant tensor:
#      x y z
#    x 4.439090 0.227080 -0.044140 
#    y 0.227080 3.991200 -0.192900 
#    z -0.044140 -0.192900 3.663290 
# 
# 
# High freq. dielectric constant tensor:
#      x y z
#    x 1.863770 0.003950 0.001390 
#    y 0.003950 1.868970 -0.010100 
#    z 0.001390 -0.010100 1.836500 
# 
# From -- ./inp_files/256877.got.cif
#   From: 2010.06.25/outbox.cif.g09.slc.cpg/sg2_129_cif.got.tgz:256877.got - 2010.06.27 13:26:56.
