data_PCOD8018199
_publ_section_title
;
Structure prediction by ZEFSAII (Michael W. Deem and Ramdas Pophale) SiO2 
 PCOD8018199
Probable space group: P -1
;
_chemical_formula_sum "Si O2"
_cell_formula_units_Z 12
_cell_length_a 15.345207
_cell_length_b 16.106779
_cell_length_c 9.356152
_cell_angle_alpha 31.745934
_cell_angle_beta 35.062861
_cell_angle_gamma 27.137827
_cell_volume 536.301073
_symmetry_space_group_name_H-M "P -1"
_symmetry_group_IT_number 2
_symmetry_cell_setting 'triclinic'
loop_
_space_group_symop_operation_xyz
x,y,z
-x,-y,-z
loop_
_atom_site_type_symbol
_atom_site_label
_atom_site_fract_x
_atom_site_fract_y
_atom_site_fract_z
Si Si1 0.565824 0.669132 0.728984
Si Si2 0.819833 0.737312 0.148275
Si Si3 0.291705 0.475930 0.545580
Si Si4 0.866205 0.286695 0.078013
Si Si5 0.779158 0.132187 0.900079
Si Si6 0.358807 0.821246 0.291556
O O1 0.675919 0.765297 0.425981
O O2 0.559644 0.594643 0.687039
O O3 0.684904 0.477928 0.956299
O O4 0.344616 0.839241 0.836267
O O5 0.851631 0.577037 0.221640
O O6 0.028673 0.645856 0.069981
O O7 0.715236 0.955147 0.892956
O O8 0.165357 0.718697 0.384353
O O9 0.420530 0.353366 0.692400
O O10 0.795219 0.201694 0.407068
O O11 0.022602 0.103357 0.026712
O O12 0.640445 0.194624 0.857228
#
# Coordination Sequence:
#
# PCOD8018199 Si02
#       6
#     2   2   2   2   2   2
#     4  10  23  41  66  89 130 155 209 253 311 354
#     4   9  22  40  64  90 128 159 203 259 306 352
#     4  10  22  40  63  95 123 161 203 259 306 357
#     4  11  23  41  67  90 124 165 207 250 304 371
#     4  11  22  40  68  92 119 168 209 244 310 370
#     4  11  22  42  66  89 126 165 206 250 305 371
#
# _framework density 22.375492000000001
#
# number of rings (size 3 to 8) (size 9 to 14) (size 15 to 20)
#    1.000    0.667    1.667    4.000    0.000    3.333 
#    0.000    3.333    7.333    0.000    0.000    0.000 
#    0.000    0.000    0.000    0.000    0.000    0.000 
#
# Total GULP energy -148761.729097 kJ/mol
# GULP energy per Si atom -12396.810758 kJ/mol
# Density = 2.232456 g / cm^3
# Si number density = 22.375492 Si / 1000 Ang^3
#
#
#
# Elastic Constant Matrix: (Units=GPa)
#
#
# Indices 1 2 3 4 5 6 
#
# 1 55.2273 10.3241 12.3385 -7.4817 -26.6671 15.4703
# 2 10.3241 54.7456 6.6491 6.5264 -11.6635 6.1386
# 3 12.3385 6.6491 85.2710 -12.2964 -16.0788 0.7940
# 4 -7.4817 6.5264 -12.2964 21.8466 9.9039 0.7099
# 5 -26.6671 -11.6635 -16.0788 9.9039 44.3334 -8.7996
# 6 15.4703 6.1386 0.7940 0.7099 -8.7996 25.5649
#
#
#
# Elastic Compliance Matrix: (Units=1/GPa)
#
#
# Indices 1 2 3 4 5 6 
#
# 1 0.029211 -0.001665 -0.000832 0.004417 0.013305 -0.012794
# 2 -0.001665 0.021568 -0.001829 -0.010736 0.006065 -0.001729
# 3 -0.000832 -0.001829 0.013430 0.006568 0.002672 0.001263
# 4 0.004417 -0.010736 0.006568 0.060031 -0.012436 -0.006247
# 5 0.013305 0.006065 0.002672 -0.012436 0.036565 0.003341
# 6 -0.012794 -0.001729 0.001263 -0.006247 0.003341 0.048558
#
#
# Mechanical properties :
#
#
# Convention : Reuss Voigt Hill
#
# Bulk Modulus (GPa) = 18.00003 28.20747 23.10375
# Shear Modulus (GPa) = 21.13857 29.41112 25.27484
#
# Velocity S-wave (km/s) = 3.07696 3.62945 3.36456
# Velocity P-wave (km/s) = 4.54814 5.49524 5.04397
#
# Compressibility (1/GPa) = 0.05555547
#
# Stress axis : x y z
#
# Youngs Moduli (GPa) = 34.23415 46.36421 74.46225
#
# Poissons Ratio (x) = 0.07720 0.06196
# Poissons Ratio (y) = 0.05700 0.13622
# Poissons Ratio (z) = 0.02848 0.08482
#
# Static dielectric constant tensor:
#      x y z
#    x 3.930660 0.205080 -0.097200 
#    y 0.205080 3.705490 -0.155720 
#    z -0.097200 -0.155720 4.076950 
# 
# 
# High freq. dielectric constant tensor:
#      x y z
#    x 1.882780 0.009660 -0.008270 
#    y 0.009660 1.857880 -0.011990 
#    z -0.008270 -0.011990 1.888800 
# 
# From -- ./inp_files/149670.got.cif
#   From: 2010.06.25/outbox.cif.g09.slc.cpg/sg2_75_cif.got.tgz:149670.got - 2010.06.27 13:26:56.
