data_PCOD8018187
_publ_section_title
;
Structure prediction by ZEFSAII (Michael W. Deem and Ramdas Pophale) SiO2 
 PCOD8018187
Probable space group: P -1
;
_chemical_formula_sum "Si O2"
_cell_formula_units_Z 16
_cell_length_a 15.086788
_cell_length_b 16.224108
_cell_length_c 9.103970
_cell_angle_alpha 49.013572
_cell_angle_beta 103.353469
_cell_angle_gamma 143.022367
_cell_volume 772.936643
_symmetry_space_group_name_H-M "P -1"
_symmetry_group_IT_number 2
_symmetry_cell_setting 'triclinic'
loop_
_space_group_symop_operation_xyz
x,y,z
-x,-y,-z
loop_
_atom_site_type_symbol
_atom_site_label
_atom_site_fract_x
_atom_site_fract_y
_atom_site_fract_z
Si Si1 0.177645 0.905996 0.709028
Si Si2 0.322167 0.826714 0.338327
Si Si3 0.977777 0.804221 0.234808
Si Si4 0.515528 0.417583 0.212877
Si Si5 0.689667 0.684646 0.263072
Si Si6 0.257514 0.776045 0.041528
Si Si7 0.088002 0.728033 0.566233
Si Si8 0.807765 0.541731 0.172719
O O1 0.181738 0.862013 0.598301
O O2 0.301982 0.148186 0.483491
O O3 0.273897 0.921334 0.840192
O O4 0.960837 0.704257 0.909577
O O5 0.215218 0.716556 0.268360
O O6 0.256714 0.859377 0.373610
O O7 0.279589 0.670669 0.591437
O O8 0.549330 0.082088 0.098432
O O9 0.830424 0.739666 0.316832
O O10 0.907418 0.681968 0.197519
O O11 0.983061 0.718475 0.460944
O O12 0.192336 0.078116 0.974030
O O13 0.626259 0.584263 0.196058
O O14 0.639905 0.446536 0.167158
O O15 0.500000 0.500000 0.000000
O O16 0.500000 0.500000 0.500000
O O17 0.076349 0.536989 0.161827
#
# Coordination Sequence:
#
# PCOD8018187 Si02
#       8
#     2   2   2   2   2   2   2   2
#     4  12  25  39  64  93 129 168 205 249 315 370
#     4  11  23  40  66  90 127 168 207 254 302 367
#     4  10  22  40  63  93 122 159 207 262 306 361
#     4  11  25  44  64  90 126 162 210 259 312 371
#     4  10  22  41  67  90 119 157 212 263 310 356
#     4  11  23  40  62  92 123 167 209 247 307 369
#     4  12  24  39  61  95 132 164 204 253 306 371
#     4  11  22  42  65  90 126 167 205 257 307 366
#
# _framework density 20.700275000000001
#
# number of rings (size 3 to 8) (size 9 to 14) (size 15 to 20)
#    0.000    1.000    3.750    3.000    0.000    4.000 
#    0.000    0.000    0.000    0.000    0.000    0.000 
#    0.000    0.000    0.000    0.000    0.000    0.000 
#
# Total GULP energy -198485.627515 kJ/mol
# GULP energy per Si atom -12405.351720 kJ/mol
# Density = 2.065316 g / cm^3
# Si number density = 20.700275 Si / 1000 Ang^3
#
#
#
# Elastic Constant Matrix: (Units=GPa)
#
#
# Indices 1 2 3 4 5 6 
#
# 1 101.9384 15.4368 42.8715 19.2469 -4.4070 15.2366
# 2 15.4368 31.0427 -0.5167 8.3820 -1.3479 22.4311
# 3 42.8715 -0.5167 97.8341 7.6106 0.4116 23.4968
# 4 19.2469 8.3820 7.6106 27.7745 6.3214 1.6847
# 5 -4.4070 -1.3479 0.4116 6.3214 47.4445 4.7277
# 6 15.2366 22.4311 23.4968 1.6847 4.7277 18.1189
#
#
#
# Elastic Compliance Matrix: (Units=1/GPa)
#
#
# Indices 1 2 3 4 5 6 
#
# 1 0.014376 -0.000976 -0.004391 -0.008843 0.003038 -0.005157
# 2 -0.000976 -0.063930 -0.031235 0.025002 -0.017187 0.122632
# 3 -0.004391 -0.031235 0.001131 0.011214 -0.006951 0.041666
# 4 -0.008843 0.025002 0.011214 0.034157 -0.000668 -0.041060
# 5 0.003038 -0.017187 -0.006951 -0.000668 0.018738 0.022910
# 6 -0.005157 0.122632 0.041666 -0.041060 0.022910 -0.148483
#
#
# Mechanical properties :
#
#
# Convention : Reuss Voigt Hill
#
# Bulk Modulus (GPa) = -8.22182 38.48872 15.13345
# Shear Modulus (GPa) = -44.90314 30.20250 -7.35032
#
# Velocity S-wave (km/s) = -4.66253 3.82388 -1.88641
# Velocity P-wave (km/s) = 5.74160 6.17493 1.60683
#
# Compressibility (1/GPa) = -0.12162756
#
# Stress axis : x y z
#
# Youngs Moduli (GPa) = 69.55937 -15.64202 884.56112
#
# Poissons Ratio (x) = -0.01526 3.88422
# Poissons Ratio (y) = 0.06787 27.62934
# Poissons Ratio (z) = 0.30544 -0.48858
#
# Static dielectric constant tensor:
#      x y z
#    x 4.052150 0.175560 0.016640 
#    y 0.175560 3.585770 -0.104750 
#    z 0.016640 -0.104750 3.754520 
# 
# 
# High freq. dielectric constant tensor:
#      x y z
#    x 1.818450 0.005660 0.000820 
#    y 0.005660 1.806280 -0.009070 
#    z 0.000820 -0.009070 1.816620 
# 
# From -- ./inp_files/187032.got.cif
#   From: 2010.06.25/outbox.cif.g09.slc.cpg/sg2_94_cif.got.tgz:187032.got - 2010.06.27 13:26:56.
