data_PCOD8018736
_publ_section_title
;
Structure prediction by ZEFSAII (Michael W. Deem and Ramdas Pophale) SiO2 
 PCOD8018736
Probable space group: P -1
;
_chemical_formula_sum "Si O2"
_cell_formula_units_Z 14
_cell_length_a 11.569581
_cell_length_b 13.075688
_cell_length_c 5.330674
_cell_angle_alpha 71.028202
_cell_angle_beta 80.820083
_cell_angle_gamma 48.443134
_cell_volume 568.868687
_symmetry_space_group_name_H-M "P -1"
_symmetry_group_IT_number 2
_symmetry_cell_setting 'triclinic'
loop_
_space_group_symop_operation_xyz
x,y,z
-x,-y,-z
loop_
_atom_site_type_symbol
_atom_site_label
_atom_site_fract_x
_atom_site_fract_y
_atom_site_fract_z
Si Si1 0.400923 0.545549 0.749060
Si Si2 0.878032 0.679042 0.660285
Si Si3 0.809845 0.498655 0.002570
Si Si4 0.272784 0.953605 0.073664
Si Si5 0.998206 0.250446 0.806033
Si Si6 0.635373 0.000036 0.514709
Si Si7 0.873019 0.152197 0.561447
O O1 0.500000 0.500000 0.500000
O O2 0.257546 0.717472 0.677978
O O3 0.500000 0.500000 0.000000
O O4 0.338020 0.458040 0.829448
O O5 0.775492 0.631632 0.760392
O O6 0.781939 0.838631 0.667276
O O7 0.917906 0.685933 0.352670
O O8 0.042225 0.569416 0.824617
O O9 0.842126 0.379643 0.895595
O O10 0.392225 0.910979 0.295281
O O11 0.221132 0.859976 0.186532
O O12 0.339730 0.938003 0.786296
O O13 0.115624 0.116182 0.050963
O O14 0.960842 0.198895 0.620852
O O15 0.500000 0.000000 0.500000
O O16 0.000000 0.000000 0.500000
#
# Coordination Sequence:
#
# PCOD8018736 Si02
#       7
#     2   2   2   2   2   2   2
#     4  12  29  50  72 108 158 196 245 315 384 442
#     4  10  22  40  70 103 135 187 250 299 370 439
#     4  11  22  43  71 100 142 192 247 301 370 453
#     4  11  24  41  68 103 139 186 249 295 371 432
#     4  11  21  42  69 110 142 182 247 324 360 432
#     4  11  24  45  66 102 146 187 236 315 369 440
#     4  12  25  47  77 109 145 200 253 310 367 459
#
# _framework density 24.610250000000001
#
# number of rings (size 3 to 8) (size 9 to 14) (size 15 to 20)
#    0.000    0.857    2.857    4.714    0.000    5.714 
#    0.000    0.000    0.000    0.000    0.000    0.000 
#    0.000    0.000    0.000    0.000    0.000    0.000 
#
# Total GULP energy -173460.554915 kJ/mol
# GULP energy per Si atom -12390.039637 kJ/mol
# Density = 2.455424 g / cm^3
# Si number density = 24.610250 Si / 1000 Ang^3
#
#
#
# Elastic Constant Matrix: (Units=GPa)
#
#
# Indices 1 2 3 4 5 6 
#
# 1 135.2463 20.6756 71.0202 -7.0270 -24.4841 -1.3367
# 2 20.6756 49.3550 35.7329 3.2751 1.9247 4.5128
# 3 71.0202 35.7329 144.3269 -17.9504 -20.9641 13.4596
# 4 -7.0270 3.2751 -17.9504 34.9762 9.2676 1.9311
# 5 -24.4841 1.9247 -20.9641 9.2676 63.0582 -6.4600
# 6 -1.3367 4.5128 13.4596 1.9311 -6.4600 28.0122
#
#
#
# Elastic Compliance Matrix: (Units=1/GPa)
#
#
# Indices 1 2 3 4 5 6 
#
# 1 0.010793 -0.001229 -0.005093 -0.001384 0.003146 0.003981
# 2 -0.001229 0.026361 -0.006898 -0.005413 -0.002911 -0.001289
# 3 -0.005093 -0.006898 0.012540 0.006101 0.000956 -0.005357
# 4 -0.001384 -0.005413 0.006101 0.033242 -0.003771 -0.005287
# 5 0.003146 -0.002911 0.000956 -0.003771 0.018522 0.004691
# 6 0.003981 -0.001289 -0.005357 -0.005287 0.004691 0.040117
#
#
# Mechanical properties :
#
#
# Convention : Reuss Voigt Hill
#
# Bulk Modulus (GPa) = 43.00240 64.86505 53.93372
# Shear Modulus (GPa) = 28.44700 38.64261 33.54480
#
# Velocity S-wave (km/s) = 3.40354 3.96685 3.69595
# Velocity P-wave (km/s) = 5.74080 6.88443 6.33846
#
# Compressibility (1/GPa) = 0.02325452
#
# Stress axis : x y z
#
# Youngs Moduli (GPa) = 92.64898 37.93535 79.74416
#
# Poissons Ratio (x) = 0.04662 0.40617
# Poissons Ratio (y) = 0.11385 0.55004
# Poissons Ratio (z) = 0.47190 0.26166
#
# Static dielectric constant tensor:
#      x y z
#    x 4.574810 -0.028580 -0.489900 
#    y -0.028580 4.747200 -0.113770 
#    z -0.489900 -0.113770 4.945170 
# 
# 
# High freq. dielectric constant tensor:
#      x y z
#    x 1.982420 0.003490 -0.020250 
#    y 0.003490 1.954280 -0.012160 
#    z -0.020250 -0.012160 1.999290 
# 
# From -- ./inp_files/75438.got.cif
#   From: 2010.06.25/outbox.cif.g09.slc.cpg/sg2_38_cif.got.tgz:75438.got - 2010.06.27 13:26:56.
