data_PCOD8018965
_publ_section_title
;
Structure prediction by ZEFSAII (Michael W. Deem and Ramdas Pophale) SiO2 
 PCOD8018965
Probable space group: P -1
;
_chemical_formula_sum "Si O2"
_cell_formula_units_Z 16
_cell_length_a 5.208390
_cell_length_b 6.022051
_cell_length_c 26.673025
_cell_angle_alpha 77.619292
_cell_angle_beta 128.709432
_cell_angle_gamma 95.454922
_cell_volume 636.807501
_symmetry_space_group_name_H-M "P -1"
_symmetry_group_IT_number 2
_symmetry_cell_setting 'triclinic'
loop_
_space_group_symop_operation_xyz
x,y,z
-x,-y,-z
loop_
_atom_site_type_symbol
_atom_site_label
_atom_site_fract_x
_atom_site_fract_y
_atom_site_fract_z
Si Si1 0.890012 0.285829 0.837536
Si Si2 0.998406 0.933637 0.240694
Si Si3 0.301875 0.612188 0.925066
Si Si4 0.766984 0.514982 0.286251
Si Si5 0.336768 0.121886 0.123327
Si Si6 0.738114 0.814053 0.472006
Si Si7 0.720958 0.857120 0.644308
Si Si8 0.832391 0.503976 0.404742
O O1 0.612462 0.477703 0.777795
O O2 0.926482 0.090482 0.808211
O O3 0.219078 0.417939 0.883334
O O4 0.793464 0.136773 0.882121
O O5 0.964337 0.673487 0.265942
O O6 0.665469 0.096421 0.199536
O O7 0.277100 0.042856 0.303373
O O8 0.539661 0.792723 0.920131
O O9 0.948949 0.709782 0.897466
O O10 0.500000 0.500000 0.000000
O O11 0.815382 0.618809 0.342640
O O12 0.918156 0.255726 0.318339
O O13 0.788871 0.699993 0.429958
O O14 0.808532 0.631872 0.534449
O O15 0.373873 0.943614 0.418415
O O16 0.000000 0.000000 0.500000
O O17 0.457807 0.667729 0.618172
#
# Coordination Sequence:
#
# PCOD8018965 Si02
#       8
#     2   2   2   2   2   2   2   2
#     4  11  26  47  73 104 153 189 248 304 369 439
#     4  11  25  44  67 103 138 186 236 301 364 432
#     4  12  28  49  78 113 150 198 249 300 367 441
#     4  11  24  38  66 100 131 181 236 298 365 433
#     4  11  26  48  75 110 149 197 243 304 369 434
#     4   9  20  40  62  88 132 179 231 296 362 432
#     4  11  22  39  64  93 133 175 235 296 363 434
#     4  10  22  41  63  91 129 181 234 296 359 438
#
# _framework density 25.125330999999999
#
# number of rings (size 3 to 8) (size 9 to 14) (size 15 to 20)
#    0.000    1.250    1.250    3.375    7.000    5.500 
#    0.000    8.750    0.000    0.000    0.000    0.000 
#    0.000    0.000    0.000    0.000    0.000    0.000 
#
# Total GULP energy -198243.747910 kJ/mol
# GULP energy per Si atom -12390.234244 kJ/mol
# Density = 2.506814 g / cm^3
# Si number density = 25.125331 Si / 1000 Ang^3
#
#
#
# Elastic Constant Matrix: (Units=GPa)
#
#
# Indices 1 2 3 4 5 6 
#
# 1 85.5889 19.1415 35.7405 -9.6765 1.9132 -3.8595
# 2 19.1415 85.2264 66.7796 -4.7548 19.5681 -15.9539
# 3 35.7405 66.7796 161.8088 -14.1877 5.9658 -0.5362
# 4 -9.6765 -4.7548 -14.1877 49.0312 1.6432 -0.3930
# 5 1.9132 19.5681 5.9658 1.6432 35.7248 -11.2827
# 6 -3.8595 -15.9539 -0.5362 -0.3930 -11.2827 27.4357
#
#
#
# Elastic Compliance Matrix: (Units=1/GPa)
#
#
# Indices 1 2 3 4 5 6 
#
# 1 0.013139 -0.000757 -0.002446 0.001806 0.000545 0.001610
# 2 -0.000757 0.022280 -0.008728 -0.000180 -0.007693 0.009512
# 3 -0.002446 -0.008728 0.010384 0.001583 0.001683 -0.004502
# 4 0.001806 -0.000180 0.001583 0.021234 -0.001248 -0.000029
# 5 0.000545 -0.007693 0.001683 -0.001248 0.035132 0.010066
# 6 0.001610 0.009512 -0.004502 -0.000029 0.010066 0.046258
#
#
# Mechanical properties :
#
#
# Convention : Reuss Voigt Hill
#
# Bulk Modulus (GPa) = 45.57917 63.99417 54.78667
# Shear Modulus (GPa) = 27.83912 36.50250 32.17081
#
# Velocity S-wave (km/s) = 3.33229 3.81572 3.58217
# Velocity P-wave (km/s) = 5.74331 6.70360 6.24195
#
# Compressibility (1/GPa) = 0.02193984
#
# Stress axis : x y z
#
# Youngs Moduli (GPa) = 76.10809 44.88422 96.29757
#
# Poissons Ratio (x) = 0.03400 0.23554
# Poissons Ratio (y) = 0.05765 0.84051
# Poissons Ratio (z) = 0.18616 0.39176
#
# Static dielectric constant tensor:
#      x y z
#    x 4.327620 -0.086700 0.001930 
#    y -0.086700 4.619770 -0.376140 
#    z 0.001930 -0.376140 5.088510 
# 
# 
# High freq. dielectric constant tensor:
#      x y z
#    x 1.974890 -0.000220 0.007640 
#    y -0.000220 2.006300 -0.019440 
#    z 0.007640 -0.019440 2.015540 
# 
# From -- ./inp_files/114681.got.cif
#   From: 2010.06.25/outbox.cif.g09.slc.cpg/sg2_58_cif.got.tgz:114681.got - 2010.06.27 13:26:56.
