data_PCOD8018213
_publ_section_title
;
Structure prediction by ZEFSAII (Michael W. Deem and Ramdas Pophale) SiO2 
 PCOD8018213
Probable space group: P -1
;
_chemical_formula_sum "Si O2"
_cell_formula_units_Z 16
_cell_length_a 24.735127
_cell_length_b 8.939897
_cell_length_c 8.447035
_cell_angle_alpha 51.120597
_cell_angle_beta 50.588698
_cell_angle_gamma 31.750000
_cell_volume 741.479686
_symmetry_space_group_name_H-M "P -1"
_symmetry_group_IT_number 2
_symmetry_cell_setting 'triclinic'
loop_
_space_group_symop_operation_xyz
x,y,z
-x,-y,-z
loop_
_atom_site_type_symbol
_atom_site_label
_atom_site_fract_x
_atom_site_fract_y
_atom_site_fract_z
Si Si1 0.661841 0.956154 0.427383
Si Si2 0.863092 0.442219 0.572251
Si Si3 0.881334 0.986183 0.942553
Si Si4 0.525148 0.910201 0.330093
Si Si5 0.400630 0.843598 0.950937
Si Si6 0.034092 0.417749 0.213638
Si Si7 0.795242 0.842032 0.685219
Si Si8 0.700439 0.262933 0.315686
O O1 0.779855 0.630930 0.455822
O O2 0.579636 0.963852 0.639898
O O3 0.641874 0.028908 0.230538
O O4 0.641294 0.197250 0.399089
O O5 0.804656 0.616961 0.729804
O O6 0.956894 0.397034 0.395592
O O7 0.907982 0.134935 0.712501
O O8 0.880807 0.820502 0.920191
O O9 0.972568 0.738286 0.062620
O O10 0.765431 0.233245 0.074387
O O11 0.619243 0.567328 0.353099
O O12 0.500000 0.000000 0.500000
O O13 0.561030 0.041324 0.106757
O O14 0.500000 0.500000 0.000000
O O15 0.305836 0.943381 0.156770
O O16 0.095488 0.340128 0.309718
O O17 0.785312 0.025164 0.447945
#
# Coordination Sequence:
#
# PCOD8018213 Si02
#       8
#     2   2   2   2   2   2   2   2
#     4  10  22  42  68  93 135 172 216 274 327 397
#     4  11  24  44  64 101 130 171 226 267 330 389
#     4  11  24  42  68  92 135 174 221 271 326 387
#     4  10  22  40  63  97 127 168 217 265 327 397
#     4  11  24  43  65  98 132 172 220 271 335 392
#     4  11  24  45  64  96 136 172 226 269 327 386
#     4  11  23  41  68  94 135 173 215 277 326 386
#     4  11  22  43  66  98 133 172 221 268 333 392
#
# _framework density 21.578474
#
# number of rings (size 3 to 8) (size 9 to 14) (size 15 to 20)
#    0.000    1.250    2.500    4.125    1.750    5.500 
#    2.250    3.750    0.000    0.000    0.000    0.000 
#    0.000    0.000    0.000    0.000    0.000    0.000 
#
# Total GULP energy -198366.362574 kJ/mol
# GULP energy per Si atom -12397.897661 kJ/mol
# Density = 2.152936 g / cm^3
# Si number density = 21.578474 Si / 1000 Ang^3
#
#
#
# Elastic Constant Matrix: (Units=GPa)
#
#
# Indices 1 2 3 4 5 6 
#
# 1 107.1874 42.0053 44.8895 -12.4005 1.3561 -15.3022
# 2 42.0053 109.2716 42.3376 -1.4745 -3.8769 8.5751
# 3 44.8895 42.3376 95.9821 -13.1126 -6.3307 -7.8349
# 4 -12.4005 -1.4745 -13.1126 37.8628 8.1776 -0.5665
# 5 1.3561 -3.8769 -6.3307 8.1776 31.8013 -1.6302
# 6 -15.3022 8.5751 -7.8349 -0.5665 -1.6302 38.3791
#
#
#
# Elastic Compliance Matrix: (Units=1/GPa)
#
#
# Indices 1 2 3 4 5 6 
#
# 1 0.013892 -0.004368 -0.003767 0.003708 -0.002536 0.005693
# 2 -0.004368 0.012994 -0.004440 -0.002832 0.001331 -0.005537
# 3 -0.003767 -0.004440 0.014945 0.003408 0.001855 0.002670
# 4 0.003708 -0.002832 0.003408 0.030355 -0.007480 0.002938
# 5 -0.002536 0.001331 0.001855 -0.007480 0.034029 0.000405
# 6 0.005693 -0.005537 0.002670 0.002938 0.000405 0.030168
#
#
# Mechanical properties :
#
#
# Convention : Reuss Voigt Hill
#
# Bulk Modulus (GPa) = 59.94343 63.43397 61.68870
# Shear Modulus (GPa) = 29.92323 33.82257 31.87290
#
# Velocity S-wave (km/s) = 3.72790 3.96336 3.84744
# Velocity P-wave (km/s) = 6.80950 7.09965 6.95609
#
# Compressibility (1/GPa) = 0.01668239
#
# Stress axis : x y z
#
# Youngs Moduli (GPa) = 71.98173 76.95647 66.91318
#
# Poissons Ratio (x) = 0.33612 0.25204
# Poissons Ratio (y) = 0.31440 0.29711
# Poissons Ratio (z) = 0.27113 0.34170
#
# Static dielectric constant tensor:
#      x y z
#    x 4.080550 0.090400 -0.077780 
#    y 0.090400 4.036630 0.143670 
#    z -0.077780 0.143670 4.002390 
# 
# 
# High freq. dielectric constant tensor:
#      x y z
#    x 1.845970 0.002470 -0.002100 
#    y 0.002470 1.855040 0.008850 
#    z -0.002100 0.008850 1.848950 
# 
# From -- ./inp_files/187100.got.cif
#   From: 2010.06.25/outbox.cif.g09.slc.cpg/sg2_94_cif.got.tgz:187100.got - 2010.06.27 13:26:56.
