data_PCOD8018592
_publ_section_title
;
Structure prediction by ZEFSAII (Michael W. Deem and Ramdas Pophale) SiO2 
 PCOD8018592
Probable space group: P -1
;
_chemical_formula_sum "Si O2"
_cell_formula_units_Z 16
_cell_length_a 13.818370
_cell_length_b 10.661913
_cell_length_c 10.680289
_cell_angle_alpha 120.153668
_cell_angle_beta 31.024163
_cell_angle_gamma 111.488380
_cell_volume 693.950082
_symmetry_space_group_name_H-M "P -1"
_symmetry_group_IT_number 2
_symmetry_cell_setting 'triclinic'
loop_
_space_group_symop_operation_xyz
x,y,z
-x,-y,-z
loop_
_atom_site_type_symbol
_atom_site_label
_atom_site_fract_x
_atom_site_fract_y
_atom_site_fract_z
Si Si1 0.632631 0.245932 0.082150
Si Si2 0.943800 0.349731 0.938723
Si Si3 0.878193 0.217518 0.201016
Si Si4 0.730270 0.702624 0.636904
Si Si5 0.554354 0.947804 0.128368
Si Si6 0.843603 0.918013 0.990317
Si Si7 0.297447 0.563060 0.311625
Si Si8 0.815535 0.168961 0.588632
O O1 0.735417 0.356366 0.109458
O O2 0.783349 0.172553 0.774502
O O3 0.449734 0.338630 0.264198
O O4 0.562692 0.119621 0.182533
O O5 0.096422 0.277822 0.634178
O O6 0.951453 0.249681 0.000462
O O7 0.000000 0.500000 0.000000
O O8 0.708073 0.334960 0.505230
O O9 0.059167 0.212697 0.093045
O O10 0.807755 0.060816 0.189847
O O11 0.793515 0.579446 0.611970
O O12 0.669500 0.860225 0.844324
O O13 0.342885 0.908714 0.346581
O O14 0.644039 0.895881 0.138248
O O15 0.985075 0.927022 0.718062
O O16 0.189248 0.662572 0.371628
O O17 0.500000 0.500000 0.000000
#
# Coordination Sequence:
#
# PCOD8018592 Si02
#       8
#     2   2   2   2   2   2   2   2
#     4  11  24  40  66 100 129 173 222 269 328 390
#     4  12  25  45  63  94 137 174 215 268 329 397
#     4  10  23  43  65  93 134 175 215 272 325 391
#     4  11  24  42  68  98 131 172 219 273 330 389
#     4  11  22  39  68 102 126 171 224 269 334 386
#     4  10  22  43  65  95 132 170 220 275 329 382
#     4  11  20  45  67  90 137 169 220 278 311 392
#     4  10  22  40  68 100 130 171 219 278 326 384
#
# _framework density 23.056414
#
# number of rings (size 3 to 8) (size 9 to 14) (size 15 to 20)
#    0.000    1.250    5.000    2.250    3.500    1.500 
#    4.500    8.750    0.000    0.000    0.000    0.000 
#    0.000    0.000    0.000    0.000    0.000    0.000 
#
# Total GULP energy -198265.840079 kJ/mol
# GULP energy per Si atom -12391.615005 kJ/mol
# Density = 2.300394 g / cm^3
# Si number density = 23.056414 Si / 1000 Ang^3
#
#
#
# Elastic Constant Matrix: (Units=GPa)
#
#
# Indices 1 2 3 4 5 6 
#
# 1 123.3388 35.8687 -8.4986 -16.8810 -12.7739 12.7105
# 2 35.8687 80.5366 15.3406 3.1428 -7.2961 6.3060
# 3 -8.4986 15.3406 70.1650 2.1834 5.3535 -6.2259
# 4 -16.8810 3.1428 2.1834 28.6946 -6.8469 4.1259
# 5 -12.7739 -7.2961 5.3535 -6.8469 21.6862 -13.6362
# 6 12.7105 6.3060 -6.2259 4.1259 -13.6362 37.3927
#
#
#
# Elastic Compliance Matrix: (Units=1/GPa)
#
#
# Indices 1 2 3 4 5 6 
#
# 1 0.011865 -0.005227 0.001643 0.009269 0.006875 -0.001394
# 2 -0.005227 0.015888 -0.004158 -0.004019 0.001687 -0.000536
# 3 0.001643 -0.004158 0.015802 -0.000870 -0.003636 0.001544
# 4 0.009269 -0.004019 -0.000870 0.045242 0.017933 -0.001070
# 5 0.006875 0.001687 -0.003636 0.017933 0.070087 0.020354
# 6 -0.001394 -0.000536 0.001544 -0.001070 0.020354 0.035105
#
#
# Mechanical properties :
#
#
# Convention : Reuss Voigt Hill
#
# Bulk Modulus (GPa) = 35.62327 39.94021 37.78174
# Shear Modulus (GPa) = 22.84873 32.97668 27.91270
#
# Velocity S-wave (km/s) = 3.15142 3.78598 3.48318
# Velocity P-wave (km/s) = 5.35966 6.03920 5.70955
#
# Compressibility (1/GPa) = 0.02807154
#
# Stress axis : x y z
#
# Youngs Moduli (GPa) = 84.27883 62.93862 63.28419
#
# Poissons Ratio (x) = 0.32900 -0.10400
# Poissons Ratio (y) = 0.44055 0.26315
# Poissons Ratio (z) = -0.13851 0.26171
#
# Static dielectric constant tensor:
#      x y z
#    x 4.348190 -0.115030 0.063560 
#    y -0.115030 3.762640 0.099270 
#    z 0.063560 0.099270 4.218900 
# 
# 
# High freq. dielectric constant tensor:
#      x y z
#    x 1.911840 -0.009550 0.014520 
#    y -0.009550 1.894000 0.002680 
#    z 0.014520 0.002680 1.908270 
# 
# From -- ./inp_files/451726.got.cif
#   From: 2010.06.25/outbox.cif.g09.slc.cpg/sg2_226_cif.got.tgz:451726.got - 2010.06.27 13:26:56.
