data_PCOD8018257
_publ_section_title
;
Structure prediction by ZEFSAII (Michael W. Deem and Ramdas Pophale) SiO2 
 PCOD8018257
Probable space group: P -1
;
_chemical_formula_sum "Si O2"
_cell_formula_units_Z 14
_cell_length_a 11.184441
_cell_length_b 11.613352
_cell_length_c 14.897703
_cell_angle_alpha 28.651501
_cell_angle_beta 47.449714
_cell_angle_gamma 40.558818
_cell_volume 603.011360
_symmetry_space_group_name_H-M "P -1"
_symmetry_group_IT_number 2
_symmetry_cell_setting 'triclinic'
loop_
_space_group_symop_operation_xyz
x,y,z
-x,-y,-z
loop_
_atom_site_type_symbol
_atom_site_label
_atom_site_fract_x
_atom_site_fract_y
_atom_site_fract_z
Si Si1 0.111901 0.107059 0.425765
Si Si2 0.748886 0.376203 0.880225
Si Si3 0.927041 0.590868 0.073054
Si Si4 0.658891 0.236549 0.205449
Si Si5 0.627792 0.439591 0.276214
Si Si6 0.782077 0.192387 0.801784
Si Si7 0.932584 0.698737 0.500506
O O1 0.020676 0.169311 0.527608
O O2 0.087828 0.382462 0.201740
O O3 0.320642 0.857754 0.502063
O O4 0.000000 0.000000 0.500000
O O5 0.552582 0.649391 0.793427
O O6 0.754229 0.173381 0.936327
O O7 0.911143 0.447262 0.723225
O O8 0.779632 0.247226 0.051720
O O9 0.737003 0.570865 0.185553
O O10 0.000000 0.500000 0.000000
O O11 0.889970 0.893334 0.909284
O O12 0.678452 0.399277 0.170937
O O13 0.740421 0.917382 0.403725
O O14 0.412972 0.638729 0.263570
O O15 0.897320 0.364541 0.610295
#
# Coordination Sequence:
#
# PCOD8018257 Si02
#       7
#     2   2   2   2   2   2   2
#     4   9  20  40  63  90 120 169 216 253 313 383
#     4  10  22  40  64  92 130 167 217 262 317 373
#     4  11  22  40  68  92 124 168 215 265 319 379
#     4   9  20  41  66  93 121 170 219 259 311 382
#     4   9  20  41  67  93 129 163 213 266 318 376
#     4  11  23  40  60 100 132 163 210 268 318 378
#     4  11  22  38  63  90 132 171 210 256 321 386
#
# _framework density 23.216809999999999
#
# number of rings (size 3 to 8) (size 9 to 14) (size 15 to 20)
#    0.000    2.000    0.000    3.857    4.000    0.571 
#    2.571    7.857    0.000    0.000    0.000    0.000 
#    0.000    0.000    0.000    0.000    0.000    0.000 
#
# Total GULP energy -173438.355471 kJ/mol
# GULP energy per Si atom -12388.453962 kJ/mol
# Density = 2.316397 g / cm^3
# Si number density = 23.216810 Si / 1000 Ang^3
#
#
#
# Elastic Constant Matrix: (Units=GPa)
#
#
# Indices 1 2 3 4 5 6 
#
# 1 54.7300 15.9198 28.9286 0.6872 11.6602 -0.3920
# 2 15.9198 109.2661 49.3831 -2.3926 12.6992 3.3953
# 3 28.9286 49.3831 121.7935 2.3116 18.9368 -8.0842
# 4 0.6872 -2.3926 2.3116 30.6497 -2.9559 4.8375
# 5 11.6602 12.6992 18.9368 -2.9559 40.4944 5.9500
# 6 -0.3920 3.3953 -8.0842 4.8375 5.9500 24.5435
#
#
#
# Elastic Compliance Matrix: (Units=1/GPa)
#
#
# Indices 1 2 3 4 5 6 
#
# 1 0.021576 -0.000824 -0.004124 -0.000669 -0.004108 0.000228
# 2 -0.000824 0.011594 -0.004668 0.001748 -0.000595 -0.003355
# 3 -0.004124 -0.004668 0.012177 -0.002550 -0.004124 0.006093
# 4 -0.000669 0.001748 -0.002550 0.034863 0.004720 -0.009108
# 5 -0.004108 -0.000595 -0.004124 0.004720 0.029730 -0.009480
# 6 0.000228 -0.003355 0.006093 -0.009108 -0.009480 0.047312
#
#
# Mechanical properties :
#
#
# Convention : Reuss Voigt Hill
#
# Bulk Modulus (GPa) = 38.29371 52.69476 45.49423
# Shear Modulus (GPa) = 26.99914 31.90806 29.45360
#
# Velocity S-wave (km/s) = 3.41385 3.71125 3.56565
# Velocity P-wave (km/s) = 5.66294 6.41175 6.04895
#
# Compressibility (1/GPa) = 0.02611395
#
# Stress axis : x y z
#
# Youngs Moduli (GPa) = 46.34695 86.25445 82.12045
#
# Poissons Ratio (x) = 0.07107 0.33868
# Poissons Ratio (y) = 0.03819 0.38338
# Poissons Ratio (z) = 0.19114 0.40268
#
# Static dielectric constant tensor:
#      x y z
#    x 4.594220 0.102160 0.585020 
#    y 0.102160 4.176510 0.013840 
#    z 0.585020 0.013840 5.441530 
# 
# 
# High freq. dielectric constant tensor:
#      x y z
#    x 1.929720 0.012610 0.019290 
#    y 0.012610 1.909230 -0.005460 
#    z 0.019290 -0.005460 1.907490 
# 
# From -- ./inp_files/425627.got.cif
#   From: 2010.06.25/outbox.cif.g09.slc.cpg/sg2_213_cif.got.tgz:425627.got - 2010.06.27 13:26:56.
