data_PCOD8018190
_publ_section_title
;
Structure prediction by ZEFSAII (Michael W. Deem and Ramdas Pophale) SiO2 
 PCOD8018190
Probable space group: P -1
;
_chemical_formula_sum "Si O2"
_cell_formula_units_Z 16
_cell_length_a 7.011686
_cell_length_b 13.551012
_cell_length_c 14.771334
_cell_angle_alpha 39.310097
_cell_angle_beta 60.753761
_cell_angle_gamma 80.526329
_cell_volume 715.645171
_symmetry_space_group_name_H-M "P -1"
_symmetry_group_IT_number 2
_symmetry_cell_setting 'triclinic'
loop_
_space_group_symop_operation_xyz
x,y,z
-x,-y,-z
loop_
_atom_site_type_symbol
_atom_site_label
_atom_site_fract_x
_atom_site_fract_y
_atom_site_fract_z
Si Si1 0.550580 0.839064 0.903225
Si Si2 0.685007 0.267707 0.260712
Si Si3 0.108045 0.642680 0.446503
Si Si4 0.979945 0.858329 0.201486
Si Si5 0.265689 0.013276 0.433209
Si Si6 0.401830 0.098027 0.841833
Si Si7 0.972120 0.376008 0.805524
Si Si8 0.857160 0.633556 0.033723
O O1 0.627825 0.952069 0.715900
O O2 0.524126 0.963754 0.897404
O O3 0.298971 0.685740 0.056275
O O4 0.742300 0.765636 0.940311
O O5 0.423007 0.166684 0.353296
O O6 0.699176 0.448851 0.163056
O O7 0.732892 0.163939 0.406544
O O8 0.879098 0.294438 0.118701
O O9 0.994386 0.781051 0.351584
O O10 0.392646 0.722844 0.308763
O O11 0.000000 0.500000 0.500000
O O12 0.045150 0.567986 0.614797
O O13 0.985775 0.737265 0.202917
O O14 0.736285 0.888647 0.228217
O O15 0.206827 0.035072 0.011949
O O16 0.000000 0.000000 0.500000
O O17 0.134858 0.378337 0.851269
#
# Coordination Sequence:
#
# PCOD8018190 Si02
#       8
#     2   2   2   2   2   2   2   2
#     4  11  24  41  64  97 134 170 223 266 323 392
#     4  10  24  42  69  93 130 170 218 265 332 389
#     4  10  22  40  63  93 128 171 221 268 327 384
#     4   9  21  42  67  91 127 178 217 267 326 381
#     4  11  22  44  69  97 128 172 217 273 324 390
#     4  10  22  40  67  95 128 172 217 273 319 391
#     4  10  23  40  61  95 136 169 218 271 320 390
#     4  11  23  43  65  97 130 175 212 272 326 387
#
# _framework density 22.357448000000002
#
# number of rings (size 3 to 8) (size 9 to 14) (size 15 to 20)
#    0.000    1.750    2.500    0.375    1.750   10.500 
#    0.000    0.000    0.000    0.000    0.000    0.000 
#    0.000    0.000    0.000    0.000    0.000    0.000 
#
# Total GULP energy -198360.491947 kJ/mol
# GULP energy per Si atom -12397.530747 kJ/mol
# Density = 2.230656 g / cm^3
# Si number density = 22.357448 Si / 1000 Ang^3
#
#
#
# Elastic Constant Matrix: (Units=GPa)
#
#
# Indices 1 2 3 4 5 6 
#
# 1 133.1589 32.7186 63.8367 -7.8911 2.0756 3.0349
# 2 32.7186 39.8137 23.5512 -2.9544 -8.5761 -1.9094
# 3 63.8367 23.5512 148.8077 -14.4411 10.3623 7.6239
# 4 -7.8911 -2.9544 -14.4411 22.0122 12.3077 1.4362
# 5 2.0756 -8.5761 10.3623 12.3077 53.6635 -0.7240
# 6 3.0349 -1.9094 7.6239 1.4362 -0.7240 28.1591
#
#
#
# Elastic Compliance Matrix: (Units=1/GPa)
#
#
# Indices 1 2 3 4 5 6 
#
# 1 0.011017 -0.007338 -0.003264 0.001643 -0.001358 -0.000920
# 2 -0.007338 0.034806 -0.003616 -0.004960 0.007744 0.004582
# 3 -0.003264 -0.003616 0.009835 0.007264 -0.004058 -0.003031
# 4 0.001643 -0.004960 0.007264 0.059433 -0.015970 -0.005922
# 5 -0.001358 0.007744 -0.004058 -0.015970 0.024414 0.003212
# 6 -0.000920 0.004582 -0.003031 -0.005922 0.003212 0.037128
#
#
# Mechanical properties :
#
#
# Convention : Reuss Voigt Hill
#
# Bulk Modulus (GPa) = 36.73387 62.44367 49.58877
# Shear Modulus (GPa) = 23.34897 34.21190 28.78043
#
# Velocity S-wave (km/s) = 3.23514 3.91605 3.59177
# Velocity P-wave (km/s) = 5.51551 6.95971 6.27927
#
# Compressibility (1/GPa) = 0.02722283
#
# Stress axis : x y z
#
# Youngs Moduli (GPa) = 90.76987 28.73084 101.67526
#
# Poissons Ratio (x) = 0.21082 0.33184
# Poissons Ratio (y) = 0.66604 0.36767
# Poissons Ratio (z) = 0.29625 0.10390
#
# Static dielectric constant tensor:
#      x y z
#    x 4.343640 0.045940 0.274890 
#    y 0.045940 3.568140 -0.156820 
#    z 0.274890 -0.156820 4.748060 
# 
# 
# High freq. dielectric constant tensor:
#      x y z
#    x 1.897170 0.010230 0.007830 
#    y 0.010230 1.841960 -0.011480 
#    z 0.007830 -0.011480 1.900210 
# 
# From -- ./inp_files/484225.got.cif
#   From: 2010.06.25/outbox.cif.g09.slc.cpg/sg2_243_cif.got.tgz:484225.got - 2010.06.27 13:26:56.
