data_PCOD8018682
_publ_section_title
;
Structure prediction by ZEFSAII (Michael W. Deem and Ramdas Pophale) SiO2 
 PCOD8018682
Probable space group: P -1
;
_chemical_formula_sum "Si O2"
_cell_formula_units_Z 14
_cell_length_a 9.598939
_cell_length_b 15.804089
_cell_length_c 12.837203
_cell_angle_alpha 138.616387
_cell_angle_beta 128.891219
_cell_angle_gamma 31.836288
_cell_volume 678.862840
_symmetry_space_group_name_H-M "P -1"
_symmetry_group_IT_number 2
_symmetry_cell_setting 'triclinic'
loop_
_space_group_symop_operation_xyz
x,y,z
-x,-y,-z
loop_
_atom_site_type_symbol
_atom_site_label
_atom_site_fract_x
_atom_site_fract_y
_atom_site_fract_z
Si Si1 0.057895 0.061120 0.358288
Si Si2 0.409039 0.805456 0.109838
Si Si3 0.779475 0.358742 0.200354
Si Si4 0.609431 0.692247 0.315551
Si Si5 0.379216 0.008951 0.105117
Si Si6 0.893602 0.405225 0.519774
Si Si7 0.555820 0.165727 0.239706
O O1 0.959626 0.259082 0.498575
O O2 0.834130 0.085964 0.321013
O O3 0.128545 0.987061 0.202420
O O4 0.324523 0.904209 0.407700
O O5 0.634104 0.673342 0.182926
O O6 0.487147 0.879942 0.138770
O O7 0.377969 0.691758 0.925143
O O8 0.619117 0.544555 0.227755
O O9 0.780033 0.404562 0.361076
O O10 0.066410 0.192403 0.131679
O O11 0.840886 0.656102 0.439790
O O12 0.515750 0.076416 0.224836
O O13 0.456594 0.885388 0.927916
O O14 0.678237 0.608974 0.658182
#
# Coordination Sequence:
#
# PCOD8018682 Si02
#       7
#     2   2   2   2   2   2   2
#     4  10  22  41  66  91 134 164 211 263 328 366
#     4  10  22  40  69  92 125 173 221 251 316 387
#     4  12  20  40  72  96 120 172 230 255 301 399
#     4  10  23  40  67  98 128 167 217 269 313 383
#     4  11  21  41  67  92 131 171 219 256 319 389
#     4  12  23  40  69  98 126 168 223 264 313 381
#     4  11  24  39  65 100 133 166 209 275 325 370
#
# _framework density 20.622722
#
# number of rings (size 3 to 8) (size 9 to 14) (size 15 to 20)
#    0.857    0.286    4.286    3.000    0.000    0.000 
#    0.000    1.429    3.143    0.000    0.000    0.000 
#    0.000    0.000    0.000    0.000    0.000    0.000 
#
# Total GULP energy -173605.529846 kJ/mol
# GULP energy per Si atom -12400.394989 kJ/mol
# Density = 2.057578 g / cm^3
# Si number density = 20.622722 Si / 1000 Ang^3
#
#
#
# Elastic Constant Matrix: (Units=GPa)
#
#
# Indices 1 2 3 4 5 6 
#
# 1 86.3668 23.8076 21.2520 13.4360 16.4933 8.6720
# 2 23.8076 92.3564 32.4605 15.5783 -2.2600 12.6766
# 3 21.2520 32.4605 94.2708 23.3594 7.3262 0.5263
# 4 13.4360 15.5783 23.3594 29.9309 -0.8514 9.4382
# 5 16.4933 -2.2600 7.3262 -0.8514 31.1711 3.6560
# 6 8.6720 12.6766 0.5263 9.4382 3.6560 35.9004
#
#
#
# Elastic Compliance Matrix: (Units=1/GPa)
#
#
# Indices 1 2 3 4 5 6 
#
# 1 0.014850 -0.002974 -0.000504 -0.004812 -0.008034 -0.000446
# 2 -0.002974 0.013925 -0.004097 -0.001273 0.004005 -0.004212
# 3 -0.000504 -0.004097 0.015210 -0.011129 -0.004463 0.004726
# 4 -0.004812 -0.001273 -0.011129 0.048884 0.007797 -0.011870
# 5 -0.008034 0.004005 -0.004463 0.007797 0.038515 -0.005381
# 6 -0.000446 -0.004212 0.004726 -0.011870 -0.005381 0.033049
#
#
# Mechanical properties :
#
#
# Convention : Reuss Voigt Hill
#
# Bulk Modulus (GPa) = 34.68014 47.55936 41.11975
# Shear Modulus (GPa) = 26.42756 32.43206 29.42981
#
# Velocity S-wave (km/s) = 3.58366 3.96995 3.78174
# Velocity P-wave (km/s) = 5.82893 6.64272 6.24909
#
# Compressibility (1/GPa) = 0.02883494
#
# Stress axis : x y z
#
# Youngs Moduli (GPa) = 67.33907 71.81301 65.74515
#
# Poissons Ratio (x) = 0.21361 0.03315
# Poissons Ratio (y) = 0.20030 0.26933
# Poissons Ratio (z) = 0.03396 0.29419
#
# Static dielectric constant tensor:
#      x y z
#    x 3.697770 0.078360 0.174940 
#    y 0.078360 3.586810 0.203480 
#    z 0.174940 0.203480 3.757450 
# 
# 
# High freq. dielectric constant tensor:
#      x y z
#    x 1.799920 0.009650 0.017550 
#    y 0.009650 1.797450 0.012910 
#    z 0.017550 0.012910 1.810830 
# 
# From -- ./inp_files/504486.got.cif
#   From: 2010.06.25/outbox.cif.g09.slc.cpg/sg2_253_cif.got.tgz:504486.got - 2010.06.27 13:26:56.
