data_PCOD8018891
_publ_section_title
;
Structure prediction by ZEFSAII (Michael W. Deem and Ramdas Pophale) SiO2 
 PCOD8018891
Probable space group: P -1
;
_chemical_formula_sum "Si O2"
_cell_formula_units_Z 16
_cell_length_a 15.208500
_cell_length_b 12.431811
_cell_length_c 9.244539
_cell_angle_alpha 93.272322
_cell_angle_beta 94.622582
_cell_angle_gamma 151.969183
_cell_volume 787.457645
_symmetry_space_group_name_H-M "P -1"
_symmetry_group_IT_number 2
_symmetry_cell_setting 'triclinic'
loop_
_space_group_symop_operation_xyz
x,y,z
-x,-y,-z
loop_
_atom_site_type_symbol
_atom_site_label
_atom_site_fract_x
_atom_site_fract_y
_atom_site_fract_z
Si Si1 0.633333 0.853378 0.877337
Si Si2 0.287653 0.138592 0.792883
Si Si3 0.062894 0.740711 0.524585
Si Si4 0.576415 0.580085 0.678150
Si Si5 0.016141 0.034439 0.835648
Si Si6 0.394770 0.808460 0.860840
Si Si7 0.302018 0.790582 0.545286
Si Si8 0.024789 0.278608 0.797908
O O1 0.539603 0.655312 0.755228
O O2 0.516844 0.836240 0.835123
O O3 0.632357 0.818428 0.041971
O O4 0.852228 0.113613 0.874211
O O5 0.471449 0.371202 0.737442
O O6 0.163042 0.911178 0.681977
O O7 0.151436 0.093319 0.787328
O O8 0.196703 0.787404 0.496572
O O9 0.849780 0.470889 0.532257
O O10 0.043580 0.793162 0.383695
O O11 0.500000 0.500000 0.500000
O O12 0.803642 0.798769 0.717724
O O13 0.113207 0.256178 0.834911
O O14 0.000000 0.000000 0.000000
O O15 0.358349 0.845564 0.723780
O O16 0.187837 0.544716 0.876496
O O17 0.500000 0.000000 0.000000
O O18 0.500000 0.000000 0.500000
#
# Coordination Sequence:
#
# PCOD8018891 Si02
#       8
#     2   2   2   2   2   2   2   2
#     4  11  23  39  62  90 126 167 205 260 319 368
#     4  12  23  38  66  93 129 167 214 265 314 382
#     4  10  23  40  62  93 121 166 212 262 323 375
#     4  11  25  41  64  96 129 170 217 261 318 384
#     4  11  23  42  64  94 130 172 209 257 322 379
#     4  11  24  39  63  92 121 163 211 260 319 375
#     4  10  22  43  63  85 126 164 211 266 319 379
#     4  10  22  41  62  86 130 163 206 261 313 379
#
# _framework density 20.318553999999999
#
# number of rings (size 3 to 8) (size 9 to 14) (size 15 to 20)
#    0.000    1.250    2.500    4.125    1.750    6.500 
#    0.000    0.000    0.000    0.000    0.000    0.000 
#    0.000    0.000    0.000    0.000    0.000    0.000 
#
# Total GULP energy -198460.260404 kJ/mol
# GULP energy per Si atom -12403.766275 kJ/mol
# Density = 2.027231 g / cm^3
# Si number density = 20.318554 Si / 1000 Ang^3
#
#
#
# Elastic Constant Matrix: (Units=GPa)
#
#
# Indices 1 2 3 4 5 6 
#
# 1 55.6278 8.3172 11.5764 -3.6991 9.5317 -9.1872
# 2 8.3172 126.7771 48.9844 -5.6147 -7.9437 -5.8995
# 3 11.5764 48.9844 128.0133 9.1971 -0.9641 -21.8255
# 4 -3.6991 -5.6147 9.1971 38.5362 -5.5018 -0.2243
# 5 9.5317 -7.9437 -0.9641 -5.5018 31.7523 0.8886
# 6 -9.1872 -5.8995 -21.8255 -0.2243 0.8886 31.9502
#
#
#
# Elastic Compliance Matrix: (Units=1/GPa)
#
#
# Indices 1 2 3 4 5 6 
#
# 1 0.020337 -0.001217 -0.000572 0.001029 -0.006400 0.005418
# 2 -0.001217 0.009786 -0.004040 0.002722 0.003201 -0.001373
# 3 -0.000572 -0.004040 0.010738 -0.003351 -0.001274 0.006437
# 4 0.001029 0.002722 -0.003351 0.027973 0.005157 -0.001437
# 5 -0.006400 0.003201 -0.001274 0.005157 0.035156 -0.003061
# 6 0.005418 -0.001373 0.006437 -0.001437 -0.003061 0.037075
#
#
# Mechanical properties :
#
#
# Convention : Reuss Voigt Hill
#
# Bulk Modulus (GPa) = 34.24203 49.79713 42.01958
# Shear Modulus (GPa) = 30.77730 36.55042 33.66386
#
# Velocity S-wave (km/s) = 3.89619 4.24591 4.07480
# Velocity P-wave (km/s) = 6.09340 6.97126 6.54706
#
# Compressibility (1/GPa) = 0.02920388
#
# Stress axis : x y z
#
# Youngs Moduli (GPa) = 49.17042 102.18750 93.12815
#
# Poissons Ratio (x) = 0.12431 0.05328
# Poissons Ratio (y) = 0.05982 0.37624
# Poissons Ratio (z) = 0.02813 0.41285
#
# Static dielectric constant tensor:
#      x y z
#    x 2.540350 -1.003640 0.272550 
#    y -1.003640 3.193720 0.044480 
#    z 0.272550 0.044480 3.668120 
# 
# 
# High freq. dielectric constant tensor:
#      x y z
#    x 1.794710 -0.002960 0.015850 
#    y -0.002960 1.812730 -0.001350 
#    z 0.015850 -0.001350 1.798870 
# 
# From -- ./inp_files/208052.got.cif
#   From: 2010.06.25/outbox.cif.g09.slc.cpg/sg2_105_cif.got.tgz:208052.got - 2010.06.27 13:26:56.
