data_PCOD8018315
_publ_section_title
;
Structure prediction by ZEFSAII (Michael W. Deem and Ramdas Pophale) SiO2 
 PCOD8018315
Probable space group: P -1
;
_chemical_formula_sum "Si O2"
_cell_formula_units_Z 16
_cell_length_a 9.939225
_cell_length_b 11.510717
_cell_length_c 17.246549
_cell_angle_alpha 149.709457
_cell_angle_beta 47.898024
_cell_angle_gamma 130.747238
_cell_volume 723.905237
_symmetry_space_group_name_H-M "P -1"
_symmetry_group_IT_number 2
_symmetry_cell_setting 'triclinic'
loop_
_space_group_symop_operation_xyz
x,y,z
-x,-y,-z
loop_
_atom_site_type_symbol
_atom_site_label
_atom_site_fract_x
_atom_site_fract_y
_atom_site_fract_z
Si Si1 0.938844 0.010673 0.305194
Si Si2 0.658055 0.020698 0.830655
Si Si3 0.129442 0.871286 0.429583
Si Si4 0.130338 0.916456 0.792873
Si Si5 0.360587 0.613646 0.747392
Si Si6 0.993223 0.657657 0.841160
Si Si7 0.538922 0.843612 0.609278
Si Si8 0.210898 0.488906 0.899069
O O1 0.923705 0.145065 0.468705
O O2 0.908568 0.158239 0.325142
O O3 0.147118 0.968423 0.195739
O O4 0.779027 0.772076 0.225792
O O5 0.501724 0.859688 0.851281
O O6 0.648593 0.912940 0.686833
O O7 0.644637 0.298794 0.992519
O O8 0.116294 0.605250 0.253276
O O9 0.340566 0.006074 0.417869
O O10 0.000000 0.000000 0.500000
O O11 0.339481 0.906507 0.726701
O O12 0.985780 0.743389 0.804104
O O13 0.097179 0.180522 0.972113
O O14 0.474214 0.432846 0.560157
O O15 0.255165 0.498142 0.796518
O O16 0.210288 0.673624 0.780818
O O17 0.000000 0.500000 0.000000
#
# Coordination Sequence:
#
# PCOD8018315 Si02
#       8
#     2   2   2   2   2   2   2   2
#     4  11  23  45  66 101 140 183 224 282 352 409
#     4  11  23  39  72 102 133 180 237 282 335 402
#     4  12  23  43  76 103 130 183 238 285 338 408
#     4  11  28  46  66 101 150 182 214 290 354 410
#     4  12  22  44  74 102 135 177 240 290 326 406
#     4  11  24  47  71  99 143 185 227 275 354 419
#     4  12  25  44  69 106 135 176 236 287 336 402
#     4  10  22  40  65 101 136 174 226 286 334 397
#
# _framework density 22.102340000000002
#
# number of rings (size 3 to 8) (size 9 to 14) (size 15 to 20)
#    0.000    0.750    5.000    2.250    5.250    1.500 
#    0.000    0.000    0.000    0.000    0.000    0.000 
#    0.000    0.000    0.000    0.000    0.000    0.000 
#
# Total GULP energy -198348.059381 kJ/mol
# GULP energy per Si atom -12396.753711 kJ/mol
# Density = 2.205203 g / cm^3
# Si number density = 22.102340 Si / 1000 Ang^3
#
#
#
# Elastic Constant Matrix: (Units=GPa)
#
#
# Indices 1 2 3 4 5 6 
#
# 1 78.8623 35.4539 35.6647 -5.3451 8.5443 -8.3996
# 2 35.4539 93.4486 21.1925 3.5075 3.5884 -0.0351
# 3 35.6647 21.1925 99.8447 22.4063 -3.6001 -0.1374
# 4 -5.3451 3.5075 22.4063 35.6485 -0.3538 16.8458
# 5 8.5443 3.5884 -3.6001 -0.3538 34.1721 -7.9673
# 6 -8.3996 -0.0351 -0.1374 16.8458 -7.9673 38.1461
#
#
#
# Elastic Compliance Matrix: (Units=1/GPa)
#
#
# Indices 1 2 3 4 5 6 
#
# 1 0.020147 -0.005928 -0.008152 0.009000 -0.005341 -0.000689
# 2 -0.005928 0.013079 -0.000267 -0.001758 -0.000061 -0.000531
# 3 -0.008152 -0.000267 0.016305 -0.013977 0.004913 0.005462
# 4 0.009000 -0.001758 -0.013977 0.048213 -0.007940 -0.021020
# 5 -0.005341 -0.000061 0.004913 -0.007940 0.033205 0.009283
# 6 -0.000689 -0.000531 0.005462 -0.021020 0.009283 0.037304
#
#
# Mechanical properties :
#
#
# Convention : Reuss Voigt Hill
#
# Bulk Modulus (GPa) = 47.98979 50.75308 49.37143
# Shear Modulus (GPa) = 24.52264 33.58297 29.05281
#
# Velocity S-wave (km/s) = 3.33454 3.90222 3.62949
# Velocity P-wave (km/s) = 6.04857 6.58146 6.32063
#
# Compressibility (1/GPa) = 0.02083776
#
# Stress axis : x y z
#
# Youngs Moduli (GPa) = 49.63458 76.45943 61.33018
#
# Poissons Ratio (x) = 0.45326 0.49994
# Poissons Ratio (y) = 0.29424 0.01638
# Poissons Ratio (z) = 0.40460 0.02042
#
# Static dielectric constant tensor:
#      x y z
#    x 3.635970 -0.060890 0.090190 
#    y -0.060890 4.337270 0.148960 
#    z 0.090190 0.148960 4.114570 
# 
# 
# High freq. dielectric constant tensor:
#      x y z
#    x 1.836450 -0.008030 0.014000 
#    y -0.008030 1.891670 -0.001340 
#    z 0.014000 -0.001340 1.873300 
# 
# From -- ./inp_files/560133.got.cif
#   From: 2010.06.25/outbox.cif.g09.slc.cpg/sg2_281_cif.got.tgz:560133.got - 2010.06.27 13:26:56.
