data_PCOD8018659
_publ_section_title
;
Structure prediction by ZEFSAII (Michael W. Deem and Ramdas Pophale) SiO2 
 PCOD8018659
Probable space group: P -1
;
_chemical_formula_sum "Si O2"
_cell_formula_units_Z 16
_cell_length_a 12.000225
_cell_length_b 9.541645
_cell_length_c 14.646625
_cell_angle_alpha 103.052632
_cell_angle_beta 41.284227
_cell_angle_gamma 128.222276
_cell_volume 771.306568
_symmetry_space_group_name_H-M "P -1"
_symmetry_group_IT_number 2
_symmetry_cell_setting 'triclinic'
loop_
_space_group_symop_operation_xyz
x,y,z
-x,-y,-z
loop_
_atom_site_type_symbol
_atom_site_label
_atom_site_fract_x
_atom_site_fract_y
_atom_site_fract_z
Si Si1 0.217271 0.888053 0.553224
Si Si2 0.471016 0.501572 0.624084
Si Si3 0.730446 0.565676 0.911637
Si Si4 0.965348 0.133749 0.081632
Si Si5 0.751666 0.914945 0.611763
Si Si6 0.029321 0.669868 0.050520
Si Si7 0.518389 0.814539 0.417298
Si Si8 0.412002 0.812855 0.970464
O O1 0.302417 0.775164 0.501960
O O2 0.948679 0.729988 0.733670
O O3 0.212379 0.927102 0.454687
O O4 0.422178 0.118365 0.502368
O O5 0.500000 0.500000 0.500000
O O6 0.639072 0.716111 0.597650
O O7 0.524595 0.375251 0.613469
O O8 0.205856 0.387685 0.787972
O O9 0.792859 0.666373 0.989241
O O10 0.500000 0.500000 0.000000
O O11 0.668377 0.360878 0.936241
O O12 0.766919 0.022672 0.262173
O O13 0.854824 0.166446 0.075469
O O14 0.000000 0.000000 0.000000
O O15 0.599027 0.869606 0.787625
O O16 0.000000 0.000000 0.500000
O O17 0.182596 0.745202 0.056513
O O18 0.000000 0.500000 0.000000
O O19 0.500000 0.000000 0.000000
#
# Coordination Sequence:
#
# PCOD8018659 Si02
#       8
#     2   2   2   2   2   2   2   2
#     4  10  23  43  69 100 137 178 221 287 339 414
#     4  12  25  40  71 102 135 178 228 286 341 413
#     4  11  25  45  67  99 140 179 224 279 350 415
#     4  11  22  40  69 100 131 176 223 286 341 408
#     4  12  26  47  68 102 142 182 231 284 349 416
#     4  12  24  45  70 102 137 177 241 287 344 412
#     4  10  22  40  69 102 132 170 230 278 348 400
#     4  12  29  46  70 100 141 188 230 290 349 411
#
# _framework density 20.744022000000001
#
# number of rings (size 3 to 8) (size 9 to 14) (size 15 to 20)
#    0.000    0.750    5.000    1.500    5.250    0.000 
#    0.000    1.250    0.000    0.000    0.000    0.000 
#    0.000    0.000    0.000    0.000    0.000    0.000 
#
# Total GULP energy -198265.375105 kJ/mol
# GULP energy per Si atom -12391.585944 kJ/mol
# Density = 2.069681 g / cm^3
# Si number density = 20.744022 Si / 1000 Ang^3
#
#
#
# Elastic Constant Matrix: (Units=GPa)
#
#
# Indices 1 2 3 4 5 6 
#
# 1 150.2872 53.9851 29.6006 -3.3384 -16.6906 -10.3803
# 2 53.9851 148.8311 33.7230 13.8299 -2.4517 -5.2398
# 3 29.6006 33.7230 77.8422 7.3141 -6.4562 -4.0727
# 4 -3.3384 13.8299 7.3141 34.3517 -3.4738 -0.6182
# 5 -16.6906 -2.4517 -6.4562 -3.4738 42.5911 -0.5868
# 6 -10.3803 -5.2398 -4.0727 -0.6182 -0.5868 37.7360
#
#
#
# Elastic Compliance Matrix: (Units=1/GPa)
#
#
# Indices 1 2 3 4 5 6 
#
# 1 0.008586 -0.002810 -0.001945 0.002733 0.003156 0.001855
# 2 -0.002810 0.008582 -0.002435 -0.003334 -0.001247 0.000082
# 3 -0.001945 -0.002435 0.014991 -0.002267 0.001195 0.000726
# 4 0.002733 -0.003334 -0.002267 0.031527 0.003115 0.000609
# 5 0.003156 -0.001247 0.001195 0.003115 0.025097 0.001265
# 6 0.001855 0.000082 0.000726 0.000609 0.001265 0.027130
#
#
# Mechanical properties :
#
#
# Convention : Reuss Voigt Hill
#
# Bulk Modulus (GPa) = 56.24945 67.95309 62.10127
# Shear Modulus (GPa) = 36.70500 40.24586 38.47543
#
# Velocity S-wave (km/s) = 4.21102 4.40946 4.31138
# Velocity P-wave (km/s) = 7.12870 7.66508 7.40175
#
# Compressibility (1/GPa) = 0.01777795
#
# Stress axis : x y z
#
# Youngs Moduli (GPa) = 116.46954 116.51836 66.70502
#
# Poissons Ratio (x) = 0.32743 0.12977
# Poissons Ratio (y) = 0.32730 0.16245
# Poissons Ratio (z) = 0.22658 0.28376
#
# Static dielectric constant tensor:
#      x y z
#    x 3.564700 -0.081600 0.267810 
#    y -0.081600 4.205690 -0.062310 
#    z 0.267810 -0.062310 3.708470 
# 
# 
# High freq. dielectric constant tensor:
#      x y z
#    x 1.826070 -0.012070 0.001160 
#    y -0.012070 1.813870 0.000430 
#    z 0.001160 0.000430 1.820620 
# 
# From -- ./inp_files/515857.got.cif
#   From: 2010.06.25/outbox.cif.g09.slc.cpg/sg2_258_cif.got.tgz:515857.got - 2010.06.27 13:26:56.
