data_PCOD8018262
_publ_section_title
;
Structure prediction by ZEFSAII (Michael W. Deem and Ramdas Pophale) SiO2 
 PCOD8018262
Probable space group: P -1
;
_chemical_formula_sum "Si O2"
_cell_formula_units_Z 14
_cell_length_a 22.854461
_cell_length_b 22.024090
_cell_length_c 5.052054
_cell_angle_alpha 120.554840
_cell_angle_beta 66.647551
_cell_angle_gamma 161.980787
_cell_volume 640.211907
_symmetry_space_group_name_H-M "P -1"
_symmetry_group_IT_number 2
_symmetry_cell_setting 'triclinic'
loop_
_space_group_symop_operation_xyz
x,y,z
-x,-y,-z
loop_
_atom_site_type_symbol
_atom_site_label
_atom_site_fract_x
_atom_site_fract_y
_atom_site_fract_z
Si Si1 0.633143 0.499387 0.031780
Si Si2 0.739390 0.380853 0.064453
Si Si3 0.348966 0.892736 0.692960
Si Si4 0.219260 0.103873 0.924328
Si Si5 0.088529 0.511540 0.525943
Si Si6 0.793232 0.815780 0.377363
Si Si7 0.192496 0.387963 0.531748
O O1 0.399568 0.238187 0.873120
O O2 0.638203 0.588587 0.158798
O O3 0.743772 0.600037 0.330537
O O4 0.711618 0.531161 0.737082
O O5 0.869624 0.503542 0.364987
O O6 0.749950 0.473585 0.174487
O O7 0.849120 0.451410 0.794425
O O8 0.503786 0.118477 0.977170
O O9 0.248724 0.745166 0.795925
O O10 0.144186 0.708189 0.511048
O O11 0.500000 0.000000 0.500000
O O12 0.246903 0.163253 0.301609
O O13 0.207044 0.155779 0.856637
O O14 0.040186 0.862853 0.662719
O O15 0.000000 0.000000 0.500000
#
# Coordination Sequence:
#
# PCOD8018262 Si02
#       7
#     2   2   2   2   2   2   2
#     4  12  25  41  64  89 119 159 205 251 307 358
#     4  11  24  40  62  89 126 164 201 243 299 356
#     4   9  21  40  66  95 124 156 202 251 297 348
#     4  12  24  41  62  90 121 156 200 255 308 365
#     4  10  22  40  64  93 122 159 202 249 297 349
#     4  12  21  41  67  86 120 155 198 260 313 351
#     4  12  25  42  60  89 124 163 202 246 296 366
#
# _framework density 21.867760000000001
#
# number of rings (size 3 to 8) (size 9 to 14) (size 15 to 20)
#    0.000    0.857    2.857    4.286    0.000    9.714 
#    0.000    0.000    0.000    0.000    0.000    0.000 
#    0.000    0.000    0.000    0.000    0.000    0.000 
#
# Total GULP energy -173449.236650 kJ/mol
# GULP energy per Si atom -12389.231189 kJ/mol
# Density = 2.181799 g / cm^3
# Si number density = 21.867760 Si / 1000 Ang^3
#
#
#
# Elastic Constant Matrix: (Units=GPa)
#
#
# Indices 1 2 3 4 5 6 
#
# 1 -95.7484 -20.1124 92.4886 47.3123 3.6796 -105.4856
# 2 -20.1124 127.7252 73.3184 30.1711 1.3996 -3.7109
# 3 92.4886 73.3184 45.7046 -0.5809 -7.8015 45.6886
# 4 47.3123 30.1711 -0.5809 45.1693 -1.9893 19.1885
# 5 3.6796 1.3996 -7.8015 -1.9893 45.6608 7.1114
# 6 -105.4856 -3.7109 45.6886 19.1885 7.1114 -23.8225
#
#
#
# Elastic Compliance Matrix: (Units=1/GPa)
#
#
# Indices 1 2 3 4 5 6 
#
# 1 0.004145 -0.002252 0.004189 0.000968 0.001839 -0.008642
# 2 -0.002252 0.011910 -0.007077 -0.002490 -0.000324 -0.007560
# 3 0.004189 -0.007077 0.015366 -0.003459 0.000875 0.009499
# 4 0.000968 -0.002490 -0.003459 0.020316 -0.000588 0.005654
# 5 0.001839 -0.000324 0.000875 -0.000588 0.021939 -0.000339
# 6 -0.008642 -0.007560 0.009499 0.005654 -0.000339 0.020139
#
#
# Mechanical properties :
#
#
# Convention : Reuss Voigt Hill
#
# Bulk Modulus (GPa) = 47.30296 41.00784 44.15540
# Shear Modulus (GPa) = 44.98764 8.86730 26.92747
#
# Velocity S-wave (km/s) = 4.54062 2.01588 3.51291
# Velocity P-wave (km/s) = 7.01199 4.92054 6.05722
#
# Compressibility (1/GPa) = 0.02114032
#
# Stress axis : x y z
#
# Youngs Moduli (GPa) = 241.23464 83.96655 65.07815
#
# Poissons Ratio (x) = 0.18907 -0.27261
# Poissons Ratio (y) = 0.54321 0.46059
# Poissons Ratio (z) = -1.01051 0.59427
#
# Static dielectric constant tensor:
#      x y z
#    x 3.743640 -0.058330 0.184020 
#    y -0.058330 4.414960 0.258720 
#    z 0.184020 0.258720 3.559650 
# 
# 
# High freq. dielectric constant tensor:
#      x y z
#    x 1.855090 0.005730 0.010620 
#    y 0.005730 1.879040 0.008820 
#    z 0.010620 0.008820 1.853120 
# 
# From -- ./inp_files/120185.got.cif
#   From: 2010.06.25/outbox.cif.g09.slc.cpg/sg2_61_cif.got.tgz:120185.got - 2010.06.27 13:26:56.
