data_PCOD8018066
_publ_section_title
;
Structure prediction by ZEFSAII (Michael W. Deem and Ramdas Pophale) SiO2 
 PCOD8018066
Probable space group: P -1
;
_chemical_formula_sum "Si O2"
_cell_formula_units_Z 16
_cell_length_a 7.981483
_cell_length_b 7.769945
_cell_length_c 21.159649
_cell_angle_alpha 131.617487
_cell_angle_beta 63.696233
_cell_angle_gamma 120.797369
_cell_volume 831.750309
_symmetry_space_group_name_H-M "P -1"
_symmetry_group_IT_number 2
_symmetry_cell_setting 'triclinic'
loop_
_space_group_symop_operation_xyz
x,y,z
-x,-y,-z
loop_
_atom_site_type_symbol
_atom_site_label
_atom_site_fract_x
_atom_site_fract_y
_atom_site_fract_z
Si Si1 0.719614 0.159869 0.497832
Si Si2 0.717591 0.119723 0.924186
Si Si3 0.058159 0.480383 0.357494
Si Si4 0.052767 0.065364 0.355049
Si Si5 0.048258 0.607941 0.168230
Si Si6 0.221019 0.351972 0.173657
Si Si7 0.627922 0.328823 0.114885
Si Si8 0.279460 0.435782 0.500035
O O1 0.785503 0.268636 0.582420
O O2 0.758875 0.386950 0.501544
O O3 0.842081 0.996616 0.408925
O O4 0.500000 0.000000 0.500000
O O5 0.827768 0.283859 0.888242
O O6 0.839896 0.942483 0.883541
O O7 0.491212 0.942527 0.902575
O O8 0.712095 0.304089 0.025680
O O9 0.069124 0.245817 0.337137
O O10 0.106056 0.449816 0.269811
O O11 0.848359 0.531340 0.410264
O O12 0.211730 0.176809 0.411903
O O13 0.080473 0.821075 0.265662
O O14 0.813518 0.479119 0.163355
O O15 0.146044 0.417654 0.134896
O O16 0.462019 0.466774 0.169651
O O17 0.500000 0.500000 0.500000
#
# Coordination Sequence:
#
# PCOD8018066 Si02
#       8
#     2   2   2   2   2   2   2   2
#     4   9  19  31  57  76 108 160 186 240 301 341
#     4   9  21  46  60  91 134 151 202 269 291 371
#     4   9  18  39  54  76 123 154 191 254 296 347
#     4   9  19  37  53  81 117 154 197 246 299 351
#     4  12  22  39  67  92 122 165 205 250 311 363
#     4  10  22  40  61  94 119 158 213 244 301 380
#     4   9  22  44  63  90 127 164 197 253 320 358
#     4   9  19  36  55  79 115 158 196 239 306 351
#
# _framework density 19.236542
#
# number of rings (size 3 to 8) (size 9 to 14) (size 15 to 20)
#    0.750    1.750    1.250    1.875    1.750    3.000 
#    9.000    2.500    0.000    0.000    0.000    0.000 
#    0.000    0.000    0.000    0.000    0.000    0.000 
#
# Total GULP energy -198217.880237 kJ/mol
# GULP energy per Si atom -12388.617515 kJ/mol
# Density = 1.919276 g / cm^3
# Si number density = 19.236542 Si / 1000 Ang^3
#
#
#
# Elastic Constant Matrix: (Units=GPa)
#
#
# Indices 1 2 3 4 5 6 
#
# 1 131.1234 44.5350 43.2668 -7.4906 1.8912 18.6701
# 2 44.5350 76.5652 34.5553 -11.8607 3.9990 8.2782
# 3 43.2668 34.5553 116.7719 -3.9853 -10.9960 8.1631
# 4 -7.4906 -11.8607 -3.9853 18.7754 3.0232 0.7457
# 5 1.8912 3.9990 -10.9960 3.0232 16.3794 -1.1084
# 6 18.6701 8.2782 8.1631 0.7457 -1.1084 38.8497
#
#
#
# Elastic Compliance Matrix: (Units=1/GPa)
#
#
# Indices 1 2 3 4 5 6 
#
# 1 0.010565 -0.004202 -0.002589 0.001558 -0.002473 -0.003738
# 2 -0.004202 0.020227 -0.004844 0.011753 -0.009995 -0.001784
# 3 -0.002589 -0.004844 0.011778 -0.003208 0.009990 0.000149
# 4 0.001558 0.011753 -0.003208 0.063570 -0.017226 -0.004291
# 5 -0.002473 -0.009995 0.009990 -0.017226 0.073912 0.003658
# 6 -0.003738 -0.001784 0.000149 -0.004291 0.003658 0.028072
#
#
# Mechanical properties :
#
#
# Convention : Reuss Voigt Hill
#
# Bulk Modulus (GPa) = 51.81816 63.24164 57.52990
# Shear Modulus (GPa) = 21.02367 28.27445 24.64906
#
# Velocity S-wave (km/s) = 3.30949 3.83800 3.58350
# Velocity P-wave (km/s) = 6.44977 7.25172 6.86247
#
# Compressibility (1/GPa) = 0.01929825
#
# Stress axis : x y z
#
# Youngs Moduli (GPa) = 94.65292 49.43995 84.90762
#
# Poissons Ratio (x) = 0.20774 0.21987
# Poissons Ratio (y) = 0.39772 0.41129
# Poissons Ratio (z) = 0.24510 0.23948
#
# Static dielectric constant tensor:
#      x y z
#    x 3.324080 0.025010 -0.103580 
#    y 0.025010 3.370050 -0.038480 
#    z -0.103580 -0.038480 3.504750 
# 
# 
# High freq. dielectric constant tensor:
#      x y z
#    x 1.732890 0.007390 -0.009240 
#    y 0.007390 1.738870 -0.006170 
#    z -0.009240 -0.006170 1.754230 
# 
# From -- ./inp_files/586886.got.cif
#   From: 2010.06.25/outbox.cif.g09.slc.cpg/sg2_294_cif.got.tgz:586886.got - 2010.06.27 13:26:56.
