data_PCOD8018727
_publ_section_title
;
Structure prediction by ZEFSAII (Michael W. Deem and Ramdas Pophale) SiO2 
 PCOD8018727
Probable space group: P -1
;
_chemical_formula_sum "Si O2"
_cell_formula_units_Z 14
_cell_length_a 5.391798
_cell_length_b 12.891317
_cell_length_c 14.066195
_cell_angle_alpha 138.631521
_cell_angle_beta 104.574303
_cell_angle_gamma 58.229382
_cell_volume 531.125121
_symmetry_space_group_name_H-M "P -1"
_symmetry_group_IT_number 2
_symmetry_cell_setting 'triclinic'
loop_
_space_group_symop_operation_xyz
x,y,z
-x,-y,-z
loop_
_atom_site_type_symbol
_atom_site_label
_atom_site_fract_x
_atom_site_fract_y
_atom_site_fract_z
Si Si1 0.898857 0.199237 0.164387
Si Si2 0.237010 0.307997 0.511011
Si Si3 0.338421 0.884741 0.418133
Si Si4 0.071099 0.658171 0.112356
Si Si5 0.665282 0.667393 0.668414
Si Si6 0.433539 0.903642 0.239260
Si Si7 0.623726 0.371243 0.066738
O O1 0.666110 0.243280 0.258238
O O2 0.735412 0.355057 0.173767
O O3 0.196026 0.200981 0.223200
O O4 0.000000 0.000000 0.000000
O O5 0.445758 0.283346 0.605251
O O6 0.360286 0.363221 0.468076
O O7 0.892706 0.473126 0.609268
O O8 0.228937 0.123563 0.361920
O O9 0.324415 0.827648 0.266393
O O10 0.500000 0.000000 0.500000
O O11 0.000000 0.000000 0.500000
O O12 0.348347 0.581895 0.163222
O O13 0.780372 0.849533 0.254265
O O14 0.120435 0.678209 0.020161
O O15 0.000000 0.500000 0.000000
O O16 0.443543 0.794234 0.070086
#
# Coordination Sequence:
#
# PCOD8018727 Si02
#       7
#     2   2   2   2   2   2   2
#     4  12  28  47  76 105 142 189 247 292 359 422
#     4  10  25  48  72 101 148 188 242 295 356 422
#     4  10  24  41  66 104 136 182 233 285 350 422
#     4   9  21  39  61 100 136 181 228 282 361 414
#     4  11  28  48  72 106 142 195 241 299 348 423
#     4  10  22  40  70 101 140 183 233 288 366 430
#     4  10  23  40  71  99 144 182 231 299 356 422
#
# _framework density 26.359134999999998
#
# number of rings (size 3 to 8) (size 9 to 14) (size 15 to 20)
#    0.000    1.714    0.000    1.286   12.000    9.143 
#    0.000    0.000    0.000    0.000    0.000    0.000 
#    0.000    0.000    0.000    0.000    0.000    0.000 
#
# Total GULP energy -173523.511604 kJ/mol
# GULP energy per Si atom -12394.536543 kJ/mol
# Density = 2.629914 g / cm^3
# Si number density = 26.359135 Si / 1000 Ang^3
#
#
#
# Elastic Constant Matrix: (Units=GPa)
#
#
# Indices 1 2 3 4 5 6 
#
# 1 119.2291 15.4160 13.9571 -5.4376 -23.2921 8.1059
# 2 15.4160 129.6278 -0.3656 -12.7861 -11.7813 4.3172
# 3 13.9571 -0.3656 34.2337 11.8345 -18.6078 -0.3053
# 4 -5.4376 -12.7861 11.8345 65.8208 5.2535 3.0643
# 5 -23.2921 -11.7813 -18.6078 5.2535 52.2127 -3.4820
# 6 8.1059 4.3172 -0.3053 3.0643 -3.4820 26.2727
#
#
#
# Elastic Compliance Matrix: (Units=1/GPa)
#
#
# Indices 1 2 3 4 5 6 
#
# 1 0.009583 -0.000697 -0.002743 0.001043 0.002860 -0.002616
# 2 -0.000697 0.008108 0.000780 0.001299 0.001596 -0.001048
# 3 -0.002743 0.000780 0.041599 -0.008945 0.014959 0.004228
# 4 0.001043 0.001299 -0.008945 0.017646 -0.004424 -0.003284
# 5 0.002860 0.001596 0.014959 -0.004424 0.026771 0.003093
# 6 -0.002616 -0.001048 0.004228 -0.003284 0.003093 0.039884
#
#
# Mechanical properties :
#
#
# Convention : Reuss Voigt Hill
#
# Bulk Modulus (GPa) = 18.52954 37.90062 28.21508
# Shear Modulus (GPa) = 29.95787 45.80012 37.87900
#
# Velocity S-wave (km/s) = 3.37490 4.17291 3.79494
# Velocity P-wave (km/s) = 4.71503 6.13411 5.47078
#
# Compressibility (1/GPa) = 0.05396788
#
# Stress axis : x y z
#
# Youngs Moduli (GPa) = 104.35395 123.34190 24.03893
#
# Poissons Ratio (x) = 0.08602 0.06595
# Poissons Ratio (y) = 0.07278 -0.01875
# Poissons Ratio (z) = 0.28629 -0.09621
#
# Static dielectric constant tensor:
#      x y z
#    x 9.535310 -2.124810 -0.821300 
#    y -2.124810 6.083850 0.231130 
#    z -0.821300 0.231130 5.359840 
# 
# 
# High freq. dielectric constant tensor:
#      x y z
#    x 2.062140 0.007320 0.016880 
#    y 0.007320 2.067780 0.005060 
#    z 0.016880 0.005060 2.069960 
# 
# From -- ./inp_files/483027.got.cif
#   From: 2010.06.25/outbox.cif.g09.slc.cpg/sg2_242_cif.got.tgz:483027.got - 2010.06.27 13:26:56.
