data_PCOD8018347
_publ_section_title
;
Structure prediction by ZEFSAII (Michael W. Deem and Ramdas Pophale) SiO2 
 PCOD8018347
Probable space group: P -1
;
_chemical_formula_sum "Si O2"
_cell_formula_units_Z 16
_cell_length_a 11.142524
_cell_length_b 8.975912
_cell_length_c 17.350729
_cell_angle_alpha 53.218714
_cell_angle_beta 149.800438
_cell_angle_gamma 118.335982
_cell_volume 695.154172
_symmetry_space_group_name_H-M "P -1"
_symmetry_group_IT_number 2
_symmetry_cell_setting 'triclinic'
loop_
_space_group_symop_operation_xyz
x,y,z
-x,-y,-z
loop_
_atom_site_type_symbol
_atom_site_label
_atom_site_fract_x
_atom_site_fract_y
_atom_site_fract_z
Si Si1 0.067155 0.932408 0.839989
Si Si2 0.233886 0.689900 0.430338
Si Si3 0.219076 0.970430 0.571274
Si Si4 0.412804 0.709666 0.987306
Si Si5 0.966062 0.549004 0.193006
Si Si6 0.746264 0.430601 0.362202
Si Si7 0.721667 0.745092 0.619954
Si Si8 0.676322 0.913183 0.939742
O O1 0.851099 0.800270 0.754122
O O2 0.264040 0.873613 0.902158
O O3 0.955496 0.143622 0.695751
O O4 0.182239 0.924461 0.992728
O O5 0.368377 0.594682 0.608821
O O6 0.435780 0.765533 0.463979
O O7 0.083508 0.547249 0.344157
O O8 0.229072 0.760662 0.612020
O O9 0.468228 0.003584 0.741380
O O10 0.192751 0.119468 0.441470
O O11 0.000000 0.000000 0.500000
O O12 0.573422 0.582436 0.175017
O O13 0.244109 0.586018 0.882778
O O14 0.577493 0.800862 0.990562
O O15 0.177746 0.469172 0.276969
O O16 0.864382 0.761463 0.046489
O O17 0.000000 0.500000 0.500000
#
# Coordination Sequence:
#
# PCOD8018347 Si02
#       8
#     2   2   2   2   2   2   2   2
#     4  10  22  40  65  92 126 172 216 262 322 382
#     4  11  24  45  69  94 131 174 220 266 321 385
#     4  12  27  42  67  99 132 169 219 272 323 383
#     4  11  23  40  64  93 136 170 212 264 329 386
#     4  10  22  42  65  94 126 176 214 264 322 382
#     4  12  27  42  67  99 132 169 219 272 323 383
#     4  11  24  45  69  94 131 174 220 266 321 385
#     4  11  23  40  64  93 136 170 212 264 329 386
#
# _framework density 23.016477999999999
#
# number of rings (size 3 to 8) (size 9 to 14) (size 15 to 20)
#    0.000    1.000    2.500    4.500    7.000    0.000 
#    0.000    7.500    0.000    0.000    0.000    0.000 
#    0.000    0.000    0.000    0.000    0.000    0.000 
#
# Total GULP energy -198360.406386 kJ/mol
# GULP energy per Si atom -12397.525399 kJ/mol
# Density = 2.296409 g / cm^3
# Si number density = 23.016478 Si / 1000 Ang^3
#
#
#
# Elastic Constant Matrix: (Units=GPa)
#
#
# Indices 1 2 3 4 5 6 
#
# 1 81.0159 46.5172 45.5781 2.9758 11.4808 -5.9502
# 2 46.5172 114.0478 58.4419 21.6509 7.0933 -36.3605
# 3 45.5781 58.4419 141.2390 24.1434 8.6064 -14.7792
# 4 2.9758 21.6509 24.1434 34.2180 -7.8157 -3.9352
# 5 11.4808 7.0933 8.6064 -7.8157 28.4018 0.2120
# 6 -5.9502 -36.3605 -14.7792 -3.9352 0.2120 37.2766
#
#
#
# Elastic Compliance Matrix: (Units=1/GPa)
#
#
# Indices 1 2 3 4 5 6 
#
# 1 0.019355 -0.008680 -0.004044 0.005255 -0.002937 -0.006410
# 2 -0.008680 0.021062 -0.002161 -0.009967 -0.003968 0.017272
# 3 -0.004044 -0.002161 0.010612 -0.006312 -0.002784 0.000804
# 4 0.005255 -0.009967 -0.006312 0.041882 0.013856 -0.007043
# 5 -0.002937 -0.003968 -0.002784 0.013856 0.042075 -0.004220
# 6 -0.006410 0.017272 0.000804 -0.007043 -0.004220 0.042250
#
#
# Mechanical properties :
#
#
# Convention : Reuss Voigt Hill
#
# Bulk Modulus (GPa) = 47.04118 70.81970 58.93044
# Shear Modulus (GPa) = 23.35435 32.36366 27.85901
#
# Velocity S-wave (km/s) = 3.18886 3.75388 3.48285
# Velocity P-wave (km/s) = 5.83445 7.04448 6.46783
#
# Compressibility (1/GPa) = 0.02125797
#
# Stress axis : x y z
#
# Youngs Moduli (GPa) = 51.66671 47.47966 94.23207
#
# Poissons Ratio (x) = 0.41215 0.38108
# Poissons Ratio (y) = 0.44849 0.20362
# Poissons Ratio (z) = 0.20894 0.10259
#
# Static dielectric constant tensor:
#      x y z
#    x 4.160960 -0.494930 -0.029580 
#    y -0.494930 4.421310 0.294890 
#    z -0.029580 0.294890 4.500150 
# 
# 
# High freq. dielectric constant tensor:
#      x y z
#    x 1.888780 -0.031600 0.016880 
#    y -0.031600 1.918180 0.021660 
#    z 0.016880 0.021660 1.922350 
# 
# From -- ./inp_files/319265.got.cif
#   From: 2010.06.25/outbox.cif.g09.slc.cpg/sg2_160_cif.got.tgz:319265.got - 2010.06.27 13:26:56.
