data_PCOD8018755
_publ_section_title
;
Structure prediction by ZEFSAII (Michael W. Deem and Ramdas Pophale) SiO2 
 PCOD8018755
Probable space group: P -1
;
_chemical_formula_sum "Si O2"
_cell_formula_units_Z 14
_cell_length_a 12.835689
_cell_length_b 16.803211
_cell_length_c 7.029831
_cell_angle_alpha 37.717456
_cell_angle_beta 45.470878
_cell_angle_gamma 41.315416
_cell_volume 590.443701
_symmetry_space_group_name_H-M "P -1"
_symmetry_group_IT_number 2
_symmetry_cell_setting 'triclinic'
loop_
_space_group_symop_operation_xyz
x,y,z
-x,-y,-z
loop_
_atom_site_type_symbol
_atom_site_label
_atom_site_fract_x
_atom_site_fract_y
_atom_site_fract_z
Si Si1 0.266344 0.144422 0.187692
Si Si2 0.139706 0.386668 0.172601
Si Si3 0.509866 0.167912 0.569523
Si Si4 0.933254 0.149548 0.689248
Si Si5 0.280391 0.767110 0.542345
Si Si6 0.116839 0.676861 0.219094
Si Si7 0.662287 0.534594 0.937604
O O1 0.274575 0.254080 0.128868
O O2 0.080617 0.167272 0.360663
O O3 0.385386 0.977319 0.411870
O O4 0.335906 0.175351 0.841187
O O5 0.223309 0.467655 0.030382
O O6 0.063149 0.314626 0.557588
O O7 0.000000 0.500000 0.000000
O O8 0.611024 0.162007 0.642743
O O9 0.486132 0.305377 0.208415
O O10 0.799699 0.153940 0.700575
O O11 0.842183 0.284020 0.697491
O O12 0.000000 0.000000 0.000000
O O13 0.130538 0.789681 0.836134
O O14 0.393463 0.590808 0.702123
O O15 0.240840 0.512916 0.299977
#
# Coordination Sequence:
#
# PCOD8018755 Si02
#       7
#     2   2   2   2   2   2   2
#     4  10  25  42  67  95 138 177 227 275 338 409
#     4  11  21  41  66 104 134 175 237 282 331 398
#     4  11  23  46  63 100 142 181 221 274 349 413
#     4  11  23  46  69 102 133 176 231 288 336 398
#     4  10  24  43  70 102 132 178 230 282 336 403
#     4   9  22  38  68  99 129 172 228 278 335 388
#     4  10  22  40  70  95 137 179 219 282 339 402
#
# _framework density 23.710984
#
# number of rings (size 3 to 8) (size 9 to 14) (size 15 to 20)
#    0.857    0.857    0.000    4.286    2.000    2.857 
#   12.857    1.429    0.000    0.000    0.000    0.000 
#    0.000    0.000    0.000    0.000    0.000    0.000 
#
# Total GULP energy -173473.567229 kJ/mol
# GULP energy per Si atom -12390.969088 kJ/mol
# Density = 2.365702 g / cm^3
# Si number density = 23.710984 Si / 1000 Ang^3
#
#
#
# Elastic Constant Matrix: (Units=GPa)
#
#
# Indices 1 2 3 4 5 6 
#
# 1 111.3055 39.9734 27.5969 -6.2873 19.1808 19.3427
# 2 39.9734 153.5791 27.3332 -13.8890 15.6262 16.7794
# 3 27.5969 27.3332 72.3708 -16.6713 10.1337 -3.0201
# 4 -6.2873 -13.8890 -16.6713 30.7409 -3.1595 0.7539
# 5 19.1808 15.6262 10.1337 -3.1595 35.3023 -6.2085
# 6 19.3427 16.7794 -3.0201 0.7539 -6.2085 24.0249
#
#
#
# Elastic Compliance Matrix: (Units=1/GPa)
#
#
# Indices 1 2 3 4 5 6 
#
# 1 0.014207 -0.000504 -0.004694 -0.000414 -0.008629 -0.013894
# 2 -0.000504 0.008361 -0.002198 0.002260 -0.003783 -0.006759
# 3 -0.004694 -0.002198 0.018548 0.007946 0.000221 0.007454
# 4 -0.000414 0.002260 0.007946 0.037818 0.000080 -0.001412
# 5 -0.008629 -0.003783 0.000221 0.000080 0.038054 0.019449
# 6 -0.013894 -0.006759 0.007454 -0.001412 0.019449 0.063537
#
#
# Mechanical properties :
#
#
# Convention : Reuss Voigt Hill
#
# Bulk Modulus (GPa) = 37.98582 58.56250 48.27416
# Shear Modulus (GPa) = 24.49872 34.17040 29.33456
#
# Velocity S-wave (km/s) = 3.21786 3.80033 3.52116
# Velocity P-wave (km/s) = 5.46455 6.63391 6.07742
#
# Compressibility (1/GPa) = 0.02632562
#
# Stress axis : x y z
#
# Youngs Moduli (GPa) = 70.38703 119.59941 53.91336
#
# Poissons Ratio (x) = 0.06026 0.25308
# Poissons Ratio (y) = 0.03547 0.11848
# Poissons Ratio (z) = 0.33040 0.26283
#
# Static dielectric constant tensor:
#      x y z
#    x 3.981870 0.338340 -0.254880 
#    y 0.338340 4.394530 0.038530 
#    z -0.254880 0.038530 4.058300 
# 
# 
# High freq. dielectric constant tensor:
#      x y z
#    x 1.918930 0.023700 -0.016150 
#    y 0.023700 1.943660 -0.002510 
#    z -0.016150 -0.002510 1.926310 
# 
# From -- ./inp_files/99019.got.cif
#   From: 2010.06.25/outbox.cif.g09.slc.cpg/sg2_50_cif.got.tgz:99019.got - 2010.06.27 13:26:56.
