data_PCOD8018738
_publ_section_title
;
Structure prediction by ZEFSAII (Michael W. Deem and Ramdas Pophale) SiO2 
 PCOD8018738
Probable space group: P -1
;
_chemical_formula_sum "Si O2"
_cell_formula_units_Z 14
_cell_length_a 8.998115
_cell_length_b 18.274523
_cell_length_c 8.609736
_cell_angle_alpha 113.316792
_cell_angle_beta 64.864655
_cell_angle_gamma 151.168714
_cell_volume 617.160404
_symmetry_space_group_name_H-M "P -1"
_symmetry_group_IT_number 2
_symmetry_cell_setting 'triclinic'
loop_
_space_group_symop_operation_xyz
x,y,z
-x,-y,-z
loop_
_atom_site_type_symbol
_atom_site_label
_atom_site_fract_x
_atom_site_fract_y
_atom_site_fract_z
Si Si1 0.416786 0.920925 0.128060
Si Si2 0.388397 0.611514 0.539680
Si Si3 0.879823 0.203884 0.355926
Si Si4 0.536320 0.645670 0.825734
Si Si5 0.178697 0.345244 0.679171
Si Si6 0.686150 0.288172 0.573162
Si Si7 0.634573 0.849787 0.081257
O O1 0.480957 0.852165 0.037901
O O2 0.044421 0.780630 0.192890
O O3 0.593570 0.027169 0.292234
O O4 0.500000 0.000000 0.000000
O O5 0.592148 0.710682 0.687521
O O6 0.490837 0.565286 0.394844
O O7 0.490218 0.719501 0.460260
O O8 0.021554 0.463608 0.622083
O O9 0.765074 0.244604 0.391915
O O10 0.167605 0.286038 0.197706
O O11 0.981430 0.253308 0.531623
O O12 0.239481 0.463912 0.786701
O O13 0.486228 0.699447 0.006829
O O14 0.455150 0.166976 0.714334
O O15 0.000000 0.000000 0.000000
#
# Coordination Sequence:
#
# PCOD8018738 Si02
#       7
#     2   2   2   2   2   2   2
#     4  12  28  44  67 100 143 183 227 277 349 410
#     4  10  22  40  70 104 131 168 238 290 320 405
#     4  11  21  46  68  95 134 183 222 277 338 410
#     4  11  22  45  73 100 137 178 230 281 346 400
#     4  11  22  45  72 101 134 182 235 275 342 406
#     4  11  23  42  68 102 136 177 230 277 346 390
#     4  12  27  46  65  99 145 183 220 280 352 407
#
# _framework density 22.684540999999999
#
# number of rings (size 3 to 8) (size 9 to 14) (size 15 to 20)
#    0.000    0.857    5.714    1.286    4.000    2.286 
#    2.571    2.857    0.000    0.000    0.000    0.000 
#    0.000    0.000    0.000    0.000    0.000    0.000 
#
# Total GULP energy -173455.276732 kJ/mol
# GULP energy per Si atom -12389.662624 kJ/mol
# Density = 2.263291 g / cm^3
# Si number density = 22.684541 Si / 1000 Ang^3
#
#
#
# Elastic Constant Matrix: (Units=GPa)
#
#
# Indices 1 2 3 4 5 6 
#
# 1 121.5824 34.0205 39.7016 -0.3311 -6.7410 -19.1462
# 2 34.0205 104.2640 47.1030 -8.6924 3.7507 -2.8252
# 3 39.7016 47.1030 74.9477 5.6284 -14.0285 -9.8034
# 4 -0.3311 -8.6924 5.6284 44.3177 -13.3925 -4.4077
# 5 -6.7410 3.7507 -14.0285 -13.3925 29.0164 -1.2953
# 6 -19.1462 -2.8252 -9.8034 -4.4077 -1.2953 34.4794
#
#
#
# Elastic Compliance Matrix: (Units=1/GPa)
#
#
# Indices 1 2 3 4 5 6 
#
# 1 0.010815 -0.001612 -0.003844 0.001253 0.001664 0.005003
# 2 -0.001612 0.015138 -0.010371 0.002048 -0.006516 -0.002587
# 3 -0.003844 -0.010371 0.024825 -0.001113 0.012132 0.004388
# 4 0.001253 0.002048 -0.001113 0.027274 0.012277 0.004495
# 5 0.001664 -0.006516 0.012132 0.012277 0.047545 0.007195
# 6 0.005003 -0.002587 0.004388 0.004495 0.007195 0.033661
#
#
# Mechanical properties :
#
#
# Convention : Reuss Voigt Hill
#
# Bulk Modulus (GPa) = 52.29315 60.27159 56.28237
# Shear Modulus (GPa) = 25.34380 33.56064 29.45222
#
# Velocity S-wave (km/s) = 3.34612 3.85053 3.60716
# Velocity P-wave (km/s) = 6.16693 6.81146 6.49719
#
# Compressibility (1/GPa) = 0.01912296
#
# Stress axis : x y z
#
# Youngs Moduli (GPa) = 92.46713 66.06102 40.28137
#
# Poissons Ratio (x) = 0.10649 0.15484
# Poissons Ratio (y) = 0.14906 0.41777
# Poissons Ratio (z) = 0.35543 0.68515
#
# Static dielectric constant tensor:
#      x y z
#    x 4.251560 -0.025450 -0.354680 
#    y -0.025450 3.988990 0.046280 
#    z -0.354680 0.046280 3.931520 
# 
# 
# High freq. dielectric constant tensor:
#      x y z
#    x 1.900460 -0.001970 -0.025350 
#    y -0.001970 1.891290 -0.000350 
#    z -0.025350 -0.000350 1.872140 
# 
# From -- ./inp_files/159286.got.cif
#   From: 2010.06.25/outbox.cif.g09.slc.cpg/sg2_80_cif.got.tgz:159286.got - 2010.06.27 13:26:56.
