data_PCOD8018074
_publ_section_title
;
Structure prediction by ZEFSAII (Michael W. Deem and Ramdas Pophale) SiO2 
 PCOD8018074
Probable space group: P -1
;
_chemical_formula_sum "Si O2"
_cell_formula_units_Z 12
_cell_length_a 8.119158
_cell_length_b 5.304234
_cell_length_c 10.635423
_cell_angle_alpha 63.635913
_cell_angle_beta 107.639180
_cell_angle_gamma 101.387563
_cell_volume 390.028514
_symmetry_space_group_name_H-M "P -1"
_symmetry_group_IT_number 2
_symmetry_cell_setting 'triclinic'
loop_
_space_group_symop_operation_xyz
x,y,z
-x,-y,-z
loop_
_atom_site_type_symbol
_atom_site_label
_atom_site_fract_x
_atom_site_fract_y
_atom_site_fract_z
Si Si1 0.369034 0.946464 0.594042
Si Si2 0.630016 0.565245 0.903987
Si Si3 0.716176 0.679339 0.290057
Si Si4 0.302118 0.806871 0.219607
Si Si5 0.077769 0.311082 0.880839
Si Si6 0.108787 0.353973 0.425033
O O1 0.410642 0.151049 0.684435
O O2 0.175270 0.035050 0.485609
O O3 0.500000 0.000000 0.500000
O O4 0.374888 0.622018 0.710283
O O5 0.592454 0.325668 0.842079
O O6 0.617825 0.888193 0.777023
O O7 0.500000 0.500000 0.000000
O O8 0.829453 0.566469 0.998994
O O9 0.784730 0.847448 0.141983
O O10 0.889420 0.614126 0.428145
O O11 0.271749 0.581854 0.374178
O O12 0.108417 0.866033 0.101098
O O13 0.047843 0.585769 0.719071
#
# Coordination Sequence:
#
# PCOD8018074 Si02
#       6
#     2   2   2   2   2   2
#     4  10  22  40  61  98 148 180 220 272 346 411
#     4  12  26  48  69 102 138 182 237 290 347 406
#     4  10  22  41  65 105 135 182 227 276 342 412
#     4  10  25  45  74  96 140 181 235 285 347 409
#     4  10  23  46  71 106 139 185 231 289 339 419
#     4   8  23  39  72  97 140 175 232 270 347 406
#
# _framework density 30.766981000000001
#
# number of rings (size 3 to 8) (size 9 to 14) (size 15 to 20)
#    2.000    0.000    0.000    2.500    2.333    4.667 
#    3.000    0.000    0.000    0.000    0.000    0.000 
#    0.000    0.000    0.000    0.000    0.000    0.000 
#
# Total GULP energy -148717.624294 kJ/mol
# GULP energy per Si atom -12393.135358 kJ/mol
# Density = 3.069695 g / cm^3
# Si number density = 30.766981 Si / 1000 Ang^3
#
#
#
# Elastic Constant Matrix: (Units=GPa)
#
#
# Indices 1 2 3 4 5 6 
#
# 1 114.7180 51.4762 14.5964 17.8100 3.8253 -7.9880
# 2 51.4762 175.6942 46.3812 25.7665 5.2369 1.8898
# 3 14.5964 46.3812 92.7310 15.7955 -3.0166 -0.0086
# 4 17.8100 25.7665 15.7955 52.2790 3.1252 2.8798
# 5 3.8253 5.2369 -3.0166 3.1252 67.2599 2.0893
# 6 -7.9880 1.8898 -0.0086 2.8798 2.0893 32.4681
#
#
#
# Elastic Compliance Matrix: (Units=1/GPa)
#
#
# Indices 1 2 3 4 5 6 
#
# 1 0.010547 -0.002796 0.000135 -0.002400 -0.000358 0.002993
# 2 -0.002796 0.007609 -0.003076 -0.001789 -0.000459 -0.000943
# 3 0.000135 -0.003076 0.012749 -0.002457 0.000906 0.000375
# 4 -0.002400 -0.001789 -0.002457 0.021746 -0.000771 -0.002366
# 5 -0.000358 -0.000459 0.000906 -0.000771 0.015030 -0.000960
# 6 0.002993 -0.000943 0.000375 -0.002366 -0.000960 0.031863
#
#
# Mechanical properties :
#
#
# Convention : Reuss Voigt Hill
#
# Bulk Modulus (GPa) = 51.45873 67.56121 59.50997
# Shear Modulus (GPa) = 42.55538 48.44736 45.50137
#
# Velocity S-wave (km/s) = 3.72311 3.97250 3.84982
# Velocity P-wave (km/s) = 5.93664 6.56107 6.25665
#
# Compressibility (1/GPa) = 0.01943305
#
# Stress axis : x y z
#
# Youngs Moduli (GPa) = 94.81254 131.42322 78.43683
#
# Poissons Ratio (x) = 0.36740 -0.01063
# Poissons Ratio (y) = 0.26505 0.24127
# Poissons Ratio (z) = -0.01285 0.40426
#
# Static dielectric constant tensor:
#      x y z
#    x 6.355060 0.076050 0.568610 
#    y 0.076050 5.473360 -0.011140 
#    z 0.568610 -0.011140 6.009280 
# 
# 
# High freq. dielectric constant tensor:
#      x y z
#    x 2.326920 -0.003160 0.039170 
#    y -0.003160 2.247040 0.006440 
#    z 0.039170 0.006440 2.288460 
# 
# From -- ./inp_files/371692.got.cif
#   From: 2010.06.25/outbox.cif.g09.slc.cpg/sg2_186_cif.got.tgz:371692.got - 2010.06.27 13:26:56.
