data_PCOD8018224
_publ_section_title
;
Structure prediction by ZEFSAII (Michael W. Deem and Ramdas Pophale) SiO2 
 PCOD8018224
Probable space group: P -1
;
_chemical_formula_sum "Si O2"
_cell_formula_units_Z 16
_cell_length_a 14.005566
_cell_length_b 8.839281
_cell_length_c 8.376813
_cell_angle_alpha 51.647934
_cell_angle_beta 56.094961
_cell_angle_gamma 53.916715
_cell_volume 626.237953
_symmetry_space_group_name_H-M "P -1"
_symmetry_group_IT_number 2
_symmetry_cell_setting 'triclinic'
loop_
_space_group_symop_operation_xyz
x,y,z
-x,-y,-z
loop_
_atom_site_type_symbol
_atom_site_label
_atom_site_fract_x
_atom_site_fract_y
_atom_site_fract_z
Si Si1 0.569719 0.956323 0.126489
Si Si2 0.146899 0.133430 0.419817
Si Si3 0.852020 0.719269 0.012627
Si Si4 0.895051 0.908186 0.166305
Si Si5 0.589873 0.623899 0.559330
Si Si6 0.648974 0.730704 0.740012
Si Si7 0.329153 0.671230 0.861732
Si Si8 0.223581 0.661663 0.635688
O O1 0.545246 0.762294 0.353533
O O2 0.499749 0.163986 0.158423
O O3 0.715804 0.899681 0.011965
O O4 0.500000 0.000000 0.000000
O O5 0.085167 0.264696 0.230150
O O6 0.284489 0.138293 0.311424
O O7 0.142097 0.905845 0.544089
O O8 0.083816 0.215315 0.600034
O O9 0.916364 0.763147 0.083971
O O10 0.858634 0.483076 0.179518
O O11 0.758112 0.091585 0.172006
O O12 0.000000 0.000000 0.000000
O O13 0.665096 0.731008 0.532245
O O14 0.475741 0.619277 0.772975
O O15 0.687238 0.397508 0.564551
O O16 0.705150 0.486988 0.890925
O O17 0.311482 0.610706 0.738821
#
# Coordination Sequence:
#
# PCOD8018224 Si02
#       8
#     2   2   2   2   2   2   2   2
#     4  11  20  35  59  97 136 181 215 254 323 409
#     4  11  23  43  73  96 140 179 220 282 342 398
#     4  11  23  44  71 100 138 179 225 274 341 404
#     4  11  27  50  72  97 130 174 237 295 340 397
#     4  11  23  36  61  99 141 185 216 263 335 404
#     4  12  22  38  63  99 142 177 222 269 335 415
#     4  11  23  41  63  97 135 176 226 278 332 402
#     4  10  22  40  64 101 136 176 220 266 333 420
#
# _framework density 25.549392000000001
#
# number of rings (size 3 to 8) (size 9 to 14) (size 15 to 20)
#    0.000    1.000    2.500    5.625    3.500    1.500 
#    0.000    3.125    0.000    0.000    0.000    0.000 
#    0.000    0.000    0.000    0.000    0.000    0.000 
#
# Total GULP energy -198211.317109 kJ/mol
# GULP energy per Si atom -12388.207319 kJ/mol
# Density = 2.549124 g / cm^3
# Si number density = 25.549392 Si / 1000 Ang^3
#
#
#
# Elastic Constant Matrix: (Units=GPa)
#
#
# Indices 1 2 3 4 5 6 
#
# 1 66.9073 41.0579 38.9876 7.0565 14.9956 32.4500
# 2 41.0579 86.5625 35.9833 -10.1596 26.6356 32.3045
# 3 38.9876 35.9833 136.0516 8.9265 7.1522 16.7846
# 4 7.0565 -10.1596 8.9265 35.5339 23.2588 3.0745
# 5 14.9956 26.6356 7.1522 23.2588 13.0192 2.8307
# 6 32.4500 32.3045 16.7846 3.0745 2.8307 41.8240
#
#
#
# Elastic Compliance Matrix: (Units=1/GPa)
#
#
# Indices 1 2 3 4 5 6 
#
# 1 0.030032 -0.008694 -0.004133 -0.007625 0.002246 -0.014518
# 2 -0.008694 0.004426 0.000595 -0.015117 0.027126 0.002364
# 3 -0.004133 0.000595 0.008566 0.002526 -0.005566 -0.000499
# 4 -0.007625 -0.015117 0.002526 -0.002368 0.039491 0.014080
# 5 0.002246 0.027126 -0.005566 0.039491 -0.044338 -0.020362
# 6 -0.014518 0.002364 -0.000499 0.014080 -0.020362 0.033892
#
#
# Mechanical properties :
#
#
# Convention : Reuss Voigt Hill
#
# Bulk Modulus (GPa) = 53.88307 57.95321 55.91814
# Shear Modulus (GPa) = 82.15500 29.64161 55.89830
#
# Velocity S-wave (km/s) = 5.67672 3.40982 4.68252
# Velocity P-wave (km/s) = 8.00640 6.18341 7.15322
#
# Compressibility (1/GPa) = 0.01855871
#
# Stress axis : x y z
#
# Youngs Moduli (GPa) = 33.29771 225.95247 116.74494
#
# Poissons Ratio (x) = 1.96450 0.48254
# Poissons Ratio (y) = 0.28950 -0.06949
# Poissons Ratio (z) = 0.13763 -0.13449
#
# Static dielectric constant tensor:
#      x y z
#    x 4.392910 -0.181810 0.056800 
#    y -0.181810 1.600810 -0.870400 
#    z 0.056800 -0.870400 4.531610 
# 
# 
# High freq. dielectric constant tensor:
#      x y z
#    x 2.011360 0.024320 0.015310 
#    y 0.024320 2.016570 0.011950 
#    z 0.015310 0.011950 2.024810 
# 
# From -- ./inp_files/328358.got.cif
#   From: 2010.06.25/outbox.cif.g09.slc.cpg/sg2_165_cif.got.tgz:328358.got - 2010.06.27 13:26:56.
