data_PCOD8018349
_publ_section_title
;
Structure prediction by ZEFSAII (Michael W. Deem and Ramdas Pophale) SiO2 
 PCOD8018349
Probable space group: P -1
;
_chemical_formula_sum "Si O2"
_cell_formula_units_Z 14
_cell_length_a 13.784263
_cell_length_b 10.450465
_cell_length_c 12.036552
_cell_angle_alpha 129.887546
_cell_angle_beta 119.332836
_cell_angle_gamma 30.135348
_cell_volume 658.434367
_symmetry_space_group_name_H-M "P -1"
_symmetry_group_IT_number 2
_symmetry_cell_setting 'triclinic'
loop_
_space_group_symop_operation_xyz
x,y,z
-x,-y,-z
loop_
_atom_site_type_symbol
_atom_site_label
_atom_site_fract_x
_atom_site_fract_y
_atom_site_fract_z
Si Si1 0.877316 0.173090 0.414151
Si Si2 0.995017 0.474649 0.854050
Si Si3 0.338557 0.324699 0.296322
Si Si4 0.637379 0.139009 0.235761
Si Si5 0.483705 0.236334 0.968832
Si Si6 0.188025 0.991352 0.071307
Si Si7 0.080073 0.906845 0.153392
O O1 0.738505 0.510053 0.535961
O O2 0.722052 0.220009 0.322619
O O3 0.000000 0.000000 0.500000
O O4 0.033876 0.005494 0.309760
O O5 0.856007 0.485541 0.773541
O O6 0.930446 0.698352 0.858740
O O7 0.215696 0.151457 0.767391
O O8 0.000000 0.500000 0.000000
O O9 0.429983 0.373553 0.311840
O O10 0.488777 0.981759 0.191381
O O11 0.616095 0.086554 0.071130
O O12 0.579561 0.256400 0.951017
O O13 0.256699 0.554135 0.042365
O O14 0.143817 0.999666 0.179444
O O15 0.116624 0.924184 0.918674
#
# Coordination Sequence:
#
# PCOD8018349 Si02
#       7
#     2   2   2   2   2   2   2
#     4  12  24  42  62  95 133 168 205 263 322 377
#     4  11  20  38  62  95 128 158 214 260 312 369
#     4  11  24  36  61  96 128 164 203 266 319 361
#     4  12  22  37  65  94 130 166 212 261 313 375
#     4  11  22  39  67  96 123 166 216 258 307 375
#     4  10  22  40  65  93 124 168 213 262 302 372
#     4  11  23  42  64  91 129 169 213 254 313 375
#
# _framework density 21.262557999999999
#
# number of rings (size 3 to 8) (size 9 to 14) (size 15 to 20)
#    0.000    0.857    5.714    3.000    2.000    0.000 
#    0.000    2.857    0.000    4.286    0.000    0.000 
#    0.000    0.000    0.000    0.000    0.000    0.000 
#
# Total GULP energy -173446.358532 kJ/mol
# GULP energy per Si atom -12389.025609 kJ/mol
# Density = 2.121416 g / cm^3
# Si number density = 21.262558 Si / 1000 Ang^3
#
#
#
# Elastic Constant Matrix: (Units=GPa)
#
#
# Indices 1 2 3 4 5 6 
#
# 1 127.2529 30.6619 59.1250 5.8314 -21.7967 -15.8867
# 2 30.6619 51.2810 36.8579 13.5843 -5.4418 3.0148
# 3 59.1250 36.8579 131.2185 28.3175 -15.6362 2.7788
# 4 5.8314 13.5843 28.3175 31.9545 -0.3546 2.7148
# 5 -21.7967 -5.4418 -15.6362 -0.3546 33.2232 -2.6787
# 6 -15.8867 3.0148 2.7788 2.7148 -2.6787 34.4128
#
#
#
# Elastic Compliance Matrix: (Units=1/GPa)
#
#
# Indices 1 2 3 4 5 6 
#
# 1 0.012982 -0.005139 -0.004537 0.003307 0.006142 0.007027
# 2 -0.005139 0.027332 -0.003930 -0.006872 -0.001140 -0.003996
# 3 -0.004537 -0.003930 0.012979 -0.008814 0.002239 -0.001928
# 4 0.003307 -0.006872 -0.008814 0.041448 -0.002714 -0.000641
# 5 0.006142 -0.001140 0.002239 -0.002714 0.035429 0.005727
# 6 0.007027 -0.003996 -0.001928 -0.000641 0.005727 0.033305
#
#
# Mechanical properties :
#
#
# Convention : Reuss Voigt Hill
#
# Bulk Modulus (GPa) = 38.34096 62.56021 50.45059
# Shear Modulus (GPa) = 25.07778 32.12529 28.60153
#
# Velocity S-wave (km/s) = 3.43801 3.89123 3.67162
# Velocity P-wave (km/s) = 5.81646 7.04808 6.46168
#
# Compressibility (1/GPa) = 0.02608176
#
# Stress axis : x y z
#
# Youngs Moduli (GPa) = 77.02789 36.58708 77.04965
#
# Poissons Ratio (x) = 0.18802 0.34955
# Poissons Ratio (y) = 0.39585 0.30280
# Poissons Ratio (z) = 0.34945 0.14379
#
# Static dielectric constant tensor:
#      x y z
#    x 4.114230 -0.323420 0.065740 
#    y -0.323420 4.685010 0.448380 
#    z 0.065740 0.448380 4.069410 
# 
# 
# High freq. dielectric constant tensor:
#      x y z
#    x 1.842740 -0.027090 0.005570 
#    y -0.027090 1.831220 0.013300 
#    z 0.005570 0.013300 1.811040 
# 
# From -- ./inp_files/450666.got.cif
#   From: 2010.06.25/outbox.cif.g09.slc.cpg/sg2_226_cif.got.tgz:450666.got - 2010.06.27 13:26:56.
