data_PCOD8018681
_publ_section_title
;
Structure prediction by ZEFSAII (Michael W. Deem and Ramdas Pophale) SiO2 
 PCOD8018681
Probable space group: P -1
;
_chemical_formula_sum "Si O2"
_cell_formula_units_Z 14
_cell_length_a 8.288205
_cell_length_b 9.215690
_cell_length_c 12.890143
_cell_angle_alpha 46.231678
_cell_angle_beta 81.749455
_cell_angle_gamma 66.870120
_cell_volume 641.542808
_symmetry_space_group_name_H-M "P -1"
_symmetry_group_IT_number 2
_symmetry_cell_setting 'triclinic'
loop_
_space_group_symop_operation_xyz
x,y,z
-x,-y,-z
loop_
_atom_site_type_symbol
_atom_site_label
_atom_site_fract_x
_atom_site_fract_y
_atom_site_fract_z
Si Si1 0.197806 0.819472 0.571280
Si Si2 0.566006 0.191290 0.247674
Si Si3 0.503105 0.764625 0.433887
Si Si4 0.913062 0.906287 0.967149
Si Si5 0.745330 0.438897 0.996749
Si Si6 0.605504 0.314736 0.729875
Si Si7 0.707041 0.625307 0.136647
O O1 0.327153 0.824602 0.649551
O O2 0.294044 0.846018 0.444813
O O3 0.181197 0.587558 0.697349
O O4 0.000000 0.000000 0.500000
O O5 0.361467 0.381153 0.171660
O O6 0.575650 0.949880 0.350782
O O7 0.659312 0.261737 0.108892
O O8 0.619952 0.549680 0.599419
O O9 0.519930 0.704062 0.341661
O O10 0.801863 0.118686 0.801811
O O11 0.771913 0.814429 0.069295
O O12 0.054095 0.704432 0.988387
O O13 0.000000 0.000000 0.000000
O O14 0.739768 0.570378 0.038435
O O15 0.503570 0.302363 0.851877
#
# Coordination Sequence:
#
# PCOD8018681 Si02
#       7
#     2   2   2   2   2   2   2
#     4  10  23  38  64  96 124 161 216 262 314 375
#     4  10  22  40  69  90 130 163 221 259 315 374
#     4  10  22  41  67  88 127 176 208 260 319 379
#     4  12  27  38  67  97 133 162 217 267 315 375
#     4  10  24  41  68  97 123 170 217 262 315 374
#     4  10  24  43  63  94 131 172 209 253 333 381
#     4  10  23  45  65  89 132 172 209 261 319 378
#
# _framework density 21.822392000000001
#
# number of rings (size 3 to 8) (size 9 to 14) (size 15 to 20)
#    0.000    1.714    0.000    2.143   16.000    1.143 
#    0.000    0.714    0.000    0.000    0.000    0.000 
#    0.000    0.000    0.000    0.000    0.000    0.000 
#
# Total GULP energy -173511.929323 kJ/mol
# GULP energy per Si atom -12393.709237 kJ/mol
# Density = 2.177272 g / cm^3
# Si number density = 21.822392 Si / 1000 Ang^3
#
#
#
# Elastic Constant Matrix: (Units=GPa)
#
#
# Indices 1 2 3 4 5 6 
#
# 1 84.1159 42.9958 58.7979 -23.4935 2.5941 11.4934
# 2 42.9958 101.1552 51.5160 -12.8042 6.4283 2.1796
# 3 58.7979 51.5160 109.0377 -26.5449 -0.4023 11.2187
# 4 -23.4935 -12.8042 -26.5449 46.6215 4.4323 -2.6013
# 5 2.5941 6.4283 -0.4023 4.4323 37.9154 -19.8380
# 6 11.4934 2.1796 11.2187 -2.6013 -19.8380 40.6491
#
#
#
# Elastic Compliance Matrix: (Units=1/GPa)
#
#
# Indices 1 2 3 4 5 6 
#
# 1 0.022094 -0.004201 -0.008021 0.005525 -0.004483 -0.005642
# 2 -0.004201 0.014021 -0.004627 -0.000700 -0.001590 0.000892
# 3 -0.008021 -0.004627 0.016895 0.004199 0.000052 -0.001853
# 4 0.005525 -0.000700 0.004199 0.026728 -0.005168 -0.003495
# 5 -0.004483 -0.001590 0.000052 -0.005168 0.037712 0.019412
# 6 -0.005642 0.000892 -0.001853 -0.003495 0.019412 0.035910
#
#
# Mechanical properties :
#
#
# Convention : Reuss Voigt Hill
#
# Bulk Modulus (GPa) = 51.77636 66.76979 59.27307
# Shear Modulus (GPa) = 25.84033 34.43714 30.13873
#
# Velocity S-wave (km/s) = 3.44484 3.97680 3.72034
# Velocity P-wave (km/s) = 6.29288 7.19374 6.75833
#
# Compressibility (1/GPa) = 0.01931383
#
# Stress axis : x y z
#
# Youngs Moduli (GPa) = 45.26066 71.32119 59.18780
#
# Poissons Ratio (x) = 0.29960 0.47472
# Poissons Ratio (y) = 0.19012 0.27387
# Poissons Ratio (z) = 0.36302 0.33002
#
# Static dielectric constant tensor:
#      x y z
#    x 3.781070 -0.055030 -0.087560 
#    y -0.055030 4.006780 -0.228930 
#    z -0.087560 -0.228930 4.182360 
# 
# 
# High freq. dielectric constant tensor:
#      x y z
#    x 1.839420 0.002080 -0.005320 
#    y 0.002080 1.862330 -0.013470 
#    z -0.005320 -0.013470 1.866270 
# 
# From -- ./inp_files/208345.got.cif
#   From: 2010.06.25/outbox.cif.g09.slc.cpg/sg2_105_cif.got.tgz:208345.got - 2010.06.27 13:26:56.
