data_PCOD8018097
_publ_section_title
;
Structure prediction by ZEFSAII (Michael W. Deem and Ramdas Pophale) SiO2 
 PCOD8018097
Probable space group: P -1
;
_chemical_formula_sum "Si O2"
_cell_formula_units_Z 16
_cell_length_a 8.595571
_cell_length_b 27.822035
_cell_length_c 27.802218
_cell_angle_alpha 9.954450
_cell_angle_beta 140.915368
_cell_angle_gamma 140.768427
_cell_volume 721.527845
_symmetry_space_group_name_H-M "P -1"
_symmetry_group_IT_number 2
_symmetry_cell_setting 'triclinic'
loop_
_space_group_symop_operation_xyz
x,y,z
-x,-y,-z
loop_
_atom_site_type_symbol
_atom_site_label
_atom_site_fract_x
_atom_site_fract_y
_atom_site_fract_z
Si Si1 0.663539 0.886698 0.950178
Si Si2 0.345978 0.074647 0.604411
Si Si3 0.556532 0.719352 0.731041
Si Si4 0.025773 0.789886 0.051581
Si Si5 0.631138 0.656993 0.422147
Si Si6 0.805533 0.266177 0.284356
Si Si7 0.278579 0.572095 0.511062
Si Si8 0.452377 0.410867 0.911183
O O1 0.432793 0.935469 0.811851
O O2 0.747439 0.175831 0.708744
O O3 0.594129 0.664432 0.194999
O O4 0.900742 0.795638 0.068171
O O5 0.523322 0.351988 0.358733
O O6 0.079986 0.186001 0.436829
O O7 0.343842 0.818038 0.818201
O O8 0.316067 0.707628 0.718534
O O9 0.472719 0.582829 0.795434
O O10 0.657138 0.043244 0.432682
O O11 0.785377 0.563556 0.961080
O O12 0.131663 0.497723 0.354960
O O13 0.807697 0.785788 0.963121
O O14 0.256221 0.025962 0.872006
O O15 0.500000 0.500000 0.500000
O O16 0.441190 0.658082 0.419062
O O17 0.000000 0.500000 0.500000
#
# Coordination Sequence:
#
# PCOD8018097 Si02
#       8
#     2   2   2   2   2   2   2   2
#     4  11  23  43  65  92 130 168 209 261 321 382
#     4  11  23  40  64  94 127 168 214 266 323 380
#     4  10  22  40  62  90 127 170 214 264 321 379
#     4  11  23  43  65  92 130 168 209 261 321 382
#     4  12  25  43  67  96 127 166 212 261 318 381
#     4  10  22  40  62  90 127 170 214 264 321 379
#     4  12  25  43  67  96 127 166 212 261 318 381
#     4  11  23  40  64  94 127 168 214 266 323 380
#
# _framework density 22.175166000000001
#
# number of rings (size 3 to 8) (size 9 to 14) (size 15 to 20)
#    0.000    1.000    0.000    8.250    0.000    4.000 
#    0.000   10.000    0.000    0.000    0.000    0.000 
#    0.000    0.000    0.000    0.000    0.000    0.000 
#
# Total GULP energy -198306.352075 kJ/mol
# GULP energy per Si atom -12394.147005 kJ/mol
# Density = 2.212469 g / cm^3
# Si number density = 22.175166 Si / 1000 Ang^3
#
#
#
# Elastic Constant Matrix: (Units=GPa)
#
#
# Indices 1 2 3 4 5 6 
#
# 1 105.9448 43.8987 15.7519 2.5878 12.1207 1.0696
# 2 43.8987 110.9407 20.5792 -1.1250 5.3567 -7.8014
# 3 15.7519 20.5792 94.4548 -2.3388 8.3661 -0.5244
# 4 2.5878 -1.1250 -2.3388 34.2067 0.7137 9.8024
# 5 12.1207 5.3567 8.3661 0.7137 46.0853 -1.8774
# 6 1.0696 -7.8014 -0.5244 9.8024 -1.8774 26.9970
#
#
#
# Elastic Compliance Matrix: (Units=1/GPa)
#
#
# Indices 1 2 3 4 5 6 
#
# 1 0.011738 -0.004510 -0.000778 -0.000532 -0.002485 -0.001763
# 2 -0.004510 0.011355 -0.001743 -0.000447 0.000337 0.003612
# 3 -0.000778 -0.001743 0.011267 0.001019 -0.001684 -0.000741
# 4 -0.000532 -0.000447 0.001019 0.032809 -0.000993 -0.012070
# 5 -0.002485 0.000337 -0.001684 -0.000993 0.022720 0.002104
# 6 -0.001763 0.003612 -0.000741 -0.012070 0.002104 0.042669
#
#
# Mechanical properties :
#
#
# Convention : Reuss Voigt Hill
#
# Bulk Modulus (GPa) = 49.26293 52.42222 50.84258
# Shear Modulus (GPa) = 32.59770 36.86518 34.73144
#
# Velocity S-wave (km/s) = 3.83823 4.08174 3.96186
# Velocity P-wave (km/s) = 6.47350 6.77536 6.62615
#
# Compressibility (1/GPa) = 0.02029924
#
# Stress axis : x y z
#
# Youngs Moduli (GPa) = 85.19069 88.06837 88.75665
#
# Poissons Ratio (x) = 0.39718 0.06904
# Poissons Ratio (y) = 0.38420 0.15467
# Poissons Ratio (z) = 0.06626 0.15347
#
# Static dielectric constant tensor:
#      x y z
#    x 4.685740 -0.478240 -0.352890 
#    y -0.478240 4.061580 0.341180 
#    z -0.352890 0.341180 5.182430 
# 
# 
# High freq. dielectric constant tensor:
#      x y z
#    x 1.869000 -0.003110 0.016580 
#    y -0.003110 1.869360 -0.008660 
#    z 0.016580 -0.008660 1.898500 
# 
# From -- ./inp_files/617688.got.cif
#   From: 2010.06.25/outbox.cif.g09.slc.cpg/sg2_309_cif.got.tgz:617688.got - 2010.06.27 13:26:56.
