data_PCOD8018673
_publ_section_title
;
Structure prediction by ZEFSAII (Michael W. Deem and Ramdas Pophale) SiO2 
 PCOD8018673
Probable space group: P -1
;
_chemical_formula_sum "Si O2"
_cell_formula_units_Z 14
_cell_length_a 5.523559
_cell_length_b 9.856088
_cell_length_c 21.817166
_cell_angle_alpha 37.412963
_cell_angle_beta 95.174481
_cell_angle_gamma 73.929509
_cell_volume 587.542553
_symmetry_space_group_name_H-M "P -1"
_symmetry_group_IT_number 2
_symmetry_cell_setting 'triclinic'
loop_
_space_group_symop_operation_xyz
x,y,z
-x,-y,-z
loop_
_atom_site_type_symbol
_atom_site_label
_atom_site_fract_x
_atom_site_fract_y
_atom_site_fract_z
Si Si1 0.343918 0.696963 0.868316
Si Si2 0.422955 0.290371 0.559295
Si Si3 0.718371 0.033575 0.950212
Si Si4 0.966396 0.496437 0.928042
Si Si5 0.696179 0.039817 0.535699
Si Si6 0.162534 0.265914 0.676357
Si Si7 0.709711 0.469909 0.314359
O O1 0.617177 0.637481 0.852063
O O2 0.115910 0.643329 0.849578
O O3 0.135162 0.013220 0.772586
O O4 0.500000 0.500000 0.000000
O O5 0.500000 0.500000 0.500000
O O6 0.638095 0.045655 0.604837
O O7 0.430384 0.158846 0.671740
O O8 0.108327 0.454390 0.458796
O O9 0.546178 0.336026 0.809103
O O10 0.500000 0.000000 0.000000
O O11 0.000000 0.000000 0.000000
O O12 0.837059 0.814806 0.977401
O O13 0.000000 0.500000 0.000000
O O14 0.618226 0.339262 0.410906
O O15 0.500000 0.000000 0.500000
O O16 0.032556 0.784960 0.627020
O O17 0.211023 0.340416 0.718143
#
# Coordination Sequence:
#
# PCOD8018673 Si02
#       7
#     2   2   2   2   2   2   2
#     4  10  22  40  69 105 138 183 241 294 351 425
#     4  11  24  44  69 110 142 179 243 306 365 433
#     4  12  29  51  74 110 153 197 251 307 370 444
#     4  10  22  45  70 101 139 184 241 293 353 428
#     4  11  24  46  75 105 144 189 243 301 375 445
#     4  11  24  42  72 106 141 190 241 303 366 441
#     4  11  25  46  74 103 143 198 244 299 375 448
#
# _framework density 23.828060000000001
#
# number of rings (size 3 to 8) (size 9 to 14) (size 15 to 20)
#    0.000    1.143    2.857    2.571    4.000    4.571 
#    5.143    0.000    0.000    0.000    0.000    0.000 
#    0.000    0.000    0.000    0.000    0.000    0.000 
#
# Total GULP energy -173501.448581 kJ/mol
# GULP energy per Si atom -12392.960613 kJ/mol
# Density = 2.377383 g / cm^3
# Si number density = 23.828060 Si / 1000 Ang^3
#
#
#
# Elastic Constant Matrix: (Units=GPa)
#
#
# Indices 1 2 3 4 5 6 
#
# 1 152.2605 34.0875 26.5410 -4.7351 -2.1575 9.7755
# 2 34.0875 144.2263 36.2614 -10.5898 -5.5090 -5.4359
# 3 26.5410 36.2614 114.3386 -20.1004 2.7775 0.5205
# 4 -4.7351 -10.5898 -20.1004 37.9351 6.2304 -4.7776
# 5 -2.1575 -5.5090 2.7775 6.2304 29.5449 -2.0651
# 6 9.7755 -5.4359 0.5205 -4.7776 -2.0651 38.7238
#
#
#
# Elastic Compliance Matrix: (Units=1/GPa)
#
#
# Indices 1 2 3 4 5 6 
#
# 1 0.007249 -0.001489 -0.001300 -0.000516 0.000338 -0.002067
# 2 -0.001489 0.007996 -0.002073 0.000917 0.001504 0.001720
# 3 -0.001300 -0.002073 0.010719 0.005419 -0.002602 0.000423
# 4 -0.000516 0.000917 0.005419 0.030977 -0.006653 0.003653
# 5 0.000338 0.001504 -0.002602 -0.006653 0.035887 0.001254
# 6 -0.002067 0.001720 0.000423 0.003653 0.001254 0.027099
#
#
# Mechanical properties :
#
#
# Convention : Reuss Voigt Hill
#
# Bulk Modulus (GPa) = 61.57731 67.17835 64.37783
# Shear Modulus (GPa) = 37.01884 42.16977 39.59431
#
# Velocity S-wave (km/s) = 3.94583 4.21141 4.08078
# Velocity P-wave (km/s) = 6.83065 7.20431 7.01997
#
# Compressibility (1/GPa) = 0.01623975
#
# Stress axis : x y z
#
# Youngs Moduli (GPa) = 137.94672 125.05527 93.29030
#
# Poissons Ratio (x) = 0.18625 0.12126
# Poissons Ratio (y) = 0.20545 0.19343
# Poissons Ratio (z) = 0.17930 0.25929
#
# Static dielectric constant tensor:
#      x y z
#    x 5.592090 -0.219740 -0.248900 
#    y -0.219740 4.424370 -0.147740 
#    z -0.248900 -0.147740 4.485450 
# 
# 
# High freq. dielectric constant tensor:
#      x y z
#    x 1.954000 -0.001870 -0.000670 
#    y -0.001870 1.949050 -0.018040 
#    z -0.000670 -0.018040 1.938850 
# 
# From -- ./inp_files/95292.got.cif
#   From: 2010.06.25/outbox.cif.g09.slc.cpg/sg2_48_cif.got.tgz:95292.got - 2010.06.27 13:26:56.
