data_PCOD8018284
_publ_section_title
;
Structure prediction by ZEFSAII (Michael W. Deem and Ramdas Pophale) SiO2 
 PCOD8018284
Probable space group: P -1
;
_chemical_formula_sum "Si O2"
_cell_formula_units_Z 16
_cell_length_a 17.456054
_cell_length_b 9.012024
_cell_length_c 9.713571
_cell_angle_alpha 138.124090
_cell_angle_beta 134.986961
_cell_angle_gamma 64.766371
_cell_volume 705.037248
_symmetry_space_group_name_H-M "P -1"
_symmetry_group_IT_number 2
_symmetry_cell_setting 'triclinic'
loop_
_space_group_symop_operation_xyz
x,y,z
-x,-y,-z
loop_
_atom_site_type_symbol
_atom_site_label
_atom_site_fract_x
_atom_site_fract_y
_atom_site_fract_z
Si Si1 0.457799 0.852798 0.513546
Si Si2 0.108511 0.359421 0.897979
Si Si3 0.774309 0.592961 0.400145
Si Si4 0.325241 0.892876 0.119203
Si Si5 0.634207 0.622449 0.480749
Si Si6 0.160629 0.070550 0.523574
Si Si7 0.960702 0.703780 0.931960
Si Si8 0.306303 0.718498 0.469123
O O1 0.352341 0.880925 0.308781
O O2 0.508063 0.641312 0.368985
O O3 0.419445 0.805430 0.588968
O O4 0.554928 0.084031 0.791485
O O5 0.107672 0.150050 0.649523
O O6 0.002235 0.467646 0.808180
O O7 0.104627 0.285629 0.001446
O O8 0.222251 0.543898 0.145249
O O9 0.658338 0.602285 0.334719
O O10 0.780350 0.715778 0.345792
O O11 0.879105 0.709734 0.705350
O O12 0.770299 0.323191 0.189537
O O13 0.286421 0.130495 0.203252
O O14 0.666751 0.407720 0.446975
O O15 0.251073 0.927961 0.587670
O O16 0.063878 0.917328 0.203921
#
# Coordination Sequence:
#
# PCOD8018284 Si02
#       8
#     2   2   2   2   2   2   2   2
#     4   9  20  44  64  96 132 172 219 276 322 382
#     4  10  22  44  67  96 130 178 207 276 331 390
#     4  12  23  42  66 103 130 174 215 274 325 396
#     4   9  22  40  64  92 130 173 215 267 331 379
#     4  10  22  40  64  95 135 174 216 273 320 383
#     4  11  25  39  70  99 132 174 218 266 331 392
#     4  10  23  44  67  95 135 165 223 271 331 386
#     4  11  21  42  65  97 135 170 222 268 321 391
#
# _framework density 22.693836999999998
#
# number of rings (size 3 to 8) (size 9 to 14) (size 15 to 20)
#    0.750    1.000    1.250    2.625    0.000    4.000 
#    2.250    0.625    0.000    0.000    0.000    0.000 
#    0.000    0.000    0.000    0.000    0.000    0.000 
#
# Total GULP energy -198259.500018 kJ/mol
# GULP energy per Si atom -12391.218751 kJ/mol
# Density = 2.264219 g / cm^3
# Si number density = 22.693837 Si / 1000 Ang^3
#
#
#
# Elastic Constant Matrix: (Units=GPa)
#
#
# Indices 1 2 3 4 5 6 
#
# 1 112.9355 53.5094 14.9320 4.0718 -14.1528 8.8918
# 2 53.5094 125.0755 25.1722 8.4003 -10.8025 9.0573
# 3 14.9320 25.1722 58.3656 9.8358 -3.8784 5.0704
# 4 4.0718 8.4003 9.8358 30.6593 -1.1169 4.4104
# 5 -14.1528 -10.8025 -3.8784 -1.1169 27.4830 5.4585
# 6 8.8918 9.0573 5.0704 4.4104 5.4585 33.6702
#
#
#
# Elastic Compliance Matrix: (Units=1/GPa)
#
#
# Indices 1 2 3 4 5 6 
#
# 1 0.011795 -0.004328 -0.000663 0.000394 0.004829 -0.002685
# 2 -0.004328 0.010812 -0.003122 -0.001112 0.001822 -0.001445
# 3 -0.000663 -0.003122 0.019730 -0.005123 0.001305 -0.001497
# 4 0.000394 -0.001112 -0.005123 0.035108 0.001231 -0.003832
# 5 0.004829 0.001822 0.001305 0.001231 0.041584 -0.008865
# 6 -0.002685 -0.001445 -0.001497 -0.003832 -0.008865 0.032962
#
#
# Mechanical properties :
#
#
# Convention : Reuss Voigt Hill
#
# Bulk Modulus (GPa) = 38.29857 53.73375 46.01616
# Shear Modulus (GPa) = 28.26142 31.88004 30.07073
#
# Velocity S-wave (km/s) = 3.53276 3.75212 3.64409
# Velocity P-wave (km/s) = 5.79252 6.51922 6.16659
#
# Compressibility (1/GPa) = 0.02611064
#
# Stress axis : x y z
#
# Youngs Moduli (GPa) = 84.78094 92.49353 50.68546
#
# Poissons Ratio (x) = 0.40027 0.03363
# Poissons Ratio (y) = 0.36690 0.15823
# Poissons Ratio (z) = 0.05625 0.28874
#
# Static dielectric constant tensor:
#      x y z
#    x 4.022820 -0.011630 0.059790 
#    y -0.011630 3.958280 0.214720 
#    z 0.059790 0.214720 3.666340 
# 
# 
# High freq. dielectric constant tensor:
#      x y z
#    x 1.897160 0.004260 0.002500 
#    y 0.004260 1.896350 0.012110 
#    z 0.002500 0.012110 1.862830 
# 
# From -- ./inp_files/329669.got.cif
#   From: 2010.06.25/outbox.cif.g09.slc.cpg/sg2_165_cif.got.tgz:329669.got - 2010.06.27 13:26:56.
