data_PCOD8018323
_publ_section_title
;
Structure prediction by ZEFSAII (Michael W. Deem and Ramdas Pophale) SiO2 
 PCOD8018323
Probable space group: P -1
;
_chemical_formula_sum "Si O2"
_cell_formula_units_Z 16
_cell_length_a 16.279435
_cell_length_b 9.453758
_cell_length_c 16.924470
_cell_angle_alpha 117.193405
_cell_angle_beta 157.054690
_cell_angle_gamma 73.515284
_cell_volume 829.644688
_symmetry_space_group_name_H-M "P -1"
_symmetry_group_IT_number 2
_symmetry_cell_setting 'triclinic'
loop_
_space_group_symop_operation_xyz
x,y,z
-x,-y,-z
loop_
_atom_site_type_symbol
_atom_site_label
_atom_site_fract_x
_atom_site_fract_y
_atom_site_fract_z
Si Si1 0.098810 0.844581 0.464488
Si Si2 0.847933 0.807012 0.909520
Si Si3 0.985476 0.600382 0.864108
Si Si4 0.716979 0.032274 0.751592
Si Si5 0.235828 0.496778 0.678927
Si Si6 0.172313 0.309581 0.964292
Si Si7 0.703702 0.762754 0.216827
Si Si8 0.690256 0.428759 0.410894
O O1 0.271865 0.749229 0.601490
O O2 0.997235 0.828706 0.282198
O O3 0.887268 0.755557 0.313941
O O4 0.248270 0.042324 0.667423
O O5 0.660575 0.874192 0.724149
O O6 0.833289 0.628555 0.808832
O O7 0.819120 0.787320 0.972233
O O8 0.089525 0.963317 0.140048
O O9 0.079269 0.457844 0.936765
O O10 0.829925 0.549573 0.636154
O O11 0.200863 0.781819 0.083645
O O12 0.500000 0.000000 0.500000
O O13 0.278594 0.338618 0.715276
O O14 0.218642 0.466504 0.562318
O O15 0.000000 0.500000 0.500000
O O16 0.447605 0.677853 0.932801
O O17 0.424386 0.391339 0.172596
#
# Coordination Sequence:
#
# PCOD8018323 Si02
#       8
#     2   2   2   2   2   2   2   2
#     4  10  22  41  59  94 118 160 204 253 304 366
#     4   9  21  39  59  89 115 159 203 237 300 364
#     4   9  22  37  59  88 117 157 200 245 296 363
#     4   9  20  39  60  81 116 159 201 246 297 359
#     4  11  22  40  64  90 118 162 200 251 308 372
#     4  11  22  38  61  88 127 153 203 255 300 358
#     4  10  22  40  65  85 123 157 205 251 308 365
#     4  11  23  38  59  90 123 155 204 253 304 361
#
# _framework density 19.285364999999999
#
# number of rings (size 3 to 8) (size 9 to 14) (size 15 to 20)
#    0.750    1.250    2.500    0.375    1.750    5.000 
#    0.000    2.500    0.000    0.000    0.000    0.000 
#    0.000    0.000    0.000    0.000    0.000    0.000 
#
# Total GULP energy -198355.803620 kJ/mol
# GULP energy per Si atom -12397.237726 kJ/mol
# Density = 1.924147 g / cm^3
# Si number density = 19.285365 Si / 1000 Ang^3
#
#
#
# Elastic Constant Matrix: (Units=GPa)
#
#
# Indices 1 2 3 4 5 6 
#
# 1 93.7137 27.6305 17.1451 -1.9043 -13.5594 21.8623
# 2 27.6305 78.0983 31.0634 -4.0852 -14.0714 9.4477
# 3 17.1451 31.0634 90.9973 -3.2389 -6.1032 -0.1856
# 4 -1.9043 -4.0852 -3.2389 31.7288 3.1863 -8.2639
# 5 -13.5594 -14.0714 -6.1032 3.1863 27.4961 -1.0208
# 6 21.8623 9.4477 -0.1856 -8.2639 -1.0208 32.7488
#
#
#
# Elastic Compliance Matrix: (Units=1/GPa)
#
#
# Indices 1 2 3 4 5 6 
#
# 1 0.014705 -0.002525 -0.001651 -0.002668 0.005546 -0.009598
# 2 -0.002525 0.017192 -0.004971 0.000119 0.006322 -0.003075
# 3 -0.001651 -0.004971 0.013019 0.001411 -0.000523 0.002950
# 4 -0.002668 0.000119 0.001411 0.034674 -0.004575 0.010362
# 5 0.005546 0.006322 -0.000523 -0.004575 0.042554 -0.005357
# 6 -0.009598 -0.003075 0.002950 0.010362 -0.005357 0.040294
#
#
# Mechanical properties :
#
#
# Convention : Reuss Voigt Hill
#
# Bulk Modulus (GPa) = 37.56455 46.05412 41.80933
# Shear Modulus (GPa) = 26.37042 30.85943 28.61493
#
# Velocity S-wave (km/s) = 3.70182 4.00452 3.85614
# Velocity P-wave (km/s) = 6.14751 6.73155 6.44615
#
# Compressibility (1/GPa) = 0.02662084
#
# Stress axis : x y z
#
# Youngs Moduli (GPa) = 68.00621 58.16589 76.81312
#
# Poissons Ratio (x) = 0.14686 0.12683
# Poissons Ratio (y) = 0.17171 0.38185
# Poissons Ratio (z) = 0.11229 0.28915
#
# Static dielectric constant tensor:
#      x y z
#    x 3.318530 0.263510 -0.048240 
#    y 0.263510 3.136130 -0.145700 
#    z -0.048240 -0.145700 3.486320 
# 
# 
# High freq. dielectric constant tensor:
#      x y z
#    x 1.744780 0.003900 -0.008570 
#    y 0.003900 1.752860 -0.014190 
#    z -0.008570 -0.014190 1.752300 
# 
# From -- ./inp_files/575297.got.cif
#   From: 2010.06.25/outbox.cif.g09.slc.cpg/sg2_288_cif.got.tgz:575297.got - 2010.06.27 13:26:56.
