data_PCOD8018679
_publ_section_title
;
Structure prediction by ZEFSAII (Michael W. Deem and Ramdas Pophale) SiO2 
 PCOD8018679
Probable space group: P -1
;
_chemical_formula_sum "Si O2"
_cell_formula_units_Z 16
_cell_length_a 21.363682
_cell_length_b 11.499499
_cell_length_c 9.765312
_cell_angle_alpha 105.546445
_cell_angle_beta 140.426212
_cell_angle_gamma 43.053764
_cell_volume 766.200675
_symmetry_space_group_name_H-M "P -1"
_symmetry_group_IT_number 2
_symmetry_cell_setting 'triclinic'
loop_
_space_group_symop_operation_xyz
x,y,z
-x,-y,-z
loop_
_atom_site_type_symbol
_atom_site_label
_atom_site_fract_x
_atom_site_fract_y
_atom_site_fract_z
Si Si1 0.125467 0.769060 0.357276
Si Si2 0.959080 0.694489 0.637015
Si Si3 0.381961 0.565325 0.489477
Si Si4 0.921740 0.694513 0.268125
Si Si5 0.268021 0.948687 0.155602
Si Si6 0.867629 0.246443 0.108050
Si Si7 0.634913 0.135849 0.411058
Si Si8 0.256132 0.521898 0.762769
O O1 0.238045 0.636425 0.362717
O O2 0.268939 0.575311 0.655386
O O3 0.068343 0.969637 0.339264
O O4 0.928219 0.903542 0.075811
O O5 0.858064 0.784296 0.346472
O O6 0.060798 0.465402 0.783111
O O7 0.119558 0.628469 0.879254
O O8 0.815564 0.885348 0.571085
O O9 0.594874 0.290875 0.765024
O O10 0.374573 0.709750 0.575312
O O11 0.302731 0.641429 0.224533
O O12 0.124151 0.543533 0.536349
O O13 0.768769 0.908028 0.971936
O O14 0.370488 0.893818 0.446299
O O15 0.822179 0.293967 0.207363
O O16 0.457694 0.263757 0.073858
#
# Coordination Sequence:
#
# PCOD8018679 Si02
#       8
#     2   2   2   2   2   2   2   2
#     4  11  22  38  61  93 128 163 200 249 310 374
#     4  10  22  40  69  84 121 166 213 249 309 363
#     4  12  23  38  62  98 134 156 200 256 313 375
#     4   9  23  46  61  87 121 166 210 260 300 356
#     4  11  23  41  65  91 129 165 200 256 311 365
#     4  11  19  40  61  90 127 163 198 253 313 371
#     4  12  22  38  62  96 124 162 201 253 315 371
#     4  10  23  37  61  91 124 160 205 256 308 362
#
# _framework density 20.882258
#
# number of rings (size 3 to 8) (size 9 to 14) (size 15 to 20)
#    0.000    1.250    3.750    2.625    1.750    3.500 
#    0.000    0.625    0.000    0.000    0.000    0.000 
#    0.000    0.000    0.000    0.000    0.000    0.000 
#
# Total GULP energy -198380.985187 kJ/mol
# GULP energy per Si atom -12398.811574 kJ/mol
# Density = 2.083473 g / cm^3
# Si number density = 20.882258 Si / 1000 Ang^3
#
#
#
# Elastic Constant Matrix: (Units=GPa)
#
#
# Indices 1 2 3 4 5 6 
#
# 1 86.7948 33.8343 17.1796 -10.3057 -22.9455 7.4788
# 2 33.8343 96.4822 8.8172 -7.5666 -7.7130 6.7382
# 3 17.1796 8.8172 71.1714 -7.1907 -17.0584 11.7466
# 4 -10.3057 -7.5666 -7.1907 25.4693 2.4166 4.5883
# 5 -22.9455 -7.7130 -17.0584 2.4166 32.7460 -5.0814
# 6 7.4788 6.7382 11.7466 4.5883 -5.0814 36.5200
#
#
#
# Elastic Compliance Matrix: (Units=1/GPa)
#
#
# Indices 1 2 3 4 5 6 
#
# 1 0.016653 -0.004540 -0.000359 0.004660 0.009809 -0.001678
# 2 -0.004540 0.012187 -0.000113 0.002124 -0.000784 -0.001658
# 3 -0.000359 -0.000113 0.017294 0.004889 0.007590 -0.005026
# 4 0.004660 0.002124 0.004889 0.044483 0.001747 -0.008264
# 5 0.009809 -0.000784 0.007590 0.001747 0.041240 0.001213
# 6 -0.001678 -0.001658 -0.005026 -0.008264 0.001213 0.030856
#
#
# Mechanical properties :
#
#
# Convention : Reuss Voigt Hill
#
# Bulk Modulus (GPa) = 27.69383 41.56784 34.63083
# Shear Modulus (GPa) = 27.06010 31.92155 29.49082
#
# Velocity S-wave (km/s) = 3.60369 3.91403 3.76206
# Velocity P-wave (km/s) = 5.53228 6.35415 5.95740
#
# Compressibility (1/GPa) = 0.03610913
#
# Stress axis : x y z
#
# Youngs Moduli (GPa) = 60.04818 82.05500 57.82365
#
# Poissons Ratio (x) = 0.37257 0.02074
# Poissons Ratio (y) = 0.27264 0.00656
# Poissons Ratio (z) = 0.02154 0.00931
#
# Static dielectric constant tensor:
#      x y z
#    x 3.912230 -0.078150 -0.111900 
#    y -0.078150 3.696490 -0.015030 
#    z -0.111900 -0.015030 3.736400 
# 
# 
# High freq. dielectric constant tensor:
#      x y z
#    x 1.820070 -0.012460 -0.008610 
#    y -0.012460 1.806150 -0.002020 
#    z -0.008610 -0.002020 1.807820 
# 
# From -- ./inp_files/177366.got.cif
#   From: 2010.06.25/outbox.cif.g09.slc.cpg/sg2_89_cif.got.tgz:177366.got - 2010.06.27 13:26:56.
