data_PCOD8018841
_publ_section_title
;
Structure prediction by ZEFSAII (Michael W. Deem and Ramdas Pophale) SiO2 
 PCOD8018841
Probable space group: P -1
;
_chemical_formula_sum "Si O2"
_cell_formula_units_Z 14
_cell_length_a 13.610829
_cell_length_b 7.366541
_cell_length_c 7.619438
_cell_angle_alpha 69.774588
_cell_angle_beta 76.374084
_cell_angle_gamma 78.884829
_cell_volume 691.466832
_symmetry_space_group_name_H-M "P -1"
_symmetry_group_IT_number 2
_symmetry_cell_setting 'triclinic'
loop_
_space_group_symop_operation_xyz
x,y,z
-x,-y,-z
loop_
_atom_site_type_symbol
_atom_site_label
_atom_site_fract_x
_atom_site_fract_y
_atom_site_fract_z
Si Si1 0.101847 0.026675 0.349641
Si Si2 0.504037 0.231102 0.226047
Si Si3 0.817103 0.787595 0.453894
Si Si4 0.974215 0.191459 0.832824
Si Si5 0.607377 0.803425 0.361572
Si Si6 0.846827 0.570972 0.844728
Si Si7 0.629422 0.577994 0.077571
O O1 0.187337 0.024992 0.469963
O O2 0.097429 0.240668 0.185516
O O3 0.000000 0.000000 0.500000
O O4 0.113416 0.858004 0.254384
O O5 0.447543 0.271549 0.421111
O O6 0.592015 0.369744 0.128091
O O7 0.554406 0.011944 0.253731
O O8 0.421665 0.267735 0.093950
O O9 0.923219 0.754469 0.317027
O O10 0.725105 0.821083 0.346876
O O11 0.813325 0.596692 0.643716
O O12 0.924625 0.375209 0.904177
O O13 0.000000 0.000000 0.000000
O O14 0.599023 0.650877 0.260874
O O15 0.750656 0.555845 0.014719
#
# Coordination Sequence:
#
# PCOD8018841 Si02
#       7
#     2   2   2   2   2   2   2
#     4   8  19  39  57  80 119 163 203 242 301 356
#     4  10  23  43  65  92 126 159 210 255 313 374
#     4   9  21  41  58  88 126 160 210 245 307 373
#     4  11  23  38  63  90 125 166 208 255 307 367
#     4  11  22  43  65  93 124 165 204 258 310 371
#     4  10  22  41  59  90 125 165 205 256 305 371
#     4  11  23  41  65  94 126 161 207 257 313 368
#
# _framework density 20.246811000000001
#
# number of rings (size 3 to 8) (size 9 to 14) (size 15 to 20)
#    0.857    1.143    1.429    1.286    4.000    0.571 
#    2.571    1.429    0.000    0.000    0.000    0.000 
#    0.000    0.000    0.000    0.000    0.000    0.000 
#
# Total GULP energy -173465.131255 kJ/mol
# GULP energy per Si atom -12390.366518 kJ/mol
# Density = 2.020073 g / cm^3
# Si number density = 20.246811 Si / 1000 Ang^3
#
#
#
# Elastic Constant Matrix: (Units=GPa)
#
#
# Indices 1 2 3 4 5 6 
#
# 1 72.5112 25.5007 17.5370 -2.7318 -11.0454 -2.3692
# 2 25.5007 55.0419 12.0471 4.4308 -16.2788 2.3800
# 3 17.5370 12.0471 72.9852 1.8472 -10.5000 -5.6226
# 4 -2.7318 4.4308 1.8472 26.8539 2.8896 -2.9421
# 5 -11.0454 -16.2788 -10.5000 2.8896 32.9256 0.5696
# 6 -2.3692 2.3800 -5.6226 -2.9421 0.5696 24.5144
#
#
#
# Elastic Compliance Matrix: (Units=1/GPa)
#
#
# Indices 1 2 3 4 5 6 
#
# 1 0.017454 -0.007587 -0.002729 0.003357 0.000902 0.002179
# 2 -0.007587 0.025750 -0.001100 -0.006569 0.010490 -0.004518
# 3 -0.002729 -0.001100 0.015309 -0.001180 0.003472 0.003132
# 4 0.003357 -0.006569 -0.001180 0.040020 -0.006107 0.005636
# 5 0.000902 0.010490 0.003472 -0.006107 0.037534 -0.001740
# 6 0.002179 -0.004518 0.003132 0.005636 -0.001740 0.042877
#
#
# Mechanical properties :
#
#
# Convention : Reuss Voigt Hill
#
# Bulk Modulus (GPa) = 28.02539 34.52308 31.27423
# Shear Modulus (GPa) = 23.40059 26.55568 24.97813
#
# Velocity S-wave (km/s) = 3.40334 3.62553 3.51619
# Velocity P-wave (km/s) = 5.41439 5.88337 5.65375
#
# Compressibility (1/GPa) = 0.03568193
#
# Stress axis : x y z
#
# Youngs Moduli (GPa) = 57.29287 38.83459 65.31938
#
# Poissons Ratio (x) = 0.29464 0.17825
# Poissons Ratio (y) = 0.43468 0.07185
# Poissons Ratio (z) = 0.15635 0.04272
#
# Static dielectric constant tensor:
#      x y z
#    x 3.645490 0.299110 0.083310 
#    y 0.299110 3.679710 0.091090 
#    z 0.083310 0.091090 3.810630 
# 
# 
# High freq. dielectric constant tensor:
#      x y z
#    x 1.781210 0.017090 -0.004010 
#    y 0.017090 1.776920 -0.001820 
#    z -0.004010 -0.001820 1.800750 
# 
# From -- ./inp_files/288584.got.cif
#   From: 2010.06.25/outbox.cif.g09.slc.cpg/sg2_145_cif.got.tgz:288584.got - 2010.06.27 13:26:56.
