data_PCOD8018618
_publ_section_title
;
Structure prediction by ZEFSAII (Michael W. Deem and Ramdas Pophale) SiO2 
 PCOD8018618
Probable space group: P -1
;
_chemical_formula_sum "Si O2"
_cell_formula_units_Z 14
_cell_length_a 21.898828
_cell_length_b 8.559969
_cell_length_c 17.928104
_cell_angle_alpha 137.209285
_cell_angle_beta 18.989049
_cell_angle_gamma 126.779160
_cell_volume 670.472152
_symmetry_space_group_name_H-M "P -1"
_symmetry_group_IT_number 2
_symmetry_cell_setting 'triclinic'
loop_
_space_group_symop_operation_xyz
x,y,z
-x,-y,-z
loop_
_atom_site_type_symbol
_atom_site_label
_atom_site_fract_x
_atom_site_fract_y
_atom_site_fract_z
Si Si1 0.006087 0.727865 0.877580
Si Si2 0.675454 0.840527 0.185052
Si Si3 0.616107 0.707149 0.787528
Si Si4 0.172597 0.478077 0.856660
Si Si5 0.806330 0.875885 0.748673
Si Si6 0.737982 0.334271 0.877584
Si Si7 0.351362 0.854706 0.824579
O O1 0.226882 0.480802 0.523235
O O2 0.900330 0.772368 0.934966
O O3 0.873145 0.663259 0.070625
O O4 0.000000 0.000000 0.000000
O O5 0.500000 0.000000 0.500000
O O6 0.653263 0.984234 0.184793
O O7 0.646414 0.586172 0.120408
O O8 0.722225 0.690696 0.739412
O O9 0.427543 0.626171 0.983313
O O10 0.500000 0.000000 0.000000
O O11 0.181028 0.737846 0.968850
O O12 0.408193 0.337912 0.504315
O O13 0.000000 0.500000 0.000000
O O14 0.049729 0.710516 0.423612
O O15 0.765817 0.111694 0.824663
O O16 0.705651 0.960384 0.974395
#
# Coordination Sequence:
#
# PCOD8018618 Si02
#       7
#     2   2   2   2   2   2   2
#     4  12  24  44  74 102 138 180 232 283 344 409
#     4  12  23  43  66  97 137 175 224 282 342 405
#     4  10  23  40  67 101 130 179 227 276 334 409
#     4  11  26  44  67 101 137 175 229 285 344 407
#     4  10  22  42  66  94 131 177 228 269 337 410
#     4  10  22  40  68  94 131 175 222 275 331 407
#     4  11  26  42  68 100 136 181 222 284 347 404
#
# _framework density 20.880808999999999
#
# number of rings (size 3 to 8) (size 9 to 14) (size 15 to 20)
#    0.000    1.143    2.857    2.571   10.000    0.571 
#    0.000    0.714    0.000    0.000    0.000    0.000 
#    0.000    0.000    0.000    0.000    0.000    0.000 
#
# Total GULP energy -173434.711990 kJ/mol
# GULP energy per Si atom -12388.193714 kJ/mol
# Density = 2.083328 g / cm^3
# Si number density = 20.880809 Si / 1000 Ang^3
#
#
#
# Elastic Constant Matrix: (Units=GPa)
#
#
# Indices 1 2 3 4 5 6 
#
# 1 129.2027 52.7939 57.1909 -18.0543 5.0781 28.6763
# 2 52.7939 65.4266 57.8279 -6.6588 -2.3817 45.4832
# 3 57.1909 57.8279 135.8416 -1.7683 6.6138 22.9129
# 4 -18.0543 -6.6588 -1.7683 36.2718 10.7155 -1.1912
# 5 5.0781 -2.3817 6.6138 10.7155 42.3633 -5.2815
# 6 28.6763 45.4832 22.9129 -1.1912 -5.2815 44.2196
#
#
#
# Elastic Compliance Matrix: (Units=1/GPa)
#
#
# Indices 1 2 3 4 5 6 
#
# 1 0.013077 -0.013593 -0.000448 0.005013 -0.002841 0.005529
# 2 -0.013593 0.133880 -0.031985 0.013532 -0.003279 -0.112345
# 3 -0.000448 -0.031985 0.017039 -0.004387 -0.000277 0.024209
# 4 0.005013 0.013532 -0.004387 0.034742 -0.009830 -0.015134
# 5 -0.002841 -0.003279 -0.000277 -0.009830 0.027333 0.008358
# 6 0.005529 -0.112345 0.024209 -0.015134 0.008358 0.122630
#
#
# Mechanical properties :
#
#
# Convention : Reuss Voigt Hill
#
# Bulk Modulus (GPa) = 13.89951 74.01070 43.95511
# Shear Modulus (GPa) = 10.75880 35.41483 23.08682
#
# Velocity S-wave (km/s) = 2.27237 4.12278 3.32874
# Velocity P-wave (km/s) = 3.68184 7.62787 5.98917
#
# Compressibility (1/GPa) = 0.07194498
#
# Stress axis : x y z
#
# Youngs Moduli (GPa) = 76.46744 7.46935 58.68841
#
# Poissons Ratio (x) = 0.10153 0.02631
# Poissons Ratio (y) = 1.03941 1.87714
# Poissons Ratio (z) = 0.03428 0.23891
#
# Static dielectric constant tensor:
#      x y z
#    x 2.816150 1.194530 -1.553160 
#    y 1.194530 3.796800 0.597660 
#    z -1.553160 0.597660 2.851570 
# 
# 
# High freq. dielectric constant tensor:
#      x y z
#    x 1.817010 0.028250 -0.007340 
#    y 0.028250 1.815400 0.003670 
#    z -0.007340 0.003670 1.833270 
# 
# From -- ./inp_files/257249.got.cif
#   From: 2010.06.25/outbox.cif.g09.slc.cpg/sg2_129_cif.got.tgz:257249.got - 2010.06.27 13:26:56.
