data_PCOD8018451
_publ_section_title
;
Structure prediction by ZEFSAII (Michael W. Deem and Ramdas Pophale) SiO2 
 PCOD8018451
Probable space group: P -1
;
_chemical_formula_sum "Si O2"
_cell_formula_units_Z 16
_cell_length_a 12.068154
_cell_length_b 11.822560
_cell_length_c 14.095685
_cell_angle_alpha 111.242438
_cell_angle_beta 148.664417
_cell_angle_gamma 89.232382
_cell_volume 771.841183
_symmetry_space_group_name_H-M "P -1"
_symmetry_group_IT_number 2
_symmetry_cell_setting 'triclinic'
loop_
_space_group_symop_operation_xyz
x,y,z
-x,-y,-z
loop_
_atom_site_type_symbol
_atom_site_label
_atom_site_fract_x
_atom_site_fract_y
_atom_site_fract_z
Si Si1 0.552841 0.924819 0.432810
Si Si2 0.552571 0.061591 0.279126
Si Si3 0.479926 0.564334 0.731512
Si Si4 0.770973 0.428583 0.887902
Si Si5 0.724574 0.442903 0.230905
Si Si6 0.714116 0.918250 0.214957
Si Si7 0.961132 0.413002 0.672709
Si Si8 0.157614 0.086056 0.902429
O O1 0.361687 0.747208 0.258621
O O2 0.500000 0.000000 0.500000
O O3 0.500054 0.963535 0.303295
O O4 0.849218 0.975454 0.668548
O O5 0.815221 0.236270 0.535150
O O6 0.583465 0.992606 0.186246
O O7 0.296878 0.058974 0.079475
O O8 0.557359 0.460513 0.712685
O O9 0.413597 0.517621 0.780337
O O10 0.235626 0.546021 0.492529
O O11 0.741912 0.740669 0.971792
O O12 0.895312 0.496102 0.100796
O O13 0.000000 0.500000 0.000000
O O14 0.812421 0.538648 0.226749
O O15 0.000000 0.500000 0.500000
O O16 0.512292 0.264072 0.993546
O O17 0.777100 0.957074 0.162205
O O18 0.000000 0.000000 0.500000
#
# Coordination Sequence:
#
# PCOD8018451 Si02
#       8
#     2   2   2   2   2   2   2   2
#     4  12  26  44  65  91 126 165 218 271 321 388
#     4  11  23  42  66  94 133 171 212 262 325 393
#     4   9  21  42  64  92 126 164 210 258 313 380
#     4  12  26  42  65  90 120 165 212 268 320 376
#     4   9  20  39  62  94 133 171 211 260 319 383
#     4  11  21  37  66  98 137 175 216 269 320 387
#     4  10  22  40  66  94 128 166 207 261 317 379
#     4  10  22  41  66  94 129 171 209 262 322 383
#
# _framework density 20.729652999999999
#
# number of rings (size 3 to 8) (size 9 to 14) (size 15 to 20)
#    0.000    1.500    1.250    4.125    1.750    5.500 
#    0.000    0.000    0.000    0.000    0.000    0.000 
#    0.000    0.000    0.000    0.000    0.000    0.000 
#
# Total GULP energy -198342.909252 kJ/mol
# GULP energy per Si atom -12396.431828 kJ/mol
# Density = 2.068247 g / cm^3
# Si number density = 20.729653 Si / 1000 Ang^3
#
#
#
# Elastic Constant Matrix: (Units=GPa)
#
#
# Indices 1 2 3 4 5 6 
#
# 1 107.2960 43.8573 25.6893 13.5082 25.8424 -10.4738
# 2 43.8573 108.9358 41.7465 18.6316 18.3394 -11.3747
# 3 25.6893 41.7465 98.2484 13.3732 8.1374 17.0985
# 4 13.5082 18.6316 13.3732 26.7107 -1.1723 3.1323
# 5 25.8424 18.3394 8.1374 -1.1723 28.8767 14.2939
# 6 -10.4738 -11.3747 17.0985 3.1323 14.2939 22.0923
#
#
#
# Elastic Compliance Matrix: (Units=1/GPa)
#
#
# Indices 1 2 3 4 5 6 
#
# 1 -0.018338 -0.034157 0.025839 0.036370 0.084973 -0.106414
# 2 -0.034157 -0.017443 0.022578 0.034314 0.088558 -0.104812
# 3 0.025839 0.022578 -0.009821 -0.037815 -0.080128 0.088681
# 4 0.036370 0.034314 -0.037815 -0.007032 -0.112151 0.137738
# 5 0.084973 0.088558 -0.080128 -0.112151 -0.236433 0.316773
# 6 -0.106414 -0.104812 0.088681 0.137738 0.316773 -0.352270
#
#
# Mechanical properties :
#
#
# Convention : Reuss Voigt Hill
#
# Bulk Modulus (GPa) = -58.54558 59.67405 0.56424
# Shear Modulus (GPa) = -7.40136 29.08174 10.84019
#
# Velocity S-wave (km/s) = -1.89161 3.74960 2.28925
# Velocity P-wave (km/s) = 5.75106 6.89894 2.69450
#
# Compressibility (1/GPa) = -0.01708071
#
# Stress axis : x y z
#
# Youngs Moduli (GPa) = -54.53285 -57.32965 -101.82097
#
# Poissons Ratio (x) = -1.95819 2.63098
# Poissons Ratio (y) = -1.86266 2.29890
# Poissons Ratio (z) = 1.40909 1.29438
#
# Static dielectric constant tensor:
#      x y z
#    x 3.712010 0.096310 0.641180 
#    y 0.096310 3.606650 -0.373040 
#    z 0.641180 -0.373040 2.210820 
# 
# 
# High freq. dielectric constant tensor:
#      x y z
#    x 1.816880 0.001600 0.004770 
#    y 0.001600 1.808200 -0.000760 
#    z 0.004770 -0.000760 1.825980 
# 
# From -- ./inp_files/390212.got.cif
#   From: 2010.06.25/outbox.cif.g09.slc.cpg/sg2_196_cif.got.tgz:390212.got - 2010.06.27 13:26:56.
