data_PCOD8018110
_publ_section_title
;
Structure prediction by ZEFSAII (Michael W. Deem and Ramdas Pophale) SiO2 
 PCOD8018110
Probable space group: P -1
;
_chemical_formula_sum "Si O2"
_cell_formula_units_Z 14
_cell_length_a 18.854446
_cell_length_b 8.832469
_cell_length_c 5.248153
_cell_angle_alpha 94.024673
_cell_angle_beta 120.989625
_cell_angle_gamma 111.207010
_cell_volume 661.558613
_symmetry_space_group_name_H-M "P -1"
_symmetry_group_IT_number 2
_symmetry_cell_setting 'triclinic'
loop_
_space_group_symop_operation_xyz
x,y,z
-x,-y,-z
loop_
_atom_site_type_symbol
_atom_site_label
_atom_site_fract_x
_atom_site_fract_y
_atom_site_fract_z
Si Si1 0.272233 0.082683 0.304759
Si Si2 0.979894 0.734076 0.463706
Si Si3 0.457016 0.889330 0.160243
Si Si4 0.267704 0.880801 0.761422
Si Si5 0.917988 0.922796 0.042769
Si Si6 0.528257 0.615229 0.314435
Si Si7 0.920489 0.438860 0.637971
O O1 0.360623 0.265330 0.440378
O O2 0.298392 0.005131 0.589442
O O3 0.184876 0.113340 0.237701
O O4 0.250323 0.966937 0.994274
O O5 0.913056 0.745212 0.119748
O O6 0.912591 0.607814 0.545324
O O7 0.047333 0.651326 0.527173
O O8 0.051223 0.929996 0.672702
O O9 0.473316 0.725215 0.196065
O O10 0.500000 0.000000 0.500000
O O11 0.346808 0.825464 0.958401
O O12 0.500000 0.000000 0.000000
O O13 0.179484 0.707705 0.477307
O O14 0.000000 0.000000 0.000000
O O15 0.500000 0.500000 0.500000
O O16 0.500000 0.500000 0.000000
O O17 0.000000 0.500000 0.000000
#
# Coordination Sequence:
#
# PCOD8018110 Si02
#       7
#     2   2   2   2   2   2   2
#     4  12  25  45  73 100 139 188 240 287 360 437
#     4  10  22  40  62  91 136 172 231 281 349 401
#     4  12  23  47  75 102 139 185 242 294 348 441
#     4  12  24  44  74 102 133 192 243 286 352 428
#     4  11  23  42  66  96 135 188 229 283 350 428
#     4  12  26  47  72 107 147 179 230 311 369 415
#     4  11  23  41  64  96 139 177 231 298 341 403
#
# _framework density 21.162144999999999
#
# number of rings (size 3 to 8) (size 9 to 14) (size 15 to 20)
#    0.000    0.571    4.286    4.286    4.000    1.143 
#    5.143    0.000    0.000    0.000    0.000    0.000 
#    0.000    0.000    0.000    0.000    0.000    0.000 
#
# Total GULP energy -173471.879624 kJ/mol
# GULP energy per Si atom -12390.848545 kJ/mol
# Density = 2.111398 g / cm^3
# Si number density = 21.162145 Si / 1000 Ang^3
#
#
#
# Elastic Constant Matrix: (Units=GPa)
#
#
# Indices 1 2 3 4 5 6 
#
# 1 120.3001 56.2410 60.3893 -7.6896 22.6651 4.9387
# 2 56.2410 169.9355 61.5653 -23.8584 9.6354 7.0486
# 3 60.3893 61.5653 136.5432 -2.1445 7.6132 11.2520
# 4 -7.6896 -23.8584 -2.1445 43.2093 8.1239 4.7886
# 5 22.6651 9.6354 7.6132 8.1239 51.8927 -4.0466
# 6 4.9387 7.0486 11.2520 4.7886 -4.0466 37.5898
#
#
#
# Elastic Compliance Matrix: (Units=1/GPa)
#
#
# Indices 1 2 3 4 5 6 
#
# 1 0.012431 -0.002016 -0.004231 0.001871 -0.004785 -0.000742
# 2 -0.002016 0.008210 -0.002587 0.004371 -0.001040 -0.001169
# 3 -0.004231 -0.002587 0.010431 -0.001640 0.000917 -0.001774
# 4 0.001871 0.004371 -0.001640 0.027471 -0.006057 -0.004726
# 5 -0.004785 -0.001040 0.000917 -0.006057 0.022661 0.003760
# 6 -0.000742 -0.001169 -0.001774 -0.004726 0.003760 0.028457
#
#
# Mechanical properties :
#
#
# Convention : Reuss Voigt Hill
#
# Bulk Modulus (GPa) = 74.61392 87.01888 80.81640
# Shear Modulus (GPa) = 37.93670 43.11056 40.52363
#
# Velocity S-wave (km/s) = 4.23858 4.51838 4.38072
# Velocity P-wave (km/s) = 7.69993 8.27226 7.99122
#
# Compressibility (1/GPa) = 0.01340233
#
# Stress axis : x y z
#
# Youngs Moduli (GPa) = 80.44506 121.79733 95.86858
#
# Poissons Ratio (x) = 0.24559 0.40565
# Poissons Ratio (y) = 0.16221 0.24803
# Poissons Ratio (z) = 0.34039 0.31511
#
# Static dielectric constant tensor:
#      x y z
#    x 3.823610 0.264750 0.180150 
#    y 0.264750 3.546750 -0.228290 
#    z 0.180150 -0.228290 3.905570 
# 
# 
# High freq. dielectric constant tensor:
#      x y z
#    x 1.831710 -0.001080 -0.000390 
#    y -0.001080 1.842680 -0.009560 
#    z -0.000390 -0.009560 1.836380 
# 
# From -- ./inp_files/105490.got.cif
#   From: 2010.06.25/outbox.cif.g09.slc.cpg/sg2_53_cif.got.tgz:105490.got - 2010.06.27 13:26:56.
