data_PCOD8018940
_publ_section_title
;
Structure prediction by ZEFSAII (Michael W. Deem and Ramdas Pophale) SiO2 
 PCOD8018940
Probable space group: P -1
;
_chemical_formula_sum "Si O2"
_cell_formula_units_Z 14
_cell_length_a 16.466938
_cell_length_b 7.793341
_cell_length_c 8.589232
_cell_angle_alpha 62.189483
_cell_angle_beta 55.090795
_cell_angle_gamma 93.612319
_cell_volume 711.986271
_symmetry_space_group_name_H-M "P -1"
_symmetry_group_IT_number 2
_symmetry_cell_setting 'triclinic'
loop_
_space_group_symop_operation_xyz
x,y,z
-x,-y,-z
loop_
_atom_site_type_symbol
_atom_site_label
_atom_site_fract_x
_atom_site_fract_y
_atom_site_fract_z
Si Si1 0.899080 0.535534 0.652260
Si Si2 0.064814 0.383976 0.058523
Si Si3 0.075537 0.054808 0.742046
Si Si4 0.699992 0.420149 0.441875
Si Si5 0.676420 0.319799 0.845867
Si Si6 0.458726 0.007600 0.372393
Si Si7 0.320917 0.273475 0.442955
O O1 0.909032 0.568651 0.810276
O O2 0.904072 0.726605 0.457839
O O3 0.777395 0.333611 0.838516
O O4 0.000000 0.500000 0.500000
O O5 0.178777 0.447971 0.817483
O O6 0.983355 0.129684 0.242950
O O7 0.000000 0.500000 0.000000
O O8 0.195181 0.078409 0.653506
O O9 0.000000 0.000000 0.000000
O O10 0.706828 0.294401 0.644043
O O11 0.659245 0.601631 0.462492
O O12 0.618761 0.241124 0.486681
O O13 0.659544 0.539980 0.788052
O O14 0.564216 0.107405 0.100868
O O15 0.400083 0.164055 0.370374
O O16 0.500000 0.000000 0.500000
#
# Coordination Sequence:
#
# PCOD8018940 Si02
#       7
#     2   2   2   2   2   2   2
#     4  11  23  39  63  95 125 159 210 261 312 383
#     4  12  22  38  63  92 128 166 206 258 317 380
#     4  11  20  40  63  89 124 166 206 257 315 369
#     4  10  22  41  63  85 123 165 211 248 318 370
#     4   9  21  43  60  86 124 161 209 259 304 377
#     4  12  23  38  64  93 121 160 211 259 317 374
#     4   9  22  40  63  85 123 164 205 254 308 369
#
# _framework density 19.663301000000001
#
# number of rings (size 3 to 8) (size 9 to 14) (size 15 to 20)
#    0.857    0.571    1.429    4.714    0.000    1.714 
#    0.000    0.000    0.000    0.000    0.000    0.000 
#    0.000    0.000    0.000    0.000    0.000    0.000 
#
# Total GULP energy -173492.909184 kJ/mol
# GULP energy per Si atom -12392.350656 kJ/mol
# Density = 1.961855 g / cm^3
# Si number density = 19.663301 Si / 1000 Ang^3
#
#
#
# Elastic Constant Matrix: (Units=GPa)
#
#
# Indices 1 2 3 4 5 6 
#
# 1 100.4880 36.9334 24.0244 2.9239 -10.8976 14.3382
# 2 36.9334 95.4870 23.1248 1.3552 -20.2385 21.5782
# 3 24.0244 23.1248 91.5515 2.1764 -12.4729 4.1051
# 4 2.9239 1.3552 2.1764 34.6729 13.5091 -3.2166
# 5 -10.8976 -20.2385 -12.4729 13.5091 36.2538 4.3094
# 6 14.3382 21.5782 4.1051 -3.2166 4.3094 36.9429
#
#
#
# Elastic Compliance Matrix: (Units=1/GPa)
#
#
# Indices 1 2 3 4 5 6 
#
# 1 0.012318 -0.002978 -0.001934 -0.002102 0.002551 -0.003307
# 2 -0.002978 0.016761 -0.001306 -0.005706 0.011364 -0.010311
# 3 -0.001934 -0.001306 0.012344 -0.002072 0.003765 -0.000478
# 4 -0.002102 -0.005706 -0.002072 0.038054 -0.019900 0.010013
# 5 0.002551 0.011364 0.003765 -0.019900 0.045194 -0.015050
# 6 -0.003307 -0.010311 -0.000478 0.010013 -0.015050 0.037055
#
#
# Mechanical properties :
#
#
# Convention : Reuss Voigt Hill
#
# Bulk Modulus (GPa) = 34.49994 50.63240 42.56617
# Shear Modulus (GPa) = 27.19992 35.13685 31.16838
#
# Velocity S-wave (km/s) = 3.72329 4.23179 3.98566
# Velocity P-wave (km/s) = 6.00560 7.04862 6.54791
#
# Compressibility (1/GPa) = 0.02898556
#
# Stress axis : x y z
#
# Youngs Moduli (GPa) = 81.18077 59.66404 81.01154
#
# Poissons Ratio (x) = 0.17770 0.15671
# Poissons Ratio (y) = 0.24178 0.10578
# Poissons Ratio (z) = 0.15704 0.07791
#
# Static dielectric constant tensor:
#      x y z
#    x 4.157610 0.415400 -0.383650 
#    y 0.415400 3.685250 -0.200680 
#    z -0.383650 -0.200680 4.362120 
# 
# 
# High freq. dielectric constant tensor:
#      x y z
#    x 1.762090 0.014840 -0.012710 
#    y 0.014840 1.762020 -0.001770 
#    z -0.012710 -0.001770 1.779470 
# 
# From -- ./inp_files/296720.got.cif
#   From: 2010.06.25/outbox.cif.g09.slc.cpg/sg2_149_cif.got.tgz:296720.got - 2010.06.27 13:26:56.
