data_PCOD8018731
_publ_section_title
;
Structure prediction by ZEFSAII (Michael W. Deem and Ramdas Pophale) SiO2 
 PCOD8018731
Probable space group: P -1
;
_chemical_formula_sum "Si O2"
_cell_formula_units_Z 16
_cell_length_a 24.957736
_cell_length_b 8.483642
_cell_length_c 5.219960
_cell_angle_alpha 87.593260
_cell_angle_beta 120.673151
_cell_angle_gamma 53.401565
_cell_volume 660.364529
_symmetry_space_group_name_H-M "P -1"
_symmetry_group_IT_number 2
_symmetry_cell_setting 'triclinic'
loop_
_space_group_symop_operation_xyz
x,y,z
-x,-y,-z
loop_
_atom_site_type_symbol
_atom_site_label
_atom_site_fract_x
_atom_site_fract_y
_atom_site_fract_z
Si Si1 0.082741 0.247718 0.806676
Si Si2 0.743103 0.585218 0.488224
Si Si3 0.242737 0.086589 0.445428
Si Si4 0.404163 0.796845 0.517904
Si Si5 0.911143 0.077738 0.877819
Si Si6 0.336433 0.407400 0.222649
Si Si7 0.505250 0.284238 0.750488
Si Si8 0.784479 0.106749 0.224071
O O1 0.157495 0.119791 0.780590
O O2 0.000000 0.500000 0.500000
O O3 0.135769 0.242943 0.160508
O O4 0.058412 0.110685 0.827788
O O5 0.751141 0.753218 0.424700
O O6 0.690140 0.671378 0.622367
O O7 0.842004 0.333348 0.802496
O O8 0.687207 0.602995 0.123897
O O9 0.278041 0.883145 0.735774
O O10 0.299257 0.966955 0.325093
O O11 0.450615 0.544628 0.615038
O O12 0.418083 0.859009 0.275217
O O13 0.446664 0.824581 0.850819
O O14 0.857152 0.092277 0.521960
O O15 0.000000 0.000000 0.000000
O O16 0.441129 0.254668 0.525157
O O17 0.282014 0.668367 0.127839
#
# Coordination Sequence:
#
# PCOD8018731 Si02
#       8
#     2   2   2   2   2   2   2   2
#     4  11  25  42  69  99 132 182 229 289 340 402
#     4  11  26  44  68 100 136 194 220 280 354 407
#     4  11  27  43  66  99 144 173 233 286 344 412
#     4  10  23  39  67 107 131 181 223 290 341 398
#     4  10  24  43  64  95 134 178 231 280 339 413
#     4  11  23  46  69  99 138 182 233 277 342 414
#     4  10  22  40  70 102 135 174 236 281 338 409
#     4  10  24  42  68  95 134 182 228 282 341 401
#
# _framework density 24.229042
#
# number of rings (size 3 to 8) (size 9 to 14) (size 15 to 20)
#    0.000    1.500    1.250    1.500   15.750    2.500 
#    0.000    3.750    0.000    0.000    0.000    0.000 
#    0.000    0.000    0.000    0.000    0.000    0.000 
#
# Total GULP energy -198313.397932 kJ/mol
# GULP energy per Si atom -12394.587371 kJ/mol
# Density = 2.417390 g / cm^3
# Si number density = 24.229042 Si / 1000 Ang^3
#
#
#
# Elastic Constant Matrix: (Units=GPa)
#
#
# Indices 1 2 3 4 5 6 
#
# 1 164.7865 42.4304 53.7959 4.3480 18.7654 -0.5426
# 2 42.4304 63.1108 25.2606 2.6658 3.8323 3.6339
# 3 53.7959 25.2606 74.8252 -4.1430 4.6165 0.4500
# 4 4.3480 2.6658 -4.1430 31.5448 -10.1070 -6.7784
# 5 18.7654 3.8323 4.6165 -10.1070 36.1006 -0.4511
# 6 -0.5426 3.6339 0.4500 -6.7784 -0.4511 37.3336
#
#
#
# Elastic Compliance Matrix: (Units=1/GPa)
#
#
# Indices 1 2 3 4 5 6 
#
# 1 0.009413 -0.003745 -0.005390 -0.003213 -0.004706 -0.000074
# 2 -0.003745 0.020335 -0.004268 -0.002402 -0.000369 -0.002423
# 3 -0.005390 -0.004268 0.018791 0.004450 0.002110 0.000944
# 4 -0.003213 -0.002402 0.004450 0.038397 0.012196 0.007252
# 5 -0.004706 -0.000369 0.002110 0.012196 0.033363 0.002560
# 6 -0.000074 -0.002423 0.000944 0.007252 0.002560 0.028357
#
#
# Mechanical properties :
#
#
# Convention : Reuss Voigt Hill
#
# Bulk Modulus (GPa) = 46.01463 60.63292 53.32377
# Shear Modulus (GPa) = 27.36636 33.07818 30.22227
#
# Velocity S-wave (km/s) = 3.36443 3.69891 3.53563
# Velocity P-wave (km/s) = 5.84168 6.58193 6.22282
#
# Compressibility (1/GPa) = 0.02173222
#
# Stress axis : x y z
#
# Youngs Moduli (GPa) = 106.23656 49.17696 53.21663
#
# Poissons Ratio (x) = 0.18418 0.28685
# Poissons Ratio (y) = 0.39789 0.22712
# Poissons Ratio (z) = 0.57263 0.20988
#
# Static dielectric constant tensor:
#      x y z
#    x 4.595500 0.028930 0.082900 
#    y 0.028930 4.343930 0.102540 
#    z 0.082900 0.102540 4.478760 
# 
# 
# High freq. dielectric constant tensor:
#      x y z
#    x 1.966340 0.001520 0.006240 
#    y 0.001520 1.956400 0.004380 
#    z 0.006240 0.004380 1.965970 
# 
# From -- ./inp_files/122918.got.cif
#   From: 2010.06.25/outbox.cif.g09.slc.cpg/sg2_62_cif.got.tgz:122918.got - 2010.06.27 13:26:56.
