data_PCOD8018447
_publ_section_title
;
Structure prediction by ZEFSAII (Michael W. Deem and Ramdas Pophale) SiO2 
 PCOD8018447
Probable space group: P -1
;
_chemical_formula_sum "Si O2"
_cell_formula_units_Z 16
_cell_length_a 9.356132
_cell_length_b 9.021247
_cell_length_c 27.060001
_cell_angle_alpha 39.331798
_cell_angle_beta 39.160413
_cell_angle_gamma 66.356206
_cell_volume 793.549599
_symmetry_space_group_name_H-M "P -1"
_symmetry_group_IT_number 2
_symmetry_cell_setting 'triclinic'
loop_
_space_group_symop_operation_xyz
x,y,z
-x,-y,-z
loop_
_atom_site_type_symbol
_atom_site_label
_atom_site_fract_x
_atom_site_fract_y
_atom_site_fract_z
Si Si1 0.500516 0.590347 0.867532
Si Si2 0.692972 0.567550 0.574148
Si Si3 0.012726 0.054529 0.289625
Si Si4 0.154569 0.592055 0.234494
Si Si5 0.069156 0.053701 0.161037
Si Si6 0.974717 0.244569 0.465254
Si Si7 0.719643 0.288501 0.351699
Si Si8 0.522559 0.943569 0.297862
O O1 0.707227 0.792918 0.798968
O O2 0.609170 0.435297 0.844532
O O3 0.412784 0.760526 0.812967
O O4 0.248670 0.369890 0.021198
O O5 0.420014 0.545143 0.671163
O O6 0.622411 0.271159 0.651929
O O7 0.890478 0.662607 0.541792
O O8 0.823748 0.776330 0.440084
O O9 0.892266 0.256865 0.270531
O O10 0.043163 0.990657 0.242144
O O11 0.208868 0.897699 0.139885
O O12 0.108203 0.495604 0.328323
O O13 0.890759 0.410187 0.322944
O O14 0.784870 0.945214 0.242095
O O15 0.668721 0.143458 0.580954
O O16 0.000000 0.000000 0.500000
O O17 0.500000 0.000000 0.500000
#
# Coordination Sequence:
#
# PCOD8018447 Si02
#       8
#     2   2   2   2   2   2   2   2
#     4  11  24  47  63  88 132 176 207 253 315 373
#     4  11  22  40  63  96 132 159 202 268 327 374
#     4  10  22  40  66  94 123 166 211 258 318 366
#     4  11  23  42  65  97 122 165 213 259 315 374
#     4  12  26  41  67  93 127 168 222 256 293 384
#     4  12  23  39  67  96 129 162 205 265 325 379
#     4   9  19  37  61  91 130 155 193 262 326 368
#     4  12  25  41  64  95 132 164 208 262 325 367
#
# _framework density 20.162572000000001
#
# number of rings (size 3 to 8) (size 9 to 14) (size 15 to 20)
#    0.000    1.000    3.750    3.750    7.000    1.000 
#    0.000    0.000    0.000    1.500    0.000    0.000 
#    0.000    0.000    0.000    0.000    0.000    0.000 
#
# Total GULP energy -198409.166091 kJ/mol
# GULP energy per Si atom -12400.572881 kJ/mol
# Density = 2.011668 g / cm^3
# Si number density = 20.162572 Si / 1000 Ang^3
#
#
#
# Elastic Constant Matrix: (Units=GPa)
#
#
# Indices 1 2 3 4 5 6 
#
# 1 75.3621 36.3730 27.0967 4.0302 5.8520 -1.4422
# 2 36.3730 114.2758 21.3484 -7.9174 -3.4208 -7.7110
# 3 27.0967 21.3484 78.1460 -3.6401 4.2080 1.1140
# 4 4.0302 -7.9174 -3.6401 23.1690 -2.8441 -1.4042
# 5 5.8520 -3.4208 4.2080 -2.8441 19.6326 0.6790
# 6 -1.4422 -7.7110 1.1140 -1.4042 0.6790 33.4124
#
#
#
# Elastic Compliance Matrix: (Units=1/GPa)
#
#
# Indices 1 2 3 4 5 6 
#
# 1 0.018633 -0.005721 -0.004858 -0.006785 -0.006475 -0.000508
# 2 -0.005721 0.011486 -0.001187 0.005462 0.004663 0.002578
# 3 -0.004858 -0.001187 0.015022 0.002554 -0.001579 -0.000845
# 4 -0.006785 0.005462 0.002554 0.047912 0.009274 0.002708
# 5 -0.006475 0.004663 -0.001579 0.009274 0.055356 0.000114
# 6 -0.000508 0.002578 -0.000845 0.002708 0.000114 0.030642
#
#
# Mechanical properties :
#
#
# Convention : Reuss Voigt Hill
#
# Bulk Modulus (GPa) = 46.28172 48.60223 47.44198
# Shear Modulus (GPa) = 23.83377 27.44053 25.63715
#
# Velocity S-wave (km/s) = 3.44187 3.69313 3.56971
# Velocity P-wave (km/s) = 6.22892 6.50716 6.36956
#
# Compressibility (1/GPa) = 0.02160680
#
# Stress axis : x y z
#
# Youngs Moduli (GPa) = 53.66695 87.06509 66.57118
#
# Poissons Ratio (x) = 0.49814 0.32341
# Poissons Ratio (y) = 0.30705 0.07904
# Poissons Ratio (z) = 0.26072 0.10337
#
# Static dielectric constant tensor:
#      x y z
#    x 3.620360 -0.303700 -0.101680 
#    y -0.303700 4.215030 0.088120 
#    z -0.101680 0.088120 3.483170 
# 
# 
# High freq. dielectric constant tensor:
#      x y z
#    x 1.781730 -0.008640 -0.011720 
#    y -0.008640 1.808970 -0.001980 
#    z -0.011720 -0.001980 1.772440 
# 
# From -- ./inp_files/184920.got.cif
#   From: 2010.06.25/outbox.cif.g09.slc.cpg/sg2_93_cif.got.tgz:184920.got - 2010.06.27 13:26:56.
