data_PCOD8018370
_publ_section_title
;
Structure prediction by ZEFSAII (Michael W. Deem and Ramdas Pophale) SiO2 
 PCOD8018370
Probable space group: P -1
;
_chemical_formula_sum "Si O2"
_cell_formula_units_Z 10
_cell_length_a 5.076256
_cell_length_b 8.548047
_cell_length_c 15.499816
_cell_angle_alpha 135.860460
_cell_angle_beta 98.498404
_cell_angle_gamma 63.102310
_cell_volume 400.412366
_symmetry_space_group_name_H-M "P -1"
_symmetry_group_IT_number 2
_symmetry_cell_setting 'triclinic'
loop_
_space_group_symop_operation_xyz
x,y,z
-x,-y,-z
loop_
_atom_site_type_symbol
_atom_site_label
_atom_site_fract_x
_atom_site_fract_y
_atom_site_fract_z
Si Si1 0.114824 0.641544 0.786288
Si Si2 0.866771 0.293060 0.870102
Si Si3 0.352978 0.817545 0.018371
Si Si4 0.618187 0.842911 0.284844
Si Si5 0.319982 0.422382 0.526776
O O1 0.296093 0.752867 0.893619
O O2 0.143382 0.383767 0.728975
O O3 0.265778 0.578311 0.674289
O O4 0.752410 0.875510 0.858111
O O5 0.707449 0.610691 0.979975
O O6 0.664866 0.197931 0.769134
O O7 0.207545 0.156205 0.793613
O O8 0.872417 0.225049 0.943906
O O9 0.501539 0.115608 0.434807
O O10 0.500000 0.500000 0.500000
O O11 0.000000 0.500000 0.500000
#
# Coordination Sequence:
#
# PCOD8018370 Si02
#       5
#     2   2   2   2   2
#     4  10  22  40  65  95 128 164 208 259 311 367
#     4  10  22  41  67  94 127 166 205 252 310 373
#     4   9  20  40  64  95 130 165 205 253 310 373
#     4  11  23  42  66  94 126 163 209 258 309 369
#     4  12  26  45  67  90 124 167 213 260 311 370
#
# _framework density 24.974253999999998
#
# number of rings (size 3 to 8) (size 9 to 14) (size 15 to 20)
#    0.000    1.600    0.000    4.200    0.000   11.200 
#    0.000   15.000    0.000    0.000    0.000    0.000 
#    0.000    0.000    0.000    0.000    0.000    0.000 
#
# Total GULP energy -123977.766391 kJ/mol
# GULP energy per Si atom -12397.776639 kJ/mol
# Density = 2.491741 g / cm^3
# Si number density = 24.974254 Si / 1000 Ang^3
#
#
#
# Elastic Constant Matrix: (Units=GPa)
#
#
# Indices 1 2 3 4 5 6 
#
# 1 71.9799 9.4041 21.8987 0.2396 -6.4673 15.5553
# 2 9.4041 139.8707 67.9797 18.9928 6.0520 5.4800
# 3 21.8987 67.9797 191.9716 7.3711 -1.7229 6.1503
# 4 0.2396 18.9928 7.3711 70.4137 5.1819 -4.4589
# 5 -6.4673 6.0520 -1.7229 5.1819 26.0103 3.6459
# 6 15.5553 5.4800 6.1503 -4.4589 3.6459 21.0892
#
#
#
# Elastic Compliance Matrix: (Units=1/GPa)
#
#
# Indices 1 2 3 4 5 6 
#
# 1 0.018037 -0.000050 -0.001473 -0.001288 0.006658 -0.014285
# 2 -0.000050 0.009075 -0.003092 -0.002099 -0.001691 -0.001571
# 3 -0.001473 -0.003092 0.006479 0.000096 0.000779 -0.000114
# 4 -0.001288 -0.002099 0.000096 0.015368 -0.003637 0.005346
# 5 0.006658 -0.001691 0.000779 -0.003637 0.043082 -0.012916
# 6 -0.014285 -0.001571 -0.000114 0.005346 -0.012916 0.061759
#
#
# Mechanical properties :
#
#
# Convention : Reuss Voigt Hill
#
# Bulk Modulus (GPa) = 41.04992 66.93191 53.99092
# Shear Modulus (GPa) = 29.21391 43.80526 36.50958
#
# Velocity S-wave (km/s) = 3.42389 4.19264 3.82761
# Velocity P-wave (km/s) = 5.66597 7.09198 6.41870
#
# Compressibility (1/GPa) = 0.02436058
#
# Stress axis : x y z
#
# Youngs Moduli (GPa) = 55.44177 110.18710 154.34323
#
# Poissons Ratio (x) = 0.00555 0.22732
# Poissons Ratio (y) = 0.00279 0.47727
# Poissons Ratio (z) = 0.08166 0.34073
#
# Static dielectric constant tensor:
#      x y z
#    x 3.918370 0.003760 -0.060790 
#    y 0.003760 4.995070 0.325770 
#    z -0.060790 0.325770 4.944530 
# 
# 
# High freq. dielectric constant tensor:
#      x y z
#    x 1.960760 0.002180 -0.007820 
#    y 0.002180 2.012240 0.009940 
#    z -0.007820 0.009940 2.012570 
# 
# From -- ./inp_files/17143.got.cif
#   From: 2010.06.25/outbox.cif.g09.slc.cpg/sg2_9_cif.got.tgz:17143.got - 2010.06.27 13:26:56.
