data_PCOD8018778
_publ_section_title
;
Structure prediction by ZEFSAII (Michael W. Deem and Ramdas Pophale) SiO2 
 PCOD8018778
Probable space group: P -1
;
_chemical_formula_sum "Si O2"
_cell_formula_units_Z 14
_cell_length_a 8.783530
_cell_length_b 9.370203
_cell_length_c 11.824539
_cell_angle_alpha 51.081301
_cell_angle_beta 94.674477
_cell_angle_gamma 59.918192
_cell_volume 529.604987
_symmetry_space_group_name_H-M "P -1"
_symmetry_group_IT_number 2
_symmetry_cell_setting 'triclinic'
loop_
_space_group_symop_operation_xyz
x,y,z
-x,-y,-z
loop_
_atom_site_type_symbol
_atom_site_label
_atom_site_fract_x
_atom_site_fract_y
_atom_site_fract_z
Si Si1 0.537054 0.627055 0.528518
Si Si2 0.088164 0.008949 0.759250
Si Si3 0.915028 0.922862 0.618852
Si Si4 0.829776 0.628587 0.133177
Si Si5 0.791762 0.578798 0.404178
Si Si6 0.454089 0.322066 0.097700
Si Si7 0.847669 0.333852 0.895259
O O1 0.500000 0.500000 0.500000
O O2 0.586932 0.766874 0.384482
O O3 0.748404 0.402928 0.729634
O O4 0.339293 0.838910 0.493518
O O5 0.291405 0.963657 0.752425
O O6 0.067493 0.825211 0.787667
O O7 0.110964 0.913979 0.937343
O O8 0.865395 0.299809 0.561892
O O9 0.957161 0.684266 0.693001
O O10 0.000000 0.000000 0.500000
O O11 0.719105 0.708746 0.211274
O O12 0.921546 0.752753 0.050834
O O13 0.659763 0.694775 0.000787
O O14 0.000000 0.500000 0.500000
O O15 0.326402 0.405152 0.166313
O O16 0.500000 0.500000 0.000000
#
# Coordination Sequence:
#
# PCOD8018778 Si02
#       7
#     2   2   2   2   2   2   2
#     4  12  26  45  73 103 145 190 236 283 358 423
#     4  11  24  43  71 100 141 183 235 283 358 412
#     4  12  23  42  76 107 135 190 236 291 346 418
#     4  12  24  46  74 103 147 178 241 294 345 420
#     4  12  27  51  67 104 146 190 233 292 349 430
#     4  10  22  40  71 108 137 182 231 296 349 406
#     4  11  25  43  70 108 142 180 235 303 348 412
#
# _framework density 26.434795000000001
#
# number of rings (size 3 to 8) (size 9 to 14) (size 15 to 20)
#    0.000    0.571    7.143    1.286    6.000    2.286 
#    0.000    0.714    0.000    0.000    0.000    0.000 
#    0.000    0.000    0.000    0.000    0.000    0.000 
#
# Total GULP energy -173459.750305 kJ/mol
# GULP energy per Si atom -12389.982165 kJ/mol
# Density = 2.637463 g / cm^3
# Si number density = 26.434795 Si / 1000 Ang^3
#
#
#
# Elastic Constant Matrix: (Units=GPa)
#
#
# Indices 1 2 3 4 5 6 
#
# 1 148.6869 26.7849 30.7670 15.2924 9.5928 -25.6024
# 2 26.7849 59.5741 13.5672 16.8540 -5.9125 -30.1432
# 3 30.7670 13.5672 75.8106 27.1552 6.2434 -7.8168
# 4 15.2924 16.8540 27.1552 44.5742 -1.8576 2.6301
# 5 9.5928 -5.9125 6.2434 -1.8576 52.1470 14.9474
# 6 -25.6024 -30.1432 -7.8168 2.6301 14.9474 52.4361
#
#
#
# Elastic Compliance Matrix: (Units=1/GPa)
#
#
# Indices 1 2 3 4 5 6 
#
# 1 0.008353 -0.001108 -0.002006 -0.001568 -0.002615 0.003967
# 2 -0.001108 0.029398 0.001904 -0.013051 -0.002302 0.017954
# 3 -0.002006 0.001904 0.018611 -0.011770 -0.003333 0.004430
# 4 -0.001568 -0.013051 -0.011770 0.036088 0.005331 -0.013352
# 5 -0.002615 -0.002302 -0.003333 0.005331 0.022814 -0.009868
# 6 0.003967 0.017954 0.004430 -0.013352 -0.009868 0.035471
#
#
# Mechanical properties :
#
#
# Convention : Reuss Voigt Hill
#
# Bulk Modulus (GPa) = 18.53781 47.36777 32.95279
# Shear Modulus (GPa) = 29.21656 44.02830 36.62243
#
# Velocity S-wave (km/s) = 3.32811 4.08553 3.72612
# Velocity P-wave (km/s) = 4.66865 6.34138 5.56818
#
# Compressibility (1/GPa) = 0.05394380
#
# Stress axis : x y z
#
# Youngs Moduli (GPa) = 119.71526 34.01584 53.73060
#
# Poissons Ratio (x) = 0.03768 0.10777
# Poissons Ratio (y) = 0.13260 -0.10230
# Poissons Ratio (z) = 0.24012 -0.06477
#
# Static dielectric constant tensor:
#      x y z
#    x 4.833970 -0.122170 0.268150 
#    y -0.122170 7.677410 -1.589430 
#    z 0.268150 -1.589430 6.506400 
# 
# 
# High freq. dielectric constant tensor:
#      x y z
#    x 2.074430 -0.011620 0.006920 
#    y -0.011620 2.076060 0.008390 
#    z 0.006920 0.008390 2.048170 
# 
# From -- ./inp_files/201504.got.cif
#   From: 2010.06.25/outbox.cif.g09.slc.cpg/sg2_101_cif.got.tgz:201504.got - 2010.06.27 13:26:56.
