data_PCOD8018223
_publ_section_title
;
Structure prediction by ZEFSAII (Michael W. Deem and Ramdas Pophale) SiO2 
 PCOD8018223
Probable space group: P -1
;
_chemical_formula_sum "Si O2"
_cell_formula_units_Z 16
_cell_length_a 8.119073
_cell_length_b 16.061626
_cell_length_c 23.109466
_cell_angle_alpha 28.925735
_cell_angle_beta 35.581400
_cell_angle_gamma 53.496974
_cell_volume 771.403852
_symmetry_space_group_name_H-M "P -1"
_symmetry_group_IT_number 2
_symmetry_cell_setting 'triclinic'
loop_
_space_group_symop_operation_xyz
x,y,z
-x,-y,-z
loop_
_atom_site_type_symbol
_atom_site_label
_atom_site_fract_x
_atom_site_fract_y
_atom_site_fract_z
Si Si1 0.897965 0.563163 0.682053
Si Si2 0.180743 0.409289 0.963575
Si Si3 0.166490 0.882393 0.497939
Si Si4 0.783498 0.008868 0.185752
Si Si5 0.012049 0.979020 0.257246
Si Si6 0.399083 0.649400 0.645058
Si Si7 0.391191 0.797480 0.317202
Si Si8 0.243039 0.361051 0.773243
O O1 0.530069 0.454495 0.854786
O O2 0.974834 0.757369 0.575706
O O3 0.063659 0.627140 0.533154
O O4 0.031501 0.421327 0.755505
O O5 0.201569 0.500900 0.839537
O O6 0.000000 0.500000 0.000000
O O7 0.006996 0.181513 0.150039
O O8 0.506630 0.026589 0.290900
O O9 0.175366 0.744274 0.629924
O O10 0.000000 0.000000 0.500000
O O11 0.970051 0.940720 0.222397
O O12 0.627553 0.867351 0.262265
O O13 0.016355 0.208361 0.974853
O O14 0.722868 0.814899 0.473112
O O15 0.321144 0.963033 0.204334
O O16 0.469336 0.539271 0.638025
O O17 0.550706 0.718885 0.272288
#
# Coordination Sequence:
#
# PCOD8018223 Si02
#       8
#     2   2   2   2   2   2   2   2
#     4  10  23  41  62  98 135 168 232 273 328 415
#     4  12  26  43  68  98 133 179 222 281 345 393
#     4   9  21  39  68  91 127 181 218 275 345 386
#     4  10  22  40  64 100 138 165 233 276 319 412
#     4  11  24  45  67  99 140 173 230 281 328 409
#     4  10  23  44  63  97 138 169 224 283 324 415
#     4  11  23  43  70  98 137 185 219 278 347 391
#     4  11  22  43  69  96 136 178 222 283 336 396
#
# _framework density 20.741405
#
# number of rings (size 3 to 8) (size 9 to 14) (size 15 to 20)
#    0.000    1.500    2.500    2.250    3.500    4.500 
#    2.250    2.500    0.000    0.000    0.000    0.000 
#    0.000    0.000    0.000    0.000    0.000    0.000 
#
# Total GULP energy -198280.055167 kJ/mol
# GULP energy per Si atom -12392.503448 kJ/mol
# Density = 2.069420 g / cm^3
# Si number density = 20.741405 Si / 1000 Ang^3
#
#
#
# Elastic Constant Matrix: (Units=GPa)
#
#
# Indices 1 2 3 4 5 6 
#
# 1 106.0912 45.3810 17.0443 17.9456 0.5894 -0.8192
# 2 45.3810 134.0990 17.0756 21.2218 -4.0027 -17.7938
# 3 17.0443 17.0756 68.1992 26.9845 -16.3124 -16.3539
# 4 17.9456 21.2218 26.9845 5.3964 16.9116 3.5667
# 5 0.5894 -4.0027 -16.3124 16.9116 26.3245 -7.3616
# 6 -0.8192 -17.7938 -16.3539 3.5667 -7.3616 13.6440
#
#
#
# Elastic Compliance Matrix: (Units=1/GPa)
#
#
# Indices 1 2 3 4 5 6 
#
# 1 0.012255 -0.004113 -0.002255 -0.004451 -0.001368 -0.006905
# 2 -0.004113 0.008715 -0.003511 0.005883 -0.003574 0.003445
# 3 -0.002255 -0.003511 0.006724 0.015851 -0.007918 -0.005071
# 4 -0.004451 0.005883 0.015851 -0.002575 0.023604 0.039813
# 5 -0.001368 -0.003574 -0.007918 0.023604 0.013776 -0.012972
# 6 -0.006905 0.003445 -0.005071 0.039813 -0.012972 0.053885
#
#
# Mechanical properties :
#
#
# Convention : Reuss Voigt Hill
#
# Bulk Modulus (GPa) = 125.99542 51.93237 88.96389
# Shear Modulus (GPa) = 43.40964 24.33222 33.87093
#
# Velocity S-wave (km/s) = 4.57978 3.42880 4.04544
# Velocity P-wave (km/s) = 9.42569 6.38498 8.05020
#
# Compressibility (1/GPa) = 0.00793680
#
# Stress axis : x y z
#
# Youngs Moduli (GPa) = 81.60245 114.73898 148.73012
#
# Poissons Ratio (x) = 0.47188 0.33536
# Poissons Ratio (y) = 0.33560 0.52217
# Poissons Ratio (z) = 0.18400 0.40283
#
# Static dielectric constant tensor:
#      x y z
#    x 4.009340 0.046790 -0.018430 
#    y 0.046790 3.531310 -0.087470 
#    z -0.018430 -0.087470 3.792620 
# 
# 
# High freq. dielectric constant tensor:
#      x y z
#    x 1.826450 0.000270 0.007260 
#    y 0.000270 1.793810 -0.006550 
#    z 0.007260 -0.006550 1.821200 
# 
# From -- ./inp_files/270806.got.cif
#   From: 2010.06.25/outbox.cif.g09.slc.cpg/sg2_136_cif.got.tgz:270806.got - 2010.06.27 13:26:56.
