data_PCOD8018316
_publ_section_title
;
Structure prediction by ZEFSAII (Michael W. Deem and Ramdas Pophale) SiO2 
 PCOD8018316
Probable space group: P -1
;
_chemical_formula_sum "Si O2"
_cell_formula_units_Z 16
_cell_length_a 9.429036
_cell_length_b 11.551081
_cell_length_c 14.453986
_cell_angle_alpha 82.110044
_cell_angle_beta 151.999979
_cell_angle_gamma 90.004383
_cell_volume 706.806103
_symmetry_space_group_name_H-M "P -1"
_symmetry_group_IT_number 2
_symmetry_cell_setting 'triclinic'
loop_
_space_group_symop_operation_xyz
x,y,z
-x,-y,-z
loop_
_atom_site_type_symbol
_atom_site_label
_atom_site_fract_x
_atom_site_fract_y
_atom_site_fract_z
Si Si1 0.413980 0.071041 0.723590
Si Si2 0.817789 0.262886 0.365583
Si Si3 0.345521 0.951707 0.329900
Si Si4 0.541526 0.848111 0.954027
Si Si5 0.127488 0.694415 0.398447
Si Si6 0.175600 0.850356 0.930596
Si Si7 0.705529 0.704374 0.624711
Si Si8 0.856290 0.470028 0.241418
O O1 0.576700 0.003965 0.731909
O O2 0.058043 0.136732 0.485529
O O3 0.448206 0.979421 0.839606
O O4 0.544742 0.183109 0.828833
O O5 0.497005 0.253050 0.132154
O O6 0.796699 0.262433 0.462663
O O7 0.906580 0.382574 0.368460
O O8 0.472632 0.806153 0.415897
O O9 0.500000 0.000000 0.500000
O O10 0.982130 0.011524 0.136030
O O11 0.298256 0.848673 0.897414
O O12 0.900521 0.808480 0.201398
O O13 0.473108 0.649978 0.558688
O O14 0.947879 0.590184 0.311721
O O15 0.938696 0.764697 0.811901
O O16 0.914649 0.593627 0.700892
O O17 0.500000 0.500000 0.000000
#
# Coordination Sequence:
#
# PCOD8018316 Si02
#       8
#     2   2   2   2   2   2   2   2
#     4  12  24  41  72 108 146 187 237 286 355 427
#     4  12  25  45  74 105 139 189 236 292 359 418
#     4  10  22  40  65 101 148 187 225 287 353 420
#     4  12  25  46  72 111 146 184 240 291 343 432
#     4  12  27  46  75 104 142 187 236 297 351 419
#     4  11  22  42  69 104 149 188 227 285 352 424
#     4  11  24  45  70 103 142 184 230 293 359 409
#     4  12  24  52  77  97 137 187 244 297 353 408
#
# _framework density 22.637042999999998
#
# number of rings (size 3 to 8) (size 9 to 14) (size 15 to 20)
#    0.000    0.500    5.000    3.375    5.250    0.000 
#    0.000    0.625    0.000    0.000    0.000    0.000 
#    0.000    0.000    0.000    0.000    0.000    0.000 
#
# Total GULP energy -198286.387008 kJ/mol
# GULP energy per Si atom -12392.899188 kJ/mol
# Density = 2.258552 g / cm^3
# Si number density = 22.637043 Si / 1000 Ang^3
#
#
#
# Elastic Constant Matrix: (Units=GPa)
#
#
# Indices 1 2 3 4 5 6 
#
# 1 107.5212 24.6416 67.5225 8.4937 -7.1258 -14.2163
# 2 24.6416 64.3410 20.3026 0.5541 -5.7880 -4.0301
# 3 67.5225 20.3026 89.3613 6.7644 -0.8246 -5.5468
# 4 8.4937 0.5541 6.7644 44.3779 -5.5506 0.6201
# 5 -7.1258 -5.7880 -0.8246 -5.5506 42.6451 0.9829
# 6 -14.2163 -4.0301 -5.5468 0.6201 0.9829 38.8551
#
#
#
# Elastic Compliance Matrix: (Units=1/GPa)
#
#
# Indices 1 2 3 4 5 6 
#
# 1 0.019332 -0.002591 -0.013594 -0.001372 0.002326 0.004827
# 2 -0.002591 0.017369 -0.002001 0.000825 0.001981 0.000505
# 3 -0.013594 -0.002001 0.021845 -0.000950 -0.002198 -0.001992
# 4 -0.001372 0.000825 -0.000950 0.023310 0.002921 -0.000998
# 5 0.002326 0.001981 -0.002198 0.002921 0.024443 0.000078
# 6 0.004827 0.000505 -0.001992 -0.000998 0.000078 0.027285
#
#
# Mechanical properties :
#
#
# Convention : Reuss Voigt Hill
#
# Bulk Modulus (GPa) = 45.09887 54.01743 49.55815
# Shear Modulus (GPa) = 28.19349 35.09275 31.64312
#
# Velocity S-wave (km/s) = 3.53293 3.94157 3.74284
# Velocity P-wave (km/s) = 6.05046 6.68049 6.37326
#
# Compressibility (1/GPa) = 0.02217351
#
# Stress axis : x y z
#
# Youngs Moduli (GPa) = 51.72829 57.57486 45.77746
#
# Poissons Ratio (x) = 0.14917 0.62229
# Poissons Ratio (y) = 0.13402 0.09161
# Poissons Ratio (z) = 0.70318 0.11522
#
# Static dielectric constant tensor:
#      x y z
#    x 4.064160 -0.070130 0.330230 
#    y -0.070130 4.012590 -0.063530 
#    z 0.330230 -0.063530 5.428280 
# 
# 
# High freq. dielectric constant tensor:
#      x y z
#    x 1.892310 -0.008380 0.003610 
#    y -0.008380 1.879800 0.012090 
#    z 0.003610 0.012090 1.909790 
# 
# From -- ./inp_files/500376.got.cif
#   From: 2010.06.25/outbox.cif.g09.slc.cpg/sg2_251_cif.got.tgz:500376.got - 2010.06.27 13:26:56.
