data_PCOD8018598
_publ_section_title
;
Structure prediction by ZEFSAII (Michael W. Deem and Ramdas Pophale) SiO2 
 PCOD8018598
Probable space group: P -1
;
_chemical_formula_sum "Si O2"
_cell_formula_units_Z 14
_cell_length_a 10.512978
_cell_length_b 18.805847
_cell_length_c 6.575130
_cell_angle_alpha 96.496307
_cell_angle_beta 64.358613
_cell_angle_gamma 144.846936
_cell_volume 597.832247
_symmetry_space_group_name_H-M "P -1"
_symmetry_group_IT_number 2
_symmetry_cell_setting 'triclinic'
loop_
_space_group_symop_operation_xyz
x,y,z
-x,-y,-z
loop_
_atom_site_type_symbol
_atom_site_label
_atom_site_fract_x
_atom_site_fract_y
_atom_site_fract_z
Si Si1 0.127258 0.210406 0.390016
Si Si2 0.299452 0.852026 0.855486
Si Si3 0.720705 0.956186 0.843059
Si Si4 0.562997 0.298934 0.197319
Si Si5 0.914110 0.504299 0.360973
Si Si6 0.680066 0.986669 0.295449
Si Si7 0.194224 0.383788 0.605837
O O1 0.444006 0.321195 0.188530
O O2 0.104315 0.285117 0.470288
O O3 0.954356 0.113512 0.280728
O O4 0.014444 0.117942 0.634676
O O5 0.488855 0.913772 0.934583
O O6 0.347413 0.955117 0.804875
O O7 0.410458 0.856002 0.580740
O O8 0.987762 0.698263 0.086987
O O9 0.675282 0.864266 0.713609
O O10 0.707898 0.935896 0.090251
O O11 0.654682 0.352345 0.384130
O O12 0.823828 0.381629 0.927970
O O13 0.832389 0.551662 0.469000
O O14 0.000000 0.500000 0.500000
O O15 0.500000 0.500000 0.500000
#
# Coordination Sequence:
#
# PCOD8018598 Si02
#       7
#     2   2   2   2   2   2   2
#     4  11  25  42  70 109 140 177 238 297 357 421
#     4  10  22  40  68 104 138 181 233 291 358 419
#     4  11  22  42  71  99 144 183 229 299 356 417
#     4  11  25  47  68 101 144 187 233 290 359 416
#     4  11  27  49  73 100 141 196 241 285 349 432
#     4  10  23  38  69 109 138 180 233 295 357 423
#     4  12  24  48  75 100 145 189 234 300 353 412
#
# _framework density 23.417942
#
# number of rings (size 3 to 8) (size 9 to 14) (size 15 to 20)
#    0.000    1.143    4.286    0.857    4.000    6.286 
#    0.000    1.429    0.000    0.000    0.000    0.000 
#    0.000    0.000    0.000    0.000    0.000    0.000 
#
# Total GULP energy -173522.105487 kJ/mol
# GULP energy per Si atom -12394.436106 kJ/mol
# Density = 2.336464 g / cm^3
# Si number density = 23.417942 Si / 1000 Ang^3
#
#
#
# Elastic Constant Matrix: (Units=GPa)
#
#
# Indices 1 2 3 4 5 6 
#
# 1 151.4906 52.9715 47.8963 18.5935 -8.9284 4.6847
# 2 52.9715 119.4359 49.4779 25.3213 -0.1811 1.7458
# 3 47.8963 49.4779 80.4450 20.7866 8.3301 11.7782
# 4 18.5935 25.3213 20.7866 40.7805 6.1112 -2.8697
# 5 -8.9284 -0.1811 8.3301 6.1112 35.7243 1.3490
# 6 4.6847 1.7458 11.7782 -2.8697 1.3490 34.8263
#
#
#
# Elastic Compliance Matrix: (Units=1/GPa)
#
#
# Indices 1 2 3 4 5 6 
#
# 1 0.008960 -0.001985 -0.004156 -0.001241 0.003408 0.000065
# 2 -0.001985 0.012498 -0.005797 -0.004050 0.001566 0.001207
# 3 -0.004156 -0.005797 0.021248 -0.005062 -0.004909 -0.006563
# 4 -0.001241 -0.004050 -0.005062 0.031223 -0.004674 0.004836
# 5 0.003408 0.001566 -0.004909 -0.004674 0.030813 -0.000455
# 6 0.000065 0.001207 -0.006563 0.004836 -0.000455 0.031280
#
#
# Mechanical properties :
#
#
# Convention : Reuss Voigt Hill
#
# Bulk Modulus (GPa) = 53.10735 72.45143 62.77939
# Shear Modulus (GPa) = 30.08842 35.66794 32.87818
#
# Velocity S-wave (km/s) = 3.58836 3.90693 3.75103
# Velocity P-wave (km/s) = 6.31631 7.16643 6.75476
#
# Compressibility (1/GPa) = 0.01882978
#
# Stress axis : x y z
#
# Youngs Moduli (GPa) = 111.60391 80.01171 47.06257
#
# Poissons Ratio (x) = 0.15884 0.19558
# Poissons Ratio (y) = 0.22155 0.27284
# Poissons Ratio (z) = 0.46381 0.46387
#
# Static dielectric constant tensor:
#      x y z
#    x 4.274730 0.016890 -0.189240 
#    y 0.016890 4.233720 0.090670 
#    z -0.189240 0.090670 4.391430 
# 
# 
# High freq. dielectric constant tensor:
#      x y z
#    x 1.931760 0.006850 -0.015980 
#    y 0.006850 1.920460 0.007880 
#    z -0.015980 0.007880 1.916850 
# 
# From -- ./inp_files/83328.got.cif
#   From: 2010.06.25/outbox.cif.g09.slc.cpg/sg2_42_cif.got.tgz:83328.got - 2010.06.27 13:26:56.
