data_PCOD8018675
_publ_section_title
;
Structure prediction by ZEFSAII (Michael W. Deem and Ramdas Pophale) SiO2 
 PCOD8018675
Probable space group: P -1
;
_chemical_formula_sum "Si O2"
_cell_formula_units_Z 16
_cell_length_a 11.623220
_cell_length_b 17.720140
_cell_length_c 5.163628
_cell_angle_alpha 80.379978
_cell_angle_beta 99.143725
_cell_angle_gamma 147.793242
_cell_volume 558.553079
_symmetry_space_group_name_H-M "P -1"
_symmetry_group_IT_number 2
_symmetry_cell_setting 'triclinic'
loop_
_space_group_symop_operation_xyz
x,y,z
-x,-y,-z
loop_
_atom_site_type_symbol
_atom_site_label
_atom_site_fract_x
_atom_site_fract_y
_atom_site_fract_z
Si Si1 0.008876 0.420491 0.428040
Si Si2 0.894642 0.844469 0.108853
Si Si3 0.561920 0.958185 0.406415
Si Si4 0.506744 0.676665 0.411823
Si Si5 0.008882 0.250763 0.472812
Si Si6 0.646203 0.617821 0.772887
Si Si7 0.734234 0.296312 0.890148
Si Si8 0.375752 0.154115 0.170211
O O1 0.258946 0.570454 0.342205
O O2 0.968099 0.309719 0.565752
O O3 0.912281 0.415900 0.651805
O O4 0.868069 0.354487 0.159106
O O5 0.692827 0.785307 0.185963
O O6 0.920581 0.777356 0.293822
O O7 0.815096 0.777369 0.834067
O O8 0.120461 0.015612 0.087651
O O9 0.400878 0.851938 0.171883
O O10 0.550375 0.885146 0.657458
O O11 0.500000 0.000000 0.500000
O O12 0.806358 0.107209 0.313805
O O13 0.499376 0.580476 0.526719
O O14 0.584079 0.759459 0.654222
O O15 0.209874 0.373288 0.281843
O O16 0.500000 0.500000 0.000000
O O17 0.537612 0.249384 0.915957
#
# Coordination Sequence:
#
# PCOD8018675 Si02
#       8
#     2   2   2   2   2   2   2   2
#     4  12  27  45  73 105 154 192 247 298 367 440
#     4  10  23  44  72 104 141 189 244 306 365 435
#     4  11  22  46  72 106 140 184 241 298 364 430
#     4  11  27  46  68 107 143 198 242 304 364 437
#     4  10  22  40  69 105 141 182 236 305 364 428
#     4  11  23  41  70 104 143 188 242 297 367 434
#     4  12  26  48  70 113 142 198 244 300 364 439
#     4  11  25  47  74 103 149 189 248 304 367 431
#
# _framework density 28.645441999999999
#
# number of rings (size 3 to 8) (size 9 to 14) (size 15 to 20)
#    0.000    1.000    2.500    2.625    5.250    6.500 
#    0.000    0.000    0.000    0.000    0.000    0.000 
#    0.000    0.000    0.000    0.000    0.000    0.000 
#
# Total GULP energy -198313.642897 kJ/mol
# GULP energy per Si atom -12394.602681 kJ/mol
# Density = 2.858024 g / cm^3
# Si number density = 28.645442 Si / 1000 Ang^3
#
#
#
# Elastic Constant Matrix: (Units=GPa)
#
#
# Indices 1 2 3 4 5 6 
#
# 1 203.4145 67.5234 62.5914 -8.4348 4.2092 36.2684
# 2 67.5234 204.5105 80.8334 -1.0174 5.6358 27.4456
# 3 62.5914 80.8334 124.2535 3.9396 -24.2098 30.9613
# 4 -8.4348 -1.0174 3.9396 64.0732 1.6806 -2.3930
# 5 4.2092 5.6358 -24.2098 1.6806 34.9669 8.0055
# 6 36.2684 27.4456 30.9613 -2.3930 8.0055 33.7725
#
#
#
# Elastic Compliance Matrix: (Units=1/GPa)
#
#
# Indices 1 2 3 4 5 6 
#
# 1 0.006617 -0.000786 -0.001982 0.000847 -0.001092 -0.004331
# 2 -0.000786 0.007452 -0.005988 0.000594 -0.005661 0.001661
# 3 -0.001982 -0.005988 0.021314 -0.002848 0.020107 -0.017513
# 4 0.000847 0.000594 -0.002848 0.016121 -0.003685 0.003234
# 5 -0.001092 -0.005661 0.020107 -0.003685 0.049379 -0.024627
# 6 -0.004331 0.001661 -0.017513 0.003234 -0.024627 0.055033
#
#
# Mechanical properties :
#
#
# Convention : Reuss Voigt Hill
#
# Bulk Modulus (GPa) = 55.95691 106.00831 80.98261
# Shear Modulus (GPa) = 27.87317 47.97787 37.92552
#
# Velocity S-wave (km/s) = 3.12274 4.09698 3.64258
# Velocity P-wave (km/s) = 5.70778 7.71153 6.78404
#
# Compressibility (1/GPa) = 0.01787090
#
# Stress axis : x y z
#
# Youngs Moduli (GPa) = 151.13048 134.19489 46.91769
#
# Poissons Ratio (x) = 0.10542 0.09301
# Poissons Ratio (y) = 0.11873 0.28094
# Poissons Ratio (z) = 0.29960 0.80354
#
# Static dielectric constant tensor:
#      x y z
#    x 6.338370 0.169290 0.000740 
#    y 0.169290 7.356710 0.079240 
#    z 0.000740 0.079240 5.246330 
# 
# 
# High freq. dielectric constant tensor:
#      x y z
#    x 2.227170 0.005060 0.010170 
#    y 0.005060 2.205400 -0.011330 
#    z 0.010170 -0.011330 2.150130 
# 
# From -- ./inp_files/83248.got.cif
#   From: 2010.06.25/outbox.cif.g09.slc.cpg/sg2_42_cif.got.tgz:83248.got - 2010.06.27 13:26:56.
