data_PCOD8018435
_publ_section_title
;
Structure prediction by ZEFSAII (Michael W. Deem and Ramdas Pophale) SiO2 
 PCOD8018435
Probable space group: P -1
;
_chemical_formula_sum "Si O2"
_cell_formula_units_Z 12
_cell_length_a 13.276917
_cell_length_b 5.168450
_cell_length_c 14.857743
_cell_angle_alpha 59.521913
_cell_angle_beta 42.407689
_cell_angle_gamma 54.189629
_cell_volume 552.311183
_symmetry_space_group_name_H-M "P -1"
_symmetry_group_IT_number 2
_symmetry_cell_setting 'triclinic'
loop_
_space_group_symop_operation_xyz
x,y,z
-x,-y,-z
loop_
_atom_site_type_symbol
_atom_site_label
_atom_site_fract_x
_atom_site_fract_y
_atom_site_fract_z
Si Si1 0.918868 0.339686 0.831242
Si Si2 0.042108 0.625239 0.541998
Si Si3 0.424774 0.306194 0.931999
Si Si4 0.411183 0.327843 0.342152
Si Si5 0.409210 0.339318 0.736684
Si Si6 0.937063 0.406453 0.148454
O O1 0.931599 0.561850 0.702242
O O2 0.026309 0.384488 0.834012
O O3 0.733791 0.441802 0.962569
O O4 0.981581 0.973014 0.820499
O O5 0.228279 0.447627 0.471475
O O6 0.000000 0.500000 0.500000
O O7 0.000000 0.000000 0.500000
O O8 0.556228 0.476480 0.800594
O O9 0.375438 0.218018 0.880165
O O10 0.500000 0.000000 0.000000
O O11 0.511774 0.389113 0.349307
O O12 0.466658 0.954187 0.348233
O O13 0.252965 0.492974 0.752161
O O14 0.000000 0.500000 0.000000
#
# Coordination Sequence:
#
# PCOD8018435 Si02
#       6
#     2   2   2   2   2   2
#     4  12  26  41  71 104 126 182 226 269 337 396
#     4  12  26  47  67  95 141 179 218 276 330 402
#     4  10  23  39  65  97 130 166 228 268 334 391
#     4  10  22  42  63  91 131 169 218 261 344 371
#     4  10  22  40  66  92 128 176 205 278 331 375
#     4  12  22  44  67 100 141 168 225 281 328 394
#
# _framework density 21.726883999999998
#
# number of rings (size 3 to 8) (size 9 to 14) (size 15 to 20)
#    1.000    0.000    1.667    5.500    2.333    0.667 
#    0.000    5.000    0.000    0.000    0.000    0.000 
#    0.000    0.000    0.000    0.000    0.000    0.000 
#
# Total GULP energy -148790.081389 kJ/mol
# GULP energy per Si atom -12399.173449 kJ/mol
# Density = 2.167743 g / cm^3
# Si number density = 21.726884 Si / 1000 Ang^3
#
#
#
# Elastic Constant Matrix: (Units=GPa)
#
#
# Indices 1 2 3 4 5 6 
#
# 1 69.3683 -7.8555 0.7521 4.0057 -0.6951 7.1639
# 2 -7.8555 112.9741 2.8911 12.5637 -1.1763 8.4043
# 3 0.7521 2.8911 60.2053 7.0641 -2.7561 8.3070
# 4 4.0057 12.5637 7.0641 40.6221 -7.3558 -5.7824
# 5 -0.6951 -1.1763 -2.7561 -7.3558 29.0231 3.6290
# 6 7.1639 8.4043 8.3070 -5.7824 3.6290 40.0926
#
#
#
# Elastic Compliance Matrix: (Units=1/GPa)
#
#
# Indices 1 2 3 4 5 6 
#
# 1 0.015102 0.001583 0.000531 -0.002523 0.000278 -0.003529
# 2 0.001583 0.009566 0.000334 -0.003598 -0.000096 -0.002867
# 3 0.000531 0.000334 0.017692 -0.003625 0.001347 -0.004475
# 4 -0.002523 -0.003598 -0.003625 0.028478 0.005977 0.005523
# 5 0.000278 -0.000096 0.001347 0.005977 0.036444 -0.002745
# 6 -0.003529 -0.002867 -0.004475 0.005523 -0.002745 0.028146
#
#
# Mechanical properties :
#
#
# Convention : Reuss Voigt Hill
#
# Bulk Modulus (GPa) = 21.16156 26.01365 23.58761
# Shear Modulus (GPa) = 34.18026 38.39822 36.28924
#
# Velocity S-wave (km/s) = 3.97063 4.20850 4.09130
# Velocity P-wave (km/s) = 5.54817 5.96778 5.76179
#
# Compressibility (1/GPa) = 0.04725548
#
# Stress axis : x y z
#
# Youngs Moduli (GPa) = 66.21535 104.54190 56.52361
#
# Poissons Ratio (x) = -0.16544 -0.03002
# Poissons Ratio (y) = -0.10479 -0.01890
# Poissons Ratio (z) = -0.03517 -0.03495
#
# Static dielectric constant tensor:
#      x y z
#    x 4.269750 -0.236320 0.048280 
#    y -0.236320 4.167610 -0.042530 
#    z 0.048280 -0.042530 4.028700 
# 
# 
# High freq. dielectric constant tensor:
#      x y z
#    x 1.855380 0.007060 -0.007660 
#    y 0.007060 1.860520 0.010350 
#    z -0.007660 0.010350 1.849720 
# 
# From -- ./inp_files/76797.got.cif
#   From: 2010.06.25/outbox.cif.g09.slc.cpg/sg2_39_cif.got.tgz:76797.got - 2010.06.27 13:26:56.
