data_PCOD8018565
_publ_section_title
;
Structure prediction by ZEFSAII (Michael W. Deem and Ramdas Pophale) SiO2 
 PCOD8018565
Probable space group: P -1
;
_chemical_formula_sum "Si O2"
_cell_formula_units_Z 16
_cell_length_a 11.230852
_cell_length_b 28.882001
_cell_length_c 17.375333
_cell_angle_alpha 20.265568
_cell_angle_beta 148.389886
_cell_angle_gamma 157.994872
_cell_volume 724.288200
_symmetry_space_group_name_H-M "P -1"
_symmetry_group_IT_number 2
_symmetry_cell_setting 'triclinic'
loop_
_space_group_symop_operation_xyz
x,y,z
-x,-y,-z
loop_
_atom_site_type_symbol
_atom_site_label
_atom_site_fract_x
_atom_site_fract_y
_atom_site_fract_z
Si Si1 0.790046 0.400722 0.397709
Si Si2 0.089077 0.110320 0.194988
Si Si3 0.842028 0.133213 0.878217
Si Si4 0.205860 0.543889 0.973041
Si Si5 0.077348 0.433496 0.350593
Si Si6 0.091483 0.231249 0.304702
Si Si7 0.162502 0.811595 0.937473
Si Si8 0.778296 0.790458 0.172165
O O1 0.849466 0.296181 0.648552
O O2 0.438102 0.315048 0.345396
O O3 0.837160 0.363723 0.396304
O O4 0.047800 0.624319 0.203851
O O5 0.014087 0.144082 0.183307
O O6 0.418739 0.300637 0.043220
O O7 0.102702 0.958420 0.456607
O O8 0.827029 0.045137 0.087682
O O9 0.146270 0.212367 0.871226
O O10 0.540426 0.975637 0.903299
O O11 0.108430 0.362048 0.167377
O O12 0.000000 0.500000 0.000000
O O13 0.143420 0.635416 0.736304
O O14 0.395977 0.662255 0.168865
O O15 0.170291 0.317496 0.578170
O O16 0.920045 0.205969 0.170797
O O17 0.000000 0.000000 0.000000
#
# Coordination Sequence:
#
# PCOD8018565 Si02
#       8
#     2   2   2   2   2   2   2   2
#     4  11  22  42  72  98 133 176 230 280 338 396
#     4  12  27  44  67 103 144 174 224 283 343 408
#     4  11  26  42  65 104 139 179 227 280 343 401
#     4  12  27  46  70  95 137 183 226 278 342 401
#     4  10  22  41  65  98 129 169 227 275 322 397
#     4  12  26  43  72 104 133 178 232 279 339 408
#     4  12  23  41  72 100 134 179 224 279 340 402
#     4  10  22  40  67  95 132 175 223 273 327 395
#
# _framework density 22.090651999999999
#
# number of rings (size 3 to 8) (size 9 to 14) (size 15 to 20)
#    0.000    0.750    3.750    3.375    3.500    3.000 
#    0.000    0.000    0.000    0.000    0.000    0.000 
#    0.000    0.000    0.000    0.000    0.000    0.000 
#
# Total GULP energy -198385.648046 kJ/mol
# GULP energy per Si atom -12399.103003 kJ/mol
# Density = 2.204037 g / cm^3
# Si number density = 22.090652 Si / 1000 Ang^3
#
#
#
# Elastic Constant Matrix: (Units=GPa)
#
#
# Indices 1 2 3 4 5 6 
#
# 1 117.8708 43.7023 34.1024 2.3152 7.6670 4.1774
# 2 43.7023 80.3095 48.1117 -3.5533 3.4337 -4.7552
# 3 34.1024 48.1117 138.8689 -10.8776 2.2679 -21.9454
# 4 2.3152 -3.5533 -10.8776 32.4985 -0.4468 0.9517
# 5 7.6670 3.4337 2.2679 -0.4468 28.0017 -0.6645
# 6 4.1774 -4.7552 -21.9454 0.9517 -0.6645 21.3939
#
#
#
# Elastic Compliance Matrix: (Units=1/GPa)
#
#
# Indices 1 2 3 4 5 6 
#
# 1 0.011412 -0.005369 -0.001899 -0.001913 -0.002470 -0.005361
# 2 -0.005369 0.018418 -0.005006 0.000717 -0.000372 -0.000037
# 3 -0.001899 -0.005006 0.011335 0.003074 0.000520 0.010765
# 4 -0.001913 0.000717 0.003074 0.031957 0.000751 0.002288
# 5 -0.002470 -0.000372 0.000520 0.000751 0.036452 0.002032
# 6 -0.005361 -0.000037 0.010765 0.002288 0.002032 0.058785
#
#
# Mechanical properties :
#
#
# Convention : Reuss Voigt Hill
#
# Bulk Modulus (GPa) = 60.17909 65.43134 62.80521
# Shear Modulus (GPa) = 25.19560 30.45435 27.82497
#
# Velocity S-wave (km/s) = 3.38087 3.71699 3.55291
# Velocity P-wave (km/s) = 6.52238 6.93579 6.73226
#
# Compressibility (1/GPa) = 0.01661707
#
# Stress axis : x y z
#
# Youngs Moduli (GPa) = 87.62548 54.29488 88.22013
#
# Poissons Ratio (x) = 0.29150 0.16755
# Poissons Ratio (y) = 0.47045 0.44164
# Poissons Ratio (z) = 0.16642 0.27180
#
# Static dielectric constant tensor:
#      x y z
#    x 3.797760 0.184190 0.198000 
#    y 0.184190 4.024350 -0.053630 
#    z 0.198000 -0.053630 4.169060 
# 
# 
# High freq. dielectric constant tensor:
#      x y z
#    x 1.870290 0.014040 0.001180 
#    y 0.014040 1.866970 -0.001310 
#    z 0.001180 -0.001310 1.882190 
# 
# From -- ./inp_files/570802.got.cif
#   From: 2010.06.25/outbox.cif.g09.slc.cpg/sg2_286_cif.got.tgz:570802.got - 2010.06.27 13:26:56.
