data_PCOD8018176
_publ_section_title
;
Structure prediction by ZEFSAII (Michael W. Deem and Ramdas Pophale) SiO2 
 PCOD8018176
Probable space group: P -1
;
_chemical_formula_sum "Si O2"
_cell_formula_units_Z 16
_cell_length_a 7.421798
_cell_length_b 21.219198
_cell_length_c 11.850230
_cell_angle_alpha 147.074856
_cell_angle_beta 121.058681
_cell_angle_gamma 81.520573
_cell_volume 686.298453
_symmetry_space_group_name_H-M "P -1"
_symmetry_group_IT_number 2
_symmetry_cell_setting 'triclinic'
loop_
_space_group_symop_operation_xyz
x,y,z
-x,-y,-z
loop_
_atom_site_type_symbol
_atom_site_label
_atom_site_fract_x
_atom_site_fract_y
_atom_site_fract_z
Si Si1 0.971833 0.681689 0.167419
Si Si2 0.429195 0.158797 0.378400
Si Si3 0.887111 0.552718 0.450293
Si Si4 0.551351 0.626359 0.127153
Si Si5 0.176084 0.966509 0.565680
Si Si6 0.194149 0.125696 0.011314
Si Si7 0.253675 0.887247 0.054687
Si Si8 0.516678 0.437549 0.526541
O O1 0.799779 0.679323 0.207949
O O2 0.253747 0.730311 0.378028
O O3 0.810170 0.529305 0.815889
O O4 0.029020 0.794439 0.256860
O O5 0.360895 0.230776 0.559533
O O6 0.276358 0.141213 0.190252
O O7 0.317082 0.994479 0.130576
O O8 0.109779 0.716624 0.719135
O O9 0.000000 0.500000 0.500000
O O10 0.665641 0.559494 0.439711
O O11 0.724754 0.433769 0.118594
O O12 0.500000 0.500000 0.000000
O O13 0.192780 0.004522 0.762168
O O14 0.454631 0.052257 0.717080
O O15 0.000000 0.000000 0.500000
O O16 0.409560 0.271700 0.227924
O O17 0.909439 0.097569 0.878896
O O18 0.500000 0.500000 0.500000
#
# Coordination Sequence:
#
# PCOD8018176 Si02
#       8
#     2   2   2   2   2   2   2   2
#     4  10  24  42  62  99 130 167 219 267 320 389
#     4  11  24  43  68  96 132 172 214 273 331 386
#     4  10  24  41  65  98 126 173 220 267 325 394
#     4  11  24  43  68  95 136 172 218 272 328 389
#     4  11  25  42  66  93 130 173 213 268 325 384
#     4  11  24  42  66  96 126 171 218 268 323 395
#     4  10  24  44  66  97 130 171 219 266 331 385
#     4  10  22  40  63  91 132 167 215 266 320 388
#
# _framework density 23.313472999999998
#
# number of rings (size 3 to 8) (size 9 to 14) (size 15 to 20)
#    0.000    1.500    0.000    4.125    7.000    7.500 
#    2.250    0.000    0.000    0.000    0.000    0.000 
#    0.000    0.000    0.000    0.000    0.000    0.000 
#
# Total GULP energy -198298.983134 kJ/mol
# GULP energy per Si atom -12393.686446 kJ/mol
# Density = 2.326041 g / cm^3
# Si number density = 23.313473 Si / 1000 Ang^3
#
#
#
# Elastic Constant Matrix: (Units=GPa)
#
#
# Indices 1 2 3 4 5 6 
#
# 1 99.0823 11.0273 38.0267 0.5150 29.7352 -2.3960
# 2 11.0273 104.8730 46.7727 1.1394 9.2053 0.1704
# 3 38.0267 46.7727 97.1698 1.5769 17.9658 9.5313
# 4 0.5150 1.1394 1.5769 39.8641 5.0959 6.5579
# 5 29.7352 9.2053 17.9658 5.0959 36.4621 1.7054
# 6 -2.3960 0.1704 9.5313 6.5579 1.7054 31.5260
#
#
#
# Elastic Compliance Matrix: (Units=1/GPa)
#
#
# Indices 1 2 3 4 5 6 
#
# 1 0.015052 0.001561 -0.005022 0.000793 -0.010448 0.003054
# 2 0.001561 0.012406 -0.006563 -0.000315 -0.001229 0.002168
# 3 -0.005022 -0.006563 0.016322 0.000757 -0.002147 -0.005322
# 4 0.000793 -0.000315 0.000757 0.026511 -0.004390 -0.005444
# 5 -0.010448 -0.001229 -0.002147 -0.004390 0.037987 -0.001280
# 6 0.003054 0.002168 -0.005322 -0.005444 -0.001280 0.034751
#
#
# Mechanical properties :
#
#
# Convention : Reuss Voigt Hill
#
# Bulk Modulus (GPa) = 42.13855 54.75316 48.44586
# Shear Modulus (GPa) = 29.24176 35.25698 32.24937
#
# Velocity S-wave (km/s) = 3.54543 3.89305 3.72330
# Velocity P-wave (km/s) = 5.90543 6.61395 6.26971
#
# Compressibility (1/GPa) = 0.02373124
#
# Stress axis : x y z
#
# Youngs Moduli (GPa) = 66.43811 80.60672 61.26555
#
# Poissons Ratio (x) = -0.12581 0.30770
# Poissons Ratio (y) = -0.10369 0.40207
# Poissons Ratio (z) = 0.33368 0.52900
#
# Static dielectric constant tensor:
#      x y z
#    x 2.912040 -0.426230 1.423200 
#    y -0.426230 3.996110 0.577630 
#    z 1.423200 0.577630 3.643750 
# 
# 
# High freq. dielectric constant tensor:
#      x y z
#    x 1.926320 -0.002150 0.015940 
#    y -0.002150 1.919860 0.014670 
#    z 0.015940 0.014670 1.931900 
# 
# From -- ./inp_files/404962.got.cif
#   From: 2010.06.25/outbox.cif.g09.slc.cpg/sg2_203_cif.got.tgz:404962.got - 2010.06.27 13:26:56.
