data_PCOD8018303
_publ_section_title
;
Structure prediction by ZEFSAII (Michael W. Deem and Ramdas Pophale) SiO2 
 PCOD8018303
Probable space group: P -1
;
_chemical_formula_sum "Si O2"
_cell_formula_units_Z 16
_cell_length_a 7.110035
_cell_length_b 20.883824
_cell_length_c 11.103815
_cell_angle_alpha 134.766132
_cell_angle_beta 116.690598
_cell_angle_gamma 97.578770
_cell_volume 740.091711
_symmetry_space_group_name_H-M "P -1"
_symmetry_group_IT_number 2
_symmetry_cell_setting 'triclinic'
loop_
_space_group_symop_operation_xyz
x,y,z
-x,-y,-z
loop_
_atom_site_type_symbol
_atom_site_label
_atom_site_fract_x
_atom_site_fract_y
_atom_site_fract_z
Si Si1 0.291781 0.300000 0.881625
Si Si2 0.585401 0.365208 0.809283
Si Si3 0.673351 0.864911 0.711715
Si Si4 0.340888 0.907489 0.513205
Si Si5 0.443901 0.275470 0.278001
Si Si6 0.831420 0.179657 0.919542
Si Si7 0.229482 0.650743 0.767667
Si Si8 0.213665 0.474920 0.149516
O O1 0.422514 0.362481 0.870842
O O2 0.967179 0.154788 0.595294
O O3 0.498504 0.289898 0.989768
O O4 0.272824 0.386673 0.068167
O O5 0.332702 0.227710 0.491805
O O6 0.705312 0.477661 0.902445
O O7 0.867480 0.390200 0.964280
O O8 0.470418 0.876090 0.603373
O O9 0.548003 0.801244 0.722554
O O10 0.000000 0.000000 0.000000
O O11 0.278235 0.843883 0.280407
O O12 0.562545 0.058652 0.762768
O O13 0.648491 0.296322 0.260624
O O14 0.584482 0.410367 0.546651
O O15 0.112334 0.197282 0.032002
O O16 0.921124 0.303764 0.164863
O O17 0.000000 0.500000 0.500000
#
# Coordination Sequence:
#
# PCOD8018303 Si02
#       8
#     2   2   2   2   2   2   2   2
#     4  12  23  40  68  99 130 179 225 269 333 398
#     4  10  22  40  64  98 133 178 218 271 332 404
#     4  11  22  44  71  96 135 175 222 277 340 395
#     4  11  24  45  71  97 134 182 220 279 336 399
#     4  11  24  44  68 101 135 176 219 282 338 393
#     4  11  25  48  68  96 138 176 229 272 336 404
#     4  12  27  42  68 100 135 178 227 277 333 400
#     4  10  22  40  66  94 140 173 217 273 335 397
#
# _framework density 21.618943999999999
#
# number of rings (size 3 to 8) (size 9 to 14) (size 15 to 20)
#    0.000    1.000    3.750    2.625    1.750    2.500 
#    6.750    1.250    0.000    0.000    0.000    0.000 
#    0.000    0.000    0.000    0.000    0.000    0.000 
#
# Total GULP energy -198431.364991 kJ/mol
# GULP energy per Si atom -12401.960312 kJ/mol
# Density = 2.156974 g / cm^3
# Si number density = 21.618944 Si / 1000 Ang^3
#
#
#
# Elastic Constant Matrix: (Units=GPa)
#
#
# Indices 1 2 3 4 5 6 
#
# 1 83.7883 34.3322 24.3507 2.6314 5.3508 11.6570
# 2 34.3322 110.1544 35.5300 -4.8551 8.2208 1.8975
# 3 24.3507 35.5300 115.1229 7.9783 12.0944 6.5209
# 4 2.6314 -4.8551 7.9783 39.6947 -2.2954 5.5574
# 5 5.3508 8.2208 12.0944 -2.2954 33.5827 2.8956
# 6 11.6570 1.8975 6.5209 5.5574 2.8956 36.1989
#
#
#
# Elastic Compliance Matrix: (Units=1/GPa)
#
#
# Indices 1 2 3 4 5 6 
#
# 1 0.014635 -0.003984 -0.001541 -0.000603 -0.000490 -0.004095
# 2 -0.003984 0.011358 -0.002740 0.002006 -0.001105 0.000962
# 3 -0.001541 -0.002740 0.010367 -0.002398 -0.002927 -0.000625
# 4 -0.000603 0.002006 -0.002398 0.026640 0.002616 -0.003778
# 5 -0.000490 -0.001105 -0.002927 0.002616 0.031547 -0.002182
# 6 -0.004095 0.000962 -0.000625 -0.003778 -0.002182 0.029761
#
#
# Mechanical properties :
#
#
# Convention : Reuss Voigt Hill
#
# Bulk Modulus (GPa) = 50.42770 55.27682 52.85226
# Shear Modulus (GPa) = 33.91054 36.21878 35.06466
#
# Velocity S-wave (km/s) = 3.96480 4.09751 4.03170
# Velocity P-wave (km/s) = 6.65852 6.92895 6.79508
#
# Compressibility (1/GPa) = 0.01983037
#
# Stress axis : x y z
#
# Youngs Moduli (GPa) = 68.32986 88.04456 96.45858
#
# Poissons Ratio (x) = 0.35075 0.14863
# Poissons Ratio (y) = 0.27221 0.26431
# Poissons Ratio (z) = 0.10529 0.24125
#
# Static dielectric constant tensor:
#      x y z
#    x 3.552210 0.207270 0.034100 
#    y 0.207270 4.116770 0.104360 
#    z 0.034100 0.104360 4.059010 
# 
# 
# High freq. dielectric constant tensor:
#      x y z
#    x 1.830420 0.008720 0.010220 
#    y 0.008720 1.866120 0.003710 
#    z 0.010220 0.003710 1.857480 
# 
# From -- ./inp_files/77402.got.cif
#   From: 2010.06.25/outbox.cif.g09.slc.cpg/sg2_39_cif.got.tgz:77402.got - 2010.06.27 13:26:56.
