data_PCOD8018676
_publ_section_title
;
Structure prediction by ZEFSAII (Michael W. Deem and Ramdas Pophale) SiO2 
 PCOD8018676
Probable space group: P -1
;
_chemical_formula_sum "Si O2"
_cell_formula_units_Z 16
_cell_length_a 14.614517
_cell_length_b 16.762587
_cell_length_c 11.287038
_cell_angle_alpha 31.045946
_cell_angle_beta 130.241176
_cell_angle_gamma 149.597689
_cell_volume 674.355936
_symmetry_space_group_name_H-M "P -1"
_symmetry_group_IT_number 2
_symmetry_cell_setting 'triclinic'
loop_
_space_group_symop_operation_xyz
x,y,z
-x,-y,-z
loop_
_atom_site_type_symbol
_atom_site_label
_atom_site_fract_x
_atom_site_fract_y
_atom_site_fract_z
Si Si1 0.922661 0.569435 0.419791
Si Si2 0.504619 0.894139 0.419427
Si Si3 0.857864 0.614818 0.550849
Si Si4 0.860858 0.719168 0.767548
Si Si5 0.551554 0.283522 0.894845
Si Si6 0.095747 0.758643 0.775804
Si Si7 0.233523 0.135696 0.920670
Si Si8 0.512624 0.377384 0.071178
O O1 0.698897 0.373905 0.454971
O O2 0.928952 0.562227 0.578030
O O3 0.000000 0.500000 0.500000
O O4 0.039049 0.839978 0.139056
O O5 0.541068 0.846357 0.636362
O O6 0.672324 0.010003 0.320788
O O7 0.509383 0.085487 0.188973
O O8 0.648478 0.343794 0.772002
O O9 0.829260 0.753242 0.292917
O O10 0.022645 0.794917 0.560715
O O11 0.705229 0.548755 0.749950
O O12 0.009714 0.724721 0.874362
O O13 0.740074 0.605175 0.932763
O O14 0.000000 0.000000 0.500000
O O15 0.355615 0.186568 0.847611
O O16 0.000000 0.500000 0.000000
O O17 0.363469 0.254675 0.996198
O O18 0.500000 0.500000 0.000000
#
# Coordination Sequence:
#
# PCOD8018676 Si02
#       8
#     2   2   2   2   2   2   2   2
#     4  12  27  46  69 110 148 191 238 297 364 447
#     4  12  24  46  72 103 150 181 252 290 364 431
#     4  11  24  46  76  99 144 192 240 295 368 428
#     4  10  22  40  69 106 144 177 241 296 360 422
#     4  10  23  46  71 103 139 192 241 297 361 428
#     4  11  23  47  71 103 143 188 240 299 362 429
#     4  11  24  49  74 103 147 190 240 300 367 430
#     4  11  25  45  77 110 148 194 242 306 361 432
#
# _framework density 23.726343
#
# number of rings (size 3 to 8) (size 9 to 14) (size 15 to 20)
#    0.000    1.000    3.750    3.000    0.000    8.500 
#    0.000    0.000    0.000    0.000    0.000    0.000 
#    0.000    0.000    0.000    0.000    0.000    0.000 
#
# Total GULP energy -198244.912871 kJ/mol
# GULP energy per Si atom -12390.307054 kJ/mol
# Density = 2.367234 g / cm^3
# Si number density = 23.726343 Si / 1000 Ang^3
#
#
#
# Elastic Constant Matrix: (Units=GPa)
#
#
# Indices 1 2 3 4 5 6 
#
# 1 195.4741 35.6694 59.3344 -14.7503 -16.4527 18.4219
# 2 35.6694 98.5508 43.4120 -22.5980 -0.6391 21.3248
# 3 59.3344 43.4120 159.7852 -20.5135 8.3238 0.9138
# 4 -14.7503 -22.5980 -20.5135 44.7160 13.1482 -8.3281
# 5 -16.4527 -0.6391 8.3238 13.1482 43.0783 -6.6694
# 6 18.4219 21.3248 0.9138 -8.3281 -6.6694 36.1892
#
#
#
# Elastic Compliance Matrix: (Units=1/GPa)
#
#
# Indices 1 2 3 4 5 6 
#
# 1 0.006389 -0.000918 -0.002336 -0.000657 0.002722 -0.002302
# 2 -0.000918 0.014394 -0.002766 0.005022 -0.002251 -0.007203
# 3 -0.002336 -0.002766 0.008422 0.003115 -0.003085 0.002755
# 4 -0.000657 0.005022 0.003115 0.029298 -0.009363 0.002313
# 5 0.002722 -0.002251 -0.003085 -0.009363 0.028146 0.003051
# 6 -0.002302 -0.007203 0.002755 0.002313 0.003051 0.034074
#
#
# Mechanical properties :
#
#
# Convention : Reuss Voigt Hill
#
# Bulk Modulus (GPa) = 58.26315 81.18239 69.72277
# Shear Modulus (GPa) = 36.10502 45.82298 40.96400
#
# Velocity S-wave (km/s) = 3.90516 4.39944 4.15965
# Velocity P-wave (km/s) = 6.70398 7.75224 7.24709
#
# Compressibility (1/GPa) = 0.01716351
#
# Stress axis : x y z
#
# Youngs Moduli (GPa) = 156.52330 69.47439 118.73218
#
# Poissons Ratio (x) = 0.06381 0.27735
# Poissons Ratio (y) = 0.14376 0.32846
# Poissons Ratio (z) = 0.36563 0.19219
#
# Static dielectric constant tensor:
#      x y z
#    x 4.969980 0.319390 -0.383390 
#    y 0.319390 4.926180 -0.066140 
#    z -0.383390 -0.066140 4.475810 
# 
# 
# High freq. dielectric constant tensor:
#      x y z
#    x 1.961190 0.022150 -0.008890 
#    y 0.022150 1.920640 -0.018570 
#    z -0.008890 -0.018570 1.945410 
# 
# From -- ./inp_files/456915.got.cif
#   From: 2010.06.25/outbox.cif.g09.slc.cpg/sg2_229_cif.got.tgz:456915.got - 2010.06.27 13:26:56.
