data_PCOD8018264
_publ_section_title
;
Structure prediction by ZEFSAII (Michael W. Deem and Ramdas Pophale) SiO2 
 PCOD8018264
Probable space group: P -1
;
_chemical_formula_sum "Si O2"
_cell_formula_units_Z 16
_cell_length_a 18.154720
_cell_length_b 6.974137
_cell_length_c 17.969514
_cell_angle_alpha 45.108357
_cell_angle_beta 152.468027
_cell_angle_gamma 137.109148
_cell_volume 704.316618
_symmetry_space_group_name_H-M "P -1"
_symmetry_group_IT_number 2
_symmetry_cell_setting 'triclinic'
loop_
_space_group_symop_operation_xyz
x,y,z
-x,-y,-z
loop_
_atom_site_type_symbol
_atom_site_label
_atom_site_fract_x
_atom_site_fract_y
_atom_site_fract_z
Si Si1 0.855665 0.348625 0.807404
Si Si2 0.486753 0.787755 0.978680
Si Si3 0.040868 0.687968 0.375665
Si Si4 0.224111 0.546493 0.133745
Si Si5 0.287708 0.160822 0.963841
Si Si6 0.416511 0.192412 0.326539
Si Si7 0.770495 0.496166 0.527972
Si Si8 0.186521 0.879432 0.604306
O O1 0.810723 0.509536 0.794274
O O2 0.810167 0.479593 0.655300
O O3 0.746256 0.009924 0.808383
O O4 0.054699 0.395700 0.975561
O O5 0.665465 0.847217 0.080179
O O6 0.365903 0.850007 0.791606
O O7 0.412774 0.456926 0.030446
O O8 0.500000 0.000000 0.000000
O O9 0.959571 0.362436 0.418506
O O10 0.135689 0.688402 0.382798
O O11 0.173939 0.857590 0.509837
O O12 0.904433 0.848327 0.198594
O O13 0.362259 0.403572 0.274497
O O14 0.301140 0.885510 0.093958
O O15 0.569798 0.382040 0.360463
O O16 0.500000 0.000000 0.500000
O O17 0.833247 0.823383 0.468023
#
# Coordination Sequence:
#
# PCOD8018264 Si02
#       8
#     2   2   2   2   2   2   2   2
#     4  10  25  43  65  94 124 167 220 269 325 379
#     4  10  23  42  66 100 136 166 211 264 315 386
#     4  10  23  41  62  93 131 163 211 263 308 384
#     4  11  23  43  67  92 129 169 214 271 323 383
#     4  10  23  41  65  97 130 173 214 260 322 379
#     4  10  24  41  61  91 124 164 214 265 321 378
#     4  11  23  40  66  93 125 170 213 260 318 379
#     4  10  22  40  64  93 126 169 208 255 321 378
#
# _framework density 22.717054000000001
#
# number of rings (size 3 to 8) (size 9 to 14) (size 15 to 20)
#    0.000    1.750    0.000    2.250    0.000   21.000 
#    0.000    0.000    0.000    0.000    0.000    0.000 
#    0.000    0.000    0.000    0.000    0.000    0.000 
#
# Total GULP energy -198393.045766 kJ/mol
# GULP energy per Si atom -12399.565360 kJ/mol
# Density = 2.266535 g / cm^3
# Si number density = 22.717054 Si / 1000 Ang^3
#
#
#
# Elastic Constant Matrix: (Units=GPa)
#
#
# Indices 1 2 3 4 5 6 
#
# 1 111.9397 44.7242 44.0963 -2.8879 28.5714 -14.2593
# 2 44.7242 124.0639 46.7748 -8.2311 9.5744 -12.2375
# 3 44.0963 46.7748 82.8465 -12.8344 21.2488 -4.2293
# 4 -2.8879 -8.2311 -12.8344 35.1889 -5.7556 5.7421
# 5 28.5714 9.5744 21.2488 -5.7556 37.3899 -6.7828
# 6 -14.2593 -12.2375 -4.2293 5.7421 -6.7828 29.0979
#
#
#
# Elastic Compliance Matrix: (Units=1/GPa)
#
#
# Indices 1 2 3 4 5 6 
#
# 1 0.013985 -0.002647 -0.004329 -0.002890 -0.007271 0.003987
# 2 -0.002647 0.011177 -0.005419 0.000367 0.002880 0.003215
# 3 -0.004329 -0.005419 0.019676 0.005164 -0.006427 -0.004058
# 4 -0.002890 0.000367 0.005164 0.031622 0.002947 -0.006064
# 5 -0.007271 0.002880 -0.006427 0.002947 0.036512 0.004644
# 6 0.003987 0.003215 -0.004058 -0.006064 0.004644 0.039362
#
#
# Mechanical properties :
#
#
# Convention : Reuss Voigt Hill
#
# Bulk Modulus (GPa) = 49.88081 65.56007 57.72044
# Shear Modulus (GPa) = 27.20255 32.55233 29.87744
#
# Velocity S-wave (km/s) = 3.46417 3.78953 3.63050
# Velocity P-wave (km/s) = 6.16488 6.93322 6.56031
#
# Compressibility (1/GPa) = 0.02004779
#
# Stress axis : x y z
#
# Youngs Moduli (GPa) = 71.50447 89.46986 50.82402
#
# Poissons Ratio (x) = 0.23682 0.22001
# Poissons Ratio (y) = 0.18927 0.27543
# Poissons Ratio (z) = 0.30953 0.48487
#
# Static dielectric constant tensor:
#      x y z
#    x 3.982820 0.230170 0.220090 
#    y 0.230170 4.609360 0.230360 
#    z 0.220090 0.230360 3.978410 
# 
# 
# High freq. dielectric constant tensor:
#      x y z
#    x 1.890570 0.002760 0.013360 
#    y 0.002760 1.911000 -0.001870 
#    z 0.013360 -0.001870 1.886900 
# 
# From -- ./inp_files/574890.got.cif
#   From: 2010.06.25/outbox.cif.g09.slc.cpg/sg2_288_cif.got.tgz:574890.got - 2010.06.27 13:26:56.
