data_PCOD8018652
_publ_section_title
;
Structure prediction by ZEFSAII (Michael W. Deem and Ramdas Pophale) SiO2 
 PCOD8018652
Probable space group: P -1
;
_chemical_formula_sum "Si O2"
_cell_formula_units_Z 14
_cell_length_a 8.906780
_cell_length_b 24.729719
_cell_length_c 17.680041
_cell_angle_alpha 19.764759
_cell_angle_beta 30.487227
_cell_angle_gamma 31.097785
_cell_volume 644.389174
_symmetry_space_group_name_H-M "P -1"
_symmetry_group_IT_number 2
_symmetry_cell_setting 'triclinic'
loop_
_space_group_symop_operation_xyz
x,y,z
-x,-y,-z
loop_
_atom_site_type_symbol
_atom_site_label
_atom_site_fract_x
_atom_site_fract_y
_atom_site_fract_z
Si Si1 0.446920 0.254826 0.386514
Si Si2 0.300663 0.005841 0.504750
Si Si3 0.225313 0.165392 0.010007
Si Si4 0.010528 0.582370 0.091401
Si Si5 0.753010 0.629477 0.985583
Si Si6 0.794764 0.913447 0.153526
Si Si7 0.936402 0.328832 0.772702
O O1 0.147960 0.396897 0.305628
O O2 0.397936 0.181225 0.586111
O O3 0.495176 0.108252 0.497539
O O4 0.732399 0.334431 0.162497
O O5 0.500000 0.000000 0.500000
O O6 0.181612 0.191786 0.281907
O O7 0.004089 0.946389 0.729757
O O8 0.568680 0.051093 0.018817
O O9 0.178109 0.311994 0.898227
O O10 0.174875 0.243447 0.846120
O O11 0.780808 0.572074 0.136412
O O12 0.413610 0.639198 0.088435
O O13 0.000000 0.500000 0.000000
O O14 0.020725 0.785512 0.169082
O O15 0.000000 0.000000 0.000000
O O16 0.000000 0.500000 0.500000
#
# Coordination Sequence:
#
# PCOD8018652 Si02
#       7
#     2   2   2   2   2   2   2
#     4  10  22  40  69 100 133 176 221 287 336 396
#     4  11  21  40  70 100 136 171 233 287 333 396
#     4  11  24  44  71  99 135 181 228 283 338 407
#     4  10  22  41  70 100 132 169 232 282 339 391
#     4  12  26  43  70 102 135 178 232 282 340 406
#     4  12  26  45  69  95 140 186 229 273 344 419
#     4  12  28  46  66 102 146 180 224 283 349 413
#
# _framework density 21.726001
#
# number of rings (size 3 to 8) (size 9 to 14) (size 15 to 20)
#    0.000    0.857    1.429    5.571    8.000    3.429 
#    0.000    2.857    0.000    0.000    0.000    0.000 
#    0.000    0.000    0.000    0.000    0.000    0.000 
#
# Total GULP energy -173707.000220 kJ/mol
# GULP energy per Si atom -12407.642873 kJ/mol
# Density = 2.167655 g / cm^3
# Si number density = 21.726001 Si / 1000 Ang^3
#
#
#
# Elastic Constant Matrix: (Units=GPa)
#
#
# Indices 1 2 3 4 5 6 
#
# 1 137.7167 45.2593 32.0843 -12.7346 8.8449 -3.9495
# 2 45.2593 139.8560 48.3130 -23.9066 -6.1490 4.9106
# 3 32.0843 48.3130 105.6834 -23.1530 12.5419 0.4065
# 4 -12.7346 -23.9066 -23.1530 37.9692 1.6183 2.8599
# 5 8.8449 -6.1490 12.5419 1.6183 36.2047 -5.4663
# 6 -3.9495 4.9106 0.4065 2.8599 -5.4663 42.3582
#
#
#
# Elastic Compliance Matrix: (Units=1/GPa)
#
#
# Indices 1 2 3 4 5 6 
#
# 1 0.008515 -0.002365 -0.001111 0.000717 -0.002013 0.000771
# 2 -0.002365 0.009835 -0.003429 0.003262 0.003117 -0.001146
# 3 -0.001111 -0.003429 0.013286 0.005866 -0.005314 -0.000915
# 4 0.000717 0.003262 0.005866 0.032588 -0.003567 -0.003028
# 5 -0.002013 0.003117 -0.005314 -0.003567 0.031211 0.003771
# 6 0.000771 -0.001146 -0.000915 -0.003028 0.003771 0.024513
#
#
# Mechanical properties :
#
#
# Convention : Reuss Voigt Hill
#
# Bulk Modulus (GPa) = 56.09610 70.50769 63.30190
# Shear Modulus (GPa) = 35.79100 40.47973 38.13536
#
# Velocity S-wave (km/s) = 4.06320 4.32115 4.19416
# Velocity P-wave (km/s) = 6.92016 7.57760 7.25633
#
# Compressibility (1/GPa) = 0.01782655
#
# Stress axis : x y z
#
# Youngs Moduli (GPa) = 117.44061 101.67941 75.26579
#
# Poissons Ratio (x) = 0.24044 0.08362
# Poissons Ratio (y) = 0.27771 0.25809
# Poissons Ratio (z) = 0.13048 0.34866
#
# Static dielectric constant tensor:
#      x y z
#    x 3.971010 0.024940 -0.024470 
#    y 0.024940 4.076190 -0.264850 
#    z -0.024470 -0.264850 4.324810 
# 
# 
# High freq. dielectric constant tensor:
#      x y z
#    x 1.868350 0.000240 0.005520 
#    y 0.000240 1.860720 -0.016240 
#    z 0.005520 -0.016240 1.855630 
# 
# From -- ./inp_files/157522.got.cif
#   From: 2010.06.25/outbox.cif.g09.slc.cpg/sg2_79_cif.got.tgz:157522.got - 2010.06.27 13:26:56.
