data_PCOD8018378
_publ_section_title
;
Structure prediction by ZEFSAII (Michael W. Deem and Ramdas Pophale) SiO2 
 PCOD8018378
Probable space group: P -1
;
_chemical_formula_sum "Si O2"
_cell_formula_units_Z 16
_cell_length_a 9.290651
_cell_length_b 7.935475
_cell_length_c 10.091477
_cell_angle_alpha 90.075015
_cell_angle_beta 97.757561
_cell_angle_gamma 117.648327
_cell_volume 651.278860
_symmetry_space_group_name_H-M "P -1"
_symmetry_group_IT_number 2
_symmetry_cell_setting 'triclinic'
loop_
_space_group_symop_operation_xyz
x,y,z
-x,-y,-z
loop_
_atom_site_type_symbol
_atom_site_label
_atom_site_fract_x
_atom_site_fract_y
_atom_site_fract_z
Si Si1 0.358216 0.056589 0.491914
Si Si2 0.774368 0.309762 0.921747
Si Si3 0.011178 0.198305 0.614093
Si Si4 0.440455 0.251727 0.769169
Si Si5 0.386047 0.320896 0.268446
Si Si6 0.370338 0.076736 0.023445
Si Si7 0.092157 0.549716 0.800332
Si Si8 0.034492 0.184881 0.317491
O O1 0.338140 0.105186 0.640839
O O2 0.416612 0.243931 0.410052
O O3 0.500000 0.000000 0.500000
O O4 0.186194 0.883312 0.420581
O O5 0.614407 0.257374 0.815532
O O6 0.922627 0.456591 0.856399
O O7 0.791622 0.116337 0.950523
O O8 0.766755 0.391728 0.068990
O O9 0.101203 0.404136 0.695865
O O10 0.092237 0.230527 0.478759
O O11 0.047316 0.047074 0.703137
O O12 0.476511 0.461343 0.730001
O O13 0.336065 0.178617 0.892745
O O14 0.426861 0.219091 0.153000
O O15 0.197004 0.286368 0.244306
O O16 0.500000 0.000000 0.000000
O O17 0.095652 0.736473 0.730786
#
# Coordination Sequence:
#
# PCOD8018378 Si02
#       8
#     2   2   2   2   2   2   2   2
#     4  11  23  40  72  97 136 180 215 278 334 403
#     4  10  22  40  65  95 132 173 226 266 336 404
#     4  10  23  43  67 103 133 174 227 273 343 395
#     4  11  22  42  63  98 136 170 222 277 332 403
#     4  11  22  43  67  97 131 176 225 279 338 399
#     4  10  22  42  66  91 135 173 218 276 331 407
#     4  11  21  42  69  96 132 180 222 276 332 403
#     4  10  22  42  69  96 136 170 224 288 326 402
#
# _framework density 24.567049999999998
#
# number of rings (size 3 to 8) (size 9 to 14) (size 15 to 20)
#    0.000    1.500    1.250    4.875    1.750    0.000 
#    2.250    9.375    0.000    0.000    0.000    0.000 
#    0.000    0.000    0.000    0.000    0.000    0.000 
#
# Total GULP energy -198294.244543 kJ/mol
# GULP energy per Si atom -12393.390284 kJ/mol
# Density = 2.451113 g / cm^3
# Si number density = 24.567050 Si / 1000 Ang^3
#
#
#
# Elastic Constant Matrix: (Units=GPa)
#
#
# Indices 1 2 3 4 5 6 
#
# 1 53.1948 10.3189 10.5642 -3.8297 -5.2767 -14.4111
# 2 10.3189 98.6125 24.6357 -14.1201 -4.2863 -23.0365
# 3 10.5642 24.6357 117.8605 -1.8700 -4.6115 -9.4442
# 4 -3.8297 -14.1201 -1.8700 46.6943 -5.6414 -5.9537
# 5 -5.2767 -4.2863 -4.6115 -5.6414 33.3266 4.1676
# 6 -14.4111 -23.0365 -9.4442 -5.9537 4.1676 24.6077
#
#
#
# Elastic Compliance Matrix: (Units=1/GPa)
#
#
# Indices 1 2 3 4 5 6 
#
# 1 0.023654 0.002522 -0.001134 0.005095 0.002705 0.016553
# 2 0.002522 0.015276 -0.001936 0.007002 0.001215 0.016523
# 3 -0.001134 -0.001936 0.009086 -0.000120 0.000700 0.000862
# 4 0.005095 0.007002 -0.000120 0.026394 0.004263 0.015156
# 5 0.002705 0.001215 0.000700 0.004263 0.031575 -0.001326
# 6 0.016553 0.016523 0.000862 0.015156 -0.001326 0.070022
#
#
# Mechanical properties :
#
#
# Convention : Reuss Voigt Hill
#
# Bulk Modulus (GPa) = 21.31356 40.07839 30.69597
# Shear Modulus (GPa) = 25.94123 35.86899 30.90511
#
# Velocity S-wave (km/s) = 3.25304 3.82520 3.55066
# Velocity P-wave (km/s) = 4.77538 5.98822 5.41586
#
# Compressibility (1/GPa) = 0.04691850
#
# Stress axis : x y z
#
# Youngs Moduli (GPa) = 42.27546 65.46302 110.06394
#
# Poissons Ratio (x) = -0.16511 0.12485
# Poissons Ratio (y) = -0.10663 0.21314
# Poissons Ratio (z) = 0.04795 0.12677
#
# Static dielectric constant tensor:
#      x y z
#    x 4.119790 0.074960 -0.084890 
#    y 0.074960 5.259740 -0.336140 
#    z -0.084890 -0.336140 4.730160 
# 
# 
# High freq. dielectric constant tensor:
#      x y z
#    x 1.953860 0.002970 -0.003690 
#    y 0.002970 1.990620 -0.015250 
#    z -0.003690 -0.015250 1.985830 
# 
# From -- ./inp_files/239203.got.cif
#   From: 2010.06.25/outbox.cif.g09.slc.cpg/sg2_120_cif.got.tgz:239203.got - 2010.06.27 13:26:56.
