data_PCOD8018956
_publ_section_title
;
Structure prediction by ZEFSAII (Michael W. Deem and Ramdas Pophale) SiO2 
 PCOD8018956
Probable space group: P -1
;
_chemical_formula_sum "Si O2"
_cell_formula_units_Z 16
_cell_length_a 9.312056
_cell_length_b 18.397246
_cell_length_c 10.261903
_cell_angle_alpha 50.915607
_cell_angle_beta 77.491857
_cell_angle_gamma 38.096973
_cell_volume 683.607751
_symmetry_space_group_name_H-M "P -1"
_symmetry_group_IT_number 2
_symmetry_cell_setting 'triclinic'
loop_
_space_group_symop_operation_xyz
x,y,z
-x,-y,-z
loop_
_atom_site_type_symbol
_atom_site_label
_atom_site_fract_x
_atom_site_fract_y
_atom_site_fract_z
Si Si1 0.914737 0.153509 0.075038
Si Si2 0.538587 0.608338 0.322252
Si Si3 0.909257 0.780578 0.473519
Si Si4 0.651627 0.914045 0.931125
Si Si5 0.315165 0.793109 0.692630
Si Si6 0.107881 0.417132 0.716494
Si Si7 0.812247 0.649680 0.758691
Si Si8 0.232357 0.784431 0.445906
O O1 0.690671 0.272278 0.106754
O O2 0.148983 0.105185 0.108869
O O3 0.725365 0.279916 0.842329
O O4 0.081931 0.964605 0.236026
O O5 0.594128 0.689048 0.199577
O O6 0.457262 0.632559 0.461001
O O7 0.835333 0.391694 0.479444
O O8 0.868801 0.730358 0.659613
O O9 0.986026 0.840498 0.445356
O O10 0.597894 0.953844 0.274733
O O11 0.848227 0.715136 0.112799
O O12 0.500000 0.000000 0.000000
O O13 0.492349 0.790273 0.692301
O O14 0.407992 0.691843 0.653354
O O15 0.000000 0.000000 0.500000
O O16 0.000000 0.500000 0.500000
O O17 0.872835 0.582021 0.676948
O O18 0.000000 0.500000 0.000000
#
# Coordination Sequence:
#
# PCOD8018956 Si02
#       8
#     2   2   2   2   2   2   2   2
#     4  11  24  43  65  96 132 171 217 271 328 390
#     4  11  22  41  65  96 132 170 215 271 327 389
#     4  11  24  40  67 101 131 171 222 274 329 390
#     4  12  24  43  69 101 133 171 219 274 330 392
#     4  10  22  41  63  90 129 172 212 264 323 383
#     4  11  24  43  69 100 131 172 220 273 329 390
#     4  11  24  45  67  94 134 177 220 270 326 391
#     4  11  22  40  66  96 130 172 218 273 328 387
#
# _framework density 23.405235000000001
#
# number of rings (size 3 to 8) (size 9 to 14) (size 15 to 20)
#    0.000    1.000    0.000    8.250    0.000    4.000 
#    0.000    5.625    0.000    0.000    0.000    0.000 
#    0.000    0.000    0.000    0.000    0.000    0.000 
#
# Total GULP energy -198357.275917 kJ/mol
# GULP energy per Si atom -12397.329745 kJ/mol
# Density = 2.335196 g / cm^3
# Si number density = 23.405235 Si / 1000 Ang^3
#
#
#
# Elastic Constant Matrix: (Units=GPa)
#
#
# Indices 1 2 3 4 5 6 
#
# 1 195.4758 20.4849 45.0072 -7.3428 -16.6191 -30.4781
# 2 20.4849 84.7178 18.4940 20.8414 3.1175 -15.7254
# 3 45.0072 18.4940 102.1836 1.0321 -8.7370 -2.7293
# 4 -7.3428 20.8414 1.0321 32.9626 -4.6555 3.1895
# 5 -16.6191 3.1175 -8.7370 -4.6555 43.2205 3.5689
# 6 -30.4781 -15.7254 -2.7293 3.1895 3.5689 37.9868
#
#
#
# Elastic Compliance Matrix: (Units=1/GPa)
#
#
# Indices 1 2 3 4 5 6 
#
# 1 0.006733 -0.000762 -0.002558 0.001896 0.001954 0.004560
# 2 -0.000762 0.017201 -0.002795 -0.012278 -0.004059 0.007721
# 3 -0.002558 -0.002795 0.011497 0.001366 0.001910 -0.002677
# 4 0.001896 -0.012278 0.001366 0.040169 0.006835 -0.007478
# 5 0.001954 -0.004059 0.001910 0.006835 0.025547 -0.002949
# 6 0.004560 0.007721 -0.002677 -0.007478 -0.002949 0.033893
#
#
# Mechanical properties :
#
#
# Convention : Reuss Voigt Hill
#
# Bulk Modulus (GPa) = 43.09825 61.14992 52.12409
# Shear Modulus (GPa) = 32.25755 42.72675 37.49215
#
# Velocity S-wave (km/s) = 3.71647 4.27725 4.00668
# Velocity P-wave (km/s) = 6.07207 7.11171 6.61236
#
# Compressibility (1/GPa) = 0.02320280
#
# Stress axis : x y z
#
# Youngs Moduli (GPa) = 148.52487 58.13528 86.98106
#
# Poissons Ratio (x) = 0.04428 0.22249
# Poissons Ratio (y) = 0.11311 0.24307
# Poissons Ratio (z) = 0.37992 0.16246
#
# Static dielectric constant tensor:
#      x y z
#    x 4.614640 0.225030 0.038250 
#    y 0.225030 4.797400 0.103940 
#    z 0.038250 0.103940 3.458980 
# 
# 
# High freq. dielectric constant tensor:
#      x y z
#    x 1.950710 -0.014360 0.002990 
#    y -0.014360 1.926120 0.012310 
#    z 0.002990 0.012310 1.917060 
# 
# From -- ./inp_files/402989.got.cif
#   From: 2010.06.25/outbox.cif.g09.slc.cpg/sg2_202_cif.got.tgz:402989.got - 2010.06.27 13:26:56.
