data_PCOD8018544
_publ_section_title
;
Structure prediction by ZEFSAII (Michael W. Deem and Ramdas Pophale) SiO2 
 PCOD8018544
Probable space group: P -1
;
_chemical_formula_sum "Si O2"
_cell_formula_units_Z 16
_cell_length_a 14.659120
_cell_length_b 15.318197
_cell_length_c 9.485405
_cell_angle_alpha 111.479472
_cell_angle_beta 88.985486
_cell_angle_gamma 150.484384
_cell_volume 736.627368
_symmetry_space_group_name_H-M "P -1"
_symmetry_group_IT_number 2
_symmetry_cell_setting 'triclinic'
loop_
_space_group_symop_operation_xyz
x,y,z
-x,-y,-z
loop_
_atom_site_type_symbol
_atom_site_label
_atom_site_fract_x
_atom_site_fract_y
_atom_site_fract_z
Si Si1 0.788028 0.370465 0.643950
Si Si2 0.510441 0.224442 0.349114
Si Si3 0.879521 0.108565 0.614950
Si Si4 0.653879 0.054248 0.058666
Si Si5 0.350379 0.441321 0.532373
Si Si6 0.649507 0.030249 0.375926
Si Si7 0.636388 0.517357 0.131381
Si Si8 0.198253 0.119352 0.720417
O O1 0.707777 0.345466 0.488166
O O2 0.766220 0.239763 0.541105
O O3 0.069927 0.665214 0.837796
O O4 0.620206 0.240457 0.705639
O O5 0.608918 0.423671 0.471888
O O6 0.261583 0.983735 0.303953
O O7 0.456972 0.137771 0.141679
O O8 0.839788 0.134737 0.492728
O O9 0.164747 0.376945 0.810930
O O10 0.799297 0.925915 0.462071
O O11 0.632527 0.004966 0.193302
O O12 0.500000 0.000000 0.000000
O O13 0.500000 0.500000 0.500000
O O14 0.459385 0.556199 0.753145
O O15 0.062716 0.146057 0.357002
O O16 0.759300 0.729701 0.195847
O O17 0.409190 0.269583 0.894868
#
# Coordination Sequence:
#
# PCOD8018544 Si02
#       8
#     2   2   2   2   2   2   2   2
#     4  10  24  47  65  98 136 178 220 276 336 402
#     4  11  25  43  65  98 132 173 223 271 334 396
#     4  10  22  42  66  92 132 173 218 273 330 392
#     4  12  26  43  69 100 136 177 224 282 331 396
#     4  11  23  40  65  95 135 173 213 276 329 387
#     4  10  23  45  69  96 136 177 222 277 338 393
#     4  10  22  40  67  93 126 172 225 266 332 398
#     4  10  22  41  64  95 126 175 218 272 329 394
#
# _framework density 21.720614999999999
#
# number of rings (size 3 to 8) (size 9 to 14) (size 15 to 20)
#    0.000    1.500    1.250    3.375    5.250    3.000 
#    2.250    0.000    0.000    0.000    0.000    0.000 
#    0.000    0.000    0.000    0.000    0.000    0.000 
#
# Total GULP energy -198426.751133 kJ/mol
# GULP energy per Si atom -12401.671946 kJ/mol
# Density = 2.167118 g / cm^3
# Si number density = 21.720615 Si / 1000 Ang^3
#
#
#
# Elastic Constant Matrix: (Units=GPa)
#
#
# Indices 1 2 3 4 5 6 
#
# 1 111.7525 38.9951 43.5574 7.5226 18.4131 10.4752
# 2 38.9951 89.4864 39.4581 -6.8201 12.8944 -3.9012
# 3 43.5574 39.4581 98.6382 -0.6187 20.9484 11.1241
# 4 7.5226 -6.8201 -0.6187 34.3044 -0.6429 0.2311
# 5 18.4131 12.8944 20.9484 -0.6429 39.7992 1.7364
# 6 10.4752 -3.9012 11.1241 0.2311 1.7364 34.3552
#
#
#
# Elastic Compliance Matrix: (Units=1/GPa)
#
#
# Indices 1 2 3 4 5 6 
#
# 1 0.012569 -0.004194 -0.002934 -0.003675 -0.002832 -0.003191
# 2 -0.004194 0.015716 -0.004765 0.003913 -0.000781 0.004620
# 3 -0.002934 -0.004765 0.014815 -0.000097 -0.004715 -0.004204
# 4 -0.003675 0.003913 -0.000097 0.030741 0.000921 0.001343
# 5 -0.002832 -0.000781 -0.004715 0.000921 0.029150 0.000822
# 6 -0.003191 0.004620 -0.004204 0.001343 0.000822 0.031916
#
#
# Mechanical properties :
#
#
# Convention : Reuss Voigt Hill
#
# Bulk Modulus (GPa) = 51.78095 60.43316 56.10706
# Shear Modulus (GPa) = 30.27908 33.54952 31.91430
#
# Velocity S-wave (km/s) = 3.73771 3.93440 3.83732
# Velocity P-wave (km/s) = 6.52063 6.96582 6.74690
#
# Compressibility (1/GPa) = 0.01931212
#
# Stress axis : x y z
#
# Youngs Moduli (GPa) = 79.56384 63.62964 67.50025
#
# Poissons Ratio (x) = 0.26688 0.19805
# Poissons Ratio (y) = 0.33371 0.32165
# Poissons Ratio (z) = 0.23345 0.30321
#
# Static dielectric constant tensor:
#      x y z
#    x 3.865850 -0.098350 0.122660 
#    y -0.098350 3.872270 -0.054410 
#    z 0.122660 -0.054410 3.936590 
# 
# 
# High freq. dielectric constant tensor:
#      x y z
#    x 1.872640 -0.000530 0.006910 
#    y -0.000530 1.852240 -0.000730 
#    z 0.006910 -0.000730 1.848710 
# 
# From -- ./inp_files/315643.got.cif
#   From: 2010.06.25/outbox.cif.g09.slc.cpg/sg2_158_cif.got.tgz:315643.got - 2010.06.27 13:26:56.
