data_PCOD8018567
_publ_section_title
;
Structure prediction by ZEFSAII (Michael W. Deem and Ramdas Pophale) SiO2 
 PCOD8018567
Probable space group: P -1
;
_chemical_formula_sum "Si O2"
_cell_formula_units_Z 16
_cell_length_a 18.256720
_cell_length_b 9.632984
_cell_length_c 9.748826
_cell_angle_alpha 93.652430
_cell_angle_beta 93.444143
_cell_angle_gamma 26.273687
_cell_volume 757.378411
_symmetry_space_group_name_H-M "P -1"
_symmetry_group_IT_number 2
_symmetry_cell_setting 'triclinic'
loop_
_space_group_symop_operation_xyz
x,y,z
-x,-y,-z
loop_
_atom_site_type_symbol
_atom_site_label
_atom_site_fract_x
_atom_site_fract_y
_atom_site_fract_z
Si Si1 0.151173 0.644248 0.801005
Si Si2 0.276216 0.492148 0.515797
Si Si3 0.797970 0.757588 0.260577
Si Si4 0.363795 0.849254 0.992898
Si Si5 0.648988 0.948710 0.536925
Si Si6 0.817485 0.878296 0.744739
Si Si7 0.787818 0.242512 0.739623
Si Si8 0.406653 0.301906 0.014165
O O1 0.182313 0.664624 0.659772
O O2 0.223547 0.364851 0.798991
O O3 0.239532 0.583875 0.924156
O O4 0.956045 0.972960 0.828952
O O5 0.273041 0.336806 0.459913
O O6 0.183497 0.735253 0.402743
O O7 0.453654 0.261573 0.539510
O O8 0.702292 0.937674 0.403918
O O9 0.989447 0.471497 0.287354
O O10 0.714109 0.004952 0.158528
O O11 0.211360 0.081817 0.092725
O O12 0.500000 0.500000 0.000000
O O13 0.461167 0.821107 0.046814
O O14 0.710845 0.938245 0.667496
O O15 0.752456 0.139485 0.703559
O O16 0.639365 0.568679 0.828322
O O17 0.500000 0.000000 0.000000
#
# Coordination Sequence:
#
# PCOD8018567 Si02
#       8
#     2   2   2   2   2   2   2   2
#     4  10  22  42  65  93 127 164 209 261 315 368
#     4  10  22  40  67  96 123 161 213 261 305 370
#     4  10  22  43  65  90 129 169 207 257 313 374
#     4  12  24  43  62  92 128 163 212 265 306 368
#     4  10  22  40  68  93 123 166 213 253 311 377
#     4  11  24  42  63  93 131 168 204 255 320 375
#     4  11  24  42  62  95 131 161 207 265 311 372
#     4  12  24  42  69  89 123 170 214 257 314 370
#
# _framework density 21.125505
#
# number of rings (size 3 to 8) (size 9 to 14) (size 15 to 20)
#    0.000    1.250    2.500    3.000    5.250    0.500 
#    4.500    0.000    0.000    0.000    0.000    0.000 
#    0.000    0.000    0.000    0.000    0.000    0.000 
#
# Total GULP energy -198425.457807 kJ/mol
# GULP energy per Si atom -12401.591113 kJ/mol
# Density = 2.107742 g / cm^3
# Si number density = 21.125505 Si / 1000 Ang^3
#
#
#
# Elastic Constant Matrix: (Units=GPa)
#
#
# Indices 1 2 3 4 5 6 
#
# 1 115.7322 37.6396 39.1425 -3.1980 0.1015 2.5435
# 2 37.6396 80.6215 29.7969 -1.3477 -2.8998 11.4025
# 3 39.1425 29.7969 100.6376 -8.2613 -13.6644 10.0208
# 4 -3.1980 -1.3477 -8.2613 35.2501 -2.4924 -10.2105
# 5 0.1015 -2.8998 -13.6644 -2.4924 41.4296 -3.5727
# 6 2.5435 11.4025 10.0208 -10.2105 -3.5727 30.0662
#
#
#
# Elastic Compliance Matrix: (Units=1/GPa)
#
#
# Indices 1 2 3 4 5 6 
#
# 1 0.011141 -0.004243 -0.003388 0.000491 -0.001256 0.001813
# 2 -0.004243 0.016161 -0.002801 -0.002069 -0.000388 -0.005585
# 3 -0.003388 -0.002801 0.013008 0.002441 0.004105 -0.001670
# 4 0.000491 -0.002069 0.002441 0.032456 0.003593 0.011379
# 5 -0.001256 -0.000388 0.004105 0.003593 0.025958 0.003190
# 6 0.001813 -0.005585 -0.001670 0.011379 0.003190 0.040024
#
#
# Mechanical properties :
#
#
# Convention : Reuss Voigt Hill
#
# Bulk Modulus (GPa) = 51.42350 56.68328 54.05339
# Shear Modulus (GPa) = 30.10328 34.04334 32.07331
#
# Velocity S-wave (km/s) = 3.77898 4.01868 3.90067
# Velocity P-wave (km/s) = 6.59057 6.95866 6.77712
#
# Compressibility (1/GPa) = 0.01944636
#
# Stress axis : x y z
#
# Youngs Moduli (GPa) = 89.75735 61.87688 76.87725
#
# Poissons Ratio (x) = 0.26253 0.26045
# Poissons Ratio (y) = 0.38082 0.21535
# Poissons Ratio (z) = 0.30408 0.17333
#
# Static dielectric constant tensor:
#      x y z
#    x 3.870820 -0.100580 -0.117990 
#    y -0.100580 3.660660 -0.011050 
#    z -0.117990 -0.011050 3.719930 
# 
# 
# High freq. dielectric constant tensor:
#      x y z
#    x 1.838930 -0.012250 -0.012780 
#    y -0.012250 1.825570 -0.001370 
#    z -0.012780 -0.001370 1.825670 
# 
# From -- ./inp_files/207413.got.cif
#   From: 2010.06.25/outbox.cif.g09.slc.cpg/sg2_104_cif.got.tgz:207413.got - 2010.06.27 13:26:56.
