data_PCOD8018600
_publ_section_title
;
Structure prediction by ZEFSAII (Michael W. Deem and Ramdas Pophale) SiO2 
 PCOD8018600
Probable space group: P -1
;
_chemical_formula_sum "Si O2"
_cell_formula_units_Z 16
_cell_length_a 9.540860
_cell_length_b 12.055936
_cell_length_c 17.645628
_cell_angle_alpha 40.193190
_cell_angle_beta 102.467947
_cell_angle_gamma 132.983975
_cell_volume 731.588250
_symmetry_space_group_name_H-M "P -1"
_symmetry_group_IT_number 2
_symmetry_cell_setting 'triclinic'
loop_
_space_group_symop_operation_xyz
x,y,z
-x,-y,-z
loop_
_atom_site_type_symbol
_atom_site_label
_atom_site_fract_x
_atom_site_fract_y
_atom_site_fract_z
Si Si1 0.513752 0.265737 0.478934
Si Si2 0.033558 0.404931 0.265765
Si Si3 0.596748 0.140332 0.694273
Si Si4 0.019140 0.644627 0.275953
Si Si5 0.460680 0.572232 0.244169
Si Si6 0.394322 0.326173 0.960111
Si Si7 0.291921 0.522727 0.952861
Si Si8 0.770193 0.150352 0.060061
O O1 0.594183 0.305704 0.554471
O O2 0.487139 0.443991 0.374183
O O3 0.726938 0.398210 0.380210
O O4 0.255567 0.921556 0.607660
O O5 0.061619 0.582081 0.237418
O O6 0.183185 0.380739 0.319951
O O7 0.156152 0.597274 0.102383
O O8 0.878939 0.367882 0.634272
O O9 0.473585 0.861467 0.779192
O O10 0.443084 0.020998 0.815081
O O11 0.169390 0.970049 0.119360
O O12 0.501756 0.539349 0.181828
O O13 0.667823 0.918891 0.105805
O O14 0.289841 0.402818 0.940298
O O15 0.622668 0.491848 0.954027
O O16 0.010695 0.309243 0.047754
#
# Coordination Sequence:
#
# PCOD8018600 Si02
#       8
#     2   2   2   2   2   2   2   2
#     4  12  28  42  67 100 145 183 223 274 349 405
#     4  12  24  46  69 105 133 179 232 281 341 403
#     4  11  24  45  69 101 137 180 234 275 338 408
#     4  11  23  46  71  98 136 182 229 283 334 410
#     4  12  26  45  69 104 139 181 221 291 337 402
#     4  10  23  42  70 103 139 170 234 288 336 396
#     4  10  22  40  68 107 130 175 225 289 338 389
#     4  12  23  43  77  97 131 183 235 282 331 403
#
# _framework density 21.870225999999999
#
# number of rings (size 3 to 8) (size 9 to 14) (size 15 to 20)
#    0.000    0.750    3.750    4.125    3.500    2.500 
#    0.000    1.250    0.000    0.000    0.000    0.000 
#    0.000    0.000    0.000    0.000    0.000    0.000 
#
# Total GULP energy -198489.399903 kJ/mol
# GULP energy per Si atom -12405.587494 kJ/mol
# Density = 2.182045 g / cm^3
# Si number density = 21.870226 Si / 1000 Ang^3
#
#
#
# Elastic Constant Matrix: (Units=GPa)
#
#
# Indices 1 2 3 4 5 6 
#
# 1 122.2447 37.1059 48.0139 13.2362 11.4805 9.2536
# 2 37.1059 72.6400 36.7257 -2.6953 4.0947 5.9153
# 3 48.0139 36.7257 85.1253 11.9481 8.9463 2.8989
# 4 13.2362 -2.6953 11.9481 30.9918 1.2154 -0.9690
# 5 11.4805 4.0947 8.9463 1.2154 28.1254 1.3573
# 6 9.2536 5.9153 2.8989 -0.9690 1.3573 44.8676
#
#
#
# Elastic Compliance Matrix: (Units=1/GPa)
#
#
# Indices 1 2 3 4 5 6 
#
# 1 0.011718 -0.003744 -0.004139 -0.003681 -0.002683 -0.001654
# 2 -0.003744 0.019619 -0.007238 0.006026 0.000773 -0.001240
# 3 -0.004139 -0.007238 0.018297 -0.005785 -0.002855 0.000587
# 4 -0.003681 0.006026 -0.005785 0.036595 0.000831 0.001104
# 5 -0.002683 0.000773 -0.002855 0.000831 0.037433 -0.000479
# 6 -0.001654 -0.001240 0.000587 0.001104 -0.000479 0.022793
#
#
# Mechanical properties :
#
#
# Convention : Reuss Voigt Hill
#
# Bulk Modulus (GPa) = 51.56620 58.18900 54.87760
# Shear Modulus (GPa) = 27.29849 31.34125 29.31987
#
# Velocity S-wave (km/s) = 3.53683 3.78968 3.66543
# Velocity P-wave (km/s) = 6.34888 6.76854 6.56207
#
# Compressibility (1/GPa) = 0.01939255
#
# Stress axis : x y z
#
# Youngs Moduli (GPa) = 85.33713 50.97085 54.65451
#
# Poissons Ratio (x) = 0.19082 0.22624
# Poissons Ratio (y) = 0.31948 0.39557
# Poissons Ratio (z) = 0.35325 0.36891
#
# Static dielectric constant tensor:
#      x y z
#    x 4.141200 0.179190 0.132090 
#    y 0.179190 4.101050 -0.035300 
#    z 0.132090 -0.035300 3.766620 
# 
# 
# High freq. dielectric constant tensor:
#      x y z
#    x 1.874310 0.011330 -0.000990 
#    y 0.011330 1.871640 -0.002460 
#    z -0.000990 -0.002460 1.844570 
# 
# From -- ./inp_files/186043.got.cif
#   From: 2010.06.25/outbox.cif.g09.slc.cpg/sg2_94_cif.got.tgz:186043.got - 2010.06.27 13:26:56.
