data_PCOD8018927
_publ_section_title
;
Structure prediction by ZEFSAII (Michael W. Deem and Ramdas Pophale) SiO2 
 PCOD8018927
Probable space group: P -1
;
_chemical_formula_sum "Si O2"
_cell_formula_units_Z 16
_cell_length_a 8.554349
_cell_length_b 14.378097
_cell_length_c 9.008443
_cell_angle_alpha 137.550050
_cell_angle_beta 88.578211
_cell_angle_gamma 98.726940
_cell_volume 732.846311
_symmetry_space_group_name_H-M "P -1"
_symmetry_group_IT_number 2
_symmetry_cell_setting 'triclinic'
loop_
_space_group_symop_operation_xyz
x,y,z
-x,-y,-z
loop_
_atom_site_type_symbol
_atom_site_label
_atom_site_fract_x
_atom_site_fract_y
_atom_site_fract_z
Si Si1 0.889458 0.137340 0.548992
Si Si2 0.968716 0.857821 0.744664
Si Si3 0.555611 0.334340 0.443271
Si Si4 0.100302 0.654312 0.688810
Si Si5 0.806662 0.821526 0.249992
Si Si6 0.701538 0.197342 0.888582
Si Si7 0.347277 0.118360 0.391139
Si Si8 0.569864 0.649300 0.850369
O O1 0.741561 0.174834 0.687877
O O2 0.894242 0.164654 0.404686
O O3 0.049225 0.229366 0.728292
O O4 0.886245 0.971880 0.359631
O O5 0.801820 0.846185 0.652756
O O6 0.973846 0.739077 0.725062
O O7 0.000000 0.000000 0.000000
O O8 0.735108 0.332488 0.389504
O O9 0.503678 0.207627 0.412647
O O10 0.541427 0.483589 0.690849
O O11 0.436684 0.314709 0.281235
O O12 0.000000 0.500000 0.500000
O O13 0.146397 0.710387 0.920506
O O14 0.663651 0.831015 0.379727
O O15 0.741912 0.718427 0.994704
O O16 0.648728 0.048241 0.802144
O O17 0.561183 0.282522 0.982321
#
# Coordination Sequence:
#
# PCOD8018927 Si02
#       8
#     2   2   2   2   2   2   2   2
#     4   9  21  38  62  97 127 161 217 257 317 372
#     4  11  23  40  67  97 123 169 211 264 315 375
#     4  10  25  42  60  95 127 167 217 262 313 379
#     4  11  26  42  64  94 128 168 215 264 320 378
#     4   9  20  37  62  92 128 169 202 260 314 378
#     4  10  22  42  63  96 129 164 213 265 307 383
#     4  10  22  41  62  96 130 156 217 263 309 384
#     4  10  23  39  63  90 122 178 205 256 319 369
#
# _framework density 21.832681000000001
#
# number of rings (size 3 to 8) (size 9 to 14) (size 15 to 20)
#    0.000    2.000    1.250    0.750    8.750    6.500 
#    0.000    0.625    0.000    0.000    0.000    0.000 
#    0.000    0.000    0.000    0.000    0.000    0.000 
#
# Total GULP energy -198296.887360 kJ/mol
# GULP energy per Si atom -12393.555460 kJ/mol
# Density = 2.178299 g / cm^3
# Si number density = 21.832681 Si / 1000 Ang^3
#
#
#
# Elastic Constant Matrix: (Units=GPa)
#
#
# Indices 1 2 3 4 5 6 
#
# 1 56.7111 12.3853 32.6507 3.3993 0.9377 1.4265
# 2 12.3853 50.3488 41.6471 6.6697 6.0321 10.3365
# 3 32.6507 41.6471 128.4360 12.5793 9.7513 0.6798
# 4 3.3993 6.6697 12.5793 30.1626 -0.6605 -2.5005
# 5 0.9377 6.0321 9.7513 -0.6605 41.6744 2.6400
# 6 1.4265 10.3365 0.6798 -2.5005 2.6400 36.5430
#
#
#
# Elastic Compliance Matrix: (Units=1/GPa)
#
#
# Indices 1 2 3 4 5 6 
#
# 1 0.020733 -0.000933 -0.005026 -0.000058 0.000877 -0.000519
# 2 -0.000933 0.029864 -0.008927 -0.003507 -0.001739 -0.008359
# 3 -0.005026 -0.008927 0.012310 -0.002427 -0.001669 0.002447
# 4 -0.000058 -0.003507 -0.002427 0.035257 0.001423 0.003349
# 5 0.000877 -0.001739 -0.001669 0.001423 0.024717 -0.001200
# 6 -0.000519 -0.008359 0.002447 0.003349 -0.001200 0.030020
#
#
# Mechanical properties :
#
#
# Convention : Reuss Voigt Hill
#
# Bulk Modulus (GPa) = 30.18045 45.42910 37.80478
# Shear Modulus (GPa) = 25.81084 31.59686 28.70385
#
# Velocity S-wave (km/s) = 3.44206 3.80837 3.62984
# Velocity P-wave (km/s) = 5.44523 6.33966 5.90939
#
# Compressibility (1/GPa) = 0.03313403
#
# Stress axis : x y z
#
# Youngs Moduli (GPa) = 48.23266 33.48509 81.23610
#
# Poissons Ratio (x) = 0.03125 0.40830
# Poissons Ratio (y) = 0.04502 0.72518
# Poissons Ratio (z) = 0.24242 0.29892
#
# Static dielectric constant tensor:
#      x y z
#    x 3.832000 0.029120 0.071760 
#    y 0.029120 3.798760 -0.203860 
#    z 0.071760 -0.203860 4.140220 
# 
# 
# High freq. dielectric constant tensor:
#      x y z
#    x 1.855780 0.000140 -0.001180 
#    y 0.000140 1.839090 -0.011060 
#    z -0.001180 -0.011060 1.867700 
# 
# From -- ./inp_files/209382.got.cif
#   From: 2010.06.25/outbox.cif.g09.slc.cpg/sg2_105_cif.got.tgz:209382.got - 2010.06.27 13:26:56.
