data_PCOD8018385
_publ_section_title
;
Structure prediction by ZEFSAII (Michael W. Deem and Ramdas Pophale) SiO2 
 PCOD8018385
Probable space group: P -1
;
_chemical_formula_sum "Si O2"
_cell_formula_units_Z 16
_cell_length_a 11.813611
_cell_length_b 19.598895
_cell_length_c 5.313549
_cell_angle_alpha 127.239759
_cell_angle_beta 120.829501
_cell_angle_gamma 48.497961
_cell_volume 720.587859
_symmetry_space_group_name_H-M "P -1"
_symmetry_group_IT_number 2
_symmetry_cell_setting 'triclinic'
loop_
_space_group_symop_operation_xyz
x,y,z
-x,-y,-z
loop_
_atom_site_type_symbol
_atom_site_label
_atom_site_fract_x
_atom_site_fract_y
_atom_site_fract_z
Si Si1 0.653113 0.153427 0.377940
Si Si2 0.702063 0.855973 0.448533
Si Si3 0.854161 0.497508 0.735901
Si Si4 0.944309 0.700492 0.732502
Si Si5 0.214690 0.713157 0.158068
Si Si6 0.630150 0.055881 0.617036
Si Si7 0.327443 0.588113 0.489003
Si Si8 0.319201 0.296159 0.259038
O O1 0.780110 0.185504 0.608246
O O2 0.694585 0.073733 0.471527
O O3 0.486736 0.253317 0.479009
O O4 0.654708 0.109525 0.005908
O O5 0.862824 0.778298 0.587167
O O6 0.548569 0.911702 0.571770
O O7 0.726638 0.936842 0.510892
O O8 0.658286 0.795389 0.079763
O O9 0.775531 0.464059 0.783810
O O10 0.724325 0.604440 0.721782
O O11 0.915373 0.410476 0.407745
O O12 0.000000 0.500000 0.000000
O O13 0.817534 0.680433 0.657062
O O14 0.036342 0.744081 0.084636
O O15 0.317647 0.648539 0.364431
O O16 0.276992 0.657094 0.835627
O O17 0.500000 0.500000 0.500000
#
# Coordination Sequence:
#
# PCOD8018385 Si02
#       8
#     2   2   2   2   2   2   2   2
#     4  11  23  43  66  96 122 166 216 271 307 376
#     4  10  22  40  65  96 125 167 205 270 325 376
#     4  11  22  38  60  96 128 163 213 257 306 376
#     4  11  23  40  62  92 133 172 202 260 326 377
#     4  11  25  42  64  91 132 170 209 261 323 374
#     4  10  23  41  68  97 125 157 221 270 318 371
#     4  11  24  43  63  90 129 176 216 257 308 374
#     4  11  22  38  66  91 126 168 215 257 315 376
#
# _framework density 22.204094999999999
#
# number of rings (size 3 to 8) (size 9 to 14) (size 15 to 20)
#    0.000    1.250    2.500    3.000    3.500    5.500 
#    0.000    1.250    0.000    0.000    0.000    0.000 
#    0.000    0.000    0.000    0.000    0.000    0.000 
#
# Total GULP energy -198233.097509 kJ/mol
# GULP energy per Si atom -12389.568594 kJ/mol
# Density = 2.215356 g / cm^3
# Si number density = 22.204095 Si / 1000 Ang^3
#
#
#
# Elastic Constant Matrix: (Units=GPa)
#
#
# Indices 1 2 3 4 5 6 
#
# 1 63.1685 11.2611 22.6265 2.7739 15.3015 21.1680
# 2 11.2611 96.0130 27.3415 13.6666 -0.4178 27.7158
# 3 22.6265 27.3415 85.0463 -1.6386 15.0603 12.6194
# 4 2.7739 13.6666 -1.6386 35.1747 9.0668 -0.8254
# 5 15.3015 -0.4178 15.0603 9.0668 37.4356 2.3929
# 6 21.1680 27.7158 12.6194 -0.8254 2.3929 41.3880
#
#
#
# Elastic Compliance Matrix: (Units=1/GPa)
#
#
# Indices 1 2 3 4 5 6 
#
# 1 0.022184 0.001781 -0.003693 -0.001179 -0.006570 -0.011056
# 2 0.001781 0.015671 -0.004823 -0.007704 0.003912 -0.010314
# 3 -0.003693 -0.004823 0.015273 0.004395 -0.005810 0.000885
# 4 -0.001179 -0.007704 0.004395 0.034453 -0.010080 0.005692
# 5 -0.006570 0.003912 -0.005810 -0.010080 0.034199 0.000333
# 6 -0.011056 -0.010314 0.000885 0.005692 0.000333 0.036548
#
#
# Mechanical properties :
#
#
# Convention : Reuss Voigt Hill
#
# Bulk Modulus (GPa) = 25.21555 40.74290 32.97922
# Shear Modulus (GPa) = 27.02448 34.99956 31.01202
#
# Velocity S-wave (km/s) = 3.49247 3.97453 3.74127
# Velocity P-wave (km/s) = 5.25776 6.28105 5.79205
#
# Compressibility (1/GPa) = 0.03965807
#
# Stress axis : x y z
#
# Youngs Moduli (GPa) = 45.07683 63.81321 65.47298
#
# Poissons Ratio (x) = -0.11363 0.24182
# Poissons Ratio (y) = -0.08027 0.31575
# Poissons Ratio (z) = 0.16649 0.30774
#
# Static dielectric constant tensor:
#      x y z
#    x 4.093020 0.184710 0.483380 
#    y 0.184710 4.342330 0.125240 
#    z 0.483380 0.125240 4.160160 
# 
# 
# High freq. dielectric constant tensor:
#      x y z
#    x 1.873780 0.008880 0.017160 
#    y 0.008880 1.880540 0.005010 
#    z 0.017160 0.005010 1.864470 
# 
# From -- ./inp_files/72262.got.cif
#   From: 2010.06.25/outbox.cif.g09.slc.cpg/sg2_37_cif.got.tgz:72262.got - 2010.06.27 13:26:56.
