data_PCOD8018851
_publ_section_title
;
Structure prediction by ZEFSAII (Michael W. Deem and Ramdas Pophale) SiO2 
 PCOD8018851
Probable space group: P -1
;
_chemical_formula_sum "Si O2"
_cell_formula_units_Z 16
_cell_length_a 11.559201
_cell_length_b 5.192944
_cell_length_c 12.769228
_cell_angle_alpha 100.014475
_cell_angle_beta 114.307200
_cell_angle_gamma 82.875241
_cell_volume 686.722408
_symmetry_space_group_name_H-M "P -1"
_symmetry_group_IT_number 2
_symmetry_cell_setting 'triclinic'
loop_
_space_group_symop_operation_xyz
x,y,z
-x,-y,-z
loop_
_atom_site_type_symbol
_atom_site_label
_atom_site_fract_x
_atom_site_fract_y
_atom_site_fract_z
Si Si1 0.112109 0.699704 0.569227
Si Si2 0.094920 0.426934 0.935501
Si Si3 0.617253 0.667196 0.940923
Si Si4 0.464287 0.149601 0.859898
Si Si5 0.962940 0.119729 0.222754
Si Si6 0.553796 0.270238 0.573524
Si Si7 0.342287 0.319225 0.635937
Si Si8 0.197427 0.958359 0.413833
O O1 0.094885 0.863946 0.680792
O O2 0.255640 0.583049 0.631855
O O3 0.110321 0.863732 0.471569
O O4 0.000000 0.500000 0.500000
O O5 0.072810 0.627477 0.844302
O O6 0.078644 0.135465 0.869356
O O7 0.237093 0.425563 0.035069
O O8 0.000000 0.500000 0.000000
O O9 0.541073 0.409258 0.897472
O O10 0.552924 0.883477 0.851889
O O11 0.608400 0.839504 0.056251
O O12 0.346899 0.158050 0.734256
O O13 0.114179 0.086359 0.297460
O O14 0.500000 0.500000 0.500000
O O15 0.493982 0.350285 0.670864
O O16 0.707793 0.262454 0.622027
O O17 0.500000 0.000000 0.500000
O O18 0.284023 0.174030 0.506699
#
# Coordination Sequence:
#
# PCOD8018851 Si02
#       8
#     2   2   2   2   2   2   2   2
#     4  12  24  42  68 105 153 190 234 281 350 432
#     4  12  28  50  74 100 138 186 246 299 359 418
#     4  10  23  45  65  97 134 168 238 299 344 401
#     4  10  23  40  70  99 129 178 227 291 354 400
#     4  12  27  44  74 106 140 193 231 293 362 416
#     4  10  22  41  60  90 134 188 219 274 321 400
#     4  11  24  40  69 101 145 186 233 276 355 428
#     4  11  25  42  67 104 156 181 238 281 348 439
#
# _framework density 23.299081000000001
#
# number of rings (size 3 to 8) (size 9 to 14) (size 15 to 20)
#    0.000    1.000    2.500    3.000    5.250    3.000 
#    0.000    0.000    0.000    0.000    0.000    0.000 
#    0.000    0.000    0.000    0.000    0.000    0.000 
#
# Total GULP energy -198215.740864 kJ/mol
# GULP energy per Si atom -12388.483804 kJ/mol
# Density = 2.324605 g / cm^3
# Si number density = 23.299081 Si / 1000 Ang^3
#
#
#
# Elastic Constant Matrix: (Units=GPa)
#
#
# Indices 1 2 3 4 5 6 
#
# 1 113.1513 18.4721 7.3818 3.3376 -9.2040 -28.0227
# 2 18.4721 101.5037 11.8427 -16.5048 -5.6090 -6.2888
# 3 7.3818 11.8427 63.3574 -17.4912 4.5256 -9.5126
# 4 3.3376 -16.5048 -17.4912 40.4191 -6.1506 2.0989
# 5 -9.2040 -5.6090 4.5256 -6.1506 28.9413 -6.6589
# 6 -28.0227 -6.2888 -9.5126 2.0989 -6.6589 38.9174
#
#
#
# Elastic Compliance Matrix: (Units=1/GPa)
#
#
# Indices 1 2 3 4 5 6 
#
# 1 0.011864 -0.001472 -0.000517 -0.001464 0.005369 0.009176
# 2 -0.001472 0.011202 -0.000682 0.004817 0.003027 0.000842
# 3 -0.000517 -0.000682 0.018635 0.007523 -0.000800 0.003530
# 4 -0.001464 0.004817 0.007523 0.030962 0.006087 0.000935
# 5 0.005369 0.003027 -0.000800 0.006087 0.040751 0.010804
# 6 0.009176 0.000842 0.003530 0.000935 0.010804 0.035100
#
#
# Mechanical properties :
#
#
# Convention : Reuss Voigt Hill
#
# Bulk Modulus (GPa) = 27.50304 39.26727 33.38516
# Shear Modulus (GPa) = 30.12467 37.67663 33.90065
#
# Velocity S-wave (km/s) = 3.59967 4.02566 3.81861
# Velocity P-wave (km/s) = 5.39507 6.20469 5.81399
#
# Compressibility (1/GPa) = 0.03635961
#
# Stress axis : x y z
#
# Youngs Moduli (GPa) = 84.28750 89.26939 53.66137
#
# Poissons Ratio (x) = 0.13137 0.02775
# Poissons Ratio (y) = 0.12404 0.03661
# Poissons Ratio (z) = 0.04359 0.06091
#
# Static dielectric constant tensor:
#      x y z
#    x 3.083160 0.049760 1.143900 
#    y 0.049760 4.097990 -0.482340 
#    z 1.143900 -0.482340 3.593730 
# 
# 
# High freq. dielectric constant tensor:
#      x y z
#    x 1.931990 -0.018920 0.003780 
#    y -0.018920 1.929640 -0.011650 
#    z 0.003780 -0.011650 1.917880 
# 
# From -- ./inp_files/410620.got.cif
#   From: 2010.06.25/outbox.cif.g09.slc.cpg/sg2_206_cif.got.tgz:410620.got - 2010.06.27 13:26:56.
