data_PCOD8018798
_publ_section_title
;
Structure prediction by ZEFSAII (Michael W. Deem and Ramdas Pophale) SiO2 
 PCOD8018798
Probable space group: P -1
;
_chemical_formula_sum "Si O2"
_cell_formula_units_Z 12
_cell_length_a 14.600927
_cell_length_b 11.383576
_cell_length_c 9.446972
_cell_angle_alpha 126.061575
_cell_angle_beta 28.716348
_cell_angle_gamma 134.531199
_cell_volume 536.213898
_symmetry_space_group_name_H-M "P -1"
_symmetry_group_IT_number 2
_symmetry_cell_setting 'triclinic'
loop_
_space_group_symop_operation_xyz
x,y,z
-x,-y,-z
loop_
_atom_site_type_symbol
_atom_site_label
_atom_site_fract_x
_atom_site_fract_y
_atom_site_fract_z
Si Si1 0.564097 0.376256 0.749155
Si Si2 0.953492 0.491073 0.723023
Si Si3 0.939204 0.997507 0.284513
Si Si4 0.285713 0.881723 0.127084
Si Si5 0.352073 0.012710 0.829410
Si Si6 0.760252 0.726518 0.128842
O O1 0.447392 0.206009 0.875682
O O2 0.468090 0.349397 0.700208
O O3 0.822040 0.440752 0.444247
O O4 0.500000 0.500000 0.000000
O O5 0.797750 0.305937 0.850982
O O6 0.000000 0.500000 0.500000
O O7 0.818562 0.587983 0.010358
O O8 0.879562 0.052099 0.552036
O O9 0.743411 0.839433 0.359138
O O10 0.113409 0.936224 0.034916
O O11 0.037156 0.157455 0.163813
O O12 0.500000 0.000000 0.000000
O O13 0.336444 0.904129 0.908527
O O14 0.500000 0.000000 0.500000
#
# Coordination Sequence:
#
# PCOD8018798 Si02
#       6
#     2   2   2   2   2   2
#     4  11  22  39  71  98 133 185 229 277 352 409
#     4  12  21  43  68 100 141 182 231 290 345 410
#     4  10  22  44  70 100 141 178 233 284 347 410
#     4  12  27  43  71 105 139 184 235 284 347 418
#     4  11  25  46  73 101 138 186 231 287 348 415
#     4  10  22  40  72 101 134 185 226 283 351 414
#
# _framework density 22.37913
#
# number of rings (size 3 to 8) (size 9 to 14) (size 15 to 20)
#    0.000    1.000    3.333    3.500    7.000    0.000 
#    0.000    5.833    0.000    0.000    0.000    0.000 
#    0.000    0.000    0.000    0.000    0.000    0.000 
#
# Total GULP energy -148786.133230 kJ/mol
# GULP energy per Si atom -12398.844436 kJ/mol
# Density = 2.232819 g / cm^3
# Si number density = 22.379130 Si / 1000 Ang^3
#
#
#
# Elastic Constant Matrix: (Units=GPa)
#
#
# Indices 1 2 3 4 5 6 
#
# 1 150.5932 80.6087 55.6585 -9.5373 -10.8750 -1.5016
# 2 80.6087 155.7256 38.4310 -6.6711 2.7556 -7.4893
# 3 55.6585 38.4310 81.2538 3.3254 8.1008 -12.4832
# 4 -9.5373 -6.6711 3.3254 35.6699 5.2439 -4.1965
# 5 -10.8750 2.7556 8.1008 5.2439 49.8683 -8.0374
# 6 -1.5016 -7.4893 -12.4832 -4.1965 -8.0374 43.1917
#
#
#
# Elastic Compliance Matrix: (Units=1/GPa)
#
#
# Indices 1 2 3 4 5 6 
#
# 1 0.011928 -0.004560 -0.006674 0.002280 0.003466 -0.001438
# 2 -0.004560 0.009124 -0.000947 0.000880 -0.001277 0.000998
# 3 -0.006674 -0.000947 0.018399 -0.002696 -0.003461 0.004015
# 4 0.002280 0.000880 -0.002696 0.029572 -0.001906 0.001971
# 5 0.003466 -0.001277 -0.003461 -0.001906 0.022097 0.002826
# 6 -0.001438 0.000998 0.004015 0.001971 0.002826 0.025153
#
#
# Mechanical properties :
#
#
# Convention : Reuss Voigt Hill
#
# Bulk Modulus (GPa) = 66.27404 81.88545 74.07974
# Shear Modulus (GPa) = 34.32493 39.93762 37.13127
#
# Velocity S-wave (km/s) = 3.92061 4.22903 4.07774
# Velocity P-wave (km/s) = 7.08332 7.77919 7.43940
#
# Compressibility (1/GPa) = 0.01508886
#
# Stress axis : x y z
#
# Youngs Moduli (GPa) = 83.83375 109.59884 54.35119
#
# Poissons Ratio (x) = 0.49981 0.36273
# Poissons Ratio (y) = 0.38231 0.05148
# Poissons Ratio (z) = 0.55949 0.10381
#
# Static dielectric constant tensor:
#      x y z
#    x 2.993780 0.490000 -1.995560 
#    y 0.490000 4.159060 0.785440 
#    z -1.995560 0.785440 1.224580 
# 
# 
# High freq. dielectric constant tensor:
#      x y z
#    x 1.886350 0.006430 -0.018520 
#    y 0.006430 1.894770 0.013380 
#    z -0.018520 0.013380 1.865540 
# 
# From -- ./inp_files/151149.got.cif
#   From: 2010.06.25/outbox.cif.g09.slc.cpg/sg2_76_cif.got.tgz:151149.got - 2010.06.27 13:26:56.
