data_PCOD8018787
_publ_section_title
;
Structure prediction by ZEFSAII (Michael W. Deem and Ramdas Pophale) SiO2 
 PCOD8018787
Probable space group: P -1
;
_chemical_formula_sum "Si O2"
_cell_formula_units_Z 16
_cell_length_a 15.132379
_cell_length_b 5.271595
_cell_length_c 13.213221
_cell_angle_alpha 92.338583
_cell_angle_beta 134.419468
_cell_angle_gamma 66.363013
_cell_volume 641.680911
_symmetry_space_group_name_H-M "P -1"
_symmetry_group_IT_number 2
_symmetry_cell_setting 'triclinic'
loop_
_space_group_symop_operation_xyz
x,y,z
-x,-y,-z
loop_
_atom_site_type_symbol
_atom_site_label
_atom_site_fract_x
_atom_site_fract_y
_atom_site_fract_z
Si Si1 0.162056 0.386917 0.664796
Si Si2 0.724126 0.439650 0.819767
Si Si3 0.565041 0.105497 0.468345
Si Si4 0.750861 0.612736 0.472619
Si Si5 0.246804 0.070817 0.029592
Si Si6 0.407808 0.852468 0.952250
Si Si7 0.026142 0.606848 0.752753
Si Si8 0.169370 0.840168 0.297835
O O1 0.249276 0.452734 0.649189
O O2 0.139137 0.575445 0.754045
O O3 0.000000 0.500000 0.500000
O O4 0.258815 0.034782 0.768121
O O5 0.557537 0.558178 0.654759
O O6 0.720829 0.717215 0.873369
O O7 0.828714 0.343313 0.802195
O O8 0.774498 0.160873 0.927847
O O9 0.710497 0.073864 0.628666
O O10 0.500000 0.000000 0.500000
O O11 0.600407 0.895709 0.393965
O O12 0.786304 0.332176 0.563441
O O13 0.873132 0.697823 0.582964
O O14 0.091159 0.291309 0.856037
O O15 0.371419 0.896220 0.043185
O O16 0.500000 0.500000 0.000000
O O17 0.500000 0.000000 0.000000
O O18 0.991638 0.866525 0.810764
#
# Coordination Sequence:
#
# PCOD8018787 Si02
#       8
#     2   2   2   2   2   2   2   2
#     4   9  21  47  70 104 138 187 240 297 360 426
#     4  12  26  42  68 101 139 185 231 275 353 420
#     4  11  23  42  64  96 143 176 229 294 348 410
#     4  10  22  40  71  97 131 176 236 290 350 413
#     4  11  27  45  69 100 143 185 227 289 346 427
#     4  11  25  48  73 105 145 187 238 298 360 427
#     4   9  23  46  64  97 138 177 234 290 350 408
#     4  11  24  41  69  99 133 184 233 293 345 412
#
# _framework density 24.934512999999999
#
# number of rings (size 3 to 8) (size 9 to 14) (size 15 to 20)
#    0.000    1.500    1.250    1.875    8.750    1.500 
#   11.250    0.000    0.000    0.000    0.000    0.000 
#    0.000    0.000    0.000    0.000    0.000    0.000 
#
# Total GULP energy -198264.894463 kJ/mol
# GULP energy per Si atom -12391.555904 kJ/mol
# Density = 2.487776 g / cm^3
# Si number density = 24.934513 Si / 1000 Ang^3
#
#
#
# Elastic Constant Matrix: (Units=GPa)
#
#
# Indices 1 2 3 4 5 6 
#
# 1 133.6643 79.1467 44.4099 -4.3778 -45.7798 -32.8254
# 2 79.1467 174.9911 51.9697 -17.3722 -17.1175 -42.0954
# 3 44.4099 51.9697 93.6056 -18.4040 -24.1168 -20.0112
# 4 -4.3778 -17.3722 -18.4040 41.0745 -1.1959 0.8073
# 5 -45.7798 -17.1175 -24.1168 -1.1959 40.1050 3.6146
# 6 -32.8254 -42.0954 -20.0112 0.8073 3.6146 54.5018
#
#
#
# Elastic Compliance Matrix: (Units=1/GPa)
#
#
# Indices 1 2 3 4 5 6 
#
# 1 0.017983 -0.004993 0.000182 0.000295 0.017989 0.005844
# 2 -0.004993 0.009473 -0.002609 0.002134 -0.003481 0.003551
# 3 0.000182 -0.002609 0.016292 0.006405 0.008776 0.003400
# 4 0.000295 0.002134 0.006405 0.028248 0.005637 0.003386
# 5 0.017989 -0.003481 0.008776 0.005637 0.048702 0.008054
# 6 0.005844 0.003551 0.003400 0.003386 0.008054 0.025275
#
#
# Mechanical properties :
#
#
# Convention : Reuss Voigt Hill
#
# Bulk Modulus (GPa) = 34.59049 83.70151 59.14600
# Shear Modulus (GPa) = 29.33433 42.25190 35.79312
#
# Velocity S-wave (km/s) = 3.43367 4.12091 3.79289
# Velocity P-wave (km/s) = 5.44268 7.50227 6.55388
#
# Compressibility (1/GPa) = 0.02890968
#
# Stress axis : x y z
#
# Youngs Moduli (GPa) = 55.60717 105.56095 61.37874
#
# Poissons Ratio (x) = 0.52706 -0.01119
# Poissons Ratio (y) = 0.27765 0.16012
# Poissons Ratio (z) = -0.01013 0.27539
#
# Static dielectric constant tensor:
#      x y z
#    x 4.746320 -0.809370 -0.172640 
#    y -0.809370 4.874080 -0.167800 
#    z -0.172640 -0.167800 4.930790 
# 
# 
# High freq. dielectric constant tensor:
#      x y z
#    x 1.997890 -0.036030 -0.013220 
#    y -0.036030 1.993270 -0.015030 
#    z -0.013220 -0.015030 1.991180 
# 
# From -- ./inp_files/441966.got.cif
#   From: 2010.06.25/outbox.cif.g09.slc.cpg/sg2_221_cif.got.tgz:441966.got - 2010.06.27 13:26:56.
