data_PCOD8018952
_publ_section_title
;
Structure prediction by ZEFSAII (Michael W. Deem and Ramdas Pophale) SiO2 
 PCOD8018952
Probable space group: P -1
;
_chemical_formula_sum "Si O2"
_cell_formula_units_Z 16
_cell_length_a 27.637422
_cell_length_b 17.292325
_cell_length_c 12.094284
_cell_angle_alpha 21.553118
_cell_angle_beta 32.820113
_cell_angle_gamma 21.656617
_cell_volume 771.190654
_symmetry_space_group_name_H-M "P -1"
_symmetry_group_IT_number 2
_symmetry_cell_setting 'triclinic'
loop_
_space_group_symop_operation_xyz
x,y,z
-x,-y,-z
loop_
_atom_site_type_symbol
_atom_site_label
_atom_site_fract_x
_atom_site_fract_y
_atom_site_fract_z
Si Si1 0.295978 0.214105 0.343125
Si Si2 0.786150 0.710792 0.945089
Si Si3 0.749152 0.071343 0.338662
Si Si4 0.320319 0.888329 0.167318
Si Si5 0.355932 0.347519 0.837376
Si Si6 0.030542 0.705861 0.336924
Si Si7 0.446849 0.220079 0.206905
Si Si8 0.949833 0.602267 0.085862
O O1 0.166766 0.422297 0.389935
O O2 0.421671 0.086705 0.338958
O O3 0.318944 0.937244 0.620851
O O4 0.279539 0.397058 0.026766
O O5 0.948200 0.415120 0.025912
O O6 0.721243 0.992792 0.609839
O O7 0.737393 0.869582 0.946469
O O8 0.734761 0.566062 0.207588
O O9 0.690247 0.411353 0.000431
O O10 0.909559 0.800821 0.379065
O O11 0.368929 0.573368 0.527947
O O12 0.446281 0.790203 0.011332
O O13 0.204940 0.057985 0.070268
O O14 0.500000 0.000000 0.000000
O O15 0.040438 0.626047 0.554437
O O16 0.000000 0.000000 0.000000
O O17 0.500000 0.000000 0.500000
O O18 0.000000 0.500000 0.000000
#
# Coordination Sequence:
#
# PCOD8018952 Si02
#       8
#     2   2   2   2   2   2   2   2
#     4  11  23  40  65  93 122 162 215 258 319 375
#     4   9  20  40  63  91 119 157 209 255 311 375
#     4  10  22  41  63  90 125 160 207 265 304 377
#     4  11  22  38  63  86 126 163 204 260 316 365
#     4  11  23  39  64  95 125 163 213 255 310 380
#     4  11  21  39  69  94 125 165 214 262 316 379
#     4  12  25  40  59  87 123 169 211 255 318 377
#     4   9  21  39  63  93 127 162 208 261 317 372
#
# _framework density 20.747139000000001
#
# number of rings (size 3 to 8) (size 9 to 14) (size 15 to 20)
#    0.000    1.500    1.250    4.125    3.500    2.500 
#    0.000    2.500    0.000    0.000    0.000    0.000 
#    0.000    0.000    0.000    0.000    0.000    0.000 
#
# Total GULP energy -198253.969377 kJ/mol
# GULP energy per Si atom -12390.873086 kJ/mol
# Density = 2.069992 g / cm^3
# Si number density = 20.747139 Si / 1000 Ang^3
#
#
#
# Elastic Constant Matrix: (Units=GPa)
#
#
# Indices 1 2 3 4 5 6 
#
# 1 131.7654 33.5038 38.7864 4.1116 -5.3549 -13.6295
# 2 33.5038 91.2472 24.1188 16.0683 9.0039 -13.2266
# 3 38.7864 24.1188 82.1469 18.4461 5.4760 3.6043
# 4 4.1116 16.0683 18.4461 29.2207 -5.8076 1.1803
# 5 -5.3549 9.0039 5.4760 -5.8076 29.6823 3.3635
# 6 -13.6295 -13.2266 3.6043 1.1803 3.3635 34.4522
#
#
#
# Elastic Compliance Matrix: (Units=1/GPa)
#
#
# Indices 1 2 3 4 5 6 
#
# 1 0.010298 -0.003163 -0.005337 0.004408 0.004342 0.002843
# 2 -0.003163 0.015579 -0.000707 -0.009439 -0.007679 0.005877
# 3 -0.005337 -0.000707 0.017961 -0.011235 -0.005886 -0.003303
# 4 0.004408 -0.009439 -0.011235 0.049184 0.015800 -0.003932
# 5 0.004342 -0.007679 -0.005886 0.015800 0.041571 -0.005214
# 6 0.002843 0.005877 -0.003303 -0.003932 -0.005214 0.033396
#
#
# Mechanical properties :
#
#
# Convention : Reuss Voigt Hill
#
# Bulk Modulus (GPa) = 39.33458 55.33085 47.33271
# Shear Modulus (GPa) = 25.65716 32.58775 29.12246
#
# Velocity S-wave (km/s) = 3.52043 3.96752 3.75064
# Velocity P-wave (km/s) = 5.96027 6.90763 6.45136
#
# Compressibility (1/GPa) = 0.02542292
#
# Stress axis : x y z
#
# Youngs Moduli (GPa) = 97.11051 64.18823 55.67577
#
# Poissons Ratio (x) = 0.20301 0.29717
# Poissons Ratio (y) = 0.30713 0.03938
# Poissons Ratio (z) = 0.51832 0.04540
#
# Static dielectric constant tensor:
#      x y z
#    x 4.320330 -0.456820 -0.015080 
#    y -0.456820 4.097410 0.337660 
#    z -0.015080 0.337660 3.761620 
# 
# 
# High freq. dielectric constant tensor:
#      x y z
#    x 1.823100 -0.021920 -0.003730 
#    y -0.021920 1.814910 0.018770 
#    z -0.003730 0.018770 1.795370 
# 
# From -- ./inp_files/469780.got.cif
#   From: 2010.06.25/outbox.cif.g09.slc.cpg/sg2_235_cif.got.tgz:469780.got - 2010.06.27 13:26:56.
