data_PCOD8018935
_publ_section_title
;
Structure prediction by ZEFSAII (Michael W. Deem and Ramdas Pophale) SiO2 
 PCOD8018935
Probable space group: P -1
;
_chemical_formula_sum "Si O2"
_cell_formula_units_Z 16
_cell_length_a 8.134901
_cell_length_b 11.338153
_cell_length_c 20.760154
_cell_angle_alpha 29.929982
_cell_angle_beta 126.252634
_cell_angle_gamma 131.961812
_cell_volume 710.044605
_symmetry_space_group_name_H-M "P -1"
_symmetry_group_IT_number 2
_symmetry_cell_setting 'triclinic'
loop_
_space_group_symop_operation_xyz
x,y,z
-x,-y,-z
loop_
_atom_site_type_symbol
_atom_site_label
_atom_site_fract_x
_atom_site_fract_y
_atom_site_fract_z
Si Si1 0.972161 0.831021 0.373086
Si Si2 0.823894 0.266445 0.252069
Si Si3 0.748626 0.436545 0.398912
Si Si4 0.305369 0.299070 0.510891
Si Si5 0.100241 0.323167 0.813893
Si Si6 0.341056 0.987756 0.073295
Si Si7 0.696873 0.546556 0.703709
Si Si8 0.826970 0.276969 0.106274
O O1 0.809511 0.646803 0.369579
O O2 0.901554 0.756639 0.465139
O O3 0.209289 0.803010 0.445212
O O4 0.969458 0.102515 0.227464
O O5 0.810674 0.458692 0.213074
O O6 0.775340 0.359251 0.126651
O O7 0.070929 0.267381 0.301725
O O8 0.662663 0.969542 0.369335
O O9 0.889178 0.549942 0.313355
O O10 0.489592 0.355596 0.361245
O O11 0.500000 0.500000 0.500000
O O12 0.273873 0.434909 0.375289
O O13 0.846579 0.127778 0.859710
O O14 0.262692 0.168452 0.924399
O O15 0.353025 0.748885 0.148275
O O16 0.586671 0.147388 0.080248
O O17 0.000000 0.500000 0.000000
#
# Coordination Sequence:
#
# PCOD8018935 Si02
#       8
#     2   2   2   2   2   2   2   2
#     4  10  22  41  63 100 124 171 223 269 325 393
#     4  10  24  42  64 100 130 171 222 268 337 391
#     4  11  22  39  68  98 132 165 223 275 331 382
#     4  11  20  42  68  89 129 173 219 262 330 396
#     4  10  24  44  68 100 134 173 219 279 325 397
#     4  10  22  45  68  95 131 180 223 261 337 396
#     4  11  21  40  68  99 129 177 217 279 328 390
#     4  11  24  44  67  96 132 175 224 273 327 396
#
# _framework density 22.533795999999999
#
# number of rings (size 3 to 8) (size 9 to 14) (size 15 to 20)
#    0.000    1.500    2.500    2.625    1.750    5.000 
#    2.250    3.125    0.000    0.000    0.000    0.000 
#    0.000    0.000    0.000    0.000    0.000    0.000 
#
# Total GULP energy -198219.367062 kJ/mol
# GULP energy per Si atom -12388.710441 kJ/mol
# Density = 2.248251 g / cm^3
# Si number density = 22.533796 Si / 1000 Ang^3
#
#
#
# Elastic Constant Matrix: (Units=GPa)
#
#
# Indices 1 2 3 4 5 6 
#
# 1 72.8209 16.6737 35.5239 -7.4342 15.1818 8.2557
# 2 16.6737 87.6098 39.6859 -17.4834 5.8553 12.9902
# 3 35.5239 39.6859 127.8066 -4.2664 18.3648 6.5197
# 4 -7.4342 -17.4834 -4.2664 28.8821 2.6339 2.8465
# 5 15.1818 5.8553 18.3648 2.6339 31.1902 7.9116
# 6 8.2557 12.9902 6.5197 2.8465 7.9116 43.8338
#
#
#
# Elastic Compliance Matrix: (Units=1/GPa)
#
#
# Indices 1 2 3 4 5 6 
#
# 1 0.017556 -0.000008 -0.003721 0.004725 -0.006263 -0.001927
# 2 -0.000008 0.016007 -0.004409 0.009501 -0.000015 -0.004701
# 3 -0.003721 -0.004409 0.010648 -0.001829 -0.003787 0.001226
# 4 0.004725 0.009501 -0.001829 0.042315 -0.005252 -0.005233
# 5 -0.006263 -0.000015 -0.003787 -0.005252 0.039044 -0.004959
# 6 -0.001927 -0.004701 0.001226 -0.005233 -0.004959 0.025622
#
#
# Mechanical properties :
#
#
# Convention : Reuss Voigt Hill
#
# Bulk Modulus (GPa) = 35.79819 52.44490 44.12155
# Shear Modulus (GPa) = 28.28354 33.87147 31.07751
#
# Velocity S-wave (km/s) = 3.54667 3.88124 3.71772
# Velocity P-wave (km/s) = 5.71776 6.58861 6.16857
#
# Compressibility (1/GPa) = 0.02793437
#
# Stress axis : x y z
#
# Youngs Moduli (GPa) = 56.96026 62.47266 93.91179
#
# Poissons Ratio (x) = 0.00052 0.34946
# Poissons Ratio (y) = 0.00047 0.41406
# Poissons Ratio (z) = 0.21196 0.27544
#
# Static dielectric constant tensor:
#      x y z
#    x 4.005520 0.140580 0.252640 
#    y 0.140580 3.987420 -0.121270 
#    z 0.252640 -0.121270 3.995080 
# 
# 
# High freq. dielectric constant tensor:
#      x y z
#    x 1.880940 -0.001990 0.009080 
#    y -0.001990 1.887140 0.006810 
#    z 0.009080 0.006810 1.895220 
# 
# From -- ./inp_files/469334.got.cif
#   From: 2010.06.25/outbox.cif.g09.slc.cpg/sg2_235_cif.got.tgz:469334.got - 2010.06.27 13:26:56.
