data_PCOD8018372
_publ_section_title
;
Structure prediction by ZEFSAII (Michael W. Deem and Ramdas Pophale) SiO2 
 PCOD8018372
Probable space group: P -1
;
_chemical_formula_sum "Si O2"
_cell_formula_units_Z 16
_cell_length_a 14.134230
_cell_length_b 16.870247
_cell_length_c 9.185427
_cell_angle_alpha 102.800080
_cell_angle_beta 68.350594
_cell_angle_gamma 156.179080
_cell_volume 781.991585
_symmetry_space_group_name_H-M "P -1"
_symmetry_group_IT_number 2
_symmetry_cell_setting 'triclinic'
loop_
_space_group_symop_operation_xyz
x,y,z
-x,-y,-z
loop_
_atom_site_type_symbol
_atom_site_label
_atom_site_fract_x
_atom_site_fract_y
_atom_site_fract_z
Si Si1 0.071929 0.161789 0.885822
Si Si2 0.010630 0.437554 0.086794
Si Si3 0.379198 0.235043 0.823285
Si Si4 0.533687 0.986140 0.630600
Si Si5 0.494511 0.214603 0.469103
Si Si6 0.338526 0.524994 0.953224
Si Si7 0.198169 0.090292 0.337789
Si Si8 0.058285 0.586699 0.351708
O O1 0.294983 0.257528 0.804920
O O2 0.180600 0.327709 0.938673
O O3 0.959654 0.084504 0.753474
O O4 0.853642 0.979660 0.050853
O O5 0.724225 0.199492 0.201428
O O6 0.169096 0.594588 0.194209
O O7 0.000000 0.500000 0.000000
O O8 0.173219 0.478375 0.961904
O O9 0.466005 0.237903 0.648882
O O10 0.610184 0.423896 0.882614
O O11 0.635227 0.969763 0.534932
O O12 0.500000 0.000000 0.500000
O O13 0.751360 0.197766 0.673669
O O14 0.367856 0.167349 0.388068
O O15 0.798851 0.428044 0.356386
O O16 0.610026 0.714845 0.791080
O O17 0.000000 0.000000 0.500000
O O18 0.000000 0.500000 0.500000
#
# Coordination Sequence:
#
# PCOD8018372 Si02
#       8
#     2   2   2   2   2   2   2   2
#     4  10  23  43  64  92 130 171 220 267 326 388
#     4  11  25  43  65  97 139 173 220 277 330 396
#     4  10  22  40  65  95 130 167 216 281 319 379
#     4  11  24  41  68 100 130 173 225 269 332 402
#     4  11  23  40  69  96 132 173 218 267 339 378
#     4  11  24  40  69  95 129 176 221 260 337 391
#     4  11  24  46  63  92 134 174 214 274 319 394
#     4  11  22  42  66  97 136 169 219 278 322 393
#
# _framework density 20.460578999999999
#
# number of rings (size 3 to 8) (size 9 to 14) (size 15 to 20)
#    0.000    1.250    3.750    2.625    1.750    4.000 
#    2.250    0.000    0.000    0.000    0.000    0.000 
#    0.000    0.000    0.000    0.000    0.000    0.000 
#
# Total GULP energy -198354.084703 kJ/mol
# GULP energy per Si atom -12397.130294 kJ/mol
# Density = 2.041401 g / cm^3
# Si number density = 20.460579 Si / 1000 Ang^3
#
#
#
# Elastic Constant Matrix: (Units=GPa)
#
#
# Indices 1 2 3 4 5 6 
#
# 1 108.4155 64.0760 35.8213 5.8262 -1.2580 0.1767
# 2 64.0760 161.5620 46.3681 21.3958 -3.1850 -21.4457
# 3 35.8213 46.3681 101.3941 9.9628 -1.6451 -8.0528
# 4 5.8262 21.3958 9.9628 32.9292 0.1096 -3.2869
# 5 -1.2580 -3.1850 -1.6451 0.1096 40.1247 9.8800
# 6 0.1767 -21.4457 -8.0528 -3.2869 9.8800 38.3707
#
#
#
# Elastic Compliance Matrix: (Units=1/GPa)
#
#
# Indices 1 2 3 4 5 6 
#
# 1 0.013030 -0.005031 -0.002710 0.001430 0.000759 -0.003514
# 2 -0.005031 0.009994 -0.001965 -0.004510 -0.000659 0.004980
# 3 -0.002710 -0.001965 0.011992 -0.001742 -0.000064 0.001298
# 4 0.001430 -0.004510 -0.001742 0.033585 -0.000504 0.000114
# 5 0.000759 -0.000659 -0.000064 -0.000504 0.026690 -0.007301
# 6 -0.003514 0.004980 0.001298 0.000114 -0.007301 0.031023
#
#
# Mechanical properties :
#
#
# Convention : Reuss Voigt Hill
#
# Bulk Modulus (GPa) = 64.08535 73.76691 68.92613
# Shear Modulus (GPa) = 33.12834 37.29202 35.21018
#
# Velocity S-wave (km/s) = 4.02821 4.27386 4.15285
# Velocity P-wave (km/s) = 7.28180 7.77727 7.53361
#
# Compressibility (1/GPa) = 0.01560419
#
# Stress axis : x y z
#
# Youngs Moduli (GPa) = 76.74473 100.05947 83.39036
#
# Poissons Ratio (x) = 0.50338 0.22599
# Poissons Ratio (y) = 0.38609 0.16387
# Poissons Ratio (z) = 0.20798 0.19662
#
# Static dielectric constant tensor:
#      x y z
#    x 3.828140 0.002200 -0.009290 
#    y 0.002200 3.713980 0.162960 
#    z -0.009290 0.162960 3.885660 
# 
# 
# High freq. dielectric constant tensor:
#      x y z
#    x 1.806460 0.002780 -0.000570 
#    y 0.002780 1.802780 0.012330 
#    z -0.000570 0.012330 1.809800 
# 
# From -- ./inp_files/273343.got.cif
#   From: 2010.06.25/outbox.cif.g09.slc.cpg/sg2_137_cif.got.tgz:273343.got - 2010.06.27 13:26:56.
