data_PCOD8018383
_publ_section_title
;
Structure prediction by ZEFSAII (Michael W. Deem and Ramdas Pophale) SiO2 
 PCOD8018383
Probable space group: P -1
;
_chemical_formula_sum "Si O2"
_cell_formula_units_Z 14
_cell_length_a 11.649760
_cell_length_b 21.859679
_cell_length_c 15.706613
_cell_angle_alpha 160.393021
_cell_angle_beta 153.158612
_cell_angle_gamma 29.376467
_cell_volume 593.309325
_symmetry_space_group_name_H-M "P -1"
_symmetry_group_IT_number 2
_symmetry_cell_setting 'triclinic'
loop_
_space_group_symop_operation_xyz
x,y,z
-x,-y,-z
loop_
_atom_site_type_symbol
_atom_site_label
_atom_site_fract_x
_atom_site_fract_y
_atom_site_fract_z
Si Si1 0.193814 0.567242 0.119380
Si Si2 0.482740 0.199382 0.810079
Si Si3 0.994938 0.124756 0.477624
Si Si4 0.697574 0.831454 0.529698
Si Si5 0.509469 0.199058 0.148626
Si Si6 0.166129 0.565502 0.424367
Si Si7 0.669876 0.113849 0.486782
O O1 0.288364 0.709831 0.305860
O O2 0.062118 0.667155 0.247147
O O3 0.448959 0.405312 0.099609
O O4 0.994488 0.458361 0.798919
O O5 0.231477 0.109194 0.548643
O O6 0.485365 0.218343 0.733905
O O7 0.725062 0.048341 0.812075
O O8 0.734031 0.088382 0.213366
O O9 0.068957 0.970657 0.398565
O O10 0.571744 0.818320 0.521149
O O11 0.970381 0.682489 0.517456
O O12 0.305247 0.356811 0.273430
O O13 0.624056 0.310480 0.296144
O O14 0.372328 0.048360 0.817286
#
# Coordination Sequence:
#
# PCOD8018383 Si02
#       7
#     2   2   2   2   2   2   2
#     4  11  21  40  65  97 128 164 213 256 323 371
#     4   9  19  35  67  98 114 171 220 252 308 380
#     4  11  21  40  67  91 130 166 209 265 306 375
#     4   9  19  40  64  93 127 164 211 262 311 373
#     4  11  23  40  64  99 126 161 219 258 312 372
#     4  10  22  40  65  96 125 163 218 262 305 378
#     4  11  25  40  66  96 130 169 202 260 327 377
#
# _framework density 23.596461000000001
#
# number of rings (size 3 to 8) (size 9 to 14) (size 15 to 20)
#    0.000    1.714    4.286    0.857    0.000    4.571 
#    0.000    0.000    0.000    1.714    0.000    0.000 
#    0.000    0.000    0.000    0.000    0.000    0.000 
#
# Total GULP energy -173499.727672 kJ/mol
# GULP energy per Si atom -12392.837691 kJ/mol
# Density = 2.354275 g / cm^3
# Si number density = 23.596461 Si / 1000 Ang^3
#
#
#
# Elastic Constant Matrix: (Units=GPa)
#
#
# Indices 1 2 3 4 5 6 
#
# 1 55.3672 30.7020 21.2592 11.5441 -18.2224 -18.9711
# 2 30.7020 137.5410 31.6257 19.8522 -6.9782 -21.0589
# 3 21.2592 31.6257 53.1073 20.6290 -1.2534 -3.4914
# 4 11.5441 19.8522 20.6290 33.3419 -6.7399 -14.8966
# 5 -18.2224 -6.9782 -1.2534 -6.7399 25.2350 12.6504
# 6 -18.9711 -21.0589 -3.4914 -14.8966 12.6504 34.7020
#
#
#
# Elastic Compliance Matrix: (Units=1/GPa)
#
#
# Indices 1 2 3 4 5 6 
#
# 1 0.033294 -0.002700 -0.013345 0.007270 0.018819 0.011481
# 2 -0.002700 0.009458 -0.004059 -0.000662 -0.001839 0.004241
# 3 -0.013345 -0.004059 0.033765 -0.021073 -0.008548 -0.012291
# 4 0.007270 -0.000662 -0.021073 0.051773 0.007315 0.021011
# 5 0.018819 -0.001839 -0.008548 0.007315 0.059341 -0.010180
# 6 0.011481 0.004241 -0.012291 0.021011 -0.010180 0.049161
#
#
# Mechanical properties :
#
#
# Convention : Reuss Voigt Hill
#
# Bulk Modulus (GPa) = 27.54151 45.90992 36.72572
# Shear Modulus (GPa) = 17.29487 29.48436 23.38961
#
# Velocity S-wave (km/s) = 2.71023 3.53870 3.15180
# Velocity P-wave (km/s) = 4.63584 6.01623 5.37057
#
# Compressibility (1/GPa) = 0.03630883
#
# Stress axis : x y z
#
# Youngs Moduli (GPa) = 30.03532 105.72777 29.61673
#
# Poissons Ratio (x) = 0.28549 0.39524
# Poissons Ratio (y) = 0.08110 0.12021
# Poissons Ratio (z) = 0.40082 0.42914
#
# Static dielectric constant tensor:
#      x y z
#    x 4.103350 -0.262110 -0.266660 
#    y -0.262110 4.720680 0.487130 
#    z -0.266660 0.487130 4.040410 
# 
# 
# High freq. dielectric constant tensor:
#      x y z
#    x 1.925040 -0.011740 -0.021990 
#    y -0.011740 1.942140 0.031790 
#    z -0.021990 0.031790 1.909710 
# 
# From -- ./inp_files/524160.got.cif
#   From: 2010.06.25/outbox.cif.g09.slc.cpg/sg2_263_cif.got.tgz:524160.got - 2010.06.27 13:26:56.
