data_PCOD8018770
_publ_section_title
;
Structure prediction by ZEFSAII (Michael W. Deem and Ramdas Pophale) SiO2 
 PCOD8018770
Probable space group: P -1
;
_chemical_formula_sum "Si O2"
_cell_formula_units_Z 16
_cell_length_a 20.633565
_cell_length_b 14.118169
_cell_length_c 9.461809
_cell_angle_alpha 134.749641
_cell_angle_beta 43.117731
_cell_angle_gamma 157.983738
_cell_volume 702.211990
_symmetry_space_group_name_H-M "P -1"
_symmetry_group_IT_number 2
_symmetry_cell_setting 'triclinic'
loop_
_space_group_symop_operation_xyz
x,y,z
-x,-y,-z
loop_
_atom_site_type_symbol
_atom_site_label
_atom_site_fract_x
_atom_site_fract_y
_atom_site_fract_z
Si Si1 0.278239 0.675569 0.866177
Si Si2 0.979249 0.784460 0.027109
Si Si3 0.146226 0.412821 0.511821
Si Si4 0.551712 0.500956 0.256487
Si Si5 0.210491 0.178575 0.546687
Si Si6 0.031999 0.679670 0.561846
Si Si7 0.598349 0.915330 0.758159
Si Si8 0.318564 0.352955 0.094995
O O1 0.223669 0.596907 0.706331
O O2 0.095126 0.426706 0.984527
O O3 0.445185 0.780256 0.750891
O O4 0.332112 0.889283 0.039179
O O5 0.837631 0.734018 0.226467
O O6 0.166309 0.066025 0.083519
O O7 0.000551 0.763456 0.809643
O O8 0.290418 0.466616 0.320880
O O9 0.116498 0.471255 0.483932
O O10 0.955408 0.112943 0.539526
O O11 0.364646 0.361665 0.368627
O O12 0.671402 0.738323 0.421018
O O13 0.488062 0.288844 0.207937
O O14 0.679655 0.622926 0.050444
O O15 0.232540 0.929622 0.442863
O O16 0.000000 0.500000 0.500000
O O17 0.500000 0.500000 0.000000
#
# Coordination Sequence:
#
# PCOD8018770 Si02
#       8
#     2   2   2   2   2   2   2   2
#     4  11  26  47  73 102 142 193 237 296 346 427
#     4  11  24  43  71 101 142 184 236 285 361 421
#     4  11  26  45  72 108 141 180 243 297 356 410
#     4  11  22  43  69 101 141 188 236 278 362 431
#     4  10  22  40  70  99 135 180 227 293 346 425
#     4  12  25  48  73 103 139 189 240 290 349 425
#     4  11  25  48  72  99 143 194 238 283 358 430
#     4  11  28  42  68 107 148 182 230 304 360 413
#
# _framework density 22.785143000000001
#
# number of rings (size 3 to 8) (size 9 to 14) (size 15 to 20)
#    0.000    1.000    3.750    1.500    7.000    3.500 
#    2.250    1.250    0.000    0.000    0.000    0.000 
#    0.000    0.000    0.000    0.000    0.000    0.000 
#
# Total GULP energy -198225.687193 kJ/mol
# GULP energy per Si atom -12389.105450 kJ/mol
# Density = 2.273328 g / cm^3
# Si number density = 22.785143 Si / 1000 Ang^3
#
#
#
# Elastic Constant Matrix: (Units=GPa)
#
#
# Indices 1 2 3 4 5 6 
#
# 1 92.0031 39.8558 27.7028 9.0615 -2.3783 5.8736
# 2 39.8558 105.9327 38.4758 3.8411 -2.3809 3.8956
# 3 27.7028 38.4758 115.1740 10.5219 0.7238 13.2663
# 4 9.0615 3.8411 10.5219 41.4879 8.6033 -3.7286
# 5 -2.3783 -2.3809 0.7238 8.6033 31.7689 -0.3785
# 6 5.8736 3.8956 13.2663 -3.7286 -0.3785 38.1819
#
#
#
# Elastic Compliance Matrix: (Units=1/GPa)
#
#
# Indices 1 2 3 4 5 6 
#
# 1 0.013592 -0.004428 -0.001399 -0.002622 0.001411 -0.001395
# 2 -0.004428 0.012215 -0.003139 0.000580 0.000505 0.000587
# 3 -0.001399 -0.003139 0.010682 -0.002427 0.000033 -0.003413
# 4 -0.002622 0.000580 -0.002427 0.027109 -0.007394 0.003761
# 5 0.001411 0.000505 0.000033 -0.007394 0.033615 -0.000669
# 6 -0.001395 0.000587 -0.003413 0.003761 -0.000669 0.027892
#
#
# Mechanical properties :
#
#
# Convention : Reuss Voigt Hill
#
# Bulk Modulus (GPa) = 53.88663 58.35317 56.11990
# Shear Modulus (GPa) = 33.50702 36.09275 34.79988
#
# Velocity S-wave (km/s) = 3.83895 3.98433 3.91232
# Velocity P-wave (km/s) = 6.58417 6.84341 6.71504
#
# Compressibility (1/GPa) = 0.01855748
#
# Stress axis : x y z
#
# Youngs Moduli (GPa) = 73.57105 81.86773 93.61266
#
# Poissons Ratio (x) = 0.36249 0.13095
# Poissons Ratio (y) = 0.32576 0.29389
# Poissons Ratio (z) = 0.10291 0.25702
#
# Static dielectric constant tensor:
#      x y z
#    x 4.059900 0.041100 -0.109710 
#    y 0.041100 4.602420 -0.498830 
#    z -0.109710 -0.498830 4.692440 
# 
# 
# High freq. dielectric constant tensor:
#      x y z
#    x 1.885380 0.003970 -0.012740 
#    y 0.003970 1.912340 -0.007480 
#    z -0.012740 -0.007480 1.915510 
# 
# From -- ./inp_files/347675.got.cif
#   From: 2010.06.25/outbox.cif.g09.slc.cpg/sg2_174_cif.got.tgz:347675.got - 2010.06.27 13:26:56.
