data_PCOD8018480
_publ_section_title
;
Structure prediction by ZEFSAII (Michael W. Deem and Ramdas Pophale) SiO2 
 PCOD8018480
Probable space group: P -1
;
_chemical_formula_sum "Si O2"
_cell_formula_units_Z 14
_cell_length_a 5.858930
_cell_length_b 11.822606
_cell_length_c 8.828406
_cell_angle_alpha 74.421231
_cell_angle_beta 88.823875
_cell_angle_gamma 80.453374
_cell_volume 580.714790
_symmetry_space_group_name_H-M "P -1"
_symmetry_group_IT_number 2
_symmetry_cell_setting 'triclinic'
loop_
_space_group_symop_operation_xyz
x,y,z
-x,-y,-z
loop_
_atom_site_type_symbol
_atom_site_label
_atom_site_fract_x
_atom_site_fract_y
_atom_site_fract_z
Si Si1 0.940656 0.665975 0.571529
Si Si2 0.727731 0.094085 0.834843
Si Si3 0.897462 0.839880 0.002652
Si Si4 0.300299 0.551857 0.373210
Si Si5 0.494486 0.133095 0.504130
Si Si6 0.245886 0.739361 0.787775
Si Si7 0.530132 0.697082 0.070423
O O1 0.801807 0.559685 0.649002
O O2 0.765623 0.790991 0.507850
O O3 0.098028 0.643513 0.425709
O O4 0.102831 0.658877 0.719785
O O5 0.634103 0.139237 0.655390
O O6 0.562867 0.165400 0.936494
O O7 0.716769 0.955010 0.909089
O O8 0.984658 0.127668 0.852264
O O9 0.081100 0.824960 0.870260
O O10 0.802188 0.711954 0.064208
O O11 0.500000 0.500000 0.500000
O O12 0.432850 0.612410 0.220454
O O13 0.635698 0.183377 0.355185
O O14 0.500000 0.000000 0.500000
O O15 0.445974 0.662111 0.917456
#
# Coordination Sequence:
#
# PCOD8018480 Si02
#       7
#     2   2   2   2   2   2   2
#     4  11  25  47  69 100 140 177 229 290 338 402
#     4  10  22  40  66  97 136 184 232 279 335 406
#     4  10  23  42  65  99 140 181 227 282 341 403
#     4  11  26  47  74 100 131 181 237 285 341 408
#     4  12  26  44  70 104 141 182 229 280 339 409
#     4  11  24  42  65 100 138 178 226 276 344 410
#     4  11  23  42  68  98 133 178 228 284 345 406
#
# _framework density 24.108221
#
# number of rings (size 3 to 8) (size 9 to 14) (size 15 to 20)
#    0.000    1.143    0.000    5.571    0.000   15.429 
#    0.000    5.000    0.000    0.000    0.000    0.000 
#    0.000    0.000    0.000    0.000    0.000    0.000 
#
# Total GULP energy -173455.343502 kJ/mol
# GULP energy per Si atom -12389.667393 kJ/mol
# Density = 2.405335 g / cm^3
# Si number density = 24.108221 Si / 1000 Ang^3
#
#
#
# Elastic Constant Matrix: (Units=GPa)
#
#
# Indices 1 2 3 4 5 6 
#
# 1 134.3286 53.4709 85.1415 -12.9147 7.4872 23.8861
# 2 53.4709 109.0400 42.8410 0.9017 4.3362 11.8919
# 3 85.1415 42.8410 159.9198 2.2885 13.8360 40.4067
# 4 -12.9147 0.9017 2.2885 26.3644 9.3742 -8.3647
# 5 7.4872 4.3362 13.8360 9.3742 42.5226 10.0962
# 6 23.8861 11.8919 40.4067 -8.3647 10.0962 42.8075
#
#
#
# Elastic Compliance Matrix: (Units=1/GPa)
#
#
# Indices 1 2 3 4 5 6 
#
# 1 0.014194 -0.004496 -0.006815 0.009207 -0.002356 0.002117
# 2 -0.004496 0.011679 -0.000483 -0.003147 0.000703 -0.001061
# 3 -0.006815 -0.000483 0.012457 -0.007905 0.001231 -0.009657
# 4 0.009207 -0.003147 -0.007905 0.053917 -0.014698 0.017200
# 5 -0.002356 0.000703 0.001231 -0.014698 0.029017 -0.009759
# 6 0.002117 -0.001061 -0.009657 0.017200 -0.009759 0.037252
#
#
# Mechanical properties :
#
#
# Convention : Reuss Voigt Hill
#
# Bulk Modulus (GPa) = 67.83158 85.13280 76.48219
# Shear Modulus (GPa) = 26.73527 37.12791 31.93159
#
# Velocity S-wave (km/s) = 3.33373 3.92861 3.64333
# Velocity P-wave (km/s) = 6.55864 7.48118 7.03505
#
# Compressibility (1/GPa) = 0.01474239
#
# Stress axis : x y z
#
# Youngs Moduli (GPa) = 70.45259 85.62258 80.27298
#
# Poissons Ratio (x) = 0.38497 0.54707
# Poissons Ratio (y) = 0.31676 0.03876
# Poissons Ratio (z) = 0.48015 0.04134
#
# Static dielectric constant tensor:
#      x y z
#    x 4.892520 0.079270 0.215430 
#    y 0.079270 4.343590 0.331400 
#    z 0.215430 0.331400 4.126270 
# 
# 
# High freq. dielectric constant tensor:
#      x y z
#    x 1.976650 0.012590 0.003180 
#    y 0.012590 1.949400 0.007170 
#    z 0.003180 0.007170 1.961670 
# 
# From -- ./inp_files/131474.got.cif
#   From: 2010.06.25/outbox.cif.g09.slc.cpg/sg2_66_cif.got.tgz:131474.got - 2010.06.27 13:26:56.
