data_PCOD8018587
_publ_section_title
;
Structure prediction by ZEFSAII (Michael W. Deem and Ramdas Pophale) SiO2 
 PCOD8018587
Probable space group: P -1
;
_chemical_formula_sum "Si O2"
_cell_formula_units_Z 16
_cell_length_a 21.239269
_cell_length_b 12.000393
_cell_length_c 9.601642
_cell_angle_alpha 130.281583
_cell_angle_beta 39.710522
_cell_angle_gamma 152.365813
_cell_volume 720.155179
_symmetry_space_group_name_H-M "P -1"
_symmetry_group_IT_number 2
_symmetry_cell_setting 'triclinic'
loop_
_space_group_symop_operation_xyz
x,y,z
-x,-y,-z
loop_
_atom_site_type_symbol
_atom_site_label
_atom_site_fract_x
_atom_site_fract_y
_atom_site_fract_z
Si Si1 0.418835 0.746724 0.931102
Si Si2 0.619881 0.842219 0.433693
Si Si3 0.910880 0.977374 0.008991
Si Si4 0.490757 0.651261 0.197347
Si Si5 0.335464 0.865716 0.742226
Si Si6 0.850991 0.494292 0.995494
Si Si7 0.136254 0.624209 0.628728
Si Si8 0.753604 0.549747 0.759180
O O1 0.508314 0.731778 0.670462
O O2 0.231650 0.548932 0.040680
O O3 0.403003 0.657459 0.039022
O O4 0.500000 0.000000 0.000000
O O5 0.748289 0.862580 0.253964
O O6 0.504964 0.671717 0.357524
O O7 0.716490 0.107896 0.469170
O O8 0.863844 0.814886 0.832626
O O9 0.000000 0.000000 0.000000
O O10 0.027822 0.233824 0.941768
O O11 0.316664 0.508583 0.324478
O O12 0.633955 0.925323 0.111705
O O13 0.500000 0.500000 0.000000
O O14 0.300029 0.724970 0.823746
O O15 0.172142 0.658067 0.759883
O O16 0.500000 0.000000 0.500000
O O17 0.958275 0.475925 0.776438
O O18 0.134988 0.462022 0.435106
#
# Coordination Sequence:
#
# PCOD8018587 Si02
#       8
#     2   2   2   2   2   2   2   2
#     4  12  24  41  69 105 132 173 244 282 344 406
#     4  10  23  43  72  98 136 186 223 289 346 407
#     4  11  24  46  65  98 145 184 221 282 354 408
#     4  11  22  42  69 100 136 173 227 287 347 395
#     4  11  21  42  71  97 134 177 227 285 343 403
#     4  11  24  43  67  96 136 181 229 280 345 417
#     4  10  22  40  67  99 132 177 228 280 346 403
#     4  12  23  42  68 100 137 179 231 291 335 418
#
# _framework density 22.217434000000001
#
# number of rings (size 3 to 8) (size 9 to 14) (size 15 to 20)
#    0.000    1.000    5.000    2.625    0.000    2.000 
#    0.000    3.125    0.000    0.000    0.000    0.000 
#    0.000    0.000    0.000    0.000    0.000    0.000 
#
# Total GULP energy -198359.658916 kJ/mol
# GULP energy per Si atom -12397.478682 kJ/mol
# Density = 2.216687 g / cm^3
# Si number density = 22.217434 Si / 1000 Ang^3
#
#
#
# Elastic Constant Matrix: (Units=GPa)
#
#
# Indices 1 2 3 4 5 6 
#
# 1 105.9458 21.1480 48.0527 -2.4238 -18.7498 14.4615
# 2 21.1480 120.7406 57.0240 18.6965 -7.6372 -5.4270
# 3 48.0527 57.0240 119.0083 13.4697 -22.3398 2.6323
# 4 -2.4238 18.6965 13.4697 37.6371 -4.8831 -3.9532
# 5 -18.7498 -7.6372 -22.3398 -4.8831 36.7413 -2.1919
# 6 14.4615 -5.4270 2.6323 -3.9532 -2.1919 41.2748
#
#
#
# Elastic Compliance Matrix: (Units=1/GPa)
#
#
# Indices 1 2 3 4 5 6 
#
# 1 0.012821 -0.000505 -0.004435 0.002768 0.003882 -0.003804
# 2 -0.000505 0.011359 -0.005102 -0.003871 -0.001421 0.001550
# 3 -0.004435 -0.005102 0.013766 -0.002051 0.004777 0.000062
# 4 0.002768 -0.003871 -0.002051 0.030033 0.003454 0.001712
# 5 0.003882 -0.001421 0.004777 0.003454 0.032278 0.000193
# 6 -0.003804 0.001550 0.000062 0.001712 0.000193 0.025935
#
#
# Mechanical properties :
#
#
# Convention : Reuss Voigt Hill
#
# Bulk Modulus (GPa) = 55.98511 66.46047 61.22279
# Shear Modulus (GPa) = 32.84500 37.76198 35.30349
#
# Velocity S-wave (km/s) = 3.84909 4.12716 3.99055
# Velocity P-wave (km/s) = 6.70876 7.25878 6.98918
#
# Compressibility (1/GPa) = 0.01786189
#
# Stress axis : x y z
#
# Youngs Moduli (GPa) = 77.99807 88.03250 72.64380
#
# Poissons Ratio (x) = 0.04445 0.32219
# Poissons Ratio (y) = 0.03939 0.37062
# Poissons Ratio (z) = 0.34594 0.44913
#
# Static dielectric constant tensor:
#      x y z
#    x 4.269350 -0.007030 -0.094690 
#    y -0.007030 4.157070 0.213480 
#    z -0.094690 0.213480 3.791280 
# 
# 
# High freq. dielectric constant tensor:
#      x y z
#    x 1.887580 0.002910 -0.013140 
#    y 0.002910 1.876370 0.020520 
#    z -0.013140 0.020520 1.853250 
# 
# From -- ./inp_files/346332.got.cif
#   From: 2010.06.25/outbox.cif.g09.slc.cpg/sg2_174_cif.got.tgz:346332.got - 2010.06.27 13:26:56.
