data_PCOD8018464
_publ_section_title
;
Structure prediction by ZEFSAII (Michael W. Deem and Ramdas Pophale) SiO2 
 PCOD8018464
Probable space group: P -1
;
_chemical_formula_sum "Si O2"
_cell_formula_units_Z 16
_cell_length_a 11.372393
_cell_length_b 21.445125
_cell_length_c 17.862406
_cell_angle_alpha 19.342540
_cell_angle_beta 151.612083
_cell_angle_gamma 144.388871
_cell_volume 681.942815
_symmetry_space_group_name_H-M "P -1"
_symmetry_group_IT_number 2
_symmetry_cell_setting 'triclinic'
loop_
_space_group_symop_operation_xyz
x,y,z
-x,-y,-z
loop_
_atom_site_type_symbol
_atom_site_label
_atom_site_fract_x
_atom_site_fract_y
_atom_site_fract_z
Si Si1 0.503367 0.325765 0.145674
Si Si2 0.999046 0.769707 0.767820
Si Si3 0.817826 0.670715 0.176223
Si Si4 0.988400 0.161922 0.532495
Si Si5 0.717888 0.967632 0.892599
Si Si6 0.276437 0.121579 0.375131
Si Si7 0.767822 0.124531 0.895725
Si Si8 0.296366 0.397015 0.338517
O O1 0.788799 0.240361 0.394143
O O2 0.331397 0.184260 0.250296
O O3 0.500000 0.500000 0.000000
O O4 0.390857 0.388743 0.930212
O O5 0.917310 0.737376 0.845091
O O6 0.796480 0.688051 0.694096
O O7 0.000000 0.000000 0.500000
O O8 0.256453 0.629757 0.056051
O O9 0.000000 0.500000 0.500000
O O10 0.970873 0.818518 0.051579
O O11 0.684640 0.759883 0.075950
O O12 0.139984 0.325913 0.400634
O O13 0.843458 0.076196 0.478699
O O14 0.186309 0.002155 0.861173
O O15 0.531362 0.108844 0.579155
O O16 0.650767 0.998284 0.908047
O O17 0.000000 0.000000 0.000000
O O18 0.585695 0.313832 0.600547
#
# Coordination Sequence:
#
# PCOD8018464 Si02
#       8
#     2   2   2   2   2   2   2   2
#     4  12  26  41  67 102 140 186 238 299 357 428
#     4  11  24  45  72 103 137 184 239 299 354 427
#     4  11  25  41  64 104 141 183 238 296 361 425
#     4  12  24  45  71  99 144 189 243 298 355 424
#     4  10  22  40  66  95 133 181 228 289 356 416
#     4  12  22  44  71  96 137 184 241 295 356 420
#     4  11  24  45  68 100 144 187 238 299 358 425
#     4  11  25  45  72 105 138 190 245 286 361 437
#
# _framework density 23.462378999999999
#
# number of rings (size 3 to 8) (size 9 to 14) (size 15 to 20)
#    0.000    0.750    5.000    3.000    5.250    3.000 
#    0.000    0.625    0.000    0.000    0.000    0.000 
#    0.000    0.000    0.000    0.000    0.000    0.000 
#
# Total GULP energy -198264.724877 kJ/mol
# GULP energy per Si atom -12391.545305 kJ/mol
# Density = 2.340898 g / cm^3
# Si number density = 23.462379 Si / 1000 Ang^3
#
#
#
# Elastic Constant Matrix: (Units=GPa)
#
#
# Indices 1 2 3 4 5 6 
#
# 1 97.6688 22.0645 35.7761 -7.8262 18.7840 -14.9365
# 2 22.0645 87.9776 42.1593 -2.2985 9.9902 -24.7440
# 3 35.7761 42.1593 149.4265 -2.7955 21.8904 -19.7056
# 4 -7.8262 -2.2985 -2.7955 41.8148 -7.9897 0.8390
# 5 18.7840 9.9902 21.8904 -7.9897 45.6196 -4.4718
# 6 -14.9365 -24.7440 -19.7056 0.8390 -4.4718 33.7170
#
#
#
# Elastic Compliance Matrix: (Units=1/GPa)
#
#
# Indices 1 2 3 4 5 6 
#
# 1 0.012368 -0.000911 -0.001731 0.001416 -0.003491 0.003301
# 2 -0.000911 0.015679 -0.002864 0.000171 -0.000740 0.009327
# 3 -0.001731 -0.002864 0.008530 -0.000455 -0.002659 0.001775
# 4 0.001416 0.000171 -0.000455 0.024915 0.004000 0.000398
# 5 -0.003491 -0.000740 -0.002659 0.004000 0.025460 -0.000366
# 6 0.003301 0.009327 0.001775 0.000398 -0.000366 0.038944
#
#
# Mechanical properties :
#
#
# Convention : Reuss Voigt Hill
#
# Bulk Modulus (GPa) = 39.11517 59.45252 49.28384
# Shear Modulus (GPa) = 34.38064 39.90183 37.14123
#
# Velocity S-wave (km/s) = 3.83214 4.12840 3.98303
# Velocity P-wave (km/s) = 6.02396 6.93681 6.49644
#
# Compressibility (1/GPa) = 0.02556553
#
# Stress axis : x y z
#
# Youngs Moduli (GPa) = 80.85291 63.77927 117.23492
#
# Poissons Ratio (x) = 0.05808 0.20295
# Poissons Ratio (y) = 0.07362 0.33577
# Poissons Ratio (z) = 0.13996 0.18267
#
# Static dielectric constant tensor:
#      x y z
#    x 6.742480 0.072070 -1.335770 
#    y 0.072070 4.380380 -0.249640 
#    z -1.335770 -0.249640 5.533560 
# 
# 
# High freq. dielectric constant tensor:
#      x y z
#    x 1.934440 -0.016900 0.017360 
#    y -0.016900 1.917570 0.001000 
#    z 0.017360 0.001000 1.929000 
# 
# From -- ./inp_files/570713.got.cif
#   From: 2010.06.25/outbox.cif.g09.slc.cpg/sg2_286_cif.got.tgz:570713.got - 2010.06.27 13:26:56.
