data_PCOD8018615
_publ_section_title
;
Structure prediction by ZEFSAII (Michael W. Deem and Ramdas Pophale) SiO2 
 PCOD8018615
Probable space group: P -1
;
_chemical_formula_sum "Si O2"
_cell_formula_units_Z 16
_cell_length_a 12.475784
_cell_length_b 9.153521
_cell_length_c 12.176961
_cell_angle_alpha 145.137631
_cell_angle_beta 100.748278
_cell_angle_gamma 78.706719
_cell_volume 778.646337
_symmetry_space_group_name_H-M "P -1"
_symmetry_group_IT_number 2
_symmetry_cell_setting 'triclinic'
loop_
_space_group_symop_operation_xyz
x,y,z
-x,-y,-z
loop_
_atom_site_type_symbol
_atom_site_label
_atom_site_fract_x
_atom_site_fract_y
_atom_site_fract_z
Si Si1 0.352935 0.367556 0.466153
Si Si2 0.875349 0.851594 0.010150
Si Si3 0.472627 0.285197 0.212228
Si Si4 0.183200 0.753509 0.573269
Si Si5 0.727520 0.399234 0.716625
Si Si6 0.879042 0.217606 0.042744
Si Si7 0.952521 0.644112 0.471548
Si Si8 0.235901 0.934031 0.268793
O O1 0.422426 0.273445 0.316167
O O2 0.417671 0.564484 0.672257
O O3 0.234001 0.503668 0.495777
O O4 0.333563 0.116652 0.379000
O O5 0.821255 0.005125 0.197809
O O6 0.846051 0.982804 0.968059
O O7 0.828997 0.575451 0.835414
O O8 0.006441 0.837784 0.033923
O O9 0.386900 0.430191 0.201968
O O10 0.500000 0.000000 0.000000
O O11 0.261537 0.790379 0.505077
O O12 0.063314 0.715286 0.476982
O O13 0.731190 0.236092 0.725992
O O14 0.882630 0.467208 0.272933
O O15 0.783513 0.251649 0.953812
O O16 0.000000 0.500000 0.500000
O O17 0.878898 0.901415 0.638132
#
# Coordination Sequence:
#
# PCOD8018615 Si02
#       8
#     2   2   2   2   2   2   2   2
#     4  10  22  40  68  94 120 154 214 263 305 369
#     4  11  20  36  61  85 120 167 212 260 292 354
#     4  10  22  45  71  93 111 156 213 267 316 363
#     4  11  20  39  63  89 122 168 212 256 298 361
#     4  11  26  40  60  92 132 163 206 257 317 370
#     4  11  21  35  61  88 121 170 218 251 291 360
#     4  12  20  38  63  92 125 168 217 249 297 361
#     4  12  25  40  58  96 136 168 198 249 313 377
#
# _framework density 20.548480999999999
#
# number of rings (size 3 to 8) (size 9 to 14) (size 15 to 20)
#    0.000    1.000    5.000    3.000    0.000    3.500 
#    0.000    0.625    0.000    0.000    0.000    0.000 
#    0.000    0.000    0.000    0.000    0.000    0.000 
#
# Total GULP energy -198377.654623 kJ/mol
# GULP energy per Si atom -12398.603414 kJ/mol
# Density = 2.050171 g / cm^3
# Si number density = 20.548481 Si / 1000 Ang^3
#
#
#
# Elastic Constant Matrix: (Units=GPa)
#
#
# Indices 1 2 3 4 5 6 
#
# 1 88.1224 47.3491 45.5556 4.3263 14.3230 -0.2797
# 2 47.3491 142.9843 49.8535 -8.0298 16.3315 0.8812
# 3 45.5556 49.8535 133.0693 -11.0936 3.5918 -0.5455
# 4 4.3263 -8.0298 -11.0936 20.5232 0.3192 -0.7023
# 5 14.3230 16.3315 3.5918 0.3192 28.2881 4.4854
# 6 -0.2797 0.8812 -0.5455 -0.7023 4.4854 22.5567
#
#
#
# Elastic Compliance Matrix: (Units=1/GPa)
#
#
# Indices 1 2 3 4 5 6 
#
# 1 0.017305 -0.003733 -0.004997 -0.007673 -0.006078 0.001209
# 2 -0.003733 0.009475 -0.001883 0.003541 -0.003434 0.000331
# 3 -0.004997 -0.001883 0.010361 0.005882 0.002235 0.000001
# 4 -0.007673 0.003541 0.005882 0.054959 0.000224 0.001575
# 5 -0.006078 -0.003434 0.002235 0.000224 0.041411 -0.008115
# 6 0.001209 0.000331 0.000001 0.001575 -0.008115 0.045998
#
#
# Mechanical properties :
#
#
# Convention : Reuss Voigt Hill
#
# Bulk Modulus (GPa) = 62.82490 72.18805 67.50647
# Shear Modulus (GPa) = 24.26747 29.03477 26.65112
#
# Velocity S-wave (km/s) = 3.44028 3.76305 3.60528
# Velocity P-wave (km/s) = 6.81330 7.35443 7.08903
#
# Compressibility (1/GPa) = 0.01591726
#
# Stress axis : x y z
#
# Youngs Moduli (GPa) = 57.78752 105.53760 96.51701
#
# Poissons Ratio (x) = 0.39392 0.48225
# Poissons Ratio (y) = 0.21569 0.18172
# Poissons Ratio (z) = 0.28874 0.19871
#
# Static dielectric constant tensor:
#      x y z
#    x 3.877360 0.021580 0.026460 
#    y 0.021580 3.415160 -0.147810 
#    z 0.026460 -0.147810 3.879780 
# 
# 
# High freq. dielectric constant tensor:
#      x y z
#    x 1.802540 0.005900 0.000030 
#    y 0.005900 1.766990 -0.010750 
#    z 0.000030 -0.010750 1.819720 
# 
# From -- ./inp_files/418652.got.cif
#   From: 2010.06.25/outbox.cif.g09.slc.cpg/sg2_210_cif.got.tgz:418652.got - 2010.06.27 13:26:56.
