data_PCOD8018551
_publ_section_title
;
Structure prediction by ZEFSAII (Michael W. Deem and Ramdas Pophale) SiO2 
 PCOD8018551
Probable space group: P -1
;
_chemical_formula_sum "Si O2"
_cell_formula_units_Z 14
_cell_length_a 11.070074
_cell_length_b 14.122945
_cell_length_c 9.106709
_cell_angle_alpha 54.864035
_cell_angle_beta 116.794619
_cell_angle_gamma 147.720098
_cell_volume 619.730405
_symmetry_space_group_name_H-M "P -1"
_symmetry_group_IT_number 2
_symmetry_cell_setting 'triclinic'
loop_
_space_group_symop_operation_xyz
x,y,z
-x,-y,-z
loop_
_atom_site_type_symbol
_atom_site_label
_atom_site_fract_x
_atom_site_fract_y
_atom_site_fract_z
Si Si1 0.181915 0.436316 0.950034
Si Si2 0.686392 0.042645 0.009318
Si Si3 0.524533 0.706695 0.366974
Si Si4 0.819037 0.137313 0.476807
Si Si5 0.472101 0.848597 0.770906
Si Si6 0.862096 0.524120 0.429577
Si Si7 0.779319 0.669159 0.658626
O O1 0.327239 0.637501 0.924357
O O2 0.225851 0.467629 0.771298
O O3 0.239265 0.361736 0.146184
O O4 0.913285 0.268463 0.969527
O O5 0.677318 0.909967 0.195415
O O6 0.500000 0.000000 0.000000
O O7 0.662306 0.007951 0.852925
O O8 0.361079 0.659335 0.435164
O O9 0.697051 0.740987 0.515314
O O10 0.378685 0.535640 0.321355
O O11 0.716917 0.181904 0.309905
O O12 0.988082 0.282431 0.572192
O O13 0.959026 0.163714 0.405416
O O14 0.604973 0.920812 0.624095
O O15 0.000000 0.500000 0.500000
#
# Coordination Sequence:
#
# PCOD8018551 Si02
#       7
#     2   2   2   2   2   2   2
#     4  12  24  40  68  97 133 170 224 273 328 387
#     4  12  25  40  68 103 132 170 221 278 331 387
#     4  10  24  44  68  94 138 174 222 267 331 397
#     4  10  22  40  67  93 137 174 217 268 337 386
#     4  11  23  41  65 101 133 171 219 277 328 386
#     4  11  21  39  66 101 131 167 217 282 326 385
#     4  10  23  45  67  95 130 187 218 265 327 402
#
# _framework density 22.590468000000001
#
# number of rings (size 3 to 8) (size 9 to 14) (size 15 to 20)
#    0.000    1.143    4.286    1.714    2.000    3.429 
#    0.000    2.143    0.000    0.000    0.000    0.000 
#    0.000    0.000    0.000    0.000    0.000    0.000 
#
# Total GULP energy -173511.700792 kJ/mol
# GULP energy per Si atom -12393.692914 kJ/mol
# Density = 2.253905 g / cm^3
# Si number density = 22.590468 Si / 1000 Ang^3
#
#
#
# Elastic Constant Matrix: (Units=GPa)
#
#
# Indices 1 2 3 4 5 6 
#
# 1 69.3909 8.3921 26.7295 -2.2679 4.6047 11.4220
# 2 8.3921 58.8772 17.0797 -5.8080 -0.2428 9.3116
# 3 26.7295 17.0797 131.8221 18.3956 1.7343 1.5233
# 4 -2.2679 -5.8080 18.3956 46.4097 0.9510 -3.2447
# 5 4.6047 -0.2428 1.7343 0.9510 30.1789 1.7286
# 6 11.4220 9.3116 1.5233 -3.2447 1.7286 29.5307
#
#
#
# Elastic Compliance Matrix: (Units=1/GPa)
#
#
# Indices 1 2 3 4 5 6 
#
# 1 0.017005 -0.000268 -0.003573 0.001838 -0.002107 -0.005983
# 2 -0.000268 0.018995 -0.002780 0.003074 0.000568 -0.005438
# 3 -0.003573 -0.002780 0.009225 -0.004087 0.000045 0.001331
# 4 0.001838 0.003074 -0.004087 0.023742 -0.000837 0.001188
# 5 -0.002107 0.000568 0.000045 -0.000837 0.033567 -0.001424
# 6 -0.005983 -0.005438 0.001331 0.001188 -0.001424 0.038037
#
#
# Mechanical properties :
#
#
# Convention : Reuss Voigt Hill
#
# Bulk Modulus (GPa) = 31.26839 40.49921 35.88380
# Shear Modulus (GPa) = 30.39992 35.08314 32.74153
#
# Velocity S-wave (km/s) = 3.67235 3.94510 3.81117
# Velocity P-wave (km/s) = 5.64385 6.22239 5.94017
#
# Compressibility (1/GPa) = 0.03198117
#
# Stress axis : x y z
#
# Youngs Moduli (GPa) = 58.80778 52.64573 108.40042
#
# Poissons Ratio (x) = 0.01413 0.38731
# Poissons Ratio (y) = 0.01578 0.30139
# Poissons Ratio (z) = 0.21012 0.14637
#
# Static dielectric constant tensor:
#      x y z
#    x 3.786260 0.084240 -0.225580 
#    y 0.084240 4.285450 0.093580 
#    z -0.225580 0.093580 4.461470 
# 
# 
# High freq. dielectric constant tensor:
#      x y z
#    x 1.852240 0.010300 -0.011530 
#    y 0.010300 1.906090 0.004340 
#    z -0.011530 0.004340 1.910590 
# 
# From -- ./inp_files/184421.got.cif
#   From: 2010.06.25/outbox.cif.g09.slc.cpg/sg2_93_cif.got.tgz:184421.got - 2010.06.27 13:26:56.
