data_PCOD8018862
_publ_section_title
;
Structure prediction by ZEFSAII (Michael W. Deem and Ramdas Pophale) SiO2 
 PCOD8018862
Probable space group: P -1
;
_chemical_formula_sum "Si O2"
_cell_formula_units_Z 16
_cell_length_a 12.426258
_cell_length_b 11.033074
_cell_length_c 16.957291
_cell_angle_alpha 135.434524
_cell_angle_beta 142.532263
_cell_angle_gamma 72.088355
_cell_volume 790.772231
_symmetry_space_group_name_H-M "P -1"
_symmetry_group_IT_number 2
_symmetry_cell_setting 'triclinic'
loop_
_space_group_symop_operation_xyz
x,y,z
-x,-y,-z
loop_
_atom_site_type_symbol
_atom_site_label
_atom_site_fract_x
_atom_site_fract_y
_atom_site_fract_z
Si Si1 0.887819 0.347700 0.075327
Si Si2 0.846417 0.322815 0.218277
Si Si3 0.261563 0.285883 0.247721
Si Si4 0.712581 0.502042 0.355048
Si Si5 0.377934 0.084984 0.345135
Si Si6 0.122674 0.659777 0.221197
Si Si7 0.707699 0.880029 0.973259
Si Si8 0.830901 0.942248 0.626482
O O1 0.847622 0.391263 0.160708
O O2 0.076140 0.314065 0.172789
O O3 0.970394 0.547860 0.158098
O O4 0.658536 0.134127 0.807017
O O5 0.759829 0.431225 0.268923
O O6 0.091094 0.406637 0.425145
O O7 0.680226 0.061516 0.011446
O O8 0.500000 0.500000 0.500000
O O9 0.239019 0.114329 0.215137
O O10 0.249034 0.221601 0.120673
O O11 0.499165 0.297690 0.177712
O O12 0.676422 0.684297 0.396660
O O13 0.636688 0.288685 0.600815
O O14 0.245019 0.026653 0.320676
O O15 0.174996 0.894693 0.357599
O O16 0.000000 0.500000 0.000000
O O17 0.922068 0.988436 0.203081
#
# Coordination Sequence:
#
# PCOD8018862 Si02
#       8
#     2   2   2   2   2   2   2   2
#     4  12  23  39  62  93 133 157 198 258 309 375
#     4  10  22  41  60  97 123 160 207 246 310 371
#     4  12  20  34  58  98 126 151 190 248 327 367
#     4  10  23  39  65  88 127 164 202 256 299 363
#     4  12  23  38  62  91 127 161 195 262 316 369
#     4  12  26  41  59  91 126 170 209 246 308 372
#     4  11  20  38  64  91 125 157 196 256 310 370
#     4  11  24  39  59  90 122 165 212 246 299 367
#
# _framework density 20.233385999999999
#
# number of rings (size 3 to 8) (size 9 to 14) (size 15 to 20)
#    0.000    0.750    5.000    4.125    1.750    0.000 
#    0.000    0.625    0.000    1.500    0.000    0.000 
#    0.000    0.000    0.000    0.000    0.000    0.000 
#
# Total GULP energy -198343.061819 kJ/mol
# GULP energy per Si atom -12396.441364 kJ/mol
# Density = 2.018733 g / cm^3
# Si number density = 20.233386 Si / 1000 Ang^3
#
#
#
# Elastic Constant Matrix: (Units=GPa)
#
#
# Indices 1 2 3 4 5 6 
#
# 1 112.8433 35.0691 38.5072 10.7846 -11.3946 24.2267
# 2 35.0691 108.4936 9.7576 20.7151 -13.4814 30.1613
# 3 38.5072 9.7576 91.4930 10.2945 5.3708 11.4087
# 4 10.7846 20.7151 10.2945 32.4837 -1.3264 9.4377
# 5 -11.3946 -13.4814 5.3708 -1.3264 32.7436 5.4033
# 6 24.2267 30.1613 11.4087 9.4377 5.4033 30.6335
#
#
#
# Elastic Compliance Matrix: (Units=1/GPa)
#
#
# Indices 1 2 3 4 5 6 
#
# 1 0.013383 -0.000415 -0.004832 0.000464 0.006904 -0.009736
# 2 -0.000415 0.015527 0.000483 -0.005208 0.008437 -0.015023
# 3 -0.004832 0.000483 0.013493 -0.003123 -0.003815 -0.000044
# 4 0.000464 -0.005208 -0.003123 0.036579 0.000920 -0.005508
# 5 0.006904 0.008437 -0.003815 0.000920 0.040338 -0.019745
# 6 -0.009736 -0.015023 -0.000044 -0.005508 -0.019745 0.060332
#
#
# Mechanical properties :
#
#
# Convention : Reuss Voigt Hill
#
# Bulk Modulus (GPa) = 30.41878 53.27753 41.84815
# Shear Modulus (GPa) = 24.98280 34.47191 29.72736
#
# Velocity S-wave (km/s) = 3.51769 4.13209 3.83720
# Velocity P-wave (km/s) = 5.61831 7.01100 6.35294
#
# Compressibility (1/GPa) = 0.03287443
#
# Stress axis : x y z
#
# Youngs Moduli (GPa) = 74.72269 64.40369 74.11445
#
# Poissons Ratio (x) = 0.02674 0.35809
# Poissons Ratio (y) = 0.03102 -0.03578
# Poissons Ratio (z) = 0.36103 -0.03109
#
# Static dielectric constant tensor:
#      x y z
#    x 3.568750 0.196380 0.029190 
#    y 0.196380 3.897360 0.108040 
#    z 0.029190 0.108040 4.021570 
# 
# 
# High freq. dielectric constant tensor:
#      x y z
#    x 1.774140 0.014260 0.011250 
#    y 0.014260 1.781440 0.019200 
#    z 0.011250 0.019200 1.804240 
# 
# From -- ./inp_files/402859.got.cif
#   From: 2010.06.25/outbox.cif.g09.slc.cpg/sg2_202_cif.got.tgz:402859.got - 2010.06.27 13:26:56.
