data_PCOD8018732
_publ_section_title
;
Structure prediction by ZEFSAII (Michael W. Deem and Ramdas Pophale) SiO2 
 PCOD8018732
Probable space group: P -1
;
_chemical_formula_sum "Si O2"
_cell_formula_units_Z 16
_cell_length_a 11.146360
_cell_length_b 18.390909
_cell_length_c 8.789871
_cell_angle_alpha 38.384438
_cell_angle_beta 138.747936
_cell_angle_gamma 137.551828
_cell_volume 687.444450
_symmetry_space_group_name_H-M "P -1"
_symmetry_group_IT_number 2
_symmetry_cell_setting 'triclinic'
loop_
_space_group_symop_operation_xyz
x,y,z
-x,-y,-z
loop_
_atom_site_type_symbol
_atom_site_label
_atom_site_fract_x
_atom_site_fract_y
_atom_site_fract_z
Si Si1 0.397628 0.138390 0.683360
Si Si2 0.748815 0.114362 0.190258
Si Si3 0.538401 0.620643 0.232275
Si Si4 0.754457 0.898662 0.086024
Si Si5 0.113584 0.513595 0.927296
Si Si6 0.093801 0.341491 0.671483
Si Si7 0.149864 0.892743 0.379446
Si Si8 0.868048 0.717157 0.851109
O O1 0.333192 0.254946 0.386042
O O2 0.350156 0.036934 0.669033
O O3 0.628169 0.186869 0.865138
O O4 0.285953 0.061326 0.851202
O O5 0.743779 0.147135 0.312091
O O6 0.962195 0.157101 0.249461
O O7 0.500000 0.500000 0.500000
O O8 0.683821 0.618389 0.238824
O O9 0.633664 0.750304 0.200500
O O10 0.331780 0.617513 0.974889
O O11 0.700938 0.985524 0.766890
O O12 0.985451 0.932796 0.238869
O O13 0.988393 0.548711 0.620943
O O14 0.140334 0.385117 0.116705
O O15 0.000000 0.500000 0.000000
O O16 0.948606 0.218980 0.648895
O O17 0.090491 0.323252 0.877510
#
# Coordination Sequence:
#
# PCOD8018732 Si02
#       8
#     2   2   2   2   2   2   2   2
#     4  11  25  42  67 104 141 188 231 287 369 420
#     4  11  25  43  70 104 145 183 233 296 355 438
#     4  11  24  44  72 102 139 187 240 293 351 423
#     4  10  22  40  70 102 137 184 232 292 354 420
#     4  12  26  46  72 103 139 191 247 291 355 422
#     4  11  26  46  72 106 142 188 237 300 357 423
#     4  10  22  43  71 104 137 182 236 292 359 418
#     4  12  26  46  72 100 148 189 234 298 357 426
#
# _framework density 23.274608000000001
#
# number of rings (size 3 to 8) (size 9 to 14) (size 15 to 20)
#    0.000    1.000    2.500    3.000    8.750    3.000 
#    2.250    0.000    0.000    0.000    0.000    0.000 
#    0.000    0.000    0.000    0.000    0.000    0.000 
#
# Total GULP energy -198397.941876 kJ/mol
# GULP energy per Si atom -12399.871367 kJ/mol
# Density = 2.322163 g / cm^3
# Si number density = 23.274608 Si / 1000 Ang^3
#
#
#
# Elastic Constant Matrix: (Units=GPa)
#
#
# Indices 1 2 3 4 5 6 
#
# 1 85.2320 38.6486 39.3406 0.6845 -9.3860 -10.6017
# 2 38.6486 94.0232 37.0424 -0.1991 -7.0861 -1.1731
# 3 39.3406 37.0424 143.4725 5.0345 -3.6595 -4.9612
# 4 0.6845 -0.1991 5.0345 33.2483 -2.4522 -3.4182
# 5 -9.3860 -7.0861 -3.6595 -2.4522 49.1362 -3.3185
# 6 -10.6017 -1.1731 -4.9612 -3.4182 -3.3185 32.9872
#
#
#
# Elastic Compliance Matrix: (Units=1/GPa)
#
#
# Indices 1 2 3 4 5 6 
#
# 1 0.016383 -0.005336 -0.002905 0.000767 0.002518 0.004971
# 2 -0.005336 0.013702 -0.002120 0.000419 0.000723 -0.001430
# 3 -0.002905 -0.002120 0.008353 -0.001230 -0.000294 0.000090
# 4 0.000767 0.000419 -0.001230 0.030743 0.001883 0.003452
# 5 0.002518 0.000723 -0.000294 0.001883 0.021220 0.003120
# 6 0.004971 -0.001430 0.000090 0.003452 0.003120 0.032547
#
#
# Mechanical properties :
#
#
# Convention : Reuss Voigt Hill
#
# Bulk Modulus (GPa) = 56.45180 61.42121 58.93650
# Shear Modulus (GPa) = 33.42792 36.92075 35.17433
#
# Velocity S-wave (km/s) = 3.79389 3.98717 3.89173
# Velocity P-wave (km/s) = 6.59536 6.90245 6.75065
#
# Compressibility (1/GPa) = 0.01771423
#
# Stress axis : x y z
#
# Youngs Moduli (GPa) = 61.03939 72.98221 119.72034
#
# Poissons Ratio (x) = 0.38945 0.34782
# Poissons Ratio (y) = 0.32572 0.25383
# Poissons Ratio (z) = 0.17734 0.15473
#
# Static dielectric constant tensor:
#      x y z
#    x 4.241110 0.090100 0.126890 
#    y 0.090100 4.022250 0.169400 
#    z 0.126890 0.169400 4.438800 
# 
# 
# High freq. dielectric constant tensor:
#      x y z
#    x 1.922440 -0.004280 0.007080 
#    y -0.004280 1.910620 0.007890 
#    z 0.007080 0.007890 1.927940 
# 
# From -- ./inp_files/278887.got.cif
#   From: 2010.06.25/outbox.cif.g09.slc.cpg/sg2_140_cif.got.tgz:278887.got - 2010.06.27 13:26:56.
