data_PCOD8018474
_publ_section_title
;
Structure prediction by ZEFSAII (Michael W. Deem and Ramdas Pophale) SiO2 
 PCOD8018474
Probable space group: P -1
;
_chemical_formula_sum "Si O2"
_cell_formula_units_Z 14
_cell_length_a 13.319557
_cell_length_b 20.783486
_cell_length_c 8.481520
_cell_angle_alpha 143.080310
_cell_angle_beta 119.784486
_cell_angle_gamma 32.705369
_cell_volume 640.301242
_symmetry_space_group_name_H-M "P -1"
_symmetry_group_IT_number 2
_symmetry_cell_setting 'triclinic'
loop_
_space_group_symop_operation_xyz
x,y,z
-x,-y,-z
loop_
_atom_site_type_symbol
_atom_site_label
_atom_site_fract_x
_atom_site_fract_y
_atom_site_fract_z
Si Si1 0.190075 0.609023 0.125558
Si Si2 0.394703 0.770163 0.153019
Si Si3 0.199789 0.514929 0.270273
Si Si4 0.798850 0.937632 0.945172
Si Si5 0.954069 0.042796 0.231936
Si Si6 0.788058 0.875372 0.159335
Si Si7 0.587172 0.852310 0.146651
O O1 0.092591 0.612755 0.202755
O O2 0.171314 0.749556 0.420194
O O3 0.055298 0.676611 0.999315
O O4 0.454953 0.378809 0.867778
O O5 0.320087 0.952280 0.469362
O O6 0.548174 0.637858 0.855097
O O7 0.186483 0.856399 0.143250
O O8 0.046439 0.701725 0.635795
O O9 0.225679 0.373072 0.074395
O O10 0.620998 0.047970 0.890374
O O11 0.723730 0.945596 0.066650
O O12 0.807898 0.058717 0.207432
O O13 0.000000 0.000000 0.000000
O O14 0.703374 0.825354 0.042866
O O15 0.500000 0.000000 0.500000
#
# Coordination Sequence:
#
# PCOD8018474 Si02
#       7
#     2   2   2   2   2   2   2
#     4   9  21  40  67  92 126 171 212 250 310 384
#     4   9  21  40  66  93 126 171 208 250 313 382
#     4  10  22  40  66  97 117 167 223 248 311 377
#     4  12  27  40  63 103 128 162 213 271 320 367
#     4  11  20  39  66  94 134 163 210 264 310 376
#     4  11  24  44  63  93 137 164 208 269 319 370
#     4  12  24  44  70  89 125 174 217 261 317 378
#
# _framework density 21.864709999999999
#
# number of rings (size 3 to 8) (size 9 to 14) (size 15 to 20)
#    0.857    0.571    2.857    2.143    0.000   10.857 
#    0.000    1.429    0.000    0.000    0.000    0.000 
#    0.000    0.000    0.000    0.000    0.000    0.000 
#
# Total GULP energy -173486.319344 kJ/mol
# GULP energy per Si atom -12391.879953 kJ/mol
# Density = 2.181494 g / cm^3
# Si number density = 21.864710 Si / 1000 Ang^3
#
#
#
# Elastic Constant Matrix: (Units=GPa)
#
#
# Indices 1 2 3 4 5 6 
#
# 1 91.2723 22.7139 24.2936 -0.4363 20.1498 9.4502
# 2 22.7139 111.4829 30.6506 11.2537 14.2638 -8.4101
# 3 24.2936 30.6506 56.0171 10.5865 15.6727 -1.4462
# 4 -0.4363 11.2537 10.5865 29.2760 5.2174 1.4445
# 5 20.1498 14.2638 15.6727 5.2174 30.7115 -1.6071
# 6 9.4502 -8.4101 -1.4462 1.4445 -1.6071 39.9436
#
#
#
# Elastic Compliance Matrix: (Units=1/GPa)
#
#
# Indices 1 2 3 4 5 6 
#
# 1 0.014621 -0.001576 -0.004202 0.003916 -0.007611 -0.004391
# 2 -0.001576 0.011149 -0.004507 -0.002582 -0.001270 0.002600
# 3 -0.004202 -0.004507 0.025294 -0.006284 -0.006942 0.000909
# 4 0.003916 -0.002582 -0.006284 0.038512 -0.004878 -0.003287
# 5 -0.007611 -0.001270 -0.006942 -0.004878 0.042682 0.003176
# 6 -0.004391 0.002600 0.000909 -0.003287 0.003176 0.026901
#
#
# Mechanical properties :
#
#
# Convention : Reuss Voigt Hill
#
# Bulk Modulus (GPa) = 32.79443 46.00985 39.40214
# Shear Modulus (GPa) = 26.33047 32.06049 29.19548
#
# Velocity S-wave (km/s) = 3.47399 3.83340 3.65811
# Velocity P-wave (km/s) = 5.57878 6.37824 5.99186
#
# Compressibility (1/GPa) = 0.03049298
#
# Stress axis : x y z
#
# Youngs Moduli (GPa) = 68.39639 89.69143 39.53574
#
# Poissons Ratio (x) = 0.14138 0.16614
# Poissons Ratio (y) = 0.10781 0.17818
# Poissons Ratio (z) = 0.28742 0.40421
#
# Static dielectric constant tensor:
#      x y z
#    x 3.837040 0.056640 0.199190 
#    y 0.056640 4.027770 0.248550 
#    z 0.199190 0.248550 3.842040 
# 
# 
# High freq. dielectric constant tensor:
#      x y z
#    x 1.851070 0.004940 0.011620 
#    y 0.004940 1.864920 0.017800 
#    z 0.011620 0.017800 1.842360 
# 
# From -- ./inp_files/278902.got.cif
#   From: 2010.06.25/outbox.cif.g09.slc.cpg/sg2_140_cif.got.tgz:278902.got - 2010.06.27 13:26:56.
