data_PCOD8018063
_publ_section_title
;
Structure prediction by ZEFSAII (Michael W. Deem and Ramdas Pophale) SiO2 
 PCOD8018063
Probable space group: P -1
;
_chemical_formula_sum "Si O2"
_cell_formula_units_Z 16
_cell_length_a 14.033046
_cell_length_b 13.705411
_cell_length_c 8.586913
_cell_angle_alpha 137.133260
_cell_angle_beta 131.229817
_cell_angle_gamma 41.135069
_cell_volume 717.627802
_symmetry_space_group_name_H-M "P -1"
_symmetry_group_IT_number 2
_symmetry_cell_setting 'triclinic'
loop_
_space_group_symop_operation_xyz
x,y,z
-x,-y,-z
loop_
_atom_site_type_symbol
_atom_site_label
_atom_site_fract_x
_atom_site_fract_y
_atom_site_fract_z
Si Si1 0.101814 0.578076 0.971616
Si Si2 0.715679 0.552283 0.436338
Si Si3 0.065774 0.834328 0.480426
Si Si4 0.485493 0.642633 0.535934
Si Si5 0.343613 0.829430 0.885357
Si Si6 0.195144 0.197061 0.275688
Si Si7 0.395880 0.485546 0.026594
Si Si8 0.049402 0.292093 0.554614
O O1 0.129738 0.665922 0.249254
O O2 0.244507 0.491476 0.912783
O O3 0.080737 0.426424 0.827724
O O4 0.957857 0.716673 0.883873
O O5 0.644665 0.600149 0.589703
O O6 0.714859 0.711096 0.548661
O O7 0.609938 0.510703 0.165353
O O8 0.880207 0.390407 0.426206
O O9 0.199189 0.813175 0.706356
O O10 0.936008 0.845181 0.464182
O O11 0.000000 0.000000 0.500000
O O12 0.500000 0.500000 0.500000
O O13 0.406952 0.811630 0.754576
O O14 0.386807 0.648879 0.288525
O O15 0.461723 0.686576 0.959974
O O16 0.304431 0.007351 0.116414
O O17 0.161184 0.197281 0.421994
#
# Coordination Sequence:
#
# PCOD8018063 Si02
#       8
#     2   2   2   2   2   2   2   2
#     4  11  21  44  72  97 131 174 229 271 327 400
#     4  11  22  42  71  97 129 174 223 278 320 400
#     4  12  25  45  66  99 138 175 219 280 335 387
#     4  10  22  40  61  93 130 172 216 263 327 395
#     4  11  25  42  63  98 139 172 215 275 336 394
#     4  11  23  45  66  98 134 173 225 273 334 391
#     4  11  21  41  69  97 128 174 221 271 331 399
#     4  11  23  43  73  99 129 177 229 271 325 397
#
# _framework density 22.295680000000001
#
# number of rings (size 3 to 8) (size 9 to 14) (size 15 to 20)
#    0.000    1.000    5.000    3.000    1.750    1.500 
#    2.250    0.000    0.000    0.000    0.000    0.000 
#    0.000    0.000    0.000    0.000    0.000    0.000 
#
# Total GULP energy -198378.118780 kJ/mol
# GULP energy per Si atom -12398.632424 kJ/mol
# Density = 2.224493 g / cm^3
# Si number density = 22.295680 Si / 1000 Ang^3
#
#
#
# Elastic Constant Matrix: (Units=GPa)
#
#
# Indices 1 2 3 4 5 6 
#
# 1 134.2341 32.4508 35.2409 21.2094 -35.5462 12.6784
# 2 32.4508 86.7863 39.1821 12.2024 -2.5907 0.8326
# 3 35.2409 39.1821 121.6164 21.2986 -16.0603 4.2212
# 4 21.2094 12.2024 21.2986 32.9898 -9.6432 1.4524
# 5 -35.5462 -2.5907 -16.0603 -9.6432 29.2090 -0.6968
# 6 12.6784 0.8326 4.2212 1.4524 -0.6968 32.8758
#
#
#
# Elastic Compliance Matrix: (Units=1/GPa)
#
#
# Indices 1 2 3 4 5 6 
#
# 1 0.013156 -0.004112 0.000049 -0.002456 0.014753 -0.004554
# 2 -0.004112 0.015059 -0.004210 -0.002237 -0.006681 0.001702
# 3 0.000049 -0.004210 0.010903 -0.004222 0.004263 -0.001035
# 4 -0.002456 -0.002237 -0.004222 0.037446 0.006855 0.000037
# 5 0.014753 -0.006681 0.004263 0.006855 0.056080 -0.005182
# 6 -0.004554 0.001702 -0.001035 0.000037 -0.005182 0.032152
#
#
# Mechanical properties :
#
#
# Convention : Reuss Voigt Hill
#
# Bulk Modulus (GPa) = 44.30201 61.82050 53.06125
# Shear Modulus (GPa) = 26.47365 34.73245 30.60305
#
# Velocity S-wave (km/s) = 3.44959 3.95119 3.70888
# Velocity P-wave (km/s) = 5.98160 6.97163 6.49551
#
# Compressibility (1/GPa) = 0.02257234
#
# Stress axis : x y z
#
# Youngs Moduli (GPa) = 76.01276 66.40346 91.71842
#
# Poissons Ratio (x) = 0.27304 -0.00449
# Poissons Ratio (y) = 0.31255 0.38613
# Poissons Ratio (z) = -0.00372 0.27956
#
# Static dielectric constant tensor:
#      x y z
#    x 4.460420 -0.030340 -0.195640 
#    y -0.030340 3.737090 -0.018420 
#    z -0.195640 -0.018420 4.485260 
# 
# 
# High freq. dielectric constant tensor:
#      x y z
#    x 1.898150 -0.007010 -0.003460 
#    y -0.007010 1.846370 -0.009840 
#    z -0.003460 -0.009840 1.889360 
# 
# From -- ./inp_files/314289.got.cif
#   From: 2010.06.25/outbox.cif.g09.slc.cpg/sg2_158_cif.got.tgz:314289.got - 2010.06.27 13:26:56.
