data_PCOD8018345
_publ_section_title
;
Structure prediction by ZEFSAII (Michael W. Deem and Ramdas Pophale) SiO2 
 PCOD8018345
Probable space group: P -1
;
_chemical_formula_sum "Si O2"
_cell_formula_units_Z 16
_cell_length_a 8.612475
_cell_length_b 15.417555
_cell_length_c 9.295517
_cell_angle_alpha 133.399612
_cell_angle_beta 70.516275
_cell_angle_gamma 92.928321
_cell_volume 816.381749
_symmetry_space_group_name_H-M "P -1"
_symmetry_group_IT_number 2
_symmetry_cell_setting 'triclinic'
loop_
_space_group_symop_operation_xyz
x,y,z
-x,-y,-z
loop_
_atom_site_type_symbol
_atom_site_label
_atom_site_fract_x
_atom_site_fract_y
_atom_site_fract_z
Si Si1 0.779278 0.102757 0.303968
Si Si2 0.835650 0.479050 0.099266
Si Si3 0.428663 0.082995 0.479495
Si Si4 0.294002 0.724980 0.229387
Si Si5 0.013215 0.417806 0.258688
Si Si6 0.814780 0.061724 0.691203
Si Si7 0.665587 0.646070 0.109555
Si Si8 0.042845 0.850719 0.984031
O O1 0.581798 0.101394 0.352307
O O2 0.799245 0.215313 0.527790
O O3 0.849070 0.138685 0.176023
O O4 0.877629 0.966987 0.176435
O O5 0.682600 0.583610 0.193350
O O6 0.854939 0.478581 0.267209
O O7 0.822451 0.344868 0.900257
O O8 0.000000 0.500000 0.000000
O O9 0.321779 0.214671 0.721973
O O10 0.500000 0.000000 0.500000
O O11 0.294839 0.038057 0.367711
O O12 0.307769 0.843267 0.269628
O O13 0.482850 0.637098 0.096195
O O14 0.000000 0.500000 0.500000
O O15 0.009962 0.278310 0.142234
O O16 0.187940 0.420134 0.124584
O O17 0.830184 0.137591 0.914685
O O18 0.000000 0.000000 0.500000
#
# Coordination Sequence:
#
# PCOD8018345 Si02
#       8
#     2   2   2   2   2   2   2   2
#     4  10  23  39  63  94 124 161 195 263 317 366
#     4  10  23  39  63  91 118 160 216 252 293 369
#     4  11  20  39  67  93 121 154 206 255 314 367
#     4  11  21  40  67  90 123 160 208 259 309 364
#     4  11  24  43  62  87 127 170 203 256 310 366
#     4  12  21  36  67  95 121 164 206 253 308 380
#     4  10  22  40  65  92 120 160 213 257 300 368
#     4  11  23  40  60  91 129 160 207 251 314 377
#
# _framework density 19.598673999999999
#
# number of rings (size 3 to 8) (size 9 to 14) (size 15 to 20)
#    0.000    1.250    5.000    1.875    5.250    0.500 
#    2.250    3.125    0.000    0.000    0.000    0.000 
#    0.000    0.000    0.000    0.000    0.000    0.000 
#
# Total GULP energy -198275.882520 kJ/mol
# GULP energy per Si atom -12392.242658 kJ/mol
# Density = 1.955407 g / cm^3
# Si number density = 19.598674 Si / 1000 Ang^3
#
#
#
# Elastic Constant Matrix: (Units=GPa)
#
#
# Indices 1 2 3 4 5 6 
#
# 1 108.8306 34.3451 57.0644 -4.6664 15.6377 -1.6696
# 2 34.3451 90.6208 39.2191 5.6484 1.1962 -14.2150
# 3 57.0644 39.2191 120.6333 1.3090 16.2518 -5.7142
# 4 -4.6664 5.6484 1.3090 24.2381 4.0527 3.1563
# 5 15.6377 1.1962 16.2518 4.0527 36.4340 7.9452
# 6 -1.6696 -14.2150 -5.7142 3.1563 7.9452 35.6659
#
#
#
# Elastic Compliance Matrix: (Units=1/GPa)
#
#
# Indices 1 2 3 4 5 6 
#
# 1 0.013545 -0.003411 -0.004887 0.004437 -0.003785 -0.001058
# 2 -0.003411 0.014794 -0.003131 -0.004918 0.001772 0.005275
# 3 -0.004887 -0.003131 0.012149 -0.000457 -0.003447 0.001278
# 4 0.004437 -0.004918 -0.000457 0.044801 -0.005528 -0.004559
# 5 -0.003785 0.001772 -0.003447 -0.005528 0.032650 -0.006807
# 6 -0.001058 0.005275 0.001278 -0.004559 -0.006807 0.032216
#
#
# Mechanical properties :
#
#
# Convention : Reuss Voigt Hill
#
# Bulk Modulus (GPa) = 56.72392 64.59353 60.65872
# Shear Modulus (GPa) = 27.95013 31.89799 29.92406
#
# Velocity S-wave (km/s) = 3.78050 4.03868 3.91172
# Velocity P-wave (km/s) = 6.93266 7.40119 7.17075
#
# Compressibility (1/GPa) = 0.01762925
#
# Stress axis : x y z
#
# Youngs Moduli (GPa) = 73.82599 67.59610 82.31022
#
# Poissons Ratio (x) = 0.23059 0.40224
# Poissons Ratio (y) = 0.25184 0.25774
# Poissons Ratio (z) = 0.36078 0.21167
#
# Static dielectric constant tensor:
#      x y z
#    x 2.961050 -0.226380 -0.311670 
#    y -0.226380 4.318710 0.321850 
#    z -0.311670 0.321850 3.375380 
# 
# 
# High freq. dielectric constant tensor:
#      x y z
#    x 1.771740 -0.001550 0.009220 
#    y -0.001550 1.772970 0.013390 
#    z 0.009220 0.013390 1.749500 
# 
# From -- ./inp_files/181870.got.cif
#   From: 2010.06.25/outbox.cif.g09.slc.cpg/sg2_91_cif.got.tgz:181870.got - 2010.06.27 13:26:56.
