data_PCOD8018317
_publ_section_title
;
Structure prediction by ZEFSAII (Michael W. Deem and Ramdas Pophale) SiO2 
 PCOD8018317
Probable space group: P -1
;
_chemical_formula_sum "Si O2"
_cell_formula_units_Z 12
_cell_length_a 4.932595
_cell_length_b 12.908655
_cell_length_c 23.342582
_cell_angle_alpha 24.522625
_cell_angle_beta 101.107271
_cell_angle_gamma 115.723658
_cell_volume 467.457448
_symmetry_space_group_name_H-M "P -1"
_symmetry_group_IT_number 2
_symmetry_cell_setting 'triclinic'
loop_
_space_group_symop_operation_xyz
x,y,z
-x,-y,-z
loop_
_atom_site_type_symbol
_atom_site_label
_atom_site_fract_x
_atom_site_fract_y
_atom_site_fract_z
Si Si1 0.387597 0.838661 0.850956
Si Si2 0.324410 0.237220 0.990899
Si Si3 0.051036 0.609044 0.770210
Si Si4 0.315181 0.825947 0.421923
Si Si5 0.476386 0.597309 0.361292
Si Si6 0.277234 0.745295 0.169341
O O1 0.574636 0.946124 0.742673
O O2 0.359105 0.103844 0.739996
O O3 0.622803 0.801502 0.921067
O O4 0.000000 0.500000 0.000000
O O5 0.079079 0.339234 0.928723
O O6 0.700454 0.515811 0.834615
O O7 0.117822 0.885278 0.129309
O O8 0.016996 0.588652 0.709216
O O9 0.394362 0.970051 0.618473
O O10 0.934869 0.701932 0.490714
O O11 0.289655 0.517026 0.561933
O O12 0.504781 0.701827 0.243623
O O13 0.500000 0.000000 0.000000
#
# Coordination Sequence:
#
# PCOD8018317 Si02
#       6
#     2   2   2   2   2   2
#     4  11  24  46  73 100 133 183 232 277 326 405
#     4  10  22  40  65 102 128 171 228 280 319 384
#     4  11  22  40  67  97 134 173 223 270 331 397
#     4  12  26  45  67 101 145 177 218 278 346 402
#     4  11  27  47  67 101 140 179 219 280 348 396
#     4   9  22  43  71  98 133 176 227 280 332 397
#
# _framework density 25.670784000000001
#
# number of rings (size 3 to 8) (size 9 to 14) (size 15 to 20)
#    0.000    1.333    1.667    2.500    0.000   14.000 
#    0.000    0.000    0.000    0.000    0.000    0.000 
#    0.000    0.000    0.000    0.000    0.000    0.000 
#
# Total GULP energy -148822.569318 kJ/mol
# GULP energy per Si atom -12401.880776 kJ/mol
# Density = 2.561236 g / cm^3
# Si number density = 25.670784 Si / 1000 Ang^3
#
#
#
# Elastic Constant Matrix: (Units=GPa)
#
#
# Indices 1 2 3 4 5 6 
#
# 1 56.6175 -11.6968 6.2297 16.0102 -10.5492 -9.9882
# 2 -11.6968 129.4189 16.3514 -3.3194 -22.8454 -9.0129
# 3 6.2297 16.3514 71.9619 6.4765 -17.3233 -13.0224
# 4 16.0102 -3.3194 6.4765 56.3140 1.6709 -1.1161
# 5 -10.5492 -22.8454 -17.3233 1.6709 43.1679 4.8882
# 6 -9.9882 -9.0129 -13.0224 -1.1161 4.8882 13.6957
#
#
#
# Elastic Compliance Matrix: (Units=1/GPa)
#
#
# Indices 1 2 3 4 5 6 
#
# 1 0.025467 0.004573 0.003100 -0.007138 0.007766 0.021177
# 2 0.004573 0.009598 0.000221 -0.000765 0.005425 0.007862
# 3 0.003100 0.000221 0.018556 -0.002847 0.006448 0.017517
# 4 -0.007138 -0.000765 -0.002847 0.020061 -0.003439 -0.005553
# 5 0.007766 0.005425 0.006448 -0.003439 0.030166 0.004317
# 6 0.021177 0.007862 0.017517 -0.005553 0.004317 0.108296
#
#
# Mechanical properties :
#
#
# Convention : Reuss Voigt Hill
#
# Bulk Modulus (GPa) = 14.40744 31.08521 22.74633
# Shear Modulus (GPa) = 22.77980 39.10979 30.94479
#
# Velocity S-wave (km/s) = 2.98213 3.90746 3.47572
# Velocity P-wave (km/s) = 4.18115 5.70027 4.99875
#
# Compressibility (1/GPa) = 0.06940856
#
# Stress axis : x y z
#
# Youngs Moduli (GPa) = 39.26601 104.19147 53.89131
#
# Poissons Ratio (x) = -0.47642 -0.16709
# Poissons Ratio (y) = -0.17955 -0.01190
# Poissons Ratio (z) = -0.12174 -0.02301
#
# Static dielectric constant tensor:
#      x y z
#    x 4.244380 -0.045620 -0.020400 
#    y -0.045620 5.915700 -0.199400 
#    z -0.020400 -0.199400 4.581610 
# 
# 
# High freq. dielectric constant tensor:
#      x y z
#    x 2.015290 -0.001550 -0.003480 
#    y -0.001550 2.047330 -0.004780 
#    z -0.003480 -0.004780 2.019990 
# 
# From -- ./inp_files/101730.got.cif
#   From: 2010.06.25/outbox.cif.g09.slc.cpg/sg2_51_cif.got.tgz:101730.got - 2010.06.27 13:26:56.
