data_PCOD8018714
_publ_section_title
;
Structure prediction by ZEFSAII (Michael W. Deem and Ramdas Pophale) SiO2 
 PCOD8018714
Probable space group: P -1
;
_chemical_formula_sum "Si O2"
_cell_formula_units_Z 14
_cell_length_a 16.843738
_cell_length_b 13.413134
_cell_length_c 9.140930
_cell_angle_alpha 127.075264
_cell_angle_beta 135.666271
_cell_angle_gamma 26.385472
_cell_volume 636.587229
_symmetry_space_group_name_H-M "P -1"
_symmetry_group_IT_number 2
_symmetry_cell_setting 'triclinic'
loop_
_space_group_symop_operation_xyz
x,y,z
-x,-y,-z
loop_
_atom_site_type_symbol
_atom_site_label
_atom_site_fract_x
_atom_site_fract_y
_atom_site_fract_z
Si Si1 0.170215 0.680469 0.940415
Si Si2 0.514739 0.188699 0.478256
Si Si3 0.231385 0.867662 0.034028
Si Si4 0.937994 0.442129 0.766717
Si Si5 0.501180 0.356168 0.325041
Si Si6 0.918564 0.693610 0.482033
Si Si7 0.875947 0.987770 0.300175
O O1 0.066906 0.672277 0.695879
O O2 0.276363 0.682372 0.971258
O O3 0.342125 0.468261 0.086541
O O4 0.002017 0.895445 0.014987
O O5 0.602939 0.199490 0.726250
O O6 0.304925 0.320734 0.379796
O O7 0.447594 0.323525 0.364768
O O8 0.684028 0.929469 0.432652
O O9 0.252236 0.877310 0.898712
O O10 0.072975 0.335114 0.704889
O O11 0.983731 0.265308 0.745606
O O12 0.000000 0.500000 0.000000
O O13 0.500000 0.500000 0.500000
O O14 0.725578 0.110995 0.348636
O O15 0.000000 0.500000 0.500000
O O16 0.000000 0.000000 0.500000
#
# Coordination Sequence:
#
# PCOD8018714 Si02
#       7
#     2   2   2   2   2   2   2
#     4  10  22  40  69  98 142 177 237 289 352 419
#     4  11  25  47  73 100 147 185 240 291 360 427
#     4  10  22  41  70 102 134 183 232 293 350 418
#     4  12  29  49  72 106 145 188 242 301 360 431
#     4  12  23  42  70 107 142 190 232 296 365 424
#     4  11  27  48  70 102 142 191 240 292 357 429
#     4  12  26  44  71 106 147 186 246 294 356 431
#
# _framework density 21.992270999999999
#
# number of rings (size 3 to 8) (size 9 to 14) (size 15 to 20)
#    0.000    0.857    2.857    3.429   10.000    2.857 
#    0.000    0.000    0.000    0.000    0.000    0.000 
#    0.000    0.000    0.000    0.000    0.000    0.000 
#
# Total GULP energy -173664.137567 kJ/mol
# GULP energy per Si atom -12404.581255 kJ/mol
# Density = 2.194222 g / cm^3
# Si number density = 21.992271 Si / 1000 Ang^3
#
#
#
# Elastic Constant Matrix: (Units=GPa)
#
#
# Indices 1 2 3 4 5 6 
#
# 1 70.4889 29.0049 30.3368 3.9882 -7.0895 8.0662
# 2 29.0049 121.1515 52.2738 1.3260 11.3894 9.2505
# 3 30.3368 52.2738 124.9292 2.7993 -3.6010 -0.7768
# 4 3.9882 1.3260 2.7993 39.6537 -0.4282 2.1042
# 5 -7.0895 11.3894 -3.6010 -0.4282 40.4338 -7.5443
# 6 8.0662 9.2505 -0.7768 2.1042 -7.5443 42.7389
#
#
#
# Elastic Compliance Matrix: (Units=1/GPa)
#
#
# Indices 1 2 3 4 5 6 
#
# 1 0.017286 -0.003067 -0.002804 -0.001296 0.003256 -0.002011
# 2 -0.003067 0.011453 -0.004206 0.000321 -0.004660 -0.002815
# 3 -0.002804 -0.004206 0.010525 -0.000405 0.002000 0.002004
# 4 -0.001296 0.000321 -0.000405 0.025424 -0.000297 -0.001136
# 5 0.003256 -0.004660 0.002000 -0.000297 0.027789 0.005350
# 6 -0.002011 -0.002815 0.002004 -0.001136 0.005350 0.025424
#
#
# Mechanical properties :
#
#
# Convention : Reuss Voigt Hill
#
# Bulk Modulus (GPa) = 52.33125 59.97786 56.15456
# Shear Modulus (GPa) = 34.62015 38.22888 36.42451
#
# Velocity S-wave (km/s) = 3.97192 4.17380 4.07411
# Velocity P-wave (km/s) = 6.69939 7.11048 6.90799
#
# Compressibility (1/GPa) = 0.01910904
#
# Stress axis : x y z
#
# Youngs Moduli (GPa) = 57.84900 87.31390 95.01453
#
# Poissons Ratio (x) = 0.26780 0.26641
# Poissons Ratio (y) = 0.17743 0.39968
# Poissons Ratio (z) = 0.16220 0.36728
#
# Static dielectric constant tensor:
#      x y z
#    x 3.891420 0.042140 -0.134250 
#    y 0.042140 4.147060 -0.064590 
#    z -0.134250 -0.064590 3.898550 
# 
# 
# High freq. dielectric constant tensor:
#      x y z
#    x 1.864630 -0.004700 -0.009630 
#    y -0.004700 1.872840 -0.005030 
#    z -0.009630 -0.005030 1.871320 
# 
# From -- ./inp_files/189679.got.cif
#   From: 2010.06.25/outbox.cif.g09.slc.cpg/sg2_95_cif.got.tgz:189679.got - 2010.06.27 13:26:56.
