data_PCOD8018071
_publ_section_title
;
Structure prediction by ZEFSAII (Michael W. Deem and Ramdas Pophale) SiO2 
 PCOD8018071
Probable space group: P -1
;
_chemical_formula_sum "Si O2"
_cell_formula_units_Z 16
_cell_length_a 11.064275
_cell_length_b 14.953252
_cell_length_c 14.025456
_cell_angle_alpha 150.368301
_cell_angle_beta 42.399469
_cell_angle_gamma 118.045582
_cell_volume 663.108689
_symmetry_space_group_name_H-M "P -1"
_symmetry_group_IT_number 2
_symmetry_cell_setting 'triclinic'
loop_
_space_group_symop_operation_xyz
x,y,z
-x,-y,-z
loop_
_atom_site_type_symbol
_atom_site_label
_atom_site_fract_x
_atom_site_fract_y
_atom_site_fract_z
Si Si1 0.739873 0.768757 0.937235
Si Si2 0.865559 0.495926 0.439267
Si Si3 0.223520 0.811291 0.961061
Si Si4 0.537391 0.692980 0.142872
Si Si5 0.266044 0.164046 0.321334
Si Si6 0.195317 0.164722 0.776273
Si Si7 0.484004 0.465210 0.624359
Si Si8 0.656015 0.809930 0.483197
O O1 0.865701 0.659770 0.666860
O O2 0.912420 0.726160 0.880910
O O3 0.596415 0.683975 0.988306
O O4 0.585978 0.011740 0.228424
O O5 0.826834 0.604005 0.456895
O O6 0.677624 0.468862 0.561017
O O7 0.314749 0.696805 0.902106
O O8 0.419259 0.709813 0.679688
O O9 0.042681 0.765588 0.987189
O O10 0.133093 0.059275 0.263217
O O11 0.726987 0.681631 0.084918
O O12 0.337266 0.919874 0.496851
O O13 0.500000 0.500000 0.000000
O O14 0.250634 0.181986 0.461266
O O15 0.500000 0.000000 0.000000
O O16 0.193377 0.188678 0.684605
O O17 0.361227 0.399069 0.707401
#
# Coordination Sequence:
#
# PCOD8018071 Si02
#       8
#     2   2   2   2   2   2   2   2
#     4  10  22  40  61  96 127 166 226 271 329 398
#     4  11  22  37  64  99 130 165 221 277 326 406
#     4  11  22  39  64  94 128 177 219 272 330 399
#     4  10  23  45  67  91 133 185 218 275 335 402
#     4  12  20  41  65  92 133 177 214 273 336 390
#     4  10  25  45  64  98 138 170 231 277 330 406
#     4  11  21  37  64  93 129 171 214 273 338 385
#     4  11  23  42  64  93 134 176 216 280 329 394
#
# _framework density 24.128774
#
# number of rings (size 3 to 8) (size 9 to 14) (size 15 to 20)
#    0.000    1.250    3.750    1.500    3.500    1.500 
#    0.000    0.000    0.000    0.000    0.000    0.000 
#    0.000    0.000    0.000    0.000    0.000    0.000 
#
# Total GULP energy -198265.877318 kJ/mol
# GULP energy per Si atom -12391.617332 kJ/mol
# Density = 2.407386 g / cm^3
# Si number density = 24.128774 Si / 1000 Ang^3
#
#
#
# Elastic Constant Matrix: (Units=GPa)
#
#
# Indices 1 2 3 4 5 6 
#
# 1 99.4381 28.9236 12.1556 11.4794 -0.6886 5.1335
# 2 28.9236 93.0230 10.8232 17.0395 6.8791 8.1280
# 3 12.1556 10.8232 52.0919 5.4567 -0.5646 0.3986
# 4 11.4794 17.0395 5.4567 38.1060 4.0480 5.2935
# 5 -0.6886 6.8791 -0.5646 4.0480 33.7006 1.3278
# 6 5.1335 8.1280 0.3986 5.2935 1.3278 48.9150
#
#
#
# Elastic Compliance Matrix: (Units=1/GPa)
#
#
# Indices 1 2 3 4 5 6 
#
# 1 0.011409 -0.003028 -0.001822 -0.001865 0.001065 -0.000506
# 2 -0.003028 0.012921 -0.001548 -0.004233 -0.002166 -0.001300
# 3 -0.001822 -0.001548 0.020137 -0.001792 0.000813 0.000456
# 4 -0.001865 -0.004233 -0.001792 0.029544 -0.002666 -0.002211
# 5 0.001065 -0.002166 0.000813 -0.002666 0.030482 -0.000297
# 6 -0.000506 -0.001300 0.000456 -0.002211 -0.000297 0.020956
#
#
# Mechanical properties :
#
#
# Convention : Reuss Voigt Hill
#
# Bulk Modulus (GPa) = 31.57641 38.70642 35.14141
# Shear Modulus (GPa) = 33.60146 36.98770 35.29458
#
# Velocity S-wave (km/s) = 3.73579 3.91951 3.82875
# Velocity P-wave (km/s) = 5.63233 6.04647 5.84307
#
# Compressibility (1/GPa) = 0.03166921
#
# Stress axis : x y z
#
# Youngs Moduli (GPa) = 87.65107 77.39440 49.66041
#
# Poissons Ratio (x) = 0.23437 0.09050
# Poissons Ratio (y) = 0.26543 0.07688
# Poissons Ratio (z) = 0.15973 0.11981
#
# Static dielectric constant tensor:
#      x y z
#    x 4.566860 -0.157400 0.055700 
#    y -0.157400 4.442440 -0.025040 
#    z 0.055700 -0.025040 4.330360 
# 
# 
# High freq. dielectric constant tensor:
#      x y z
#    x 1.963940 -0.006450 0.000230 
#    y -0.006450 1.950950 0.004960 
#    z 0.000230 0.004960 1.950110 
# 
# From -- ./inp_files/522585.got.cif
#   From: 2010.06.25/outbox.cif.g09.slc.cpg/sg2_262_cif.got.tgz:522585.got - 2010.06.27 13:26:56.
