data_PCOD8018292
_publ_section_title
;
Structure prediction by ZEFSAII (Michael W. Deem and Ramdas Pophale) SiO2 
 PCOD8018292
Probable space group: P -1
;
_chemical_formula_sum "Si O2"
_cell_formula_units_Z 14
_cell_length_a 8.428006
_cell_length_b 11.780981
_cell_length_c 9.017167
_cell_angle_alpha 118.960465
_cell_angle_beta 52.837315
_cell_angle_gamma 118.359401
_cell_volume 602.515585
_symmetry_space_group_name_H-M "P -1"
_symmetry_group_IT_number 2
_symmetry_cell_setting 'triclinic'
loop_
_space_group_symop_operation_xyz
x,y,z
-x,-y,-z
loop_
_atom_site_type_symbol
_atom_site_label
_atom_site_fract_x
_atom_site_fract_y
_atom_site_fract_z
Si Si1 0.429164 0.225279 0.679100
Si Si2 0.250830 0.712524 0.206624
Si Si3 0.941040 0.026252 0.213900
Si Si4 0.785333 0.238165 0.292600
Si Si5 0.734196 0.080672 0.918706
Si Si6 0.825018 0.529776 0.412851
Si Si7 0.407836 0.505094 0.786163
O O1 0.578790 0.220365 0.727893
O O2 0.544638 0.220999 0.454991
O O3 0.354390 0.361928 0.811006
O O4 0.245452 0.093590 0.702178
O O5 0.211322 0.831077 0.202870
O O6 0.034742 0.647369 0.369142
O O7 0.341145 0.609328 0.996143
O O8 0.883316 0.168278 0.326777
O O9 0.131155 0.029371 0.219991
O O10 0.000000 0.000000 0.000000
O O11 0.896250 0.396506 0.333261
O O12 0.798176 0.176973 0.085419
O O13 0.500000 0.000000 0.000000
O O14 0.653282 0.556271 0.641421
O O15 0.729125 0.509093 0.291149
#
# Coordination Sequence:
#
# PCOD8018292 Si02
#       7
#     2   2   2   2   2   2   2
#     4  11  24  42  63  99 130 169 217 259 329 385
#     4  12  23  41  68  97 134 168 217 272 314 389
#     4  10  22  41  66  90 125 173 211 263 327 377
#     4  10  22  43  65  90 135 170 208 271 318 388
#     4  11  24  45  66  96 123 168 224 267 319 389
#     4  10  22  41  66 100 129 174 216 261 330 379
#     4  10  22  40  64  96 135 171 213 267 321 384
#
# _framework density 23.235914000000001
#
# number of rings (size 3 to 8) (size 9 to 14) (size 15 to 20)
#    0.000    1.429    1.429    3.857    4.000    2.286 
#   10.286    1.429    0.000    0.000    0.000    0.000 
#    0.000    0.000    0.000    0.000    0.000    0.000 
#
# Total GULP energy -173589.560431 kJ/mol
# GULP energy per Si atom -12399.254317 kJ/mol
# Density = 2.318303 g / cm^3
# Si number density = 23.235914 Si / 1000 Ang^3
#
#
#
# Elastic Constant Matrix: (Units=GPa)
#
#
# Indices 1 2 3 4 5 6 
#
# 1 133.1979 69.6025 8.1650 -6.6527 -23.1629 -18.9074
# 2 69.6025 132.7411 1.8991 -28.3549 -16.2814 -25.9239
# 3 8.1650 1.8991 41.9815 -6.3450 -6.8464 -1.6480
# 4 -6.6527 -28.3549 -6.3450 32.3072 -2.4888 -6.0378
# 5 -23.1629 -16.2814 -6.8464 -2.4888 28.8338 -4.3548
# 6 -18.9074 -25.9239 -1.6480 -6.0378 -4.3548 46.1763
#
#
#
# Elastic Compliance Matrix: (Units=1/GPa)
#
#
# Indices 1 2 3 4 5 6 
#
# 1 0.011633 -0.005185 -0.001126 -0.001471 0.006358 0.002220
# 2 -0.005185 0.017500 0.005063 0.018166 0.010181 0.011218
# 3 -0.001126 0.005063 0.027464 0.011494 0.010349 0.005840
# 4 -0.001471 0.018166 0.011494 0.053865 0.019304 0.018870
# 5 0.006358 0.010181 0.010349 0.019304 0.052097 0.016126
# 6 0.002220 0.011218 0.005840 0.018870 0.016126 0.033059
#
#
# Mechanical properties :
#
#
# Convention : Reuss Voigt Hill
#
# Bulk Modulus (GPa) = 18.48390 51.91706 35.20048
# Shear Modulus (GPa) = 23.13225 36.68038 29.90632
#
# Velocity S-wave (km/s) = 3.15864 3.97748 3.59147
# Velocity P-wave (km/s) = 4.61246 6.59437 5.69037
#
# Compressibility (1/GPa) = 0.05410112
#
# Stress axis : x y z
#
# Youngs Moduli (GPa) = 85.96063 57.14411 36.41088
#
# Poissons Ratio (x) = 0.29627 0.04101
# Poissons Ratio (y) = 0.44568 -0.18435
# Poissons Ratio (z) = 0.09682 -0.28932
#
# Static dielectric constant tensor:
#      x y z
#    x 4.576660 -0.573070 -0.328120 
#    y -0.573070 4.383730 -0.063200 
#    z -0.328120 -0.063200 4.334630 
# 
# 
# High freq. dielectric constant tensor:
#      x y z
#    x 1.923680 -0.022730 -0.011350 
#    y -0.022730 1.924730 -0.011090 
#    z -0.011350 -0.011090 1.919870 
# 
# From -- ./inp_files/189732.got.cif
#   From: 2010.06.25/outbox.cif.g09.slc.cpg/sg2_95_cif.got.tgz:189732.got - 2010.06.27 13:26:56.
