data_PCOD8018374
_publ_section_title
;
Structure prediction by ZEFSAII (Michael W. Deem and Ramdas Pophale) SiO2 
 PCOD8018374
Probable space group: P -1
;
_chemical_formula_sum "Si O2"
_cell_formula_units_Z 12
_cell_length_a 6.678965
_cell_length_b 22.123026
_cell_length_c 6.740687
_cell_angle_alpha 135.980083
_cell_angle_beta 69.322255
_cell_angle_gamma 130.165051
_cell_volume 517.295990
_symmetry_space_group_name_H-M "P -1"
_symmetry_group_IT_number 2
_symmetry_cell_setting 'triclinic'
loop_
_space_group_symop_operation_xyz
x,y,z
-x,-y,-z
loop_
_atom_site_type_symbol
_atom_site_label
_atom_site_fract_x
_atom_site_fract_y
_atom_site_fract_z
Si Si1 0.000617 0.002111 0.270234
Si Si2 0.962449 0.739083 0.721206
Si Si3 0.023481 0.457020 0.688957
Si Si4 0.393330 0.853527 0.171383
Si Si5 0.617750 0.341353 0.230712
Si Si6 0.134979 0.889712 0.676959
O O1 0.685379 0.917333 0.119843
O O2 0.184496 0.971202 0.034429
O O3 0.000000 0.000000 0.500000
O O4 0.082760 0.114999 0.405020
O O5 0.892954 0.621372 0.485530
O O6 0.700584 0.731148 0.839039
O O7 0.038039 0.778606 0.558121
O O8 0.188437 0.826187 0.001536
O O9 0.261331 0.561347 0.735299
O O10 0.738405 0.393907 0.528700
O O11 0.000000 0.500000 0.000000
O O12 0.379766 0.921759 0.517870
O O13 0.308562 0.740840 0.035459
#
# Coordination Sequence:
#
# PCOD8018374 Si02
#       6
#     2   2   2   2   2   2
#     4  11  25  45  66  97 132 170 222 271 321 391
#     4  11  23  42  65  98 132 171 219 268 323 385
#     4  10  22  40  65  95 130 175 213 261 325 387
#     4  11  24  43  66  95 134 170 218 271 320 384
#     4  10  22  42  63  94 136 166 215 271 315 383
#     4  11  24  41  68  95 126 177 214 265 334 378
#
# _framework density 23.197548999999999
#
# number of rings (size 3 to 8) (size 9 to 14) (size 15 to 20)
#    0.000    1.333    1.667    3.000    0.000    6.000 
#    0.000    0.000    0.000    0.000    0.000    0.000 
#    0.000    0.000    0.000    0.000    0.000    0.000 
#
# Total GULP energy -148660.184770 kJ/mol
# GULP energy per Si atom -12388.348731 kJ/mol
# Density = 2.314475 g / cm^3
# Si number density = 23.197549 Si / 1000 Ang^3
#
#
#
# Elastic Constant Matrix: (Units=GPa)
#
#
# Indices 1 2 3 4 5 6 
#
# 1 103.4833 46.6748 41.9209 -15.6476 6.1074 -3.4202
# 2 46.6748 97.0057 27.5977 -22.4484 2.1417 -29.0083
# 3 41.9209 27.5977 141.2746 -33.4760 -6.8622 -4.3979
# 4 -15.6476 -22.4484 -33.4760 31.4788 -2.7247 3.6034
# 5 6.1074 2.1417 -6.8622 -2.7247 34.8996 1.3547
# 6 -3.4202 -29.0083 -4.3979 3.6034 1.3547 54.7684
#
#
#
# Elastic Compliance Matrix: (Units=1/GPa)
#
#
# Indices 1 2 3 4 5 6 
#
# 1 0.013990 -0.006919 -0.003367 -0.001461 -0.002687 -0.002899
# 2 -0.006919 0.018134 0.001131 0.009776 0.000750 0.008602
# 3 -0.003367 0.001131 0.010545 0.010590 0.003402 0.000455
# 4 -0.001461 0.009776 0.010590 0.049459 0.005501 0.002547
# 5 -0.002687 0.000750 0.003402 0.005501 0.030200 -0.000606
# 6 -0.002899 0.008602 0.000455 0.002547 -0.000606 0.022518
#
#
# Mechanical properties :
#
#
# Convention : Reuss Voigt Hill
#
# Bulk Modulus (GPa) = 41.05059 63.79448 52.42254
# Shear Modulus (GPa) = 29.19299 39.26739 34.23019
#
# Velocity S-wave (km/s) = 3.55131 4.11875 3.84552
# Velocity P-wave (km/s) = 5.87795 7.08372 6.50882
#
# Compressibility (1/GPa) = 0.02436018
#
# Stress axis : x y z
#
# Youngs Moduli (GPa) = 71.48048 55.14530 94.83021
#
# Poissons Ratio (x) = 0.38156 0.31925
# Poissons Ratio (y) = 0.49458 -0.10729
# Poissons Ratio (z) = 0.24064 -0.06239
#
# Static dielectric constant tensor:
#      x y z
#    x 4.359470 -0.262140 -0.138410 
#    y -0.262140 4.398040 -0.024360 
#    z -0.138410 -0.024360 4.076570 
# 
# 
# High freq. dielectric constant tensor:
#      x y z
#    x 1.919440 -0.036290 -0.013920 
#    y -0.036290 1.930060 -0.007840 
#    z -0.013920 -0.007840 1.909370 
# 
# From -- ./inp_files/3679.got.cif
#   From: 2010.06.25/outbox.cif.g09.slc.cpg/sg2_2_cif.got.tgz:3679.got - 2010.06.27 13:26:56.
