data_PCOD8018333
_publ_section_title
;
Structure prediction by ZEFSAII (Michael W. Deem and Ramdas Pophale) SiO2 
 PCOD8018333
Probable space group: P -1
;
_chemical_formula_sum "Si O2"
_cell_formula_units_Z 16
_cell_length_a 11.657218
_cell_length_b 13.336858
_cell_length_c 6.768130
_cell_angle_alpha 58.393673
_cell_angle_beta 86.297155
_cell_angle_gamma 108.028530
_cell_volume 818.072725
_symmetry_space_group_name_H-M "P -1"
_symmetry_group_IT_number 2
_symmetry_cell_setting 'triclinic'
loop_
_space_group_symop_operation_xyz
x,y,z
-x,-y,-z
loop_
_atom_site_type_symbol
_atom_site_label
_atom_site_fract_x
_atom_site_fract_y
_atom_site_fract_z
Si Si1 0.668056 0.547775 0.843494
Si Si2 0.466018 0.695417 0.150512
Si Si3 0.870277 0.948499 0.181412
Si Si4 0.100304 0.234826 0.306303
Si Si5 0.413386 0.853620 0.701441
Si Si6 0.484210 0.658437 0.643224
Si Si7 0.822505 0.099271 0.370253
Si Si8 0.254166 0.149499 0.097250
O O1 0.628760 0.439510 0.791342
O O2 0.818982 0.617423 0.787612
O O3 0.622424 0.660832 0.667979
O O4 0.610642 0.482740 0.126630
O O5 0.458515 0.676243 0.402408
O O6 0.421890 0.808717 0.972746
O O7 0.607379 0.738053 0.006467
O O8 0.879580 0.852483 0.439851
O O9 0.841454 0.057429 0.189360
O O10 0.760818 0.882345 0.101783
O O11 0.000000 0.000000 0.000000
O O12 0.153120 0.203785 0.126220
O O13 0.954059 0.204037 0.330703
O O14 0.464195 0.770559 0.644673
O O15 0.269477 0.826933 0.701507
O O16 0.500000 0.000000 0.500000
O O17 0.762701 0.977936 0.647753
#
# Coordination Sequence:
#
# PCOD8018333 Si02
#       8
#     2   2   2   2   2   2   2   2
#     4  10  22  40  65  90 120 154 205 258 302 345
#     4  11  23  40  64  92 121 158 207 251 297 353
#     4  11  20  36  57  91 120 152 201 247 302 360
#     4  11  21  37  59  87 122 155 195 251 305 351
#     4  11  24  40  58  88 128 165 199 238 300 370
#     4  10  22  41  61  91 122 157 204 251 298 353
#     4  11  23  38  56  85 126 160 192 242 303 359
#     4  11  20  35  60  88 119 155 195 249 304 350
#
# _framework density 19.558164000000001
#
# number of rings (size 3 to 8) (size 9 to 14) (size 15 to 20)
#    0.000    1.250    3.750    4.125    3.500    2.500 
#    0.000    2.500    0.000    1.500    0.000    0.000 
#    0.000    0.000    0.000    0.000    0.000    0.000 
#
# Total GULP energy -198338.123729 kJ/mol
# GULP energy per Si atom -12396.132733 kJ/mol
# Density = 1.951365 g / cm^3
# Si number density = 19.558164 Si / 1000 Ang^3
#
#
#
# Elastic Constant Matrix: (Units=GPa)
#
#
# Indices 1 2 3 4 5 6 
#
# 1 106.0940 56.5109 41.5231 -10.8671 13.9620 12.1010
# 2 56.5109 105.2821 52.8423 -3.4560 5.2435 13.9529
# 3 41.5231 52.8423 115.4365 12.8747 20.6151 3.4421
# 4 -10.8671 -3.4560 12.8747 29.4188 0.1604 2.3405
# 5 13.9620 5.2435 20.6151 0.1604 23.9127 -7.0703
# 6 12.1010 13.9529 3.4421 2.3405 -7.0703 32.5436
#
#
#
# Elastic Compliance Matrix: (Units=1/GPa)
#
#
# Indices 1 2 3 4 5 6 
#
# 1 0.015759 -0.006158 -0.002051 0.006445 -0.007642 -0.005126
# 2 -0.006158 0.016195 -0.006172 0.002562 0.004393 -0.003231
# 3 -0.002051 -0.006172 0.014935 -0.007978 -0.010216 0.000184
# 4 0.006445 0.002562 -0.007978 0.040593 0.000677 -0.005424
# 5 -0.007642 0.004393 -0.010216 0.000677 0.058464 0.014692
# 6 -0.005126 -0.003231 0.000184 -0.005424 0.014692 0.037582
#
#
# Mechanical properties :
#
#
# Convention : Reuss Voigt Hill
#
# Bulk Modulus (GPa) = 55.16841 69.84060 62.50450
# Shear Modulus (GPa) = 22.90096 28.90412 25.90254
#
# Velocity S-wave (km/s) = 3.42558 3.84846 3.64316
# Velocity P-wave (km/s) = 6.62682 7.45213 7.05156
#
# Compressibility (1/GPa) = 0.01812632
#
# Stress axis : x y z
#
# Youngs Moduli (GPa) = 63.45713 61.74758 66.95771
#
# Poissons Ratio (x) = 0.38022 0.13733
# Poissons Ratio (y) = 0.39074 0.41329
# Poissons Ratio (z) = 0.13015 0.38113
#
# Static dielectric constant tensor:
#      x y z
#    x 3.605040 0.132910 0.257620 
#    y 0.132910 3.566250 0.038730 
#    z 0.257620 0.038730 3.670610 
# 
# 
# High freq. dielectric constant tensor:
#      x y z
#    x 1.752470 0.021470 -0.002610 
#    y 0.021470 1.750670 0.006000 
#    z -0.002610 0.006000 1.772780 
# 
# From -- ./inp_files/68587.got.cif
#   From: 2010.06.25/outbox.cif.g09.slc.cpg/sg2_35_cif.got.tgz:68587.got - 2010.06.27 13:26:56.
