data_PCOD8018884
_publ_section_title
;
Structure prediction by ZEFSAII (Michael W. Deem and Ramdas Pophale) SiO2 
 PCOD8018884
Probable space group: P -1
;
_chemical_formula_sum "Si O2"
_cell_formula_units_Z 16
_cell_length_a 18.247763
_cell_length_b 10.360922
_cell_length_c 13.141778
_cell_angle_alpha 124.895680
_cell_angle_beta 33.294431
_cell_angle_gamma 144.649740
_cell_volume 740.588327
_symmetry_space_group_name_H-M "P -1"
_symmetry_group_IT_number 2
_symmetry_cell_setting 'triclinic'
loop_
_space_group_symop_operation_xyz
x,y,z
-x,-y,-z
loop_
_atom_site_type_symbol
_atom_site_label
_atom_site_fract_x
_atom_site_fract_y
_atom_site_fract_z
Si Si1 0.870314 0.750917 0.431691
Si Si2 0.077024 0.873701 0.769455
Si Si3 0.531273 0.557090 0.871746
Si Si4 0.084200 0.403658 0.866903
Si Si5 0.710401 0.378228 0.066974
Si Si6 0.182458 0.069083 0.942520
Si Si7 0.741527 0.048831 0.829261
Si Si8 0.743297 0.958372 0.575512
O O1 0.733569 0.645096 0.642354
O O2 0.800740 0.544662 0.346978
O O3 0.856215 0.894912 0.443065
O O4 0.093335 0.907283 0.282228
O O5 0.225392 0.015184 0.760355
O O6 0.191850 0.915786 0.553040
O O7 0.886803 0.590518 0.881942
O O8 0.010406 0.992151 0.879591
O O9 0.361185 0.333475 0.896256
O O10 0.546328 0.759235 0.926663
O O11 0.500000 0.500000 0.000000
O O12 0.235395 0.519137 0.836611
O O13 0.000000 0.500000 0.000000
O O14 0.885240 0.117791 0.979581
O O15 0.499151 0.276782 0.244637
O O16 0.690893 0.171177 0.992849
O O17 0.801949 0.130239 0.676930
#
# Coordination Sequence:
#
# PCOD8018884 Si02
#       8
#     2   2   2   2   2   2   2   2
#     4  11  23  43  68  99 127 176 231 265 337 406
#     4  10  22  41  65  95 132 179 213 275 326 397
#     4  11  24  39  68  96 128 173 218 282 322 397
#     4  11  22  43  70  92 132 178 212 286 340 383
#     4  11  25  43  67 101 140 172 220 277 340 392
#     4  10  22  41  61  97 131 163 229 265 330 395
#     4  11  24  46  64  97 138 172 220 273 341 397
#     4  11  23  41  71  96 133 178 226 270 326 407
#
# _framework density 21.604447
#
# number of rings (size 3 to 8) (size 9 to 14) (size 15 to 20)
#    0.000    1.250    2.500    4.125    3.500    1.000 
#    2.250    0.625    0.000    0.000    0.000    0.000 
#    0.000    0.000    0.000    0.000    0.000    0.000 
#
# Total GULP energy -198268.205375 kJ/mol
# GULP energy per Si atom -12391.762836 kJ/mol
# Density = 2.155527 g / cm^3
# Si number density = 21.604447 Si / 1000 Ang^3
#
#
#
# Elastic Constant Matrix: (Units=GPa)
#
#
# Indices 1 2 3 4 5 6 
#
# 1 100.3526 40.5989 43.5988 -5.5183 18.6539 13.8722
# 2 40.5989 132.5670 36.8677 0.8896 8.8975 1.1126
# 3 43.5988 36.8677 68.9379 7.6407 24.5348 1.7331
# 4 -5.5183 0.8896 7.6407 29.4326 7.6605 1.9810
# 5 18.6539 8.8975 24.5348 7.6605 47.0706 4.7919
# 6 13.8722 1.1126 1.7331 1.9810 4.7919 39.4680
#
#
#
# Elastic Compliance Matrix: (Units=1/GPa)
#
#
# Indices 1 2 3 4 5 6 
#
# 1 0.016204 -0.002364 -0.008898 0.006250 -0.001811 -0.005332
# 2 -0.002364 0.009264 -0.003880 -0.000057 0.001156 0.000603
# 3 -0.008898 -0.003880 0.025859 -0.006271 -0.008550 0.003454
# 4 0.006250 -0.000057 -0.006271 0.038323 -0.005106 -0.003223
# 5 -0.001811 0.001156 -0.008550 -0.005106 0.027243 -0.002072
# 6 -0.005332 0.000603 0.003454 -0.003223 -0.002072 0.027456
#
#
# Mechanical properties :
#
#
# Convention : Reuss Voigt Hill
#
# Bulk Modulus (GPa) = 47.51763 60.44315 53.98039
# Shear Modulus (GPa) = 27.52590 35.24705 31.38647
#
# Velocity S-wave (km/s) = 3.57331 4.04353 3.81567
# Velocity P-wave (km/s) = 6.25034 7.05961 6.66727
#
# Compressibility (1/GPa) = 0.02104482
#
# Stress axis : x y z
#
# Youngs Moduli (GPa) = 61.71166 107.94574 38.67070
#
# Poissons Ratio (x) = 0.25514 0.34410
# Poissons Ratio (y) = 0.14586 0.15003
# Poissons Ratio (z) = 0.54912 0.41879
#
# Static dielectric constant tensor:
#      x y z
#    x 4.221770 0.400780 0.315550 
#    y 0.400780 4.069820 0.222200 
#    z 0.315550 0.222200 3.817860 
# 
# 
# High freq. dielectric constant tensor:
#      x y z
#    x 1.862470 0.021630 0.015390 
#    y 0.021630 1.848870 0.013550 
#    z 0.015390 0.013550 1.826830 
# 
# From -- ./inp_files/541116.got.cif
#   From: 2010.06.25/outbox.cif.g09.slc.cpg/sg2_271_cif.got.tgz:541116.got - 2010.06.27 13:26:56.
