data_PCOD8018410
_publ_section_title
;
Structure prediction by ZEFSAII (Michael W. Deem and Ramdas Pophale) SiO2 
 PCOD8018410
Probable space group: P -1
;
_chemical_formula_sum "Si O2"
_cell_formula_units_Z 16
_cell_length_a 15.134909
_cell_length_b 8.535338
_cell_length_c 9.275575
_cell_angle_alpha 70.793052
_cell_angle_beta 64.117728
_cell_angle_gamma 39.239292
_cell_volume 681.839470
_symmetry_space_group_name_H-M "P -1"
_symmetry_group_IT_number 2
_symmetry_cell_setting 'triclinic'
loop_
_space_group_symop_operation_xyz
x,y,z
-x,-y,-z
loop_
_atom_site_type_symbol
_atom_site_label
_atom_site_fract_x
_atom_site_fract_y
_atom_site_fract_z
Si Si1 0.546642 0.761174 0.325225
Si Si2 0.627568 0.988146 0.065108
Si Si3 0.883957 0.271805 0.216466
Si Si4 0.904829 0.868302 0.333516
Si Si5 0.926768 0.496499 0.922080
Si Si6 0.411348 0.695140 0.221673
Si Si7 0.074976 0.079671 0.387466
Si Si8 0.610046 0.149312 0.324858
O O1 0.530514 0.944149 0.177591
O O2 0.713049 0.492223 0.312188
O O3 0.450005 0.739708 0.328001
O O4 0.479967 0.863520 0.502984
O O5 0.683246 0.960137 0.196101
O O6 0.766998 0.777671 0.925805
O O7 0.543401 0.243197 0.966021
O O8 0.977206 0.269261 0.266583
O O9 0.950337 0.003985 0.239204
O O10 0.906442 0.329240 0.029722
O O11 0.931578 0.792002 0.506481
O O12 0.989915 0.622308 0.253847
O O13 0.734574 0.080371 0.350154
O O14 0.000000 0.500000 0.000000
O O15 0.506410 0.410184 0.238321
O O16 0.242698 0.849834 0.287838
O O17 0.000000 0.000000 0.500000
#
# Coordination Sequence:
#
# PCOD8018410 Si02
#       8
#     2   2   2   2   2   2   2   2
#     4  11  23  44  72  99 139 179 227 281 352 407
#     4  11  26  43  63 103 142 183 224 280 347 405
#     4  10  22  42  66  99 132 175 227 286 337 403
#     4  11  21  40  67 101 129 178 235 275 338 406
#     4  11  22  41  64  91 140 184 221 277 345 410
#     4  12  23  44  71 101 138 178 230 285 341 408
#     4  10  22  40  66 103 135 168 230 289 333 391
#     4  12  22  42  71 101 133 181 230 281 337 414
#
# _framework density 23.465935000000002
#
# number of rings (size 3 to 8) (size 9 to 14) (size 15 to 20)
#    0.000    1.000    3.750    4.125    0.000    0.000 
#    0.000   12.500    0.000    0.000    0.000    0.000 
#    0.000    0.000    0.000    0.000    0.000    0.000 
#
# Total GULP energy -198265.076920 kJ/mol
# GULP energy per Si atom -12391.567308 kJ/mol
# Density = 2.341253 g / cm^3
# Si number density = 23.465935 Si / 1000 Ang^3
#
#
#
# Elastic Constant Matrix: (Units=GPa)
#
#
# Indices 1 2 3 4 5 6 
#
# 1 92.4463 27.6048 13.8713 13.9841 9.3731 -21.6877
# 2 27.6048 70.5300 51.0275 -0.6182 -12.7647 -10.2590
# 3 13.8713 51.0275 100.8209 16.7371 5.4631 -5.0962
# 4 13.9841 -0.6182 16.7371 31.9116 7.7291 2.4393
# 5 9.3731 -12.7647 5.4631 7.7291 34.6565 -0.9227
# 6 -21.6877 -10.2590 -5.0962 2.4393 -0.9227 35.8152
#
#
#
# Elastic Compliance Matrix: (Units=1/GPa)
#
#
# Indices 1 2 3 4 5 6 
#
# 1 0.017554 -0.011115 0.005671 -0.009776 -0.007323 0.008730
# 2 -0.011115 0.035693 -0.019353 0.011660 0.016613 0.000374
# 3 0.005671 -0.019353 0.021508 -0.011996 -0.009336 0.001528
# 4 -0.009776 0.011660 -0.011996 0.042918 -0.000934 -0.007234
# 5 -0.007323 0.016613 -0.009336 -0.000934 0.038636 0.000055
# 6 0.008730 0.000374 0.001528 -0.007234 0.000055 0.034026
#
#
# Mechanical properties :
#
#
# Convention : Reuss Voigt Hill
#
# Bulk Modulus (GPa) = 39.74147 49.86715 44.80431
# Shear Modulus (GPa) = 20.13565 31.89623 26.01594
#
# Velocity S-wave (km/s) = 2.93248 3.69081 3.33328
# Velocity P-wave (km/s) = 5.33277 6.28170 5.82659
#
# Compressibility (1/GPa) = 0.02516264
#
# Stress axis : x y z
#
# Youngs Moduli (GPa) = 56.96550 28.01632 46.49468
#
# Poissons Ratio (x) = 0.31140 -0.26368
# Poissons Ratio (y) = 0.63316 0.89981
# Poissons Ratio (z) = -0.32307 0.54220
#
# Static dielectric constant tensor:
#      x y z
#    x 4.548180 -0.359540 0.498310 
#    y -0.359540 4.359820 -0.702970 
#    z 0.498310 -0.702970 5.132130 
# 
# 
# High freq. dielectric constant tensor:
#      x y z
#    x 1.934010 0.001050 -0.001980 
#    y 0.001050 1.911310 -0.012220 
#    z -0.001980 -0.012220 1.939410 
# 
# From -- ./inp_files/298203.got.cif
#   From: 2010.06.25/outbox.cif.g09.slc.cpg/sg2_150_cif.got.tgz:298203.got - 2010.06.27 13:26:56.
