data_PCOD8018699
_publ_section_title
;
Structure prediction by ZEFSAII (Michael W. Deem and Ramdas Pophale) SiO2 
 PCOD8018699
Probable space group: P -1
;
_chemical_formula_sum "Si O2"
_cell_formula_units_Z 16
_cell_length_a 20.735451
_cell_length_b 17.464617
_cell_length_c 11.903155
_cell_angle_alpha 32.393580
_cell_angle_beta 30.879173
_cell_angle_gamma 20.034506
_cell_volume 739.925229
_symmetry_space_group_name_H-M "P -1"
_symmetry_group_IT_number 2
_symmetry_cell_setting 'triclinic'
loop_
_space_group_symop_operation_xyz
x,y,z
-x,-y,-z
loop_
_atom_site_type_symbol
_atom_site_label
_atom_site_fract_x
_atom_site_fract_y
_atom_site_fract_z
Si Si1 0.061114 0.395695 0.818953
Si Si2 0.146136 0.104707 0.867354
Si Si3 0.417811 0.279030 0.375251
Si Si4 0.749075 0.216599 0.714294
Si Si5 0.100816 0.118174 0.272231
Si Si6 0.415200 0.701653 0.700137
Si Si7 0.836720 0.875427 0.576881
Si Si8 0.121629 0.726865 0.154838
O O1 0.029626 0.321541 0.850533
O O2 0.278747 0.278377 0.634380
O O3 0.875080 0.672218 0.755352
O O4 0.053803 0.313429 0.046670
O O5 0.023078 0.192829 0.828577
O O6 0.365494 0.975810 0.669304
O O7 0.171912 0.931155 0.107984
O O8 0.451917 0.374025 0.298512
O O9 0.314640 0.448294 0.212586
O O10 0.529608 0.480949 0.729460
O O11 0.893924 0.216357 0.464119
O O12 0.737240 0.112028 0.760304
O O13 0.189176 0.061321 0.333487
O O14 0.367763 0.888700 0.469743
O O15 0.198823 0.822555 0.909451
O O16 0.023358 0.792352 0.343575
#
# Coordination Sequence:
#
# PCOD8018699 Si02
#       8
#     2   2   2   2   2   2   2   2
#     4  10  24  44  64  91 131 182 216 264 318 390
#     4  11  22  43  68  99 132 167 219 269 334 381
#     4  11  23  39  66 100 134 171 210 270 329 394
#     4  10  22  40  69  96 124 173 214 279 324 376
#     4  10  22  44  66  88 129 176 226 261 322 383
#     4  12  23  40  63 104 135 161 220 271 335 384
#     4  11  23  38  64  92 129 178 210 261 322 388
#     4  11  23  39  69 102 134 168 207 282 330 385
#
# _framework density 21.623805000000001
#
# number of rings (size 3 to 8) (size 9 to 14) (size 15 to 20)
#    0.000    1.250    2.500    3.750    1.750    2.500 
#    2.250    2.500    0.000    0.000    0.000    0.000 
#    0.000    0.000    0.000    0.000    0.000    0.000 
#
# Total GULP energy -198421.396585 kJ/mol
# GULP energy per Si atom -12401.337287 kJ/mol
# Density = 2.157459 g / cm^3
# Si number density = 21.623805 Si / 1000 Ang^3
#
#
#
# Elastic Constant Matrix: (Units=GPa)
#
#
# Indices 1 2 3 4 5 6 
#
# 1 104.3036 48.1099 36.7597 -10.3342 20.0918 0.1014
# 2 48.1099 109.7482 34.8140 -29.3299 11.9531 5.9472
# 3 36.7597 34.8140 130.4404 -16.1583 6.4903 -5.8362
# 4 -10.3342 -29.3299 -16.1583 33.6377 -0.3297 -1.5136
# 5 20.0918 11.9531 6.4903 -0.3297 32.5987 1.2763
# 6 0.1014 5.9472 -5.8362 -1.5136 1.2763 38.2674
#
#
#
# Elastic Compliance Matrix: (Units=1/GPa)
#
#
# Indices 1 2 3 4 5 6 
#
# 1 0.013801 -0.004989 -0.002384 -0.001292 -0.006236 0.000532
# 2 -0.004989 0.014879 -0.001227 0.010743 -0.001950 -0.001996
# 3 -0.002384 -0.001227 0.009062 0.002628 0.000076 0.001681
# 4 -0.001292 0.010743 0.002628 0.039948 -0.003279 0.000424
# 5 -0.006236 -0.001950 0.000076 -0.003279 0.035225 -0.000973
# 6 0.000532 -0.001996 0.001681 0.000424 -0.000973 0.026746
#
#
# Mechanical properties :
#
#
# Convention : Reuss Voigt Hill
#
# Bulk Modulus (GPa) = 48.67532 64.87326 56.77429
# Shear Modulus (GPa) = 30.54194 35.88799 33.21496
#
# Velocity S-wave (km/s) = 3.76230 4.07830 3.92348
# Velocity P-wave (km/s) = 6.43678 7.22791 6.84379
#
# Compressibility (1/GPa) = 0.02054429
#
# Stress axis : x y z
#
# Youngs Moduli (GPa) = 72.45663 67.20672 110.34484
#
# Poissons Ratio (x) = 0.33528 0.26305
# Poissons Ratio (y) = 0.36147 0.13538
# Poissons Ratio (z) = 0.17273 0.08245
#
# Static dielectric constant tensor:
#      x y z
#    x 3.772970 0.186650 0.130440 
#    y 0.186650 4.024430 -0.108250 
#    z 0.130440 -0.108250 4.041090 
# 
# 
# High freq. dielectric constant tensor:
#      x y z
#    x 1.839200 0.012840 0.008090 
#    y 0.012840 1.852410 -0.012470 
#    z 0.008090 -0.012470 1.854980 
# 
# From -- ./inp_files/425107.got.cif
#   From: 2010.06.25/outbox.cif.g09.slc.cpg/sg2_213_cif.got.tgz:425107.got - 2010.06.27 13:26:56.
