data_PCOD8018650
_publ_section_title
;
Structure prediction by ZEFSAII (Michael W. Deem and Ramdas Pophale) SiO2 
 PCOD8018650
Probable space group: P -1
;
_chemical_formula_sum "Si O2"
_cell_formula_units_Z 16
_cell_length_a 8.704194
_cell_length_b 15.299049
_cell_length_c 10.766123
_cell_angle_alpha 125.929438
_cell_angle_beta 111.184400
_cell_angle_gamma 47.794456
_cell_volume 858.642030
_symmetry_space_group_name_H-M "P -1"
_symmetry_group_IT_number 2
_symmetry_cell_setting 'triclinic'
loop_
_space_group_symop_operation_xyz
x,y,z
-x,-y,-z
loop_
_atom_site_type_symbol
_atom_site_label
_atom_site_fract_x
_atom_site_fract_y
_atom_site_fract_z
Si Si1 0.051175 0.269289 0.681138
Si Si2 0.083977 0.274881 0.982513
Si Si3 0.321709 0.817844 0.972732
Si Si4 0.729191 0.571638 0.864710
Si Si5 0.902044 0.949820 0.082261
Si Si6 0.492000 0.193236 0.721448
Si Si7 0.067187 0.028829 0.418316
Si Si8 0.331608 0.475582 0.918857
O O1 0.033622 0.257931 0.813647
O O2 0.286346 0.203603 0.656610
O O3 0.988997 0.183667 0.522593
O O4 0.883179 0.427407 0.718505
O O5 0.180787 0.131936 0.959864
O O6 0.870759 0.390775 0.091020
O O7 0.230362 0.319973 0.068875
O O8 0.480957 0.660981 0.836424
O O9 0.282656 0.925705 0.948787
O O10 0.437220 0.826435 0.130910
O O11 0.105567 0.848204 0.972087
O O12 0.762127 0.538483 0.992986
O O13 0.963603 0.008078 0.256882
O O14 0.681445 0.069539 0.594957
O O15 0.438634 0.332302 0.761308
O O16 0.000000 0.000000 0.500000
O O17 0.500000 0.500000 0.000000
#
# Coordination Sequence:
#
# PCOD8018650 Si02
#       8
#     2   2   2   2   2   2   2   2
#     4  11  19  34  51  78 111 136 168 212 267 319
#     4  11  17  31  52  78 111 125 171 224 260 311
#     4   9  19  36  55  77 105 137 179 221 261 302
#     4  10  19  32  52  80 106 133 173 220 269 306
#     4  10  21  36  53  78 108 139 180 214 259 312
#     4  10  19  35  52  78 107 134 171 213 268 309
#     4  11  22  34  51  78 107 143 173 208 257 319
#     4  10  17  27  49  77 105 130 162 218 267 303
#
# _framework density 18.634073000000001
#
# number of rings (size 3 to 8) (size 9 to 14) (size 15 to 20)
#    0.000    1.750    5.000    3.375    1.750    0.500 
#    0.000    0.625    0.000    0.000    0.000    8.750 
#    0.000    0.000    0.000    0.000    0.000    0.000 
#
# Total GULP energy -198246.720449 kJ/mol
# GULP energy per Si atom -12390.420028 kJ/mol
# Density = 1.859166 g / cm^3
# Si number density = 18.634073 Si / 1000 Ang^3
#
#
#
# Elastic Constant Matrix: (Units=GPa)
#
#
# Indices 1 2 3 4 5 6 
#
# 1 85.9314 34.9939 32.2489 14.2703 -1.7028 4.6009
# 2 34.9939 98.2515 36.8847 21.9788 -8.6111 0.8201
# 3 32.2489 36.8847 65.8387 27.5185 1.9450 3.6157
# 4 14.2703 21.9788 27.5185 28.3808 1.3042 0.3521
# 5 -1.7028 -8.6111 1.9450 1.3042 26.7332 13.5733
# 6 4.6009 0.8201 3.6157 0.3521 13.5733 36.1055
#
#
#
# Elastic Compliance Matrix: (Units=1/GPa)
#
#
# Indices 1 2 3 4 5 6 
#
# 1 0.015145 -0.003212 -0.005719 0.000384 0.001213 -0.001744
# 2 -0.003212 0.014817 -0.004345 -0.005903 0.006038 -0.001704
# 3 -0.005719 -0.004345 0.030088 -0.022815 -0.002278 -0.001107
# 4 0.000384 -0.005903 -0.022815 0.061924 -0.005110 0.003687
# 5 0.001213 0.006038 -0.002278 -0.005110 0.049251 -0.018529
# 6 -0.001744 -0.001704 -0.001107 0.003687 -0.018529 0.034998
#
#
# Mechanical properties :
#
#
# Convention : Reuss Voigt Hill
#
# Bulk Modulus (GPa) = 29.85301 50.91962 40.38631
# Shear Modulus (GPa) = 20.49652 27.97019 24.23336
#
# Velocity S-wave (km/s) = 3.32015 3.87851 3.61014
# Velocity P-wave (km/s) = 5.54556 6.88785 6.25283
#
# Compressibility (1/GPa) = 0.03349747
#
# Stress axis : x y z
#
# Youngs Moduli (GPa) = 66.02689 67.48978 33.23537
#
# Poissons Ratio (x) = 0.21679 0.19008
# Poissons Ratio (y) = 0.21209 0.14441
# Poissons Ratio (z) = 0.37763 0.29326
#
# Static dielectric constant tensor:
#      x y z
#    x 3.542940 -0.135380 -0.238310 
#    y -0.135380 3.696650 0.522740 
#    z -0.238310 0.522740 3.360190 
# 
# 
# High freq. dielectric constant tensor:
#      x y z
#    x 1.736330 -0.004550 -0.005900 
#    y -0.004550 1.718120 0.044800 
#    z -0.005900 0.044800 1.677350 
# 
# From -- ./inp_files/252533.got.cif
#   From: 2010.06.25/outbox.cif.g09.slc.cpg/sg2_127_cif.got.tgz:252533.got - 2010.06.27 13:26:56.
