data_PCOD8018188
_publ_section_title
;
Structure prediction by ZEFSAII (Michael W. Deem and Ramdas Pophale) SiO2 
 PCOD8018188
Probable space group: P -1
;
_chemical_formula_sum "Si O2"
_cell_formula_units_Z 16
_cell_length_a 14.317098
_cell_length_b 9.172542
_cell_length_c 11.489357
_cell_angle_alpha 110.394144
_cell_angle_beta 147.426921
_cell_angle_gamma 82.726597
_cell_volume 718.464874
_symmetry_space_group_name_H-M "P -1"
_symmetry_group_IT_number 2
_symmetry_cell_setting 'triclinic'
loop_
_space_group_symop_operation_xyz
x,y,z
-x,-y,-z
loop_
_atom_site_type_symbol
_atom_site_label
_atom_site_fract_x
_atom_site_fract_y
_atom_site_fract_z
Si Si1 0.943485 0.033277 0.637932
Si Si2 0.007296 0.600990 0.418470
Si Si3 0.263138 0.771077 0.403211
Si Si4 0.857374 0.314931 0.004302
Si Si5 0.505529 0.910742 0.364027
Si Si6 0.647570 0.374116 0.321634
Si Si7 0.194853 0.246484 0.406053
Si Si8 0.772657 0.829910 0.201112
O O1 0.909556 0.181565 0.715890
O O2 0.155566 0.104125 0.835041
O O3 0.901764 0.863683 0.616552
O O4 0.811224 0.986090 0.371582
O O5 0.222559 0.697906 0.641635
O O6 0.000000 0.500000 0.500000
O O7 0.937337 0.492304 0.197248
O O8 0.892113 0.721747 0.346398
O O9 0.316418 0.645326 0.508463
O O10 0.431003 0.947452 0.628101
O O11 0.221391 0.683123 0.208256
O O12 0.021247 0.237272 0.138975
O O13 0.698740 0.216989 0.903293
O O14 0.658601 0.822897 0.519029
O O15 0.500000 0.000000 0.500000
O O16 0.693721 0.565629 0.389157
O O17 0.438648 0.276904 0.045943
#
# Coordination Sequence:
#
# PCOD8018188 Si02
#       8
#     2   2   2   2   2   2   2   2
#     4  10  23  43  65  94 132 170 218 262 327 388
#     4  11  24  43  67 100 129 170 220 264 326 387
#     4  10  22  43  63  98 132 168 220 267 320 391
#     4  10  22  41  68  91 136 170 212 273 324 374
#     4   9  20  38  60  92 127 165 218 256 318 384
#     4  11  24  42  66  99 128 170 219 266 324 381
#     4  10  22  40  63  93 124 172 217 260 323 386
#     4  11  23  43  66  94 135 169 215 270 322 378
#
# _framework density 22.269704000000001
#
# number of rings (size 3 to 8) (size 9 to 14) (size 15 to 20)
#    0.000    1.750    1.250    2.250    1.750   11.000 
#    2.250    3.125    0.000    0.000    0.000    0.000 
#    0.000    0.000    0.000    0.000    0.000    0.000 
#
# Total GULP energy -198246.031916 kJ/mol
# GULP energy per Si atom -12390.376995 kJ/mol
# Density = 2.221902 g / cm^3
# Si number density = 22.269704 Si / 1000 Ang^3
#
#
#
# Elastic Constant Matrix: (Units=GPa)
#
#
# Indices 1 2 3 4 5 6 
#
# 1 105.4773 22.3078 46.7179 -1.3658 15.8337 4.3373
# 2 22.3078 82.6173 24.4984 -1.8989 6.2051 9.6396
# 3 46.7179 24.4984 100.9034 -3.2464 33.6362 1.8742
# 4 -1.3658 -1.8989 -3.2464 17.0631 1.9776 3.5868
# 5 15.8337 6.2051 33.6362 1.9776 50.4211 4.0142
# 6 4.3373 9.6396 1.8742 3.5868 4.0142 37.6654
#
#
#
# Elastic Compliance Matrix: (Units=1/GPa)
#
#
# Indices 1 2 3 4 5 6 
#
# 1 0.012173 -0.001660 -0.005188 -0.000038 -0.000100 -0.000705
# 2 -0.001660 0.013734 -0.002747 0.001491 0.000878 -0.003423
# 3 -0.005188 -0.002747 0.016042 0.003125 -0.008949 0.001158
# 4 -0.000038 0.001491 0.003125 0.061089 -0.004182 -0.005904
# 5 -0.000100 0.000878 -0.008949 -0.004182 0.026061 -0.002147
# 6 -0.000705 -0.003423 0.001158 -0.005904 -0.002147 0.028240
#
#
# Mechanical properties :
#
#
# Convention : Reuss Voigt Hill
#
# Bulk Modulus (GPa) = 43.93765 52.89402 48.41584
# Shear Modulus (GPa) = 27.15683 34.06153 30.60918
#
# Velocity S-wave (km/s) = 3.49585 3.91513 3.71142
# Velocity P-wave (km/s) = 6.00560 6.65137 6.33672
#
# Compressibility (1/GPa) = 0.02275952
#
# Stress axis : x y z
#
# Youngs Moduli (GPa) = 82.14875 72.80955 62.33784
#
# Poissons Ratio (x) = 0.12084 0.32340
# Poissons Ratio (y) = 0.13634 0.17126
# Poissons Ratio (z) = 0.42618 0.20002
#
# Static dielectric constant tensor:
#      x y z
#    x 4.768320 0.738400 0.539580 
#    y 0.738400 4.448020 0.495090 
#    z 0.539580 0.495090 3.809780 
# 
# 
# High freq. dielectric constant tensor:
#      x y z
#    x 1.892840 0.009150 0.020150 
#    y 0.009150 1.878210 0.011370 
#    z 0.020150 0.011370 1.856310 
# 
# From -- ./inp_files/447968.got.cif
#   From: 2010.06.25/outbox.cif.g09.slc.cpg/sg2_224_cif.got.tgz:447968.got - 2010.06.27 13:26:56.
