data_PCOD8018023
_publ_section_title
;
Structure prediction by ZEFSAII (Michael W. Deem and Ramdas Pophale) SiO2 
 PCOD8018023
Probable space group: P -1
;
_chemical_formula_sum "Si O2"
_cell_formula_units_Z 16
_cell_length_a 10.947979
_cell_length_b 17.087671
_cell_length_c 21.956162
_cell_angle_alpha 155.839777
_cell_angle_beta 33.222052
_cell_angle_gamma 132.652826
_cell_volume 851.118849
_symmetry_space_group_name_H-M "P -1"
_symmetry_group_IT_number 2
_symmetry_cell_setting 'triclinic'
loop_
_space_group_symop_operation_xyz
x,y,z
-x,-y,-z
loop_
_atom_site_type_symbol
_atom_site_label
_atom_site_fract_x
_atom_site_fract_y
_atom_site_fract_z
Si Si1 0.135016 0.176662 0.246388
Si Si2 0.070333 0.277608 0.555214
Si Si3 0.372370 0.763631 0.924349
Si Si4 0.337152 0.785579 0.089886
Si Si5 0.091672 0.827565 0.788257
Si Si6 0.882303 0.512804 0.679942
Si Si7 0.039083 0.765885 0.307067
Si Si8 0.363012 0.365730 0.586615
O O1 0.353826 0.252031 0.198968
O O2 0.065209 0.107803 0.162118
O O3 0.913249 0.368788 0.504983
O O4 0.201377 0.987926 0.131316
O O5 0.870111 0.333199 0.733534
O O6 0.266456 0.374068 0.562901
O O7 0.935469 0.366525 0.612712
O O8 0.226316 0.032549 0.313345
O O9 0.337151 0.595655 0.776387
O O10 0.292371 0.722292 0.995694
O O11 0.217864 0.680233 0.114456
O O12 0.621003 0.694501 0.921464
O O13 0.363539 0.792932 0.633814
O O14 0.078815 0.616955 0.670282
O O15 0.000000 0.000000 0.000000
O O16 0.792563 0.725025 0.368437
O O17 0.000000 0.000000 0.500000
#
# Coordination Sequence:
#
# PCOD8018023 Si02
#       8
#     2   2   2   2   2   2   2   2
#     4  11  24  41  58  93 129 167 198 251 316 373
#     4   9  22  41  59  97 120 160 208 252 309 357
#     4  11  22  39  64  86 131 166 205 252 307 376
#     4  11  20  40  68  88 118 171 209 247 312 366
#     4  12  25  37  62  95 126 158 207 255 311 377
#     4  12  22  39  67  91 124 164 205 252 312 375
#     4   8  20  40  63  86 124 164 208 254 309 359
#     4  10  22  40  60  90 127 162 201 262 304 357
#
# _framework density 18.798784999999999
#
# number of rings (size 3 to 8) (size 9 to 14) (size 15 to 20)
#    0.750    0.750    3.750    1.875    1.750    1.500 
#    0.000    0.000    2.750    1.500    0.000    0.000 
#    0.000    0.000    0.000    0.000    0.000    0.000 
#
# Total GULP energy -198215.433171 kJ/mol
# GULP energy per Si atom -12388.464573 kJ/mol
# Density = 1.875600 g / cm^3
# Si number density = 18.798785 Si / 1000 Ang^3
#
#
#
# Elastic Constant Matrix: (Units=GPa)
#
#
# Indices 1 2 3 4 5 6 
#
# 1 101.2753 41.0596 39.1748 0.5743 10.9153 -17.0925
# 2 41.0596 96.6667 39.8004 -12.2836 0.4702 -7.3391
# 3 39.1748 39.8004 91.1012 -5.5679 8.2647 -9.0586
# 4 0.5743 -12.2836 -5.5679 22.2989 0.1497 5.4542
# 5 10.9153 0.4702 8.2647 0.1497 30.8473 3.3713
# 6 -17.0925 -7.3391 -9.0586 5.4542 3.3713 35.8312
#
#
#
# Elastic Compliance Matrix: (Units=1/GPa)
#
#
# Indices 1 2 3 4 5 6 
#
# 1 0.014956 -0.005136 -0.003429 -0.005638 -0.004983 0.006542
# 2 -0.005136 0.015174 -0.004399 0.007844 0.002937 -0.001924
# 3 -0.003429 -0.004399 0.014827 0.001064 -0.002841 0.001317
# 4 -0.005638 0.007844 0.001064 0.051740 0.002312 -0.008907
# 5 -0.004983 0.002937 -0.002841 0.002312 0.035563 -0.006192
# 6 0.006542 -0.001924 0.001317 -0.008907 -0.006192 0.032907
#
#
# Mechanical properties :
#
#
# Convention : Reuss Voigt Hill
#
# Bulk Modulus (GPa) = 52.55418 58.79031 55.67224
# Shear Modulus (GPa) = 25.32435 29.06270 27.19352
#
# Velocity S-wave (km/s) = 3.67430 3.93617 3.80749
# Velocity P-wave (km/s) = 6.78362 7.21105 7.00060
#
# Compressibility (1/GPa) = 0.01902798
#
# Stress axis : x y z
#
# Youngs Moduli (GPa) = 66.86217 65.90255 67.44414
#
# Poissons Ratio (x) = 0.33848 0.23130
# Poissons Ratio (y) = 0.34341 0.29669
# Poissons Ratio (z) = 0.22930 0.28991
#
# Static dielectric constant tensor:
#      x y z
#    x 3.497270 -0.274270 0.248370 
#    y -0.274270 3.781350 -0.207990 
#    z 0.248370 -0.207990 3.445950 
# 
# 
# High freq. dielectric constant tensor:
#      x y z
#    x 1.728190 -0.011520 0.016030 
#    y -0.011520 1.723320 -0.000740 
#    z 0.016030 -0.000740 1.728210 
# 
# From -- ./inp_files/610782.got.cif
#   From: 2010.06.25/outbox.cif.g09.slc.cpg/sg2_306_cif.got.tgz:610782.got - 2010.06.27 13:26:56.
