data_PCOD8018041
_publ_section_title
;
Structure prediction by ZEFSAII (Michael W. Deem and Ramdas Pophale) SiO2 
 PCOD8018041
Probable space group: P -1
;
_chemical_formula_sum "Si O2"
_cell_formula_units_Z 16
_cell_length_a 14.187726
_cell_length_b 13.732659
_cell_length_c 8.473231
_cell_angle_alpha 68.428819
_cell_angle_beta 77.643964
_cell_angle_gamma 135.107820
_cell_volume 748.720044
_symmetry_space_group_name_H-M "P -1"
_symmetry_group_IT_number 2
_symmetry_cell_setting 'triclinic'
loop_
_space_group_symop_operation_xyz
x,y,z
-x,-y,-z
loop_
_atom_site_type_symbol
_atom_site_label
_atom_site_fract_x
_atom_site_fract_y
_atom_site_fract_z
Si Si1 0.299591 0.106669 0.004844
Si Si2 0.878982 0.807306 0.333900
Si Si3 0.810278 0.567027 0.276819
Si Si4 0.208068 0.647711 0.372968
Si Si5 0.190759 0.016932 0.765739
Si Si6 0.483365 0.742362 0.706712
Si Si7 0.411353 0.509307 0.121872
Si Si8 0.456877 0.060529 0.160379
O O1 0.335906 0.124197 0.794457
O O2 0.446149 0.330778 0.881357
O O3 0.328430 0.025542 0.135050
O O4 0.085748 0.949380 0.195353
O O5 0.763026 0.632731 0.343886
O O6 0.885467 0.935865 0.210225
O O7 0.788854 0.712605 0.596553
O O8 0.831028 0.500531 0.445271
O O9 0.648795 0.375591 0.328523
O O10 0.008318 0.767080 0.986913
O O11 0.000000 0.500000 0.500000
O O12 0.335895 0.839618 0.330129
O O13 0.330729 0.749653 0.107101
O O14 0.308571 0.110881 0.505673
O O15 0.517853 0.886219 0.694976
O O16 0.378411 0.574013 0.976881
O O17 0.500000 0.500000 0.000000
#
# Coordination Sequence:
#
# PCOD8018041 Si02
#       8
#     2   2   2   2   2   2   2   2
#     4  10  22  40  61  87 127 162 211 258 298 371
#     4  11  23  39  62  89 127 174 218 250 298 362
#     4  11  24  40  64  94 122 166 212 257 310 369
#     4  11  23  45  75  92 117 160 212 257 315 384
#     4  11  23  38  61  91 129 172 208 253 304 360
#     4  11  24  41  60  92 137 159 202 261 309 369
#     4  11  23  36  57  87 121 171 212 248 302 355
#     4  10  24  44  66  97 122 160 203 262 322 366
#
# _framework density 21.369804999999999
#
# number of rings (size 3 to 8) (size 9 to 14) (size 15 to 20)
#    0.000    1.250    1.250    6.000    3.500    6.000 
#    0.000    1.250    0.000    0.000    0.000    0.000 
#    0.000    0.000    0.000    0.000    0.000    0.000 
#
# Total GULP energy -198381.033738 kJ/mol
# GULP energy per Si atom -12398.814609 kJ/mol
# Density = 2.132117 g / cm^3
# Si number density = 21.369805 Si / 1000 Ang^3
#
#
#
# Elastic Constant Matrix: (Units=GPa)
#
#
# Indices 1 2 3 4 5 6 
#
# 1 73.8836 43.7744 32.1525 -5.6689 -7.3486 -9.9875
# 2 43.7744 90.5120 44.1506 1.2802 -16.8116 -10.3871
# 3 32.1525 44.1506 109.7472 -0.1005 -2.1078 -2.8393
# 4 -5.6689 1.2802 -0.1005 25.7219 -7.9404 2.4646
# 5 -7.3486 -16.8116 -2.1078 -7.9404 33.5459 -2.6251
# 6 -9.9875 -10.3871 -2.8393 2.4646 -2.6251 32.3367
#
#
#
# Elastic Compliance Matrix: (Units=1/GPa)
#
#
# Indices 1 2 3 4 5 6 
#
# 1 0.020409 -0.007934 -0.002663 0.005123 0.001796 0.003277
# 2 -0.007934 0.019333 -0.005201 -0.000716 0.007767 0.003988
# 3 -0.002663 -0.005201 0.011888 -0.000994 -0.002804 -0.001601
# 4 0.005123 -0.000716 -0.000994 0.043518 0.010911 -0.001166
# 5 0.001796 0.007767 -0.002804 0.010911 0.036891 0.004967
# 6 0.003277 0.003988 -0.001601 -0.001166 0.004967 0.033569
#
#
# Mechanical properties :
#
#
# Convention : Reuss Voigt Hill
#
# Bulk Modulus (GPa) = 49.91834 57.14418 53.53126
# Shear Modulus (GPa) = 24.52373 28.59193 26.55783
#
# Velocity S-wave (km/s) = 3.39128 3.66178 3.52912
# Velocity P-wave (km/s) = 6.22450 6.68407 6.45838
#
# Compressibility (1/GPa) = 0.02003272
#
# Stress axis : x y z
#
# Youngs Moduli (GPa) = 48.99708 51.72521 84.11523
#
# Poissons Ratio (x) = 0.41040 0.22404
# Poissons Ratio (y) = 0.38875 0.43751
# Poissons Ratio (z) = 0.13050 0.26904
#
# Static dielectric constant tensor:
#      x y z
#    x 3.724740 -0.177860 0.042910 
#    y -0.177860 4.016400 0.040530 
#    z 0.042910 0.040530 4.172970 
# 
# 
# High freq. dielectric constant tensor:
#      x y z
#    x 1.827670 -0.010380 -0.001280 
#    y -0.010380 1.837420 0.000500 
#    z -0.001280 0.000500 1.855150 
# 
# From -- ./inp_files/314873.got.cif
#   From: 2010.06.25/outbox.cif.g09.slc.cpg/sg2_158_cif.got.tgz:314873.got - 2010.06.27 13:26:56.
