data_PCOD8018293
_publ_section_title
;
Structure prediction by ZEFSAII (Michael W. Deem and Ramdas Pophale) SiO2 
 PCOD8018293
Probable space group: P -1
;
_chemical_formula_sum "Si O2"
_cell_formula_units_Z 16
_cell_length_a 22.950228
_cell_length_b 6.580712
_cell_length_c 8.993467
_cell_angle_alpha 47.100264
_cell_angle_beta 134.934876
_cell_angle_gamma 124.636337
_cell_volume 694.252509
_symmetry_space_group_name_H-M "P -1"
_symmetry_group_IT_number 2
_symmetry_cell_setting 'triclinic'
loop_
_space_group_symop_operation_xyz
x,y,z
-x,-y,-z
loop_
_atom_site_type_symbol
_atom_site_label
_atom_site_fract_x
_atom_site_fract_y
_atom_site_fract_z
Si Si1 0.154707 0.137705 0.102994
Si Si2 0.915142 0.422268 0.084311
Si Si3 0.206606 0.149368 0.858710
Si Si4 0.377196 0.229411 0.963341
Si Si5 0.582711 0.216961 0.087502
Si Si6 0.097862 0.496034 0.311165
Si Si7 0.420829 0.655847 0.295053
Si Si8 0.683393 0.772509 0.479610
O O1 0.219160 0.182835 0.334357
O O2 0.101673 0.829273 0.168601
O O3 0.091756 0.357686 0.905111
O O4 0.202883 0.200662 0.002725
O O5 0.008370 0.346862 0.288487
O O6 0.849412 0.144483 0.140230
O O7 0.895503 0.566112 0.821077
O O8 0.302218 0.150773 0.985081
O O9 0.172684 0.396386 0.585131
O O10 0.432124 0.536034 0.948950
O O11 0.335563 0.242739 0.720992
O O12 0.438597 0.994161 0.196935
O O13 0.647534 0.032591 0.363345
O O14 0.622285 0.370608 0.931786
O O15 0.500000 0.000000 0.000000
O O16 0.500000 0.500000 0.500000
O O17 0.359151 0.518447 0.378697
#
# Coordination Sequence:
#
# PCOD8018293 Si02
#       8
#     2   2   2   2   2   2   2   2
#     4  11  23  39  65  94 133 172 223 268 322 386
#     4  10  22  40  64  96 136 174 221 269 322 384
#     4  11  23  41  63  98 129 173 221 268 324 387
#     4  11  26  42  69  93 130 173 217 269 335 390
#     4  11  24  46  65  97 130 162 215 270 326 399
#     4  10  22  40  64  96 135 177 218 270 323 380
#     4  11  24  45  66  98 128 164 214 269 329 396
#     4  11  24  43  66  93 129 171 217 272 327 393
#
# _framework density 23.046368000000001
#
# number of rings (size 3 to 8) (size 9 to 14) (size 15 to 20)
#    0.000    1.250    1.250    3.750    0.000   11.000 
#    0.000    0.000    0.000    0.000    0.000    0.000 
#    0.000    0.000    0.000    0.000    0.000    0.000 
#
# Total GULP energy -198367.557357 kJ/mol
# GULP energy per Si atom -12397.972335 kJ/mol
# Density = 2.299391 g / cm^3
# Si number density = 23.046368 Si / 1000 Ang^3
#
#
#
# Elastic Constant Matrix: (Units=GPa)
#
#
# Indices 1 2 3 4 5 6 
#
# 1 86.9324 41.9452 13.3163 -7.1118 -2.1203 -9.2780
# 2 41.9452 129.5955 23.9723 -13.1263 2.2325 -19.2344
# 3 13.3163 23.9723 85.8792 -8.5532 -1.0168 -10.3683
# 4 -7.1118 -13.1263 -8.5532 32.0710 -2.2439 6.5697
# 5 -2.1203 2.2325 -1.0168 -2.2439 37.5755 -2.4918
# 6 -9.2780 -19.2344 -10.3683 6.5697 -2.4918 40.1544
#
#
#
# Elastic Compliance Matrix: (Units=1/GPa)
#
#
# Indices 1 2 3 4 5 6 
#
# 1 0.013814 -0.004104 -0.000765 0.001069 0.001128 0.000924
# 2 -0.004104 0.010015 -0.001587 0.002101 -0.000541 0.003062
# 3 -0.000765 -0.001587 0.012676 0.002194 0.000659 0.002018
# 4 0.001069 0.002101 0.002194 0.033722 0.001771 -0.003587
# 5 0.001128 -0.000541 0.000659 0.001771 0.026935 0.001553
# 6 0.000924 0.003062 0.002018 -0.003587 0.001553 0.027788
#
#
# Mechanical properties :
#
#
# Convention : Reuss Voigt Hill
#
# Bulk Modulus (GPa) = 42.38455 51.20831 46.79643
# Shear Modulus (GPa) = 34.31121 36.83842 35.57482
#
# Velocity S-wave (km/s) = 3.86267 4.00240 3.93315
# Velocity P-wave (km/s) = 6.19068 6.60506 6.40123
#
# Compressibility (1/GPa) = 0.02359350
#
# Stress axis : x y z
#
# Youngs Moduli (GPa) = 72.39066 99.85504 78.89057
#
# Poissons Ratio (x) = 0.40976 0.06036
# Poissons Ratio (y) = 0.29706 0.12517
# Poissons Ratio (z) = 0.05539 0.15844
#
# Static dielectric constant tensor:
#      x y z
#    x 4.219750 -0.176140 -0.118450 
#    y -0.176140 4.402370 -0.241060 
#    z -0.118450 -0.241060 4.217100 
# 
# 
# High freq. dielectric constant tensor:
#      x y z
#    x 1.919310 -0.004400 -0.004490 
#    y -0.004400 1.911200 -0.013100 
#    z -0.004490 -0.013100 1.905370 
# 
# From -- ./inp_files/138925.got.cif
#   From: 2010.06.25/outbox.cif.g09.slc.cpg/sg2_70_cif.got.tgz:138925.got - 2010.06.27 13:26:56.
