data_PCOD8018172
_publ_section_title
;
Structure prediction by ZEFSAII (Michael W. Deem and Ramdas Pophale) SiO2 
 PCOD8018172
Probable space group: P -1
;
_chemical_formula_sum "Si O2"
_cell_formula_units_Z 14
_cell_length_a 27.632062
_cell_length_b 6.926264
_cell_length_c 11.613214
_cell_angle_alpha 113.887836
_cell_angle_beta 149.663269
_cell_angle_gamma 46.055369
_cell_volume 683.679081
_symmetry_space_group_name_H-M "P -1"
_symmetry_group_IT_number 2
_symmetry_cell_setting 'triclinic'
loop_
_space_group_symop_operation_xyz
x,y,z
-x,-y,-z
loop_
_atom_site_type_symbol
_atom_site_label
_atom_site_fract_x
_atom_site_fract_y
_atom_site_fract_z
Si Si1 0.834155 0.217555 0.690087
Si Si2 0.281911 0.402098 0.229842
Si Si3 0.489820 0.315971 0.513848
Si Si4 0.177279 0.211792 0.539119
Si Si5 0.913130 0.644595 0.240874
Si Si6 0.317162 0.800638 0.954627
Si Si7 0.664175 0.670632 0.231924
O O1 0.742471 0.429312 0.663465
O O2 0.762434 0.457258 0.492812
O O3 0.822371 0.985963 0.594155
O O4 0.000000 0.000000 0.000000
O O5 0.328935 0.487850 0.245305
O O6 0.412897 0.024252 0.426972
O O7 0.139120 0.509848 0.926825
O O8 0.500000 0.500000 0.500000
O O9 0.539669 0.307418 0.742555
O O10 0.259883 0.264256 0.661720
O O11 0.012866 0.551118 0.315281
O O12 0.253973 0.023415 0.769218
O O13 0.000000 0.500000 0.500000
O O14 0.781326 0.019900 0.087194
O O15 0.343610 0.513112 0.915070
O O16 0.500000 0.000000 0.000000
#
# Coordination Sequence:
#
# PCOD8018172 Si02
#       7
#     2   2   2   2   2   2   2
#     4  11  24  44  67  93 132 169 212 264 326 373
#     4  10  22  40  63  91 127 164 206 268 320 373
#     4  10  23  39  63  96 123 165 214 260 320 383
#     4  10  22  42  64  92 128 168 215 263 318 381
#     4   9  18  40  65  87 119 165 209 260 321 371
#     4   9  22  40  62  91 126 166 212 264 321 373
#     4  11  27  41  65  97 128 172 221 256 316 392
#
# _framework density 20.477444999999999
#
# number of rings (size 3 to 8) (size 9 to 14) (size 15 to 20)
#    0.000    2.000    1.429    0.000    6.000    5.714 
#    5.143    0.000    0.000    0.000    0.000    0.000 
#    0.000    0.000    0.000    0.000    0.000    0.000 
#
# Total GULP energy -173491.907331 kJ/mol
# GULP energy per Si atom -12392.279095 kJ/mol
# Density = 2.043084 g / cm^3
# Si number density = 20.477445 Si / 1000 Ang^3
#
#
#
# Elastic Constant Matrix: (Units=GPa)
#
#
# Indices 1 2 3 4 5 6 
#
# 1 136.3914 80.2502 43.5268 3.8047 35.2485 -2.7311
# 2 80.2502 138.8250 33.1888 6.3461 13.0335 -14.9179
# 3 43.5268 33.1888 90.5399 3.3563 18.6858 -6.3092
# 4 3.8047 6.3461 3.3563 25.2700 0.7332 -4.6434
# 5 35.2485 13.0335 18.6858 0.7332 36.5548 9.6500
# 6 -2.7311 -14.9179 -6.3092 -4.6434 9.6500 39.7170
#
#
#
# Elastic Compliance Matrix: (Units=1/GPa)
#
#
# Indices 1 2 3 4 5 6 
#
# 1 0.015096 -0.007063 -0.002351 0.000266 -0.011033 0.000723
# 2 -0.007063 0.011708 -0.001150 -0.001247 0.002461 0.002986
# 3 -0.002351 -0.001150 0.013872 -0.000537 -0.005142 0.002797
# 4 0.000266 -0.001247 -0.000537 0.040811 -0.001576 0.004619
# 5 -0.011033 0.002461 -0.005142 -0.001576 0.042740 -0.011220
# 6 0.000723 0.002986 0.002797 0.004619 -0.011220 0.030060
#
#
# Mechanical properties :
#
#
# Convention : Reuss Voigt Hill
#
# Bulk Modulus (GPa) = 51.15298 75.52089 63.33693
# Shear Modulus (GPa) = 27.48288 34.22773 30.85531
#
# Velocity S-wave (km/s) = 3.66745 4.09281 3.88596
# Velocity P-wave (km/s) = 6.55500 7.70032 7.15063
#
# Compressibility (1/GPa) = 0.01954920
#
# Stress axis : x y z
#
# Youngs Moduli (GPa) = 66.24085 85.41152 72.08534
#
# Poissons Ratio (x) = 0.60329 0.16946
# Poissons Ratio (y) = 0.46788 0.08288
# Poissons Ratio (z) = 0.15572 0.09820
#
# Static dielectric constant tensor:
#      x y z
#    x 3.763870 -0.361760 0.224690 
#    y -0.361760 4.063110 0.120110 
#    z 0.224690 0.120110 3.737450 
# 
# 
# High freq. dielectric constant tensor:
#      x y z
#    x 1.794080 -0.018910 0.013450 
#    y -0.018910 1.809850 0.015410 
#    z 0.013450 0.015410 1.809430 
# 
# From -- ./inp_files/66517.got.cif
#   From: 2010.06.25/outbox.cif.g09.slc.cpg/sg2_34_cif.got.tgz:66517.got - 2010.06.27 13:26:56.
