data_PCOD8018620
_publ_section_title
;
Structure prediction by ZEFSAII (Michael W. Deem and Ramdas Pophale) SiO2 
 PCOD8018620
Probable space group: P -1
;
_chemical_formula_sum "Si O2"
_cell_formula_units_Z 16
_cell_length_a 11.380413
_cell_length_b 12.182191
_cell_length_c 20.782655
_cell_angle_alpha 38.779630
_cell_angle_beta 155.083090
_cell_angle_gamma 128.104898
_cell_volume 714.811532
_symmetry_space_group_name_H-M "P -1"
_symmetry_group_IT_number 2
_symmetry_cell_setting 'triclinic'
loop_
_space_group_symop_operation_xyz
x,y,z
-x,-y,-z
loop_
_atom_site_type_symbol
_atom_site_label
_atom_site_fract_x
_atom_site_fract_y
_atom_site_fract_z
Si Si1 0.441798 0.773644 0.251152
Si Si2 0.283375 0.194292 0.985546
Si Si3 0.578423 0.522046 0.808648
Si Si4 0.590137 0.127965 0.037075
Si Si5 0.193204 0.788585 0.683325
Si Si6 0.816641 0.536522 0.648898
Si Si7 0.110345 0.552867 0.131022
Si Si8 0.980380 0.216504 0.533938
O O1 0.179587 0.744612 0.091301
O O2 0.505920 0.630935 0.410684
O O3 0.736296 0.728846 0.373392
O O4 0.332651 0.983107 0.127698
O O5 0.335031 0.203707 0.930275
O O6 0.509542 0.271218 0.100823
O O7 0.963588 0.325921 0.790398
O O8 0.680749 0.560131 0.771283
O O9 0.225322 0.637362 0.583628
O O10 0.642112 0.301960 0.949548
O O11 0.769007 0.590734 0.924871
O O12 0.898201 0.995526 0.282371
O O13 0.500000 0.000000 0.000000
O O14 0.013208 0.656708 0.671244
O O15 0.253746 0.767849 0.646650
O O16 0.000000 0.000000 0.500000
O O17 0.795729 0.562697 0.703534
#
# Coordination Sequence:
#
# PCOD8018620 Si02
#       8
#     2   2   2   2   2   2   2   2
#     4  10  22  41  62  95 126 156 211 262 312 364
#     4  11  21  37  64  95 125 157 206 269 311 357
#     4  11  24  44  63  88 129 169 208 254 305 367
#     4  11  22  38  65  96 124 158 207 264 310 358
#     4  11  18  37  65  95 122 152 204 271 313 350
#     4  11  22  38  63  92 124 167 207 249 322 374
#     4  11  25  43  61  88 133 175 201 249 312 382
#     4  10  22  40  68  95 116 159 216 263 306 360
#
# _framework density 22.383521999999999
#
# number of rings (size 3 to 8) (size 9 to 14) (size 15 to 20)
#    0.000    1.250    3.750    5.250    0.000    3.500 
#    0.000    5.000    0.000    0.000    0.000    0.000 
#    0.000    0.000    0.000    0.000    0.000    0.000 
#
# Total GULP energy -198326.786799 kJ/mol
# GULP energy per Si atom -12395.424175 kJ/mol
# Density = 2.233258 g / cm^3
# Si number density = 22.383522 Si / 1000 Ang^3
#
#
#
# Elastic Constant Matrix: (Units=GPa)
#
#
# Indices 1 2 3 4 5 6 
#
# 1 118.0923 29.5770 71.0309 -9.6782 -0.1923 -16.3347
# 2 29.5770 105.9510 44.6037 15.7602 9.7241 -20.4939
# 3 71.0309 44.6037 103.0023 -11.4483 4.1021 3.0500
# 4 -9.6782 15.7602 -11.4483 30.3580 -1.5255 -4.8929
# 5 -0.1923 9.7241 4.1021 -1.5255 26.6743 8.1792
# 6 -16.3347 -20.4939 3.0500 -4.8929 8.1792 20.7563
#
#
#
# Elastic Compliance Matrix: (Units=1/GPa)
#
#
# Indices 1 2 3 4 5 6 
#
# 1 0.024281 0.011315 -0.022402 -0.001048 -0.012265 0.038158
# 2 0.011315 0.028231 -0.021972 -0.013099 -0.021499 0.045391
# 3 -0.022402 -0.021972 0.036643 0.011060 0.017920 -0.049162
# 4 -0.001048 -0.013099 0.011060 0.042609 0.008122 -0.008539
# 5 -0.012265 -0.021499 0.017920 0.008122 0.059870 -0.055190
# 6 0.038158 0.045391 -0.049162 -0.008539 -0.055190 0.149984
#
#
# Mechanical properties :
#
#
# Convention : Reuss Voigt Hill
#
# Bulk Modulus (GPa) = 43.40736 68.60763 56.00750
# Shear Modulus (GPa) = 12.03620 27.68000 19.85810
#
# Velocity S-wave (km/s) = 2.32141 3.52038 2.98178
# Velocity P-wave (km/s) = 5.15945 6.87325 6.07707
#
# Compressibility (1/GPa) = 0.02303757
#
# Stress axis : x y z
#
# Youngs Moduli (GPa) = 41.18513 35.42218 27.29059
#
# Poissons Ratio (x) = -0.40081 0.61136
# Poissons Ratio (y) = -0.46601 0.59962
# Poissons Ratio (z) = 0.92262 0.77829
#
# Static dielectric constant tensor:
#      x y z
#    x 4.333980 -0.264550 -0.273210 
#    y -0.264550 4.946390 0.315070 
#    z -0.273210 0.315070 4.392280 
# 
# 
# High freq. dielectric constant tensor:
#      x y z
#    x 1.893350 0.000180 -0.008350 
#    y 0.000180 1.893050 0.004910 
#    z -0.008350 0.004910 1.869380 
# 
# From -- ./inp_files/595100.got.cif
#   From: 2010.06.25/outbox.cif.g09.slc.cpg/sg2_298_cif.got.tgz:595100.got - 2010.06.27 13:26:56.
