data_PCOD8018740
_publ_section_title
;
Structure prediction by ZEFSAII (Michael W. Deem and Ramdas Pophale) SiO2 
 PCOD8018740
Probable space group: P -1
;
_chemical_formula_sum "Si O2"
_cell_formula_units_Z 14
_cell_length_a 11.861462
_cell_length_b 5.155180
_cell_length_c 13.066537
_cell_angle_alpha 74.548247
_cell_angle_beta 69.271210
_cell_angle_gamma 113.224565
_cell_volume 605.268589
_symmetry_space_group_name_H-M "P -1"
_symmetry_group_IT_number 2
_symmetry_cell_setting 'triclinic'
loop_
_space_group_symop_operation_xyz
x,y,z
-x,-y,-z
loop_
_atom_site_type_symbol
_atom_site_label
_atom_site_fract_x
_atom_site_fract_y
_atom_site_fract_z
Si Si1 0.932665 0.750900 0.740647
Si Si2 0.457313 0.492096 0.149602
Si Si3 0.566619 0.887701 0.251134
Si Si4 0.675032 0.180024 0.536848
Si Si5 0.817380 0.167355 0.683948
Si Si6 0.674860 0.400961 0.993690
Si Si7 0.737836 0.853795 0.378613
O O1 0.873307 0.463542 0.709787
O O2 0.094870 0.877181 0.702036
O O3 0.922309 0.036027 0.664912
O O4 0.843670 0.630755 0.888584
O O5 0.453105 0.550184 0.266793
O O6 0.616313 0.590022 0.054813
O O7 0.342331 0.117808 0.201618
O O8 0.410159 0.699559 0.077806
O O9 0.476365 0.994160 0.334721
O O10 0.650408 0.112890 0.102893
O O11 0.679236 0.862873 0.285480
O O12 0.807914 0.269434 0.560139
O O13 0.656880 0.932874 0.481671
O O14 0.704585 0.502223 0.442098
#
# Coordination Sequence:
#
# PCOD8018740 Si02
#       7
#     2   2   2   2   2   2   2
#     4  11  26  45  67 105 137 181 217 273 343 413
#     4  10  22  40  70 109 128 166 224 293 343 381
#     4  12  25  43  71 102 135 177 224 283 340 396
#     4  12  25  46  71  99 130 182 233 286 323 384
#     4  11  23  44  74  99 136 170 233 285 334 383
#     4  10  23  39  73  99 135 169 221 289 337 396
#     4  12  29  46  66  96 147 184 224 264 332 418
#
# _framework density 23.130226
#
# number of rings (size 3 to 8) (size 9 to 14) (size 15 to 20)
#    0.000    0.857    1.429    5.571    8.000    4.000 
#    0.000    0.714    0.000    0.000    0.000    0.000 
#    0.000    0.000    0.000    0.000    0.000    0.000 
#
# Total GULP energy -173575.604879 kJ/mol
# GULP energy per Si atom -12398.257491 kJ/mol
# Density = 2.307758 g / cm^3
# Si number density = 23.130226 Si / 1000 Ang^3
#
#
#
# Elastic Constant Matrix: (Units=GPa)
#
#
# Indices 1 2 3 4 5 6 
#
# 1 126.3129 40.8104 61.4108 11.6162 23.5760 4.4236
# 2 40.8104 48.0204 40.5383 3.1271 12.1180 -9.1185
# 3 61.4108 40.5383 110.5800 12.9016 24.8406 10.0088
# 4 11.6162 3.1271 12.9016 22.7163 -2.4816 4.8467
# 5 23.5760 12.1180 24.8406 -2.4816 44.0376 3.3265
# 6 4.4236 -9.1185 10.0088 4.8467 3.3265 34.2764
#
#
#
# Elastic Compliance Matrix: (Units=1/GPa)
#
#
# Indices 1 2 3 4 5 6 
#
# 1 0.012877 -0.007786 -0.002974 -0.003732 -0.003130 -0.002033
# 2 -0.007786 0.040487 -0.011778 0.001725 -0.001372 0.015104
# 3 -0.002974 -0.011778 0.017364 -0.005851 -0.004798 -0.006527
# 4 -0.003732 0.001725 -0.005851 0.051043 0.008105 -0.005355
# 5 -0.003130 -0.001372 -0.004798 0.008105 0.028108 -0.002434
# 6 -0.002033 0.015104 -0.006527 -0.005355 -0.002434 0.036354
#
#
# Mechanical properties :
#
#
# Convention : Reuss Voigt Hill
#
# Bulk Modulus (GPa) = 38.98551 63.38138 51.18344
# Shear Modulus (GPa) = 20.84539 29.68300 25.26420
#
# Velocity S-wave (km/s) = 3.00529 3.58620 3.30852
# Velocity P-wave (km/s) = 5.37901 6.67902 6.06395
#
# Compressibility (1/GPa) = 0.02565056
#
# Stress axis : x y z
#
# Youngs Moduli (GPa) = 77.65687 24.69959 57.58951
#
# Poissons Ratio (x) = 0.19231 0.17130
# Poissons Ratio (y) = 0.60462 0.67831
# Poissons Ratio (z) = 0.23099 0.29092
#
# Static dielectric constant tensor:
#      x y z
#    x 4.310980 -0.131650 0.106400 
#    y -0.131650 4.025290 0.079220 
#    z 0.106400 0.079220 4.369300 
# 
# 
# High freq. dielectric constant tensor:
#      x y z
#    x 1.913130 -0.018490 0.008520 
#    y -0.018490 1.907870 -0.000040 
#    z 0.008520 -0.000040 1.920600 
# 
# From -- ./inp_files/410054.got.cif
#   From: 2010.06.25/outbox.cif.g09.slc.cpg/sg2_206_cif.got.tgz:410054.got - 2010.06.27 13:26:56.
