data_PCOD8018604
_publ_section_title
;
Structure prediction by ZEFSAII (Michael W. Deem and Ramdas Pophale) SiO2 
 PCOD8018604
Probable space group: P -1
;
_chemical_formula_sum "Si O2"
_cell_formula_units_Z 12
_cell_length_a 12.380360
_cell_length_b 9.585275
_cell_length_c 15.324137
_cell_angle_alpha 31.157591
_cell_angle_beta 39.101408
_cell_angle_gamma 51.812966
_cell_volume 587.520947
_symmetry_space_group_name_H-M "P -1"
_symmetry_group_IT_number 2
_symmetry_cell_setting 'triclinic'
loop_
_space_group_symop_operation_xyz
x,y,z
-x,-y,-z
loop_
_atom_site_type_symbol
_atom_site_label
_atom_site_fract_x
_atom_site_fract_y
_atom_site_fract_z
Si Si1 0.663305 0.294507 0.682409
Si Si2 0.682263 0.994974 0.000094
Si Si3 0.004784 0.856014 0.978206
Si Si4 0.338795 0.157483 0.511332
Si Si5 0.998383 0.684755 0.646686
Si Si6 0.668904 0.544509 0.812033
O O1 0.500391 0.199015 0.772576
O O2 0.616383 0.555615 0.622448
O O3 0.827925 0.372366 0.477738
O O4 0.709698 0.056193 0.846374
O O5 0.835214 0.869139 0.018844
O O6 0.666049 0.276476 0.902907
O O7 0.168087 0.993428 0.747816
O O8 0.020156 0.533116 0.145988
O O9 0.000000 0.000000 0.000000
O O10 0.316621 0.199859 0.399130
O O11 0.500000 0.000000 0.500000
O O12 0.837659 0.588532 0.739411
O O13 0.000000 0.000000 0.500000
O O14 0.500000 0.500000 0.000000
#
# Coordination Sequence:
#
# PCOD8018604 Si02
#       6
#     2   2   2   2   2   2
#     4  10  22  43  63  97 129 173 219 272 328 388
#     4  10  22  40  68  90 129 173 218 270 330 387
#     4  12  23  43  66  95 131 176 219 269 326 391
#     4  11  24  41  67  96 131 176 223 269 327 392
#     4  12  25  41  65  96 133 171 225 270 331 389
#     4  11  22  40  65  95 134 176 219 269 330 391
#
# _framework density 20.424803000000001
#
# number of rings (size 3 to 8) (size 9 to 14) (size 15 to 20)
#    0.000    1.000    3.333    3.000    0.000    7.333 
#    0.000    2.500    0.000    0.000    0.000    0.000 
#    0.000    0.000    0.000    0.000    0.000    0.000 
#
# Total GULP energy -148745.408067 kJ/mol
# GULP energy per Si atom -12395.450672 kJ/mol
# Density = 2.037832 g / cm^3
# Si number density = 20.424803 Si / 1000 Ang^3
#
#
#
# Elastic Constant Matrix: (Units=GPa)
#
#
# Indices 1 2 3 4 5 6 
#
# 1 172.9088 51.7963 83.5513 11.0002 -7.5264 -33.9519
# 2 51.7963 84.7857 51.0397 1.5501 4.8562 -20.1096
# 3 83.5513 51.0397 156.6421 14.1935 2.5485 -17.6000
# 4 11.0002 1.5501 14.1935 44.9244 -7.2276 0.2679
# 5 -7.5264 4.8562 2.5485 -7.2276 44.7046 -0.4478
# 6 -33.9519 -20.1096 -17.6000 0.2679 -0.4478 32.1688
#
#
#
# Elastic Compliance Matrix: (Units=1/GPa)
#
#
# Indices 1 2 3 4 5 6 
#
# 1 0.009696 -0.002197 -0.003634 -0.000869 0.002007 0.006908
# 2 -0.002197 0.016916 -0.003685 0.000791 -0.001807 0.006209
# 3 -0.003634 -0.003685 0.009645 -0.002206 -0.001127 -0.000860
# 4 -0.000869 0.000791 -0.002206 0.023750 0.003716 -0.001776
# 5 0.002007 -0.001807 -0.001127 0.003716 0.023575 0.000669
# 6 0.006908 0.006209 -0.000860 -0.001776 0.000669 0.041812
#
#
# Mechanical properties :
#
#
# Convention : Reuss Voigt Hill
#
# Bulk Modulus (GPa) = 58.05128 87.45680 72.75404
# Shear Modulus (GPa) = 33.29610 39.55618 36.42614
#
# Velocity S-wave (km/s) = 4.04193 4.40554 4.22765
# Velocity P-wave (km/s) = 7.08989 8.29399 7.71547
#
# Compressibility (1/GPa) = 0.01722615
#
# Stress axis : x y z
#
# Youngs Moduli (GPa) = 103.13086 59.11454 103.68409
#
# Poissons Ratio (x) = 0.12986 0.37679
# Poissons Ratio (y) = 0.22655 0.38207
# Poissons Ratio (z) = 0.37478 0.21783
#
# Static dielectric constant tensor:
#      x y z
#    x 8.017810 0.882860 -0.682340 
#    y 0.882860 3.971510 -0.265830 
#    z -0.682340 -0.265830 4.001590 
# 
# 
# High freq. dielectric constant tensor:
#      x y z
#    x 1.810810 -0.010100 -0.001320 
#    y -0.010100 1.792330 0.000910 
#    z -0.001320 0.000910 1.819400 
# 
# From -- ./inp_files/147860.got.cif
#   From: 2010.06.25/outbox.cif.g09.slc.cpg/sg2_74_cif.got.tgz:147860.got - 2010.06.27 13:26:56.
