data_PCOD8018629
_publ_section_title
;
Structure prediction by ZEFSAII (Michael W. Deem and Ramdas Pophale) SiO2 
 PCOD8018629
Probable space group: P -1
;
_chemical_formula_sum "Si O2"
_cell_formula_units_Z 12
_cell_length_a 5.697327
_cell_length_b 20.820633
_cell_length_c 13.315471
_cell_angle_alpha 24.312986
_cell_angle_beta 59.574956
_cell_angle_gamma 73.107906
_cell_volume 491.492991
_symmetry_space_group_name_H-M "P -1"
_symmetry_group_IT_number 2
_symmetry_cell_setting 'triclinic'
loop_
_space_group_symop_operation_xyz
x,y,z
-x,-y,-z
loop_
_atom_site_type_symbol
_atom_site_label
_atom_site_fract_x
_atom_site_fract_y
_atom_site_fract_z
Si Si1 0.145708 0.405792 0.357132
Si Si2 0.689737 0.848569 0.237316
Si Si3 0.641356 0.922424 0.711064
Si Si4 0.452018 0.197364 0.312935
Si Si5 0.715480 0.410351 0.607164
Si Si6 0.859005 0.117564 0.659408
O O1 0.325723 0.344572 0.486520
O O2 0.852483 0.401487 0.481844
O O3 0.061208 0.263872 0.489715
O O4 0.362752 0.597160 0.988822
O O5 0.405052 0.834454 0.387383
O O6 0.680405 0.915479 0.030775
O O7 0.000000 0.000000 0.000000
O O8 0.461238 0.813911 0.805176
O O9 0.558906 0.080878 0.523957
O O10 0.521789 0.789941 0.019846
O O11 0.000000 0.000000 0.500000
O O12 0.081639 0.125500 0.509097
O O13 0.500000 0.500000 0.500000
O O14 0.000000 0.500000 0.500000
#
# Coordination Sequence:
#
# PCOD8018629 Si02
#       6
#     2   2   2   2   2   2
#     4  11  23  41  69 100 139 179 240 291 358 431
#     4   9  21  40  60  96 133 183 229 287 349 426
#     4  11  26  45  70  99 144 189 241 296 362 428
#     4  11  24  43  66 103 140 182 236 293 364 428
#     4  12  27  48  76 104 143 192 245 300 354 430
#     4  10  22  40  68  95 139 180 231 296 360 422
#
# _framework density 24.415402
#
# number of rings (size 3 to 8) (size 9 to 14) (size 15 to 20)
#    0.000    1.333    1.667    2.500    4.667    8.667 
#    0.000    0.000    0.000    0.000    0.000    0.000 
#    0.000    0.000    0.000    0.000    0.000    0.000 
#
# Total GULP energy -148730.606428 kJ/mol
# GULP energy per Si atom -12394.217202 kJ/mol
# Density = 2.435983 g / cm^3
# Si number density = 24.415402 Si / 1000 Ang^3
#
#
#
# Elastic Constant Matrix: (Units=GPa)
#
#
# Indices 1 2 3 4 5 6 
#
# 1 100.8907 27.0919 46.5643 -8.0583 7.2772 -49.6611
# 2 27.0919 102.6309 44.6241 8.3213 15.7498 -40.6637
# 3 46.5643 44.6241 171.7159 -10.4867 16.1398 -40.8499
# 4 -8.0583 8.3213 -10.4867 46.4971 -14.0168 -0.0619
# 5 7.2772 15.7498 16.1398 -14.0168 38.0007 -2.8009
# 6 -49.6611 -40.6637 -40.8499 -0.0619 -2.8009 61.5180
#
#
#
# Elastic Compliance Matrix: (Units=1/GPa)
#
#
# Indices 1 2 3 4 5 6 
#
# 1 0.017346 0.001779 -0.001546 0.001851 -0.001682 0.014077
# 2 0.001779 0.015601 -0.001726 -0.005020 -0.007168 0.010271
# 3 -0.001546 -0.001726 0.007515 0.001281 -0.001521 0.002533
# 4 0.001851 -0.005020 0.001281 0.026283 0.010844 -0.000454
# 5 -0.001682 -0.007168 -0.001521 0.010844 0.033845 -0.005555
# 6 0.014077 0.010271 0.002533 -0.000454 -0.005555 0.035837
#
#
# Mechanical properties :
#
#
# Convention : Reuss Voigt Hill
#
# Bulk Modulus (GPa) = 26.68369 67.97754 47.33061
# Shear Modulus (GPa) = 32.91510 46.33365 39.62437
#
# Velocity S-wave (km/s) = 3.67567 4.36101 4.03293
# Velocity P-wave (km/s) = 5.38208 7.29797 6.41199
#
# Compressibility (1/GPa) = 0.03747608
#
# Stress axis : x y z
#
# Youngs Moduli (GPa) = 57.65047 64.09778 133.06270
#
# Poissons Ratio (x) = -0.11403 0.20571
# Poissons Ratio (y) = -0.10256 0.22969
# Poissons Ratio (z) = 0.08913 0.11064
#
# Static dielectric constant tensor:
#      x y z
#    x 4.899390 -0.309080 0.576420 
#    y -0.309080 4.380380 -0.107430 
#    z 0.576420 -0.107430 4.825530 
# 
# 
# High freq. dielectric constant tensor:
#      x y z
#    x 1.970420 -0.019000 0.002290 
#    y -0.019000 1.971710 0.000070 
#    z 0.002290 0.000070 1.975450 
# 
# From -- ./inp_files/21749.got.cif
#   From: 2010.06.25/outbox.cif.g09.slc.cpg/sg2_11_cif.got.tgz:21749.got - 2010.06.27 13:26:56.
