data_PCOD8018814
_publ_section_title
;
Structure prediction by ZEFSAII (Michael W. Deem and Ramdas Pophale) SiO2 
 PCOD8018814
Probable space group: P -1
;
_chemical_formula_sum "Si O2"
_cell_formula_units_Z 14
_cell_length_a 9.357704
_cell_length_b 11.443854
_cell_length_c 8.727335
_cell_angle_alpha 62.218756
_cell_angle_beta 76.744523
_cell_angle_gamma 114.460457
_cell_volume 640.878003
_symmetry_space_group_name_H-M "P -1"
_symmetry_group_IT_number 2
_symmetry_cell_setting 'triclinic'
loop_
_space_group_symop_operation_xyz
x,y,z
-x,-y,-z
loop_
_atom_site_type_symbol
_atom_site_label
_atom_site_fract_x
_atom_site_fract_y
_atom_site_fract_z
Si Si1 0.899651 0.271823 0.923014
Si Si2 0.284029 0.866187 0.627504
Si Si3 0.731790 0.899279 0.714971
Si Si4 0.668147 0.665992 0.611384
Si Si5 0.276023 0.562489 0.773171
Si Si6 0.334191 0.612615 0.072141
Si Si7 0.016982 0.910410 0.188688
O O1 0.814643 0.366266 0.835582
O O2 0.872736 0.158363 0.856415
O O3 0.118338 0.399510 0.821672
O O4 0.800847 0.161381 0.166255
O O5 0.239410 0.698051 0.673446
O O6 0.500000 0.000000 0.500000
O O7 0.204572 0.934629 0.492641
O O8 0.745044 0.779430 0.675296
O O9 0.871101 0.956781 0.785453
O O10 0.523413 0.797073 0.890835
O O11 0.476864 0.626923 0.624386
O O12 0.637200 0.494504 0.756991
O O13 0.812944 0.759440 0.383195
O O14 0.261683 0.520519 0.982630
O O15 0.000000 0.000000 0.000000
#
# Coordination Sequence:
#
# PCOD8018814 Si02
#       7
#     2   2   2   2   2   2   2
#     4  11  25  44  65 101 143 170 218 272 336 400
#     4  11  19  42  74 101 126 172 229 273 330 387
#     4  11  23  44  70 100 129 177 226 279 323 395
#     4  11  24  45  70  96 131 180 229 266 332 395
#     4  10  22  40  72  99 132 173 223 278 319 397
#     4  10  22  42  71  99 128 173 228 272 326 395
#     4  12  30  43  64  99 140 177 218 279 337 388
#
# _framework density 21.845030999999999
#
# number of rings (size 3 to 8) (size 9 to 14) (size 15 to 20)
#    0.000    1.143    4.286    4.714    8.000    1.714 
#    0.000    0.000    0.000    0.000    0.000    0.000 
#    0.000    0.000    0.000    0.000    0.000    0.000 
#
# Total GULP energy -173650.592487 kJ/mol
# GULP energy per Si atom -12403.613749 kJ/mol
# Density = 2.179531 g / cm^3
# Si number density = 21.845031 Si / 1000 Ang^3
#
#
#
# Elastic Constant Matrix: (Units=GPa)
#
#
# Indices 1 2 3 4 5 6 
#
# 1 97.0332 32.7903 54.3288 6.4956 -4.8458 -17.7266
# 2 32.7903 67.0883 44.8535 -1.7499 -9.8787 -5.0931
# 3 54.3288 44.8535 124.2607 -5.0351 -4.0137 -12.6443
# 4 6.4956 -1.7499 -5.0351 23.2779 -9.5053 -2.2216
# 5 -4.8458 -9.8787 -4.0137 -9.5053 40.3708 -1.4634
# 6 -17.7266 -5.0931 -12.6443 -2.2216 -1.4634 33.1171
#
#
#
# Elastic Compliance Matrix: (Units=1/GPa)
#
#
# Indices 1 2 3 4 5 6 
#
# 1 0.015959 -0.004193 -0.005157 -0.005667 -0.000758 0.005515
# 2 -0.004193 0.021552 -0.005707 0.003541 0.005013 -0.000650
# 3 -0.005157 -0.005707 0.012683 0.003993 0.000239 0.001483
# 4 -0.005667 0.003541 0.003993 0.051161 0.012739 0.003031
# 5 -0.000758 0.005013 0.000239 0.012739 0.029023 0.002594
# 6 0.005515 -0.000650 0.001483 0.003031 0.002594 0.033932
#
#
# Mechanical properties :
#
#
# Convention : Reuss Voigt Hill
#
# Bulk Modulus (GPa) = 49.80127 61.36972 55.58549
# Shear Modulus (GPa) = 24.86110 29.78046 27.32078
#
# Velocity S-wave (km/s) = 3.37718 3.69624 3.54031
# Velocity P-wave (km/s) = 6.16881 6.80959 6.49710
#
# Compressibility (1/GPa) = 0.02007981
#
# Stress axis : x y z
#
# Youngs Moduli (GPa) = 62.66009 46.39982 78.84806
#
# Poissons Ratio (x) = 0.19456 0.40661
# Poissons Ratio (y) = 0.26274 0.44997
# Poissons Ratio (z) = 0.32313 0.26480
#
# Static dielectric constant tensor:
#      x y z
#    x 4.209220 -0.292270 0.115470 
#    y -0.292270 3.902610 -0.217710 
#    z 0.115470 -0.217710 4.289180 
# 
# 
# High freq. dielectric constant tensor:
#      x y z
#    x 1.865810 -0.011900 -0.009420 
#    y -0.011900 1.844380 -0.015400 
#    z -0.009420 -0.015400 1.860140 
# 
# From -- ./inp_files/158843.got.cif
#   From: 2010.06.25/outbox.cif.g09.slc.cpg/sg2_80_cif.got.tgz:158843.got - 2010.06.27 13:26:56.
