data_PCOD8018238
_publ_section_title
;
Structure prediction by ZEFSAII (Michael W. Deem and Ramdas Pophale) SiO2 
 PCOD8018238
Probable space group: P -1
;
_chemical_formula_sum "Si O2"
_cell_formula_units_Z 16
_cell_length_a 15.500048
_cell_length_b 16.229383
_cell_length_c 16.082781
_cell_angle_alpha 154.840264
_cell_angle_beta 146.429848
_cell_angle_gamma 25.869744
_cell_volume 746.628286
_symmetry_space_group_name_H-M "P -1"
_symmetry_group_IT_number 2
_symmetry_cell_setting 'triclinic'
loop_
_space_group_symop_operation_xyz
x,y,z
-x,-y,-z
loop_
_atom_site_type_symbol
_atom_site_label
_atom_site_fract_x
_atom_site_fract_y
_atom_site_fract_z
Si Si1 0.189528 0.091624 0.995385
Si Si2 0.456346 0.452111 0.216665
Si Si3 0.349134 0.323642 0.432410
Si Si4 0.243287 0.176528 0.668217
Si Si5 0.009140 0.836589 0.670980
Si Si6 0.404730 0.421294 0.957452
Si Si7 0.789523 0.123435 0.900754
Si Si8 0.917207 0.473567 0.992531
O O1 0.211208 0.279751 0.232224
O O2 0.090946 0.224216 0.950603
O O3 0.406152 0.839440 0.922008
O O4 0.063246 0.024991 0.883187
O O5 0.549075 0.575352 0.445538
O O6 0.427276 0.509949 0.146065
O O7 0.248841 0.560862 0.193207
O O8 0.201575 0.554055 0.587391
O O9 0.532715 0.072977 0.392035
O O10 0.245508 0.371904 0.795334
O O11 0.182322 0.276586 0.804820
O O12 0.083198 0.149474 0.479460
O O13 0.844235 0.926941 0.692658
O O14 0.625743 0.174213 0.881554
O O15 0.307773 0.617843 0.985842
O O16 0.000000 0.000000 0.000000
O O17 0.000000 0.500000 0.000000
#
# Coordination Sequence:
#
# PCOD8018238 Si02
#       8
#     2   2   2   2   2   2   2   2
#     4  11  21  41  66  91 127 166 213 253 312 378
#     4  10  22  43  67  90 126 174 206 260 315 378
#     4  11  21  38  68  93 119 166 217 249 310 379
#     4  11  22  42  66  89 126 170 209 256 318 382
#     4  11  24  39  67  93 123 172 215 256 307 376
#     4  10  22  40  64  89 129 172 209 256 322 369
#     4  11  23  38  61  94 131 164 212 268 308 359
#     4  11  23  41  67  97 128 164 207 262 319 374
#
# _framework density 21.429673999999999
#
# number of rings (size 3 to 8) (size 9 to 14) (size 15 to 20)
#    0.000    1.250    3.750    4.500    0.000    2.000 
#    0.000    4.375    0.000    0.000    0.000    0.000 
#    0.000    0.000    0.000    0.000    0.000    0.000 
#
# Total GULP energy -198231.273279 kJ/mol
# GULP energy per Si atom -12389.454580 kJ/mol
# Density = 2.138090 g / cm^3
# Si number density = 21.429674 Si / 1000 Ang^3
#
#
#
# Elastic Constant Matrix: (Units=GPa)
#
#
# Indices 1 2 3 4 5 6 
#
# 1 120.5635 33.2594 41.7597 -4.0186 1.7819 -16.5412
# 2 33.2594 99.0509 23.1267 1.0586 -2.9835 -7.6708
# 3 41.7597 23.1267 123.2618 -3.1669 19.5564 -11.9333
# 4 -4.0186 1.0586 -3.1669 30.4092 -8.0667 10.9808
# 5 1.7819 -2.9835 19.5564 -8.0667 22.4643 -3.5980
# 6 -16.5412 -7.6708 -11.9333 10.9808 -3.5980 25.3692
#
#
#
# Elastic Compliance Matrix: (Units=1/GPa)
#
#
# Indices 1 2 3 4 5 6 
#
# 1 0.010681 -0.002410 -0.003028 -0.000086 0.002266 0.005170
# 2 -0.002410 0.011555 -0.001703 -0.000719 0.003253 0.001894
# 3 -0.003028 -0.001703 0.011289 -0.002864 -0.010428 0.002582
# 4 -0.000086 -0.000719 -0.002864 0.043135 0.014984 -0.018166
# 5 0.002266 0.003253 -0.010428 0.014984 0.059140 -0.000543
# 6 0.005170 0.001894 0.002582 -0.018166 -0.000543 0.052362
#
#
# Mechanical properties :
#
#
# Convention : Reuss Voigt Hill
#
# Bulk Modulus (GPa) = 51.96389 59.90752 55.93571
# Shear Modulus (GPa) = 23.93993 31.96392 27.95193
#
# Velocity S-wave (km/s) = 3.34599 3.86628 3.61551
# Velocity P-wave (km/s) = 6.26328 6.92437 6.60211
#
# Compressibility (1/GPa) = 0.01924413
#
# Stress axis : x y z
#
# Youngs Moduli (GPa) = 93.62594 86.54278 88.58244
#
# Poissons Ratio (x) = 0.20857 0.26819
# Poissons Ratio (y) = 0.22564 0.15083
# Poissons Ratio (z) = 0.28345 0.14736
#
# Static dielectric constant tensor:
#      x y z
#    x 3.691130 -0.364780 0.094030 
#    y -0.364780 4.170950 0.080220 
#    z 0.094030 0.080220 4.033910 
# 
# 
# High freq. dielectric constant tensor:
#      x y z
#    x 1.805530 -0.028860 0.015720 
#    y -0.028860 1.866860 0.005840 
#    z 0.015720 0.005840 1.834880 
# 
# From -- ./inp_files/534166.got.cif
#   From: 2010.06.25/outbox.cif.g09.slc.cpg/sg2_268_cif.got.tgz:534166.got - 2010.06.27 13:26:56.
