data_PCOD8018922
_publ_section_title
;
Structure prediction by ZEFSAII (Michael W. Deem and Ramdas Pophale) SiO2 
 PCOD8018922
Probable space group: P -1
;
_chemical_formula_sum "Si O2"
_cell_formula_units_Z 16
_cell_length_a 9.297189
_cell_length_b 12.025384
_cell_length_c 11.912696
_cell_angle_alpha 54.364999
_cell_angle_beta 100.666028
_cell_angle_gamma 59.818053
_cell_volume 685.771673
_symmetry_space_group_name_H-M "P -1"
_symmetry_group_IT_number 2
_symmetry_cell_setting 'triclinic'
loop_
_space_group_symop_operation_xyz
x,y,z
-x,-y,-z
loop_
_atom_site_type_symbol
_atom_site_label
_atom_site_fract_x
_atom_site_fract_y
_atom_site_fract_z
Si Si1 0.696330 0.442897 0.956421
Si Si2 0.933904 0.195149 0.507918
Si Si3 0.241485 0.734854 0.329013
Si Si4 0.447504 0.847815 0.381182
Si Si5 0.395819 0.414347 0.911093
Si Si6 0.729461 0.076741 0.460723
Si Si7 0.613888 0.887355 0.965637
Si Si8 0.108805 0.632147 0.196380
O O1 0.633260 0.326172 0.016737
O O2 0.475347 0.689595 0.753634
O O3 0.883302 0.344354 0.949361
O O4 0.775533 0.432909 0.097969
O O5 0.923867 0.214936 0.629347
O O6 0.721686 0.442653 0.300097
O O7 0.906311 0.055573 0.554882
O O8 0.157664 0.085155 0.534253
O O9 0.500000 0.500000 0.500000
O O10 0.266159 0.879491 0.270605
O O11 0.116152 0.777140 0.171556
O O12 0.349180 0.963550 0.422027
O O13 0.687528 0.602358 0.583632
O O14 0.482334 0.951110 0.244254
O O15 0.451584 0.216963 0.021196
O O16 0.880070 0.711457 0.132406
O O17 0.500000 0.000000 0.000000
#
# Coordination Sequence:
#
# PCOD8018922 Si02
#       8
#     2   2   2   2   2   2   2   2
#     4   9  20  42  70  91 124 169 220 277 323 380
#     4   9  17  32  63  92 123 164 205 270 324 372
#     4   9  18  36  69  94 125 173 224 268 316 382
#     4   9  21  43  65  92 134 171 215 278 317 394
#     4  10  22  41  62  95 134 165 211 279 324 381
#     4   8  16  35  61  95 117 157 221 261 323 378
#     4  12  29  43  61  98 139 177 217 264 334 405
#     4  10  23  44  69  93 126 177 223 266 334 382
#
# _framework density 23.331378000000001
#
# number of rings (size 3 to 8) (size 9 to 14) (size 15 to 20)
#    0.000    2.500    0.000    2.250    7.000    2.500 
#    4.500    1.250    0.000    0.000    0.000    0.000 
#    0.000    0.000    0.000    0.000    0.000    0.000 
#
# Total GULP energy -198235.459084 kJ/mol
# GULP energy per Si atom -12389.716193 kJ/mol
# Density = 2.327828 g / cm^3
# Si number density = 23.331378 Si / 1000 Ang^3
#
#
#
# Elastic Constant Matrix: (Units=GPa)
#
#
# Indices 1 2 3 4 5 6 
#
# 1 84.8093 59.4988 33.2265 1.7839 -17.3007 -9.1925
# 2 59.4988 133.4389 25.5007 10.7695 -21.9267 -20.9140
# 3 33.2265 25.5007 50.7405 12.3106 -26.4571 -1.8534
# 4 1.7839 10.7695 12.3106 26.1449 -2.2550 -9.5867
# 5 -17.3007 -21.9267 -26.4571 -2.2550 39.6609 1.6859
# 6 -9.1925 -20.9140 -1.8534 -9.5867 1.6859 46.6795
#
#
#
# Elastic Compliance Matrix: (Units=1/GPa)
#
#
# Indices 1 2 3 4 5 6 
#
# 1 0.022789 -0.008393 -0.015234 0.009515 -0.004416 0.002236
# 2 -0.008393 0.012251 0.002979 -0.004414 0.004726 0.002877
# 3 -0.015234 0.002979 0.046196 -0.021701 0.024805 -0.005184
# 4 0.009515 -0.004414 -0.021701 0.052488 -0.010215 0.010183
# 5 -0.004416 0.004726 0.024805 -0.010215 0.041925 -0.001379
# 6 0.002236 0.002877 -0.005184 0.010183 -0.001379 0.025087
#
#
# Mechanical properties :
#
#
# Convention : Reuss Voigt Hill
#
# Bulk Modulus (GPa) = 25.03735 56.16008 40.59871
# Shear Modulus (GPa) = 19.58123 32.54790 26.06457
#
# Velocity S-wave (km/s) = 2.90015 3.73906 3.34600
# Velocity P-wave (km/s) = 4.68711 6.53939 5.68914
#
# Compressibility (1/GPa) = 0.03994033
#
# Stress axis : x y z
#
# Youngs Moduli (GPa) = 43.88005 81.62699 21.64687
#
# Poissons Ratio (x) = 0.68511 0.32977
# Poissons Ratio (y) = 0.36829 -0.06450
# Poissons Ratio (z) = 0.66848 -0.24320
#
# Static dielectric constant tensor:
#      x y z
#    x 3.973280 -0.210600 -0.082270 
#    y -0.210600 4.548040 0.277100 
#    z -0.082270 0.277100 3.999350 
# 
# 
# High freq. dielectric constant tensor:
#      x y z
#    x 1.888740 -0.023240 -0.003990 
#    y -0.023240 1.929990 0.014290 
#    z -0.003990 0.014290 1.920760 
# 
# From -- ./inp_files/392090.got.cif
#   From: 2010.06.25/outbox.cif.g09.slc.cpg/sg2_197_cif.got.tgz:392090.got - 2010.06.27 13:26:56.
