data_PCOD8018897
_publ_section_title
;
Structure prediction by ZEFSAII (Michael W. Deem and Ramdas Pophale) SiO2 
 PCOD8018897
Probable space group: P -1
;
_chemical_formula_sum "Si O2"
_cell_formula_units_Z 16
_cell_length_a 5.362337
_cell_length_b 22.113998
_cell_length_c 19.469564
_cell_angle_alpha 23.147309
_cell_angle_beta 80.261067
_cell_angle_gamma 68.495902
_cell_volume 750.153084
_symmetry_space_group_name_H-M "P -1"
_symmetry_group_IT_number 2
_symmetry_cell_setting 'triclinic'
loop_
_space_group_symop_operation_xyz
x,y,z
-x,-y,-z
loop_
_atom_site_type_symbol
_atom_site_label
_atom_site_fract_x
_atom_site_fract_y
_atom_site_fract_z
Si Si1 0.142685 0.024206 0.666187
Si Si2 0.895038 0.129328 0.304729
Si Si3 0.690840 0.737818 0.873191
Si Si4 0.304862 0.907677 0.041532
Si Si5 0.456431 0.193107 0.723365
Si Si6 0.823451 0.483870 0.702590
Si Si7 0.199678 0.557576 0.715041
Si Si8 0.955245 0.119487 0.042237
O O1 0.973484 0.994763 0.641229
O O2 0.495983 0.923077 0.735040
O O3 0.998619 0.234071 0.469401
O O4 0.147774 0.911255 0.848818
O O5 0.526734 0.250725 0.190959
O O6 0.018475 0.263895 0.165058
O O7 0.000000 0.000000 0.500000
O O8 0.784487 0.558439 0.099330
O O9 0.555817 0.781207 0.219534
O O10 0.313408 0.793568 0.093651
O O11 0.319959 0.073539 0.836980
O O12 0.000000 0.000000 0.000000
O O13 0.270716 0.391145 0.491009
O O14 0.787205 0.076522 0.795411
O O15 0.017594 0.531096 0.691722
O O16 0.039141 0.271664 0.889758
O O17 0.529631 0.507124 0.729165
#
# Coordination Sequence:
#
# PCOD8018897 Si02
#       8
#     2   2   2   2   2   2   2   2
#     4  10  23  37  69  91 128 165 210 255 319 367
#     4  10  22  43  68  94 131 171 207 254 312 369
#     4  10  22  41  65  92 133 162 210 254 310 365
#     4   9  21  40  63  84 124 165 213 257 320 376
#     4  10  22  41  62  89 124 167 207 267 315 379
#     4  12  26  37  65  93 131 161 211 263 317 370
#     4  12  24  41  60 101 127 163 210 262 311 372
#     4  11  21  41  62  94 121 166 207 263 317 375
#
# _framework density 21.328979
#
# number of rings (size 3 to 8) (size 9 to 14) (size 15 to 20)
#    0.750    0.750    2.500    2.625    5.250    2.500 
#    0.000    6.875    0.000    0.000    0.000    0.000 
#    0.000    0.000    0.000    0.000    0.000    0.000 
#
# Total GULP energy -198224.658120 kJ/mol
# GULP energy per Si atom -12389.041132 kJ/mol
# Density = 2.128043 g / cm^3
# Si number density = 21.328979 Si / 1000 Ang^3
#
#
#
# Elastic Constant Matrix: (Units=GPa)
#
#
# Indices 1 2 3 4 5 6 
#
# 1 114.2229 15.2514 15.5417 14.9128 -11.0465 18.1658
# 2 15.2514 20.0634 -5.8833 6.5337 8.0921 4.4465
# 3 15.5417 -5.8833 103.3446 16.1202 4.8339 9.0797
# 4 14.9128 6.5337 16.1202 35.7549 -3.6956 -4.4649
# 5 -11.0465 8.0921 4.8339 -3.6956 27.0667 8.2948
# 6 18.1658 4.4465 9.0797 -4.4649 8.2948 21.9301
#
#
#
# Elastic Compliance Matrix: (Units=1/GPa)
#
#
# Indices 1 2 3 4 5 6 
#
# 1 0.015107 -0.013493 -0.001861 -0.003379 0.014752 -0.015275
# 2 -0.013493 0.083782 0.011425 -0.018573 -0.034773 -0.001170
# 3 -0.001861 0.011425 0.012660 -0.008313 -0.005892 -0.005481
# 4 -0.003379 -0.018573 -0.008313 0.039112 0.006212 0.015620
# 5 0.014752 -0.034773 -0.005892 0.006212 0.063016 -0.025300
# 6 -0.015275 -0.001170 -0.005481 0.015620 -0.025300 0.073508
#
#
# Mechanical properties :
#
#
# Convention : Reuss Voigt Hill
#
# Bulk Modulus (GPa) = 9.64405 31.93895 20.79150
# Shear Modulus (GPa) = 15.16958 31.13175 23.15067
#
# Velocity S-wave (km/s) = 2.66976 3.82461 3.29813
# Velocity P-wave (km/s) = 3.74632 5.87456 4.92673
#
# Compressibility (1/GPa) = 0.10369084
#
# Stress axis : x y z
#
# Youngs Moduli (GPa) = 66.19560 11.93578 78.98590
#
# Poissons Ratio (x) = 0.16105 0.14699
# Poissons Ratio (y) = 0.89320 -0.90244
# Poissons Ratio (z) = 0.12319 -0.13637
#
# Static dielectric constant tensor:
#      x y z
#    x 4.125490 0.368020 -0.045580 
#    y 0.368020 3.914890 0.245760 
#    z -0.045580 0.245760 3.784000 
# 
# 
# High freq. dielectric constant tensor:
#      x y z
#    x 1.844010 0.010910 -0.006620 
#    y 0.010910 1.823010 0.020540 
#    z -0.006620 0.020540 1.835390 
# 
# From -- ./inp_files/339974.got.cif
#   From: 2010.06.25/outbox.cif.g09.slc.cpg/sg2_170_cif.got.tgz:339974.got - 2010.06.27 13:26:56.
