data_PCOD8018022
_publ_section_title
;
Structure prediction by ZEFSAII (Michael W. Deem and Ramdas Pophale) SiO2 
 PCOD8018022
Probable space group: P -1
;
_chemical_formula_sum "Si O2"
_cell_formula_units_Z 12
_cell_length_a 10.954336
_cell_length_b 12.472577
_cell_length_c 12.669028
_cell_angle_alpha 22.873088
_cell_angle_beta 126.324428
_cell_angle_gamma 131.736587
_cell_volume 500.739039
_symmetry_space_group_name_H-M "P -1"
_symmetry_group_IT_number 2
_symmetry_cell_setting 'triclinic'
loop_
_space_group_symop_operation_xyz
x,y,z
-x,-y,-z
loop_
_atom_site_type_symbol
_atom_site_label
_atom_site_fract_x
_atom_site_fract_y
_atom_site_fract_z
Si Si1 0.767794 0.194132 0.406653
Si Si2 0.771710 0.382462 0.903184
Si Si3 0.556690 0.810274 0.814757
Si Si4 0.322925 0.437089 0.509535
Si Si5 0.602158 0.933710 0.957530
Si Si6 0.075735 0.255918 0.141671
O O1 0.595222 0.079290 0.358421
O O2 0.713991 0.081882 0.600287
O O3 0.894108 0.048672 0.565105
O O4 0.857960 0.550626 0.108240
O O5 0.799477 0.607192 0.613004
O O6 0.816054 0.556722 0.876622
O O7 0.582838 0.158790 0.008583
O O8 0.884333 0.188052 0.122807
O O9 0.603325 0.772395 0.992964
O O10 0.500000 0.500000 0.000000
O O11 0.500000 0.500000 0.500000
O O12 0.320785 0.710270 0.333437
O O13 0.279061 0.154719 0.821567
#
# Coordination Sequence:
#
# PCOD8018022 Si02
#       6
#     2   2   2   2   2   2
#     4  11  23  38  58  93 116 156 197 249 308 338
#     4  10  22  40  60  90 127 158 198 233 314 353
#     4  11  23  39  66  88 123 150 208 261 297 344
#     4  10  23  37  60  88 124 162 197 244 290 363
#     4  11  23  38  64  91 120 155 204 250 297 351
#     4  11  24  37  62  90 126 159 189 251 293 380
#
# _framework density 23.964579000000001
#
# number of rings (size 3 to 8) (size 9 to 14) (size 15 to 20)
#    0.000    1.333    3.333    2.000    9.333    8.000 
#    0.000    0.000    0.000    6.000    0.000    0.000 
#    0.000    0.000    0.000    0.000    0.000    0.000 
#
# Total GULP energy -148678.454887 kJ/mol
# GULP energy per Si atom -12389.871241 kJ/mol
# Density = 2.391003 g / cm^3
# Si number density = 23.964579 Si / 1000 Ang^3
#
#
#
# Elastic Constant Matrix: (Units=GPa)
#
#
# Indices 1 2 3 4 5 6 
#
# 1 71.3596 25.9671 32.4827 9.3760 1.8771 -8.8052
# 2 25.9671 44.3719 37.5574 7.5849 -10.6982 -7.8200
# 3 32.4827 37.5574 128.6860 15.6700 14.2709 -13.1508
# 4 9.3760 7.5849 15.6700 32.0352 -1.9386 0.2850
# 5 1.8771 -10.6982 14.2709 -1.9386 36.5314 7.2414
# 6 -8.8052 -7.8200 -13.1508 0.2850 7.2414 28.5007
#
#
#
# Elastic Compliance Matrix: (Units=1/GPa)
#
#
# Indices 1 2 3 4 5 6 
#
# 1 0.019186 -0.010941 -0.000272 -0.003235 -0.005072 0.004121
# 2 -0.010941 0.043260 -0.012066 -0.000017 0.018285 -0.001724
# 3 -0.000272 -0.012066 0.013579 -0.004369 -0.010145 0.005492
# 4 -0.003235 -0.000017 -0.004369 0.034622 0.004604 -0.004536
# 5 -0.005072 0.018285 -0.010145 0.004604 0.039436 -0.011297
# 6 0.004121 -0.001724 0.005492 -0.004536 -0.011297 0.041337
#
#
# Mechanical properties :
#
#
# Convention : Reuss Voigt Hill
#
# Bulk Modulus (GPa) = 33.93603 48.49244 41.21424
# Shear Modulus (GPa) = 20.17751 29.30747 24.74249
#
# Velocity S-wave (km/s) = 2.90482 3.50086 3.21668
# Velocity P-wave (km/s) = 5.04404 6.05148 5.57058
#
# Compressibility (1/GPa) = 0.02946721
#
# Stress axis : x y z
#
# Youngs Moduli (GPa) = 52.12210 23.11593 73.64193
#
# Poissons Ratio (x) = 0.25291 0.02003
# Poissons Ratio (y) = 0.57028 0.88855
# Poissons Ratio (z) = 0.01418 0.27891
#
# Static dielectric constant tensor:
#      x y z
#    x 4.299740 -0.054170 -0.024510 
#    y -0.054170 4.147420 0.533290 
#    z -0.024510 0.533290 4.921660 
# 
# 
# High freq. dielectric constant tensor:
#      x y z
#    x 1.934720 0.000210 0.003120 
#    y 0.000210 1.918600 0.017900 
#    z 0.003120 0.017900 1.970770 
# 
# From -- ./inp_files/131141.got.cif
#   From: 2010.06.25/outbox.cif.g09.slc.cpg/sg2_66_cif.got.tgz:131141.got - 2010.06.27 13:26:56.
