data_PCOD8018029
_publ_section_title
;
Structure prediction by ZEFSAII (Michael W. Deem and Ramdas Pophale) SiO2 
 PCOD8018029
Probable space group: P -1
;
_chemical_formula_sum "Si O2"
_cell_formula_units_Z 16
_cell_length_a 13.257053
_cell_length_b 11.387048
_cell_length_c 16.362103
_cell_angle_alpha 159.326482
_cell_angle_beta 64.655905
_cell_angle_gamma 118.649800
_cell_volume 763.570016
_symmetry_space_group_name_H-M "P -1"
_symmetry_group_IT_number 2
_symmetry_cell_setting 'triclinic'
loop_
_space_group_symop_operation_xyz
x,y,z
-x,-y,-z
loop_
_atom_site_type_symbol
_atom_site_label
_atom_site_fract_x
_atom_site_fract_y
_atom_site_fract_z
Si Si1 0.765278 0.605779 0.542182
Si Si2 0.568882 0.645107 0.317793
Si Si3 0.759544 0.792421 0.122145
Si Si4 0.050113 0.786873 0.778491
Si Si5 0.314054 0.773486 0.099035
Si Si6 0.803906 0.500563 0.632892
Si Si7 0.638482 0.428587 0.779634
Si Si8 0.483905 0.722463 0.573583
O O1 0.865512 0.440793 0.363642
O O2 0.793358 0.733538 0.709177
O O3 0.651192 0.286875 0.380543
O O4 0.748766 0.923946 0.701456
O O5 0.476519 0.562071 0.222376
O O6 0.511511 0.558893 0.370951
O O7 0.640099 0.039037 0.547042
O O8 0.654637 0.399941 0.108690
O O9 0.771923 0.504126 0.995692
O O10 0.655231 0.642797 0.997391
O O11 0.882897 0.937846 0.131341
O O12 0.729755 0.108225 0.386901
O O13 0.939094 0.517825 0.604766
O O14 0.000000 0.000000 0.000000
O O15 0.430270 0.907463 0.200344
O O16 0.749140 0.616925 0.808804
O O17 0.500000 0.500000 0.500000
#
# Coordination Sequence:
#
# PCOD8018029 Si02
#       8
#     2   2   2   2   2   2   2   2
#     4  10  23  43  61  91 131 165 208 265 323 373
#     4  11  23  38  62  99 131 168 213 260 314 379
#     4  11  22  40  67  91 128 169 212 265 319 371
#     4  11  24  43  69  94 121 164 223 274 320 372
#     4  11  24  40  64  94 134 170 207 257 324 388
#     4  11  22  44  64  93 122 165 221 270 313 376
#     4  11  22  36  65  96 127 165 220 261 310 377
#     4  10  22  40  60  91 134 169 204 251 318 395
#
# _framework density 20.954201000000001
#
# number of rings (size 3 to 8) (size 9 to 14) (size 15 to 20)
#    0.000    1.250    5.000    1.500    3.500    2.500 
#    4.500    3.125    0.000    0.000    0.000    0.000 
#    0.000    0.000    0.000    0.000    0.000    0.000 
#
# Total GULP energy -198246.787860 kJ/mol
# GULP energy per Si atom -12390.424241 kJ/mol
# Density = 2.090651 g / cm^3
# Si number density = 20.954201 Si / 1000 Ang^3
#
#
#
# Elastic Constant Matrix: (Units=GPa)
#
#
# Indices 1 2 3 4 5 6 
#
# 1 90.4532 14.5966 35.4846 4.9923 5.5712 -5.1981
# 2 14.5966 91.9773 37.7383 4.6918 -3.4166 -12.9752
# 3 35.4846 37.7383 94.0856 4.5943 -2.1953 -9.8955
# 4 4.9923 4.6918 4.5943 35.3968 -1.2152 0.8625
# 5 5.5712 -3.4166 -2.1953 -1.2152 33.6291 -0.1959
# 6 -5.1981 -12.9752 -9.8955 0.8625 -0.1959 28.9726
#
#
#
# Elastic Compliance Matrix: (Units=1/GPa)
#
#
# Indices 1 2 3 4 5 6 
#
# 1 0.013258 -0.000014 -0.004914 -0.001336 -0.002563 0.000717
# 2 -0.000014 0.013618 -0.004902 -0.001240 0.001047 0.004466
# 3 -0.004914 -0.004902 0.014713 -0.000571 0.001267 0.001974
# 4 -0.001336 -0.001240 -0.000571 0.028760 0.001087 -0.001839
# 5 -0.002563 0.001047 0.001267 0.001087 0.030393 0.000615
# 6 0.000717 0.004466 0.001974 -0.001839 0.000615 0.037377
#
#
# Mechanical properties :
#
#
# Convention : Reuss Voigt Hill
#
# Bulk Modulus (GPa) = 45.60135 50.23944 47.92039
# Shear Modulus (GPa) = 30.28660 32.17946 31.23303
#
# Velocity S-wave (km/s) = 3.80593 3.92306 3.86494
# Velocity P-wave (km/s) = 6.41273 6.67446 6.54490
#
# Compressibility (1/GPa) = 0.02192918
#
# Stress axis : x y z
#
# Youngs Moduli (GPa) = 75.42519 73.43211 67.96531
#
# Poissons Ratio (x) = 0.00101 0.33398
# Poissons Ratio (y) = 0.00104 0.33319
# Poissons Ratio (z) = 0.37064 0.35999
#
# Static dielectric constant tensor:
#      x y z
#    x 4.175540 0.057460 0.456920 
#    y 0.057460 3.862350 -0.052040 
#    z 0.456920 -0.052040 3.826120 
# 
# 
# High freq. dielectric constant tensor:
#      x y z
#    x 1.808470 0.001670 0.017610 
#    y 0.001670 1.827070 -0.006910 
#    z 0.017610 -0.006910 1.817230 
# 
# From -- ./inp_files/569069.got.cif
#   From: 2010.06.25/outbox.cif.g09.slc.cpg/sg2_285_cif.got.tgz:569069.got - 2010.06.27 13:26:56.
