data_PCOD8018931
_publ_section_title
;
Structure prediction by ZEFSAII (Michael W. Deem and Ramdas Pophale) SiO2 
 PCOD8018931
Probable space group: P -1
;
_chemical_formula_sum "Si O2"
_cell_formula_units_Z 14
_cell_length_a 11.527579
_cell_length_b 7.050561
_cell_length_c 16.414017
_cell_angle_alpha 59.033592
_cell_angle_beta 45.991884
_cell_angle_gamma 39.300803
_cell_volume 606.966988
_symmetry_space_group_name_H-M "P -1"
_symmetry_group_IT_number 2
_symmetry_cell_setting 'triclinic'
loop_
_space_group_symop_operation_xyz
x,y,z
-x,-y,-z
loop_
_atom_site_type_symbol
_atom_site_label
_atom_site_fract_x
_atom_site_fract_y
_atom_site_fract_z
Si Si1 0.099996 0.896211 0.079560
Si Si2 0.503281 0.793003 0.198752
Si Si3 0.697064 0.777760 0.651440
Si Si4 0.875102 0.901594 0.402987
Si Si5 0.364806 0.802420 0.702379
Si Si6 0.109128 0.542659 0.032448
Si Si7 0.874504 0.932838 0.803542
O O1 0.200471 0.848864 0.129973
O O2 0.226865 0.585535 0.036220
O O3 0.853245 0.028765 0.176138
O O4 0.091800 0.131220 0.979550
O O5 0.530873 0.535741 0.288891
O O6 0.723496 0.671458 0.074345
O O7 0.425338 0.047526 0.244613
O O8 0.331301 0.927600 0.180790
O O9 0.774533 0.927015 0.533139
O O10 0.537770 0.790628 0.667749
O O11 0.908570 0.440319 0.647053
O O12 0.695037 0.029620 0.391978
O O13 0.942037 0.099861 0.328546
O O14 0.017315 0.397698 0.145996
#
# Coordination Sequence:
#
# PCOD8018931 Si02
#       7
#     2   2   2   2   2   2   2
#     4   9  22  40  66  94 134 175 214 265 331 389
#     4  11  25  40  65 102 132 169 225 265 333 387
#     4  11  24  47  67  96 136 171 219 282 317 394
#     4  10  24  46  70  95 130 179 221 264 342 378
#     4  10  22  44  65  98 132 169 222 271 324 395
#     4  10  22  41  62  98 133 176 216 265 331 388
#     4  11  22  40  63  97 131 169 219 268 319 395
#
# _framework density 23.065505999999999
#
# number of rings (size 3 to 8) (size 9 to 14) (size 15 to 20)
#    0.000    1.714    1.429    1.286    4.000    8.571 
#    0.000    0.000    0.000    0.000    0.000    0.000 
#    0.000    0.000    0.000    0.000    0.000    0.000 
#
# Total GULP energy -173561.781924 kJ/mol
# GULP energy per Si atom -12397.270137 kJ/mol
# Density = 2.301301 g / cm^3
# Si number density = 23.065506 Si / 1000 Ang^3
#
#
#
# Elastic Constant Matrix: (Units=GPa)
#
#
# Indices 1 2 3 4 5 6 
#
# 1 75.4118 20.3335 0.0495 -15.6336 6.5177 4.0754
# 2 20.3335 79.5923 44.7456 -9.3788 -4.0369 8.2915
# 3 0.0495 44.7456 90.7734 -28.4442 -4.5490 8.3793
# 4 -15.6336 -9.3788 -28.4442 41.2955 5.8766 4.7534
# 5 6.5177 -4.0369 -4.5490 5.8766 27.9070 -7.9857
# 6 4.0754 8.2915 8.3793 4.7534 -7.9857 26.9727
#
#
#
# Elastic Compliance Matrix: (Units=1/GPa)
#
#
# Indices 1 2 3 4 5 6 
#
# 1 0.019451 -0.007662 0.008364 0.013721 -0.009592 -0.008440
# 2 -0.007662 0.020748 -0.012513 -0.007651 0.004771 0.001428
# 3 0.008364 -0.012513 0.023637 0.018720 -0.006729 -0.010051
# 4 0.013721 -0.007651 0.018720 0.044923 -0.015918 -0.018166
# 5 -0.009592 0.004771 -0.006729 -0.015918 0.046341 0.018598
# 6 -0.008440 0.001428 -0.010051 -0.018166 0.018598 0.049741
#
#
# Mechanical properties :
#
#
# Convention : Reuss Voigt Hill
#
# Bulk Modulus (GPa) = 24.86731 41.78163 33.32447
# Shear Modulus (GPa) = 20.67252 31.27830 25.97541
#
# Velocity S-wave (km/s) = 2.99700 3.68647 3.35947
# Velocity P-wave (km/s) = 4.77290 6.02277 5.43389
#
# Compressibility (1/GPa) = 0.04021344
#
# Stress axis : x y z
#
# Youngs Moduli (GPa) = 51.41238 48.19767 42.30681
#
# Poissons Ratio (x) = 0.36928 -0.35386
# Poissons Ratio (y) = 0.39391 0.52940
# Poissons Ratio (z) = -0.43002 0.60312
#
# Static dielectric constant tensor:
#      x y z
#    x 4.102170 0.014860 0.123910 
#    y 0.014860 4.215310 -0.279220 
#    z 0.123910 -0.279220 4.192120 
# 
# 
# High freq. dielectric constant tensor:
#      x y z
#    x 1.917490 0.002930 0.009970 
#    y 0.002930 1.900340 -0.024280 
#    z 0.009970 -0.024280 1.907280 
# 
# From -- ./inp_files/107336.got.cif
#   From: 2010.06.25/outbox.cif.g09.slc.cpg/sg2_54_cif.got.tgz:107336.got - 2010.06.27 13:26:56.
