data_PCOD8018098
_publ_section_title
;
Structure prediction by ZEFSAII (Michael W. Deem and Ramdas Pophale) SiO2 
 PCOD8018098
Probable space group: P -1
;
_chemical_formula_sum "Si O2"
_cell_formula_units_Z 10
_cell_length_a 8.184816
_cell_length_b 10.500858
_cell_length_c 4.879976
_cell_angle_alpha 125.930399
_cell_angle_beta 90.963759
_cell_angle_gamma 86.816747
_cell_volume 339.030405
_symmetry_space_group_name_H-M "P -1"
_symmetry_group_IT_number 2
_symmetry_cell_setting 'triclinic'
loop_
_space_group_symop_operation_xyz
x,y,z
-x,-y,-z
loop_
_atom_site_type_symbol
_atom_site_label
_atom_site_fract_x
_atom_site_fract_y
_atom_site_fract_z
Si Si1 0.322450 0.630047 0.414644
Si Si2 0.691258 0.584758 0.378114
Si Si3 0.833570 0.800524 0.246239
Si Si4 0.180797 0.833926 0.249529
Si Si5 0.493525 0.117920 0.903525
O O1 0.510997 0.673461 0.559895
O O2 0.236699 0.515196 0.483791
O O3 0.219118 0.789666 0.516103
O O4 0.339521 0.540022 0.014342
O O5 0.813224 0.708944 0.417235
O O6 0.681017 0.774256 0.997330
O O7 0.012262 0.752006 0.056984
O O8 0.840751 0.980973 0.556883
O O9 0.338370 0.779682 0.985727
O O10 0.500000 0.000000 0.500000
O O11 0.500000 0.000000 0.000000
#
# Coordination Sequence:
#
# PCOD8018098 Si02
#       5
#     2   2   2   2   2
#     4  10  22  41  65  94 129 170 216 264 322 386
#     4  10  22  41  65  94 129 170 216 264 322 386
#     4  10  22  42  68  99 131 171 220 267 323 389
#     4  10  22  42  68  99 131 171 220 267 323 389
#     4  10  22  40  62  90 128 166 205 262 321 368
#
# _framework density 29.495882999999999
#
# number of rings (size 3 to 8) (size 9 to 14) (size 15 to 20)
#    0.000    2.000    2.000    0.000    0.000    8.800 
#    0.000    8.000    0.000    0.000    0.000    0.000 
#    0.000    0.000    0.000    0.000    0.000    0.000 
#
# Total GULP energy -123968.678466 kJ/mol
# GULP energy per Si atom -12396.867847 kJ/mol
# Density = 2.942875 g / cm^3
# Si number density = 29.495883 Si / 1000 Ang^3
#
#
#
# Elastic Constant Matrix: (Units=GPa)
#
#
# Indices 1 2 3 4 5 6 
#
# 1 264.5543 79.1845 54.4393 -27.9294 -0.3275 38.1690
# 2 79.1845 270.4525 40.6420 -44.2905 1.1390 34.1096
# 3 54.4393 40.6420 65.1803 -24.1082 -5.2259 2.7237
# 4 -27.9294 -44.2905 -24.1082 58.9235 -0.5080 -1.2054
# 5 -0.3275 1.1390 -5.2259 -0.5080 36.0080 -10.1486
# 6 38.1690 34.1096 2.7237 -1.2054 -10.1486 36.6439
#
#
#
# Elastic Compliance Matrix: (Units=1/GPa)
#
#
# Indices 1 2 3 4 5 6 
#
# 1 0.005647 -0.000120 -0.004321 0.000675 -0.002269 -0.006055
# 2 -0.000120 0.005125 -0.001971 0.002873 -0.001790 -0.004900
# 3 -0.004321 -0.001971 0.022492 0.005845 0.005140 0.006279
# 4 0.000675 0.002873 0.005845 0.021782 0.000215 -0.003036
# 5 -0.002269 -0.001790 0.005140 0.000215 0.032091 0.012542
# 6 -0.006055 -0.004900 0.006279 -0.003036 0.012542 0.041065
#
#
# Mechanical properties :
#
#
# Convention : Reuss Voigt Hill
#
# Bulk Modulus (GPa) = 48.92560 105.41320 77.16940
# Shear Modulus (GPa) = 33.82038 54.70982 44.26510
#
# Velocity S-wave (km/s) = 3.38984 4.31144 3.87812
# Velocity P-wave (km/s) = 5.65196 7.78464 6.80240
#
# Compressibility (1/GPa) = 0.02043920
#
# Stress axis : x y z
#
# Youngs Moduli (GPa) = 177.08025 195.12323 44.46105
#
# Poissons Ratio (x) = 0.02347 0.19211
# Poissons Ratio (y) = 0.02130 0.08764
# Poissons Ratio (z) = 0.76512 0.38463
#
# Static dielectric constant tensor:
#      x y z
#    x 8.229960 -0.135830 -0.116050 
#    y -0.135830 5.977660 0.061210 
#    z -0.116050 0.061210 6.168420 
# 
# 
# High freq. dielectric constant tensor:
#      x y z
#    x 2.194380 0.006080 -0.002880 
#    y 0.006080 2.231390 0.007740 
#    z -0.002880 0.007740 2.246210 
# 
# From -- ./inp_files/16520.got.cif
#   From: 2010.06.25/outbox.cif.g09.slc.cpg/sg2_9_cif.got.tgz:16520.got - 2010.06.27 13:26:56.
