data_PCOD8018286
_publ_section_title
;
Structure prediction by ZEFSAII (Michael W. Deem and Ramdas Pophale) SiO2 
 PCOD8018286
Probable space group: P -1
;
_chemical_formula_sum "Si O2"
_cell_formula_units_Z 16
_cell_length_a 9.384050
_cell_length_b 21.745056
_cell_length_c 11.464039
_cell_angle_alpha 130.982904
_cell_angle_beta 122.527025
_cell_angle_gamma 26.177734
_cell_volume 769.924728
_symmetry_space_group_name_H-M "P -1"
_symmetry_group_IT_number 2
_symmetry_cell_setting 'triclinic'
loop_
_space_group_symop_operation_xyz
x,y,z
-x,-y,-z
loop_
_atom_site_type_symbol
_atom_site_label
_atom_site_fract_x
_atom_site_fract_y
_atom_site_fract_z
Si Si1 0.786589 0.286668 0.044865
Si Si2 0.123287 0.489802 0.925019
Si Si3 0.753521 0.235397 0.219814
Si Si4 0.594044 0.967713 0.152647
Si Si5 0.591197 0.782620 0.911585
Si Si6 0.089325 0.307523 0.279866
Si Si7 0.697087 0.894307 0.570162
Si Si8 0.966299 0.407279 0.608066
O O1 0.846790 0.209570 0.093367
O O2 0.765817 0.392717 0.198716
O O3 0.453421 0.401299 0.978710
O O4 0.052840 0.159644 0.903176
O O5 0.852930 0.665995 0.985148
O O6 0.164196 0.403202 0.737279
O O7 0.000000 0.500000 0.000000
O O8 0.702851 0.160181 0.129397
O O9 0.420329 0.423592 0.330485
O O10 0.039791 0.146941 0.322257
O O11 0.330985 0.128792 0.165744
O O12 0.579431 0.003535 0.325091
O O13 0.470304 0.924933 0.039648
O O14 0.768230 0.688786 0.748315
O O15 0.037009 0.374006 0.460167
O O16 0.899290 0.727493 0.433223
O O17 0.500000 0.000000 0.500000
#
# Coordination Sequence:
#
# PCOD8018286 Si02
#       8
#     2   2   2   2   2   2   2   2
#     4  11  20  40  65  91 125 169 210 255 319 381
#     4  11  23  38  61  99 130 158 214 272 315 357
#     4  11  22  39  70  93 118 174 219 254 326 368
#     4  10  23  43  62  89 130 168 208 255 322 385
#     4  10  22  40  64  96 123 163 217 268 307 379
#     4  10  22  43  65  88 128 173 213 253 321 384
#     4  11  25  42  61  97 129 169 210 265 318 383
#     4  10  22  44  65  89 133 169 208 267 320 380
#
# _framework density 20.781253
#
# number of rings (size 3 to 8) (size 9 to 14) (size 15 to 20)
#    0.000    1.500    5.000    1.875    1.750    4.500 
#    9.000    1.250    0.000    0.000    0.000    0.000 
#    0.000    0.000    0.000    0.000    0.000    0.000 
#
# Total GULP energy -198313.760252 kJ/mol
# GULP energy per Si atom -12394.610016 kJ/mol
# Density = 2.073395 g / cm^3
# Si number density = 20.781253 Si / 1000 Ang^3
#
#
#
# Elastic Constant Matrix: (Units=GPa)
#
#
# Indices 1 2 3 4 5 6 
#
# 1 100.0624 16.2501 29.5980 -10.0373 -5.0479 2.5456
# 2 16.2501 94.3553 38.4111 -22.5061 -3.3498 1.6761
# 3 29.5980 38.4111 97.3467 -10.3550 0.4282 -5.2861
# 4 -10.0373 -22.5061 -10.3550 38.7442 -3.8444 5.7350
# 5 -5.0479 -3.3498 0.4282 -3.8444 33.2307 -10.7047
# 6 2.5456 1.6761 -5.2861 5.7350 -10.7047 33.7437
#
#
#
# Elastic Compliance Matrix: (Units=1/GPa)
#
#
# Indices 1 2 3 4 5 6 
#
# 1 0.011314 0.000045 -0.003275 0.002432 0.001640 -0.001262
# 2 0.000045 0.014582 -0.005087 0.007628 0.001689 -0.002285
# 3 -0.003275 -0.005087 0.013347 -0.000659 -0.000432 0.002566
# 4 0.002432 0.007628 -0.000659 0.031760 0.003194 -0.005050
# 5 0.001640 0.001689 -0.000432 0.003194 0.034109 0.010002
# 6 -0.001262 -0.002285 0.002566 -0.005050 0.010002 0.034277
#
#
# Mechanical properties :
#
#
# Convention : Reuss Voigt Hill
#
# Bulk Modulus (GPa) = 44.23199 51.14256 47.68727
# Shear Modulus (GPa) = 30.57011 34.97741 32.77376
#
# Velocity S-wave (km/s) = 3.83958 4.10704 3.97556
# Velocity P-wave (km/s) = 6.40213 6.86686 6.63856
#
# Compressibility (1/GPa) = 0.02260807
#
# Stress axis : x y z
#
# Youngs Moduli (GPa) = 88.38717 68.57985 74.92431
#
# Poissons Ratio (x) = -0.00311 0.24537
# Poissons Ratio (y) = -0.00401 0.38118
# Poissons Ratio (z) = 0.28946 0.34890
#
# Static dielectric constant tensor:
#      x y z
#    x 4.004520 -0.067600 -0.111550 
#    y -0.067600 3.216560 0.158040 
#    z -0.111550 0.158040 3.810750 
# 
# 
# High freq. dielectric constant tensor:
#      x y z
#    x 1.823610 0.001500 -0.010410 
#    y 0.001500 1.804810 -0.000880 
#    z -0.010410 -0.000880 1.816200 
# 
# From -- ./inp_files/405527.got.cif
#   From: 2010.06.25/outbox.cif.g09.slc.cpg/sg2_203_cif.got.tgz:405527.got - 2010.06.27 13:26:56.
