data_PCOD8018001
_publ_section_title
;
Structure prediction by ZEFSAII (Michael W. Deem and Ramdas Pophale) SiO2 
 PCOD8018001
Probable space group: P -1
;
_chemical_formula_sum "Si O2"
_cell_formula_units_Z 14
_cell_length_a 7.678462
_cell_length_b 15.808569
_cell_length_c 8.993021
_cell_angle_alpha 124.347010
_cell_angle_beta 145.638159
_cell_angle_gamma 62.978382
_cell_volume 508.546664
_symmetry_space_group_name_H-M "P -1"
_symmetry_group_IT_number 2
_symmetry_cell_setting 'triclinic'
loop_
_space_group_symop_operation_xyz
x,y,z
-x,-y,-z
loop_
_atom_site_type_symbol
_atom_site_label
_atom_site_fract_x
_atom_site_fract_y
_atom_site_fract_z
Si Si1 0.439939 0.661912 0.659028
Si Si2 0.792757 0.745657 0.255262
Si Si3 0.109834 0.815067 0.176689
Si Si4 0.444590 0.072108 0.169575
Si Si5 0.362259 0.620170 0.049880
Si Si6 0.607662 0.075921 0.774732
Si Si7 0.718060 0.538750 0.474463
O O1 0.576456 0.627863 0.564799
O O2 0.286082 0.566023 0.542883
O O3 0.164122 0.743456 0.532042
O O4 0.723474 0.708682 0.001671
O O5 0.615413 0.672068 0.173449
O O6 0.688592 0.862204 0.312773
O O7 0.262404 0.885513 0.485020
O O8 0.229771 0.700435 0.157748
O O9 0.163921 0.844744 0.068632
O O10 0.739545 0.831116 0.931571
O O11 0.246667 0.993663 0.060792
O O12 0.500000 0.000000 0.000000
O O13 0.515086 0.531463 0.171960
O O14 0.067885 0.572339 0.705999
O O15 0.500000 0.000000 0.500000
#
# Coordination Sequence:
#
# PCOD8018001 Si02
#       7
#     2   2   2   2   2   2   2
#     4  11  25  43  63  94 128 166 207 257 315 377
#     4  11  24  41  66  96 125 161 217 262 303 369
#     4  10  22  40  59  85 122 159 203 250 310 371
#     4  11  22  37  60  89 120 157 204 256 306 365
#     4  11  23  40  65  93 121 166 210 258 307 367
#     4   9  22  42  63  87 124 166 202 252 314 368
#     4  11  24  43  65  90 131 169 202 253 324 376
#
# _framework density 27.529427999999999
#
# number of rings (size 3 to 8) (size 9 to 14) (size 15 to 20)
#    0.000    1.429    0.000    4.286    0.000   17.143 
#    0.000    0.000    0.000    0.000    0.000    0.000 
#    0.000    0.000    0.000    0.000    0.000    0.000 
#
# Total GULP energy -173555.053680 kJ/mol
# GULP energy per Si atom -12396.789549 kJ/mol
# Density = 2.746677 g / cm^3
# Si number density = 27.529428 Si / 1000 Ang^3
#
#
#
# Elastic Constant Matrix: (Units=GPa)
#
#
# Indices 1 2 3 4 5 6 
#
# 1 68.9677 -9.7713 28.4299 -21.3303 -13.7200 -9.4884
# 2 -9.7713 90.3918 10.3986 -20.9760 -5.3165 -20.4908
# 3 28.4299 10.3986 166.4035 -12.4171 -3.3088 -16.4136
# 4 -21.3303 -20.9760 -12.4171 47.3877 -5.2750 -4.5469
# 5 -13.7200 -5.3165 -3.3088 -5.2750 48.2812 -7.1631
# 6 -9.4884 -20.4908 -16.4136 -4.5469 -7.1631 48.1722
#
#
#
# Elastic Compliance Matrix: (Units=1/GPa)
#
#
# Indices 1 2 3 4 5 6 
#
# 1 0.027727 0.011681 -0.002405 0.019774 0.013154 0.013433
# 2 0.011681 0.019716 -0.000516 0.016162 0.009210 0.013407
# 3 -0.002405 -0.000516 0.006659 0.000593 0.000023 0.001635
# 4 0.019774 0.016162 0.000593 0.040539 0.014381 0.016937
# 5 0.013154 0.009210 0.000023 0.014381 0.028841 0.012163
# 6 0.013433 0.013407 0.001635 0.016937 0.012163 0.033072
#
#
# Mechanical properties :
#
#
# Convention : Reuss Voigt Hill
#
# Bulk Modulus (GPa) = 13.96221 42.65306 28.30763
# Shear Modulus (GPa) = 30.69234 48.54859 39.62047
#
# Velocity S-wave (km/s) = 3.34262 4.20398 3.79780
# Velocity P-wave (km/s) = 4.46993 6.25235 5.43471
#
# Compressibility (1/GPa) = 0.07162190
#
# Stress axis : x y z
#
# Youngs Moduli (GPa) = 36.06657 50.71922 150.18104
#
# Poissons Ratio (x) = -0.59247 0.36117
# Poissons Ratio (y) = -0.42131 0.07754
# Poissons Ratio (z) = 0.08674 0.02619
#
# Static dielectric constant tensor:
#      x y z
#    x 2.181670 -3.104180 0.454550 
#    y -3.104180 2.651800 0.530790 
#    z 0.454550 0.530790 4.576320 
# 
# 
# High freq. dielectric constant tensor:
#      x y z
#    x 2.136640 -0.008280 -0.018120 
#    y -0.008280 2.139350 -0.004170 
#    z -0.018120 -0.004170 2.098440 
# 
# From -- ./inp_files/43835.got.cif
#   From: 2010.06.25/outbox.cif.g09.slc.cpg/sg2_22_cif.got.tgz:43835.got - 2010.06.27 13:26:56.
