data_PCOD8018569
_publ_section_title
;
Structure prediction by ZEFSAII (Michael W. Deem and Ramdas Pophale) SiO2 
 PCOD8018569
Probable space group: P -1
;
_chemical_formula_sum "Si O2"
_cell_formula_units_Z 16
_cell_length_a 19.292977
_cell_length_b 13.285099
_cell_length_c 9.762191
_cell_angle_alpha 43.420061
_cell_angle_beta 134.915175
_cell_angle_gamma 153.745377
_cell_volume 748.390955
_symmetry_space_group_name_H-M "P -1"
_symmetry_group_IT_number 2
_symmetry_cell_setting 'triclinic'
loop_
_space_group_symop_operation_xyz
x,y,z
-x,-y,-z
loop_
_atom_site_type_symbol
_atom_site_label
_atom_site_fract_x
_atom_site_fract_y
_atom_site_fract_z
Si Si1 0.464273 0.851578 0.822743
Si Si2 0.649637 0.351150 0.586489
Si Si3 0.529697 0.301984 0.745369
Si Si4 0.928692 0.769480 0.386229
Si Si5 0.856434 0.986290 0.924619
Si Si6 0.732099 0.812021 0.615851
Si Si7 0.897996 0.527904 0.332455
Si Si8 0.542353 0.717779 0.832164
O O1 0.288205 0.716533 0.718737
O O2 0.467805 0.722752 0.847166
O O3 0.595997 0.125000 0.689158
O O4 0.513130 0.860850 0.033660
O O5 0.638733 0.354103 0.731606
O O6 0.829390 0.606061 0.543293
O O7 0.528353 0.317483 0.376521
O O8 0.622382 0.543568 0.705610
O O9 0.365792 0.158103 0.587372
O O10 0.911387 0.611567 0.418165
O O11 0.862639 0.840379 0.156580
O O12 0.113881 0.010493 0.445192
O O13 0.793367 0.881099 0.787948
O O14 0.734783 0.953592 0.863846
O O15 0.027563 0.268922 0.875100
O O16 0.000000 0.500000 0.500000
O O17 0.500000 0.500000 0.000000
#
# Coordination Sequence:
#
# PCOD8018569 Si02
#       8
#     2   2   2   2   2   2   2   2
#     4  12  26  44  65  99 134 172 215 264 327 394
#     4  12  25  42  64  96 136 171 212 267 327 388
#     4  11  24  43  67  91 129 181 214 261 325 390
#     4  11  23  41  65  97 131 165 216 277 321 375
#     4  11  21  40  68 101 128 164 216 278 322 373
#     4  10  22  40  67  96 129 166 224 267 317 385
#     4  11  23  39  67  97 132 166 211 269 328 377
#     4  12  22  40  69  99 129 164 221 271 316 378
#
# _framework density 21.379199
#
# number of rings (size 3 to 8) (size 9 to 14) (size 15 to 20)
#    0.000    0.750    3.750    5.250    5.250    0.500 
#    0.000    1.875    0.000    0.000    0.000    0.000 
#    0.000    0.000    0.000    0.000    0.000    0.000 
#
# Total GULP energy -198399.599005 kJ/mol
# GULP energy per Si atom -12399.974938 kJ/mol
# Density = 2.133054 g / cm^3
# Si number density = 21.379199 Si / 1000 Ang^3
#
#
#
# Elastic Constant Matrix: (Units=GPa)
#
#
# Indices 1 2 3 4 5 6 
#
# 1 109.0932 23.1288 34.3052 -6.1718 6.8454 18.3493
# 2 23.1288 77.0775 39.4412 -15.1367 0.1786 29.1230
# 3 34.3052 39.4412 84.1055 -17.6778 -1.3935 -0.1601
# 4 -6.1718 -15.1367 -17.6778 32.1696 0.6834 0.7722
# 5 6.8454 0.1786 -1.3935 0.6834 30.7671 -3.2706
# 6 18.3493 29.1230 -0.1601 0.7722 -3.2706 42.6902
#
#
#
# Elastic Compliance Matrix: (Units=1/GPa)
#
#
# Indices 1 2 3 4 5 6 
#
# 1 0.011976 0.002070 -0.005869 0.000290 -0.003679 -0.006869
# 2 0.002070 0.027847 -0.012487 0.007201 -0.003509 -0.020333
# 3 -0.005869 -0.012487 0.021112 0.004256 0.003442 0.011307
# 4 0.000290 0.007201 0.004256 0.037036 -0.001352 -0.005795
# 5 -0.003679 -0.003509 0.003442 -0.001352 0.034232 0.006635
# 6 -0.006869 -0.020333 0.011307 -0.005795 0.006635 0.040904
#
#
# Mechanical properties :
#
#
# Convention : Reuss Voigt Hill
#
# Bulk Modulus (GPa) = 35.25479 51.55852 43.40666
# Shear Modulus (GPa) = 23.24163 32.68543 27.96353
#
# Velocity S-wave (km/s) = 3.30072 3.91428 3.62052
# Velocity P-wave (km/s) = 5.57246 6.67813 6.15019
#
# Compressibility (1/GPa) = 0.02836494
#
# Stress axis : x y z
#
# Youngs Moduli (GPa) = 83.50352 35.91034 47.36610
#
# Poissons Ratio (x) = -0.07434 0.27797
# Poissons Ratio (y) = -0.17287 0.59144
# Poissons Ratio (z) = 0.49005 0.44840
#
# Static dielectric constant tensor:
#      x y z
#    x 4.159730 0.509640 0.146190 
#    y 0.509640 4.160650 -0.058560 
#    z 0.146190 -0.058560 3.946330 
# 
# 
# High freq. dielectric constant tensor:
#      x y z
#    x 1.844090 0.016470 0.007330 
#    y 0.016470 1.838150 -0.016340 
#    z 0.007330 -0.016340 1.834050 
# 
# From -- ./inp_files/332956.got.cif
#   From: 2010.06.25/outbox.cif.g09.slc.cpg/sg2_167_cif.got.tgz:332956.got - 2010.06.27 13:26:56.
