data_PCOD8018953
_publ_section_title
;
Structure prediction by ZEFSAII (Michael W. Deem and Ramdas Pophale) SiO2 
 PCOD8018953
Probable space group: P -1
;
_chemical_formula_sum "Si O2"
_cell_formula_units_Z 16
_cell_length_a 8.537549
_cell_length_b 14.180271
_cell_length_c 14.905780
_cell_angle_alpha 30.778346
_cell_angle_beta 127.386072
_cell_angle_gamma 115.643691
_cell_volume 715.972564
_symmetry_space_group_name_H-M "P -1"
_symmetry_group_IT_number 2
_symmetry_cell_setting 'triclinic'
loop_
_space_group_symop_operation_xyz
x,y,z
-x,-y,-z
loop_
_atom_site_type_symbol
_atom_site_label
_atom_site_fract_x
_atom_site_fract_y
_atom_site_fract_z
Si Si1 0.816472 0.405307 0.990470
Si Si2 0.200577 0.423846 0.828403
Si Si3 0.239125 0.462389 0.613884
Si Si4 0.297131 0.711608 0.763550
Si Si5 0.537128 0.703906 0.521327
Si Si6 0.630731 0.931014 0.727368
Si Si7 0.023294 0.998202 0.329100
Si Si8 0.790793 0.713086 0.427096
O O1 0.674112 0.536917 0.762938
O O2 0.698408 0.368793 0.068531
O O3 0.904610 0.206542 0.137085
O O4 0.000000 0.500000 0.000000
O O5 0.313840 0.395422 0.794594
O O6 0.320645 0.538191 0.843299
O O7 0.967132 0.527345 0.656295
O O8 0.209326 0.212937 0.038464
O O9 0.322042 0.651122 0.469538
O O10 0.319301 0.310209 0.687224
O O11 0.000000 0.500000 0.500000
O O12 0.481537 0.813323 0.727000
O O13 0.084191 0.863881 0.548057
O O14 0.633568 0.733542 0.435820
O O15 0.505309 0.900085 0.402040
O O16 0.759733 0.012149 0.632453
O O17 0.882733 0.899273 0.298519
#
# Coordination Sequence:
#
# PCOD8018953 Si02
#       8
#     2   2   2   2   2   2   2   2
#     4  12  24  41  64  95 133 171 204 251 313 378
#     4  10  22  41  63  90 125 166 210 257 312 373
#     4  10  22  44  68  91 122 163 210 268 319 362
#     4  11  22  38  62  93 127 167 209 257 309 372
#     4  12  24  41  65  97 127 164 211 257 311 380
#     4  12  23  38  61  94 129 167 209 257 309 375
#     4  11  23  41  62  91 126 169 211 255 310 375
#     4  10  22  44  66  89 123 163 209 264 315 367
#
# _framework density 22.347224000000001
#
# number of rings (size 3 to 8) (size 9 to 14) (size 15 to 20)
#    0.000    1.000    0.000    9.000    0.000    2.000 
#    0.000    9.375    0.000    0.000    0.000    0.000 
#    0.000    0.000    0.000    0.000    0.000    0.000 
#
# Total GULP energy -198393.301992 kJ/mol
# GULP energy per Si atom -12399.581375 kJ/mol
# Density = 2.229636 g / cm^3
# Si number density = 22.347224 Si / 1000 Ang^3
#
#
#
# Elastic Constant Matrix: (Units=GPa)
#
#
# Indices 1 2 3 4 5 6 
#
# 1 120.9156 54.1846 30.6475 3.4815 -15.7100 -9.3351
# 2 54.1846 138.3245 52.7257 -1.4402 -8.1082 -14.4260
# 3 30.6475 52.7257 103.7745 -29.0814 6.2319 -22.5700
# 4 3.4815 -1.4402 -29.0814 28.2540 -8.9930 -5.5057
# 5 -15.7100 -8.1082 6.2319 -8.9930 33.3808 -5.4969
# 6 -9.3351 -14.4260 -22.5700 -5.5057 -5.4969 51.3170
#
#
#
# Elastic Compliance Matrix: (Units=1/GPa)
#
#
# Indices 1 2 3 4 5 6 
#
# 1 0.010958 -0.003007 -0.002816 -0.003086 0.004124 0.000020
# 2 -0.003007 0.010721 -0.006333 -0.005527 0.000745 -0.000832
# 3 -0.002816 -0.006333 0.023601 0.027094 0.001873 0.011195
# 4 -0.003086 -0.005527 0.027094 0.071746 0.014615 0.019064
# 5 0.004124 0.000745 0.001873 0.014615 0.036870 0.007301
# 6 0.000020 -0.000832 0.011195 0.019064 0.007301 0.027008
#
#
# Mechanical properties :
#
#
# Convention : Reuss Voigt Hill
#
# Bulk Modulus (GPa) = 47.69690 70.90334 59.30012
# Shear Modulus (GPa) = 23.56217 37.62081 30.59149
#
# Velocity S-wave (km/s) = 3.25062 4.10746 3.70390
# Velocity P-wave (km/s) = 5.95639 7.36830 6.69964
#
# Compressibility (1/GPa) = 0.02096572
#
# Stress axis : x y z
#
# Youngs Moduli (GPa) = 91.25827 93.27586 42.37146
#
# Poissons Ratio (x) = 0.28050 0.11933
# Poissons Ratio (y) = 0.27443 0.26836
# Poissons Ratio (z) = 0.25701 0.59076
#
# Static dielectric constant tensor:
#      x y z
#    x 4.065550 -0.061980 -0.177600 
#    y -0.061980 4.272200 0.027630 
#    z -0.177600 0.027630 4.108280 
# 
# 
# High freq. dielectric constant tensor:
#      x y z
#    x 1.888530 0.000270 -0.007210 
#    y 0.000270 1.890350 -0.004530 
#    z -0.007210 -0.004530 1.874440 
# 
# From -- ./inp_files/503718.got.cif
#   From: 2010.06.25/outbox.cif.g09.slc.cpg/sg2_252_cif.got.tgz:503718.got - 2010.06.27 13:26:56.
