data_PCOD8018717
_publ_section_title
;
Structure prediction by ZEFSAII (Michael W. Deem and Ramdas Pophale) SiO2 
 PCOD8018717
Probable space group: P -1
;
_chemical_formula_sum "Si O2"
_cell_formula_units_Z 16
_cell_length_a 12.288178
_cell_length_b 10.490537
_cell_length_c 8.602251
_cell_angle_alpha 72.251365
_cell_angle_beta 91.493999
_cell_angle_gamma 130.933629
_cell_volume 774.287860
_symmetry_space_group_name_H-M "P -1"
_symmetry_group_IT_number 2
_symmetry_cell_setting 'triclinic'
loop_
_space_group_symop_operation_xyz
x,y,z
-x,-y,-z
loop_
_atom_site_type_symbol
_atom_site_label
_atom_site_fract_x
_atom_site_fract_y
_atom_site_fract_z
Si Si1 0.518965 0.337988 0.224941
Si Si2 0.210435 0.978101 0.844735
Si Si3 0.468599 0.343382 0.861972
Si Si4 0.751023 0.461456 0.690435
Si Si5 0.992814 0.138142 0.379571
Si Si6 0.067702 0.612570 0.119795
Si Si7 0.768355 0.390686 0.369405
Si Si8 0.710529 0.042790 0.465097
O O1 0.507990 0.479969 0.235761
O O2 0.680956 0.410921 0.236147
O O3 0.400314 0.145275 0.377122
O O4 0.490412 0.317782 0.049095
O O5 0.302377 0.167067 0.869183
O O6 0.312577 0.992503 0.709555
O O7 0.066790 0.925099 0.776389
O O8 0.149584 0.821065 0.023991
O O9 0.580457 0.349853 0.760537
O O10 0.844249 0.664119 0.684259
O O11 0.804180 0.374566 0.814028
O O12 0.768788 0.463558 0.506810
O O13 0.879807 0.137869 0.474666
O O14 0.000000 0.000000 0.500000
O O15 0.936757 0.514797 0.275345
O O16 0.000000 0.500000 0.000000
O O17 0.688578 0.179036 0.460985
#
# Coordination Sequence:
#
# PCOD8018717 Si02
#       8
#     2   2   2   2   2   2   2   2
#     4  11  26  45  68  93 142 172 224 282 328 402
#     4  10  24  42  70  97 133 176 223 271 330 399
#     4  11  27  46  66 100 130 183 223 272 343 385
#     4  12  25  42  72  97 135 180 221 274 335 398
#     4  10  22  40  69  99 132 176 222 271 327 398
#     4  12  21  45  66  99 138 169 218 280 330 391
#     4  12  25  41  69 103 133 176 225 272 336 392
#     4  10  22  43  64  99 136 169 225 268 333 393
#
# _framework density 20.664151
#
# number of rings (size 3 to 8) (size 9 to 14) (size 15 to 20)
#    0.750    0.250    3.750    3.000    3.500    1.500 
#    0.000    0.625    0.000    0.000    0.000    0.000 
#    0.000    0.000    0.000    0.000    0.000    0.000 
#
# Total GULP energy -198406.738107 kJ/mol
# GULP energy per Si atom -12400.421132 kJ/mol
# Density = 2.061712 g / cm^3
# Si number density = 20.664151 Si / 1000 Ang^3
#
#
#
# Elastic Constant Matrix: (Units=GPa)
#
#
# Indices 1 2 3 4 5 6 
#
# 1 83.5438 33.8652 36.5586 -6.9397 16.1796 -12.8868
# 2 33.8652 129.9598 59.4626 -5.0820 11.5839 -1.3656
# 3 36.5586 59.4626 112.0143 -17.8315 13.0465 -16.5802
# 4 -6.9397 -5.0820 -17.8315 42.4112 -2.2149 0.5458
# 5 16.1796 11.5839 13.0465 -2.2149 44.2962 -0.6997
# 6 -12.8868 -1.3656 -16.5802 0.5458 -0.6997 17.9007
#
#
#
# Elastic Compliance Matrix: (Units=1/GPa)
#
#
# Indices 1 2 3 4 5 6 
#
# 1 0.016376 -0.002999 -0.001553 0.001304 -0.004518 0.009906
# 2 -0.002999 0.011223 -0.006274 -0.001703 -0.000188 -0.007070
# 3 -0.001553 -0.006274 0.015727 0.005341 -0.001956 0.012732
# 4 0.001304 -0.001703 0.005341 0.025757 -0.000238 0.004961
# 5 -0.004518 -0.000188 -0.001956 -0.000238 0.024774 -0.004103
# 6 0.009906 -0.007070 0.012732 0.004961 -0.004103 0.073937
#
#
# Mechanical properties :
#
#
# Convention : Reuss Voigt Hill
#
# Bulk Modulus (GPa) = 46.13754 65.03230 55.58492
# Shear Modulus (GPa) = 25.42300 33.96371 29.69336
#
# Velocity S-wave (km/s) = 3.51136 4.05854 3.79483
# Velocity P-wave (km/s) = 6.23020 7.31449 6.79401
#
# Compressibility (1/GPa) = 0.02167432
#
# Stress axis : x y z
#
# Youngs Moduli (GPa) = 61.06379 89.10282 63.58307
#
# Poissons Ratio (x) = 0.26724 0.09872
# Poissons Ratio (y) = 0.18314 0.39895
# Poissons Ratio (z) = 0.09480 0.55907
#
# Static dielectric constant tensor:
#      x y z
#    x 3.755170 0.037650 0.121480 
#    y 0.037650 3.713210 -0.024460 
#    z 0.121480 -0.024460 3.742830 
# 
# 
# High freq. dielectric constant tensor:
#      x y z
#    x 1.806450 0.004440 0.011170 
#    y 0.004440 1.812500 -0.006380 
#    z 0.011170 -0.006380 1.813280 
# 
# From -- ./inp_files/262111.got.cif
#   From: 2010.06.25/outbox.cif.g09.slc.cpg/sg2_132_cif.got.tgz:262111.got - 2010.06.27 13:26:56.
