data_PCOD8018933
_publ_section_title
;
Structure prediction by ZEFSAII (Michael W. Deem and Ramdas Pophale) SiO2 
 PCOD8018933
Probable space group: P -1
;
_chemical_formula_sum "Si O2"
_cell_formula_units_Z 14
_cell_length_a 19.753750
_cell_length_b 12.381682
_cell_length_c 5.021303
_cell_angle_alpha 90.120059
_cell_angle_beta 105.806396
_cell_angle_gamma 144.336821
_cell_volume 631.963394
_symmetry_space_group_name_H-M "P -1"
_symmetry_group_IT_number 2
_symmetry_cell_setting 'triclinic'
loop_
_space_group_symop_operation_xyz
x,y,z
-x,-y,-z
loop_
_atom_site_type_symbol
_atom_site_label
_atom_site_fract_x
_atom_site_fract_y
_atom_site_fract_z
Si Si1 0.147198 0.036555 0.509329
Si Si2 0.863493 0.656214 0.334295
Si Si3 0.800021 0.707765 0.763623
Si Si4 0.378796 0.384664 0.127968
Si Si5 0.603194 0.018655 0.363600
Si Si6 0.326793 0.767949 0.060402
Si Si7 0.637810 0.815235 0.487445
O O1 0.107489 0.072761 0.238919
O O2 0.215274 0.017446 0.462805
O O3 0.260625 0.245973 0.795036
O O4 0.020257 0.838871 0.546444
O O5 0.794356 0.605124 0.534000
O O6 0.855894 0.735957 0.099168
O O7 0.801326 0.464557 0.161913
O O8 0.656254 0.574981 0.668615
O O9 0.523943 0.610312 0.177542
O O10 0.380178 0.263617 0.242320
O O11 0.685921 0.200119 0.657754
O O12 0.448747 0.843870 0.194414
O O13 0.620452 0.919602 0.477246
O O14 0.656664 0.111035 0.126030
#
# Coordination Sequence:
#
# PCOD8018933 Si02
#       7
#     2   2   2   2   2   2   2
#     4  11  24  39  62  96 134 164 210 246 312 393
#     4  12  24  40  66  92 132 166 206 260 314 361
#     4  11  23  39  64  94 129 167 202 257 310 371
#     4  10  22  41  62  99 126 166 214 247 313 383
#     4  10  22  43  66  88 122 156 212 264 311 353
#     4  10  23  43  64  94 115 159 215 263 306 366
#     4  10  23  40  65  93 129 170 201 263 310 375
#
# _framework density 22.153182999999999
#
# number of rings (size 3 to 8) (size 9 to 14) (size 15 to 20)
#    0.000    1.429    1.429    3.000    6.000    2.286 
#    0.000    1.429    0.000    0.000    0.000    0.000 
#    0.000    0.000    0.000    0.000    0.000    0.000 
#
# Total GULP energy -173519.572469 kJ/mol
# GULP energy per Si atom -12394.255176 kJ/mol
# Density = 2.210276 g / cm^3
# Si number density = 22.153183 Si / 1000 Ang^3
#
#
#
# Elastic Constant Matrix: (Units=GPa)
#
#
# Indices 1 2 3 4 5 6 
#
# 1 82.2045 43.5569 19.3502 -5.5843 16.1722 -21.1305
# 2 43.5569 62.7168 11.6497 5.4405 16.3120 -6.5224
# 3 19.3502 11.6497 65.9749 -4.4711 2.6726 11.8426
# 4 -5.5843 5.4405 -4.4711 37.7630 -0.2397 0.3394
# 5 16.1722 16.3120 2.6726 -0.2397 17.9826 2.7229
# 6 -21.1305 -6.5224 11.8426 0.3394 2.7229 16.0113
#
#
#
# Elastic Compliance Matrix: (Units=1/GPa)
#
#
# Indices 1 2 3 4 5 6 
#
# 1 0.096361 -0.016168 -0.052536 0.008215 -0.090523 0.174662
# 2 -0.016168 0.029753 0.000908 -0.006573 -0.011491 -0.007795
# 3 -0.052536 0.000908 0.048621 -0.000755 0.056528 -0.114522
# 4 0.008215 -0.006573 -0.000755 0.028463 -0.002220 0.008496
# 5 -0.090523 -0.011491 0.056528 -0.002220 0.168472 -0.194560
# 6 0.174662 -0.007795 -0.114522 0.008496 -0.194560 0.407397
#
#
# Mechanical properties :
#
#
# Convention : Reuss Voigt Hill
#
# Bulk Modulus (GPa) = 25.54729 40.00108 32.77419
# Shear Modulus (GPa) = 5.38963 23.44066 14.41515
#
# Velocity S-wave (km/s) = 1.56146 3.25640 2.55366
# Velocity P-wave (km/s) = 3.84812 5.67756 4.84988
#
# Compressibility (1/GPa) = 0.03914310
#
# Stress axis : x y z
#
# Youngs Moduli (GPa) = 10.37760 33.60996 20.56708
#
# Poissons Ratio (x) = 0.54342 1.08051
# Poissons Ratio (y) = 0.16779 -0.01867
# Poissons Ratio (z) = 0.54519 -0.03051
#
# Static dielectric constant tensor:
#      x y z
#    x 4.085120 0.276420 -0.011640 
#    y 0.276420 3.812090 -0.212100 
#    z -0.011640 -0.212100 3.984750 
# 
# 
# High freq. dielectric constant tensor:
#      x y z
#    x 1.870410 0.010130 0.001980 
#    y 0.010130 1.853530 -0.015690 
#    z 0.001980 -0.015690 1.873080 
# 
# From -- ./inp_files/109199.got.cif
#   From: 2010.06.25/outbox.cif.g09.slc.cpg/sg2_55_cif.got.tgz:109199.got - 2010.06.27 13:26:56.
