data_PCOD8018198
_publ_section_title
;
Structure prediction by ZEFSAII (Michael W. Deem and Ramdas Pophale) SiO2 
 PCOD8018198
Probable space group: P -1
;
_chemical_formula_sum "Si O2"
_cell_formula_units_Z 12
_cell_length_a 18.428856
_cell_length_b 13.572590
_cell_length_c 11.010084
_cell_angle_alpha 146.628364
_cell_angle_beta 157.078881
_cell_angle_gamma 32.134803
_cell_volume 549.891542
_symmetry_space_group_name_H-M "P -1"
_symmetry_group_IT_number 2
_symmetry_cell_setting 'triclinic'
loop_
_space_group_symop_operation_xyz
x,y,z
-x,-y,-z
loop_
_atom_site_type_symbol
_atom_site_label
_atom_site_fract_x
_atom_site_fract_y
_atom_site_fract_z
Si Si1 0.797897 0.766591 0.357697
Si Si2 0.891402 0.053722 0.641018
Si Si3 0.622282 0.084224 0.036581
Si Si4 0.161122 0.637176 0.942071
Si Si5 0.397152 0.420105 0.861227
Si Si6 0.278534 0.128733 0.252939
O O1 0.798712 0.553664 0.110289
O O2 0.926453 0.742692 0.655156
O O3 0.887953 0.848948 0.469908
O O4 0.573914 0.913144 0.190709
O O5 0.784009 0.108090 0.402511
O O6 0.773035 0.215215 0.724735
O O7 0.116340 0.046637 0.970663
O O8 0.566079 0.258230 0.032417
O O9 0.721631 0.884060 0.908424
O O10 0.276581 0.589089 0.941975
O O11 0.242451 0.339719 0.469482
O O12 0.500000 0.500000 0.000000
O O13 0.500000 0.000000 0.500000
#
# Coordination Sequence:
#
# PCOD8018198 Si02
#       6
#     2   2   2   2   2   2
#     4  10  22  40  64  93 124 168 207 256 311 368
#     4  12  23  40  68  94 129 167 197 270 322 355
#     4  10  23  42  61  97 128 159 213 253 317 379
#     4  10  22  40  63  95 123 156 229 251 296 388
#     4  10  23  41  65  90 122 172 208 262 307 366
#     4  10  22  41  62  89 127 163 215 247 301 389
#
# _framework density 21.822486000000001
#
# number of rings (size 3 to 8) (size 9 to 14) (size 15 to 20)
#    0.000    1.667    0.000    5.500    7.000    2.667 
#    3.000    0.833    0.000    0.000    0.000    0.000 
#    0.000    0.000    0.000    0.000    0.000    0.000 
#
# Total GULP energy -148732.129541 kJ/mol
# GULP energy per Si atom -12394.344128 kJ/mol
# Density = 2.177282 g / cm^3
# Si number density = 21.822486 Si / 1000 Ang^3
#
#
#
# Elastic Constant Matrix: (Units=GPa)
#
#
# Indices 1 2 3 4 5 6 
#
# 1 119.0088 44.3430 79.7526 2.0995 9.8518 -6.7897
# 2 44.3430 58.5948 38.8692 2.0786 -1.3395 0.8393
# 3 79.7526 38.8692 115.6943 0.0215 -3.6015 -1.1837
# 4 2.0995 2.0786 0.0215 20.8608 -3.0694 0.3173
# 5 9.8518 -1.3395 -3.6015 -3.0694 54.6157 13.5372
# 6 -6.7897 0.8393 -1.1837 0.3173 13.5372 42.7220
#
#
#
# Elastic Compliance Matrix: (Units=1/GPa)
#
#
# Indices 1 2 3 4 5 6 
#
# 1 0.019264 -0.007473 -0.010896 -0.002088 -0.005663 0.004717
# 2 -0.007473 0.024976 -0.003193 -0.001359 0.002289 -0.002482
# 3 -0.010896 -0.003193 0.017319 0.001982 0.003732 -0.002386
# 4 -0.002088 -0.001359 0.001982 0.048845 0.003658 -0.001772
# 5 -0.005663 0.002289 0.003732 0.003658 0.021764 -0.007765
# 6 0.004717 -0.002482 -0.002386 -0.001772 -0.007765 0.026613
#
#
# Mechanical properties :
#
#
# Convention : Reuss Voigt Hill
#
# Bulk Modulus (GPa) = 54.24961 68.80306 61.52634
# Shear Modulus (GPa) = 24.03235 32.32858 28.18047
#
# Velocity S-wave (km/s) = 3.32213 3.85312 3.59743
# Velocity P-wave (km/s) = 6.29515 7.16884 6.74615
#
# Compressibility (1/GPa) = 0.01843331
#
# Stress axis : x y z
#
# Youngs Moduli (GPa) = 51.90974 40.03770 57.73981
#
# Poissons Ratio (x) = 0.29922 0.62916
# Poissons Ratio (y) = 0.38794 0.18439
# Poissons Ratio (z) = 0.56563 0.12786
#
# Static dielectric constant tensor:
#      x y z
#    x 4.098270 -0.383440 -0.233970 
#    y -0.383440 3.960410 0.254620 
#    z -0.233970 0.254620 4.047670 
# 
# 
# High freq. dielectric constant tensor:
#      x y z
#    x 1.866300 -0.018520 0.000680 
#    y -0.018520 1.834730 0.006600 
#    z 0.000680 0.006600 1.852580 
# 
# From -- ./inp_files/160631.got.cif
#   From: 2010.06.25/outbox.cif.g09.slc.cpg/sg2_81_cif.got.tgz:160631.got - 2010.06.27 13:26:56.
