data_PCOD8018211
_publ_section_title
;
Structure prediction by ZEFSAII (Michael W. Deem and Ramdas Pophale) SiO2 
 PCOD8018211
Probable space group: P -1
;
_chemical_formula_sum "Si O2"
_cell_formula_units_Z 16
_cell_length_a 5.305921
_cell_length_b 12.835715
_cell_length_c 12.311030
_cell_angle_alpha 115.219585
_cell_angle_beta 69.043177
_cell_angle_gamma 112.959847
_cell_volume 679.738132
_symmetry_space_group_name_H-M "P -1"
_symmetry_group_IT_number 2
_symmetry_cell_setting 'triclinic'
loop_
_space_group_symop_operation_xyz
x,y,z
-x,-y,-z
loop_
_atom_site_type_symbol
_atom_site_label
_atom_site_fract_x
_atom_site_fract_y
_atom_site_fract_z
Si Si1 0.232729 0.258126 0.018645
Si Si2 0.398245 0.193982 0.560576
Si Si3 0.925527 0.631540 0.300395
Si Si4 0.027335 0.635882 0.527577
Si Si5 0.828691 0.413395 0.078399
Si Si6 0.989835 0.837979 0.767409
Si Si7 0.658052 0.947080 0.698405
Si Si8 0.556521 0.177695 0.754291
O O1 0.519811 0.352037 0.054616
O O2 0.114416 0.167542 0.095334
O O3 0.993052 0.319312 0.047782
O O4 0.297353 0.182440 0.873658
O O5 0.224684 0.274294 0.682167
O O6 0.655797 0.286601 0.502849
O O7 0.238505 0.102395 0.451173
O O8 0.465677 0.121860 0.622889
O O9 0.798446 0.495191 0.221643
O O10 0.866638 0.633905 0.438653
O O11 0.248114 0.685431 0.234272
O O12 0.000000 0.500000 0.500000
O O13 0.897831 0.702762 0.670720
O O14 0.000000 0.500000 0.000000
O O15 0.833537 0.919023 0.759755
O O16 0.323150 0.894568 0.740083
O O17 0.724556 0.091115 0.743834
#
# Coordination Sequence:
#
# PCOD8018211 Si02
#       8
#     2   2   2   2   2   2   2   2
#     4  12  27  46  68 101 139 180 226 277 335 405
#     4  10  23  43  65 102 134 168 229 281 337 402
#     4  11  23  40  67  99 131 175 224 274 340 402
#     4  10  22  40  63  96 134 178 219 269 336 405
#     4  12  25  43  69  99 141 175 219 280 338 399
#     4  11  25  46  66 100 138 179 227 275 335 401
#     4  11  25  47  70  98 136 177 229 285 332 393
#     4  11  26  42  71  97 131 181 226 282 338 395
#
# _framework density 23.538475999999999
#
# number of rings (size 3 to 8) (size 9 to 14) (size 15 to 20)
#    0.000    1.000    2.500    3.000    7.000    3.000 
#    0.000    0.000    0.000    0.000    0.000    0.000 
#    0.000    0.000    0.000    0.000    0.000    0.000 
#
# Total GULP energy -198356.370365 kJ/mol
# GULP energy per Si atom -12397.273148 kJ/mol
# Density = 2.348490 g / cm^3
# Si number density = 23.538476 Si / 1000 Ang^3
#
#
#
# Elastic Constant Matrix: (Units=GPa)
#
#
# Indices 1 2 3 4 5 6 
#
# 1 73.3695 6.1974 8.4394 -11.2616 -0.3653 -11.2585
# 2 6.1974 88.3023 31.9920 -10.3433 0.6554 -23.9036
# 3 8.4394 31.9920 110.3980 -14.8794 -7.1931 -2.6539
# 4 -11.2616 -10.3433 -14.8794 38.4819 -8.7360 3.3929
# 5 -0.3653 0.6554 -7.1931 -8.7360 28.4087 5.5094
# 6 -11.2585 -23.9036 -2.6539 3.3929 5.5094 37.0937
#
#
#
# Elastic Compliance Matrix: (Units=1/GPa)
#
#
# Indices 1 2 3 4 5 6 
#
# 1 0.014972 0.000960 -0.000751 0.004003 0.000300 0.004698
# 2 0.000960 0.015906 -0.004478 0.001169 -0.003182 0.010587
# 3 -0.000751 -0.004478 0.011239 0.004348 0.004944 -0.003441
# 4 0.004003 0.001169 0.004348 0.031948 0.011403 -0.002337
# 5 0.000300 -0.003182 0.004944 0.011403 0.041752 -0.008850
# 6 0.004698 0.010587 -0.003441 -0.002337 -0.008850 0.036489
#
#
# Mechanical properties :
#
#
# Convention : Reuss Voigt Hill
#
# Bulk Modulus (GPa) = 29.78100 40.59195 35.18648
# Shear Modulus (GPa) = 29.06360 35.82627 32.44494
#
# Velocity S-wave (km/s) = 3.51768 3.90555 3.71668
# Velocity P-wave (km/s) = 5.40169 6.13353 5.77921
#
# Compressibility (1/GPa) = 0.03357846
#
# Stress axis : x y z
#
# Youngs Moduli (GPa) = 66.79234 62.86860 88.97898
#
# Poissons Ratio (x) = -0.06033 0.06679
# Poissons Ratio (y) = -0.06409 0.39846
# Poissons Ratio (z) = 0.05013 0.28153
#
# Static dielectric constant tensor:
#      x y z
#    x 4.385880 -0.194900 0.111770 
#    y -0.194900 4.351620 0.062820 
#    z 0.111770 0.062820 4.659590 
# 
# 
# High freq. dielectric constant tensor:
#      x y z
#    x 1.931400 -0.007810 0.002000 
#    y -0.007810 1.930730 -0.004230 
#    z 0.002000 -0.004230 1.941610 
# 
# From -- ./inp_files/66259.got.cif
#   From: 2010.06.25/outbox.cif.g09.slc.cpg/sg2_34_cif.got.tgz:66259.got - 2010.06.27 13:26:56.
