data_PCOD8018276
_publ_section_title
;
Structure prediction by ZEFSAII (Michael W. Deem and Ramdas Pophale) SiO2 
 PCOD8018276
Probable space group: P -1
;
_chemical_formula_sum "Si O2"
_cell_formula_units_Z 16
_cell_length_a 5.024939
_cell_length_b 10.957775
_cell_length_c 19.499759
_cell_angle_alpha 134.463728
_cell_angle_beta 102.389940
_cell_angle_gamma 65.021824
_cell_volume 689.124091
_symmetry_space_group_name_H-M "P -1"
_symmetry_group_IT_number 2
_symmetry_cell_setting 'triclinic'
loop_
_space_group_symop_operation_xyz
x,y,z
-x,-y,-z
loop_
_atom_site_type_symbol
_atom_site_label
_atom_site_fract_x
_atom_site_fract_y
_atom_site_fract_z
Si Si1 0.573430 0.744183 0.210496
Si Si2 0.280771 0.323220 0.294642
Si Si3 0.287725 0.009426 0.888369
Si Si4 0.297706 0.164566 0.382075
Si Si5 0.998275 0.408761 0.173733
Si Si6 0.042191 0.681225 0.100220
Si Si7 0.614945 0.198733 0.055618
Si Si8 0.289585 0.648342 0.495806
O O1 0.794493 0.626011 0.236341
O O2 0.777624 0.776790 0.176304
O O3 0.368557 0.634866 0.130873
O O4 0.359278 0.947777 0.303440
O O5 0.590920 0.168200 0.225103
O O6 0.202607 0.253115 0.335441
O O7 0.299766 0.526221 0.380555
O O8 0.030156 0.354842 0.234966
O O9 0.209358 0.954654 0.937393
O O10 0.998552 0.167583 0.902214
O O11 0.539668 0.095036 0.946425
O O12 0.581777 0.192122 0.441401
O O13 0.037943 0.265875 0.459871
O O14 0.828483 0.296953 0.081605
O O15 0.315141 0.353133 0.132958
O O16 0.000000 0.500000 0.000000
O O17 0.500000 0.500000 0.500000
#
# Coordination Sequence:
#
# PCOD8018276 Si02
#       8
#     2   2   2   2   2   2   2   2
#     4  12  25  42  64  93 130 172 211 258 319 378
#     4  10  22  40  67  93 123 164 216 262 314 383
#     4  10  22  40  64  96 122 168 217 257 311 376
#     4  11  23  42  64  95 126 161 210 269 321 371
#     4  11  24  43  62  91 132 171 209 252 322 370
#     4  12  25  41  65  91 132 169 218 256 312 375
#     4  10  24  40  62  90 135 164 207 267 309 363
#     4  10  22  40  64  95 127 156 206 275 327 362
#
# _framework density 23.217881999999999
#
# number of rings (size 3 to 8) (size 9 to 14) (size 15 to 20)
#    0.000    1.250    1.250    4.875    3.500    9.500 
#    0.000    1.250    0.000    0.000    0.000    0.000 
#    0.000    0.000    0.000    0.000    0.000    0.000 
#
# Total GULP energy -198356.600700 kJ/mol
# GULP energy per Si atom -12397.287544 kJ/mol
# Density = 2.316504 g / cm^3
# Si number density = 23.217882 Si / 1000 Ang^3
#
#
#
# Elastic Constant Matrix: (Units=GPa)
#
#
# Indices 1 2 3 4 5 6 
#
# 1 77.8969 15.1214 10.6311 -4.6127 6.9389 -2.3322
# 2 15.1214 121.2388 30.6675 17.1594 -4.7496 -19.3306
# 3 10.6311 30.6675 114.2442 8.3081 1.1500 -2.9000
# 4 -4.6127 17.1594 8.3081 27.2810 -1.4220 2.0729
# 5 6.9389 -4.7496 1.1500 -1.4220 35.2764 4.4307
# 6 -2.3322 -19.3306 -2.9000 2.0729 4.4307 22.9680
#
#
#
# Elastic Compliance Matrix: (Units=1/GPa)
#
#
# Indices 1 2 3 4 5 6 
#
# 1 0.013866 -0.002211 -0.000963 0.003913 -0.002787 -0.000390
# 2 -0.002211 0.011804 -0.002140 -0.007884 0.000514 0.010052
# 3 -0.000963 -0.002140 0.009534 -0.001708 -0.000421 -0.000459
# 4 0.003913 -0.007884 -0.001708 0.043674 0.001323 -0.010650
# 5 -0.002787 0.000514 -0.000421 0.001323 0.029756 -0.005763
# 6 -0.000390 0.010052 -0.000459 -0.010650 -0.005763 0.053975
#
#
# Mechanical properties :
#
#
# Convention : Reuss Voigt Hill
#
# Bulk Modulus (GPa) = 40.68901 47.35776 44.02339
# Shear Modulus (GPa) = 27.55904 34.23574 30.89739
#
# Velocity S-wave (km/s) = 3.44899 3.84414 3.65191
# Velocity P-wave (km/s) = 5.78131 6.33598 6.06499
#
# Compressibility (1/GPa) = 0.02457666
#
# Stress axis : x y z
#
# Youngs Moduli (GPa) = 72.11654 84.71807 104.88897
#
# Poissons Ratio (x) = 0.18731 0.10103
# Poissons Ratio (y) = 0.15945 0.22441
# Poissons Ratio (z) = 0.06947 0.18126
#
# Static dielectric constant tensor:
#      x y z
#    x 4.308250 -0.207970 0.620650 
#    y -0.207970 4.179230 -0.006930 
#    z 0.620650 -0.006930 4.610480 
# 
# 
# High freq. dielectric constant tensor:
#      x y z
#    x 1.915380 -0.012920 0.004820 
#    y -0.012920 1.906260 0.015640 
#    z 0.004820 0.015640 1.917990 
# 
# From -- ./inp_files/468018.got.cif
#   From: 2010.06.25/outbox.cif.g09.slc.cpg/sg2_235_cif.got.tgz:468018.got - 2010.06.27 13:26:56.
