data_PCOD8018597
_publ_section_title
;
Structure prediction by ZEFSAII (Michael W. Deem and Ramdas Pophale) SiO2 
 PCOD8018597
Probable space group: P -1
;
_chemical_formula_sum "Si O2"
_cell_formula_units_Z 16
_cell_length_a 21.032391
_cell_length_b 8.883585
_cell_length_c 8.955977
_cell_angle_alpha 61.457580
_cell_angle_beta 151.160629
_cell_angle_gamma 113.961960
_cell_volume 708.752275
_symmetry_space_group_name_H-M "P -1"
_symmetry_group_IT_number 2
_symmetry_cell_setting 'triclinic'
loop_
_space_group_symop_operation_xyz
x,y,z
-x,-y,-z
loop_
_atom_site_type_symbol
_atom_site_label
_atom_site_fract_x
_atom_site_fract_y
_atom_site_fract_z
Si Si1 0.862971 0.034438 0.781713
Si Si2 0.294346 0.421693 0.880415
Si Si3 0.398319 0.003430 0.921520
Si Si4 0.891389 0.732993 0.197391
Si Si5 0.852167 0.403129 0.083724
Si Si6 0.611160 0.350093 0.797563
Si Si7 0.495650 0.687659 0.832474
Si Si8 0.212973 0.646987 0.348353
O O1 0.749088 0.007736 0.438654
O O2 0.864777 0.224724 0.762274
O O3 0.847526 0.911858 0.950597
O O4 0.000000 0.000000 0.000000
O O5 0.201646 0.292939 0.837861
O O6 0.241285 0.471532 0.582615
O O7 0.299655 0.598739 0.900226
O O8 0.441294 0.330016 0.198170
O O9 0.437612 0.841415 0.185680
O O10 0.500000 0.000000 0.000000
O O11 0.412480 0.179565 0.956199
O O12 0.876777 0.591690 0.106076
O O13 0.043002 0.732469 0.564204
O O14 0.702390 0.352061 0.837137
O O15 0.872733 0.404533 0.946974
O O16 0.500000 0.500000 0.500000
O O17 0.342388 0.744146 0.504986
O O18 0.500000 0.500000 0.000000
#
# Coordination Sequence:
#
# PCOD8018597 Si02
#       8
#     2   2   2   2   2   2   2   2
#     4  12  27  45  70 102 144 187 234 289 357 424
#     4  10  22  42  66 100 137 177 233 290 341 422
#     4  12  24  43  70 104 141 189 237 292 355 424
#     4  10  25  44  68  99 136 183 242 277 352 427
#     4  10  24  43  69  96 141 183 231 292 348 419
#     4  11  23  42  69 101 141 186 229 285 362 412
#     4  10  22  40  68 103 141 177 235 293 351 418
#     4  11  23  44  66  98 141 177 232 293 350 412
#
# _framework density 22.574884000000001
#
# number of rings (size 3 to 8) (size 9 to 14) (size 15 to 20)
#    0.000    1.250    2.500    2.250   10.500    3.000 
#    0.000    1.875    0.000    0.000    0.000    0.000 
#    0.000    0.000    0.000    0.000    0.000    0.000 
#
# Total GULP energy -198368.615933 kJ/mol
# GULP energy per Si atom -12398.038496 kJ/mol
# Density = 2.252350 g / cm^3
# Si number density = 22.574884 Si / 1000 Ang^3
#
#
#
# Elastic Constant Matrix: (Units=GPa)
#
#
# Indices 1 2 3 4 5 6 
#
# 1 136.3042 39.1943 28.6483 2.2565 15.8780 -1.5677
# 2 39.1943 103.0570 29.8630 -10.6691 -2.0234 10.0010
# 3 28.6483 29.8630 85.4425 -7.0831 8.7963 8.8518
# 4 2.2565 -10.6691 -7.0831 31.6840 -0.0835 -5.6615
# 5 15.8780 -2.0234 8.7963 -0.0835 47.4230 -0.5017
# 6 -1.5677 10.0010 8.8518 -5.6615 -0.5017 36.6940
#
#
#
# Elastic Compliance Matrix: (Units=1/GPa)
#
#
# Indices 1 2 3 4 5 6 
#
# 1 0.009056 -0.003284 -0.001906 -0.001933 -0.002807 0.001405
# 2 -0.003284 0.012416 -0.002948 0.003357 0.002158 -0.002266
# 3 -0.001906 -0.002948 0.013990 0.001837 -0.002105 -0.002398
# 4 -0.001933 0.003357 0.001837 0.033921 0.000550 0.003801
# 5 -0.002807 0.002158 -0.002105 0.000550 0.022512 0.000192
# 6 0.001405 -0.002266 -0.002398 0.003801 0.000192 0.029098
#
#
# Mechanical properties :
#
#
# Convention : Reuss Voigt Hill
#
# Bulk Modulus (GPa) = 52.11361 57.80165 54.95763
# Shear Modulus (GPa) = 34.80338 38.30008 36.55173
#
# Velocity S-wave (km/s) = 3.93069 4.12342 4.02821
# Velocity P-wave (km/s) = 6.61327 6.95199 6.78474
#
# Compressibility (1/GPa) = 0.01918885
#
# Stress axis : x y z
#
# Youngs Moduli (GPa) = 110.41799 80.54032 71.47752
#
# Poissons Ratio (x) = 0.26447 0.13621
# Poissons Ratio (y) = 0.36258 0.21069
# Poissons Ratio (z) = 0.21042 0.23741
#
# Static dielectric constant tensor:
#      x y z
#    x 4.324310 -0.029940 0.217200 
#    y -0.029940 3.879940 -0.150350 
#    z 0.217200 -0.150350 4.025290 
# 
# 
# High freq. dielectric constant tensor:
#      x y z
#    x 1.907480 -0.003490 0.003090 
#    y -0.003490 1.871520 -0.001630 
#    z 0.003090 -0.001630 1.890420 
# 
# From -- ./inp_files/343475.got.cif
#   From: 2010.06.25/outbox.cif.g09.slc.cpg/sg2_172_cif.got.tgz:343475.got - 2010.06.27 13:26:56.
