data_PCOD8018206
_publ_section_title
;
Structure prediction by ZEFSAII (Michael W. Deem and Ramdas Pophale) SiO2 
 PCOD8018206
Probable space group: P -1
;
_chemical_formula_sum "Si O2"
_cell_formula_units_Z 14
_cell_length_a 12.013265
_cell_length_b 6.278940
_cell_length_c 21.089664
_cell_angle_alpha 128.352754
_cell_angle_beta 150.706439
_cell_angle_gamma 57.347374
_cell_volume 610.385852
_symmetry_space_group_name_H-M "P -1"
_symmetry_group_IT_number 2
_symmetry_cell_setting 'triclinic'
loop_
_space_group_symop_operation_xyz
x,y,z
-x,-y,-z
loop_
_atom_site_type_symbol
_atom_site_label
_atom_site_fract_x
_atom_site_fract_y
_atom_site_fract_z
Si Si1 0.129280 0.175612 0.233798
Si Si2 0.457783 0.114369 0.568705
Si Si3 0.923240 0.691841 0.903897
Si Si4 0.755020 0.741453 0.962714
Si Si5 0.747056 0.364860 0.292270
Si Si6 0.134473 0.489894 0.421803
Si Si7 0.120600 0.078709 0.494776
O O1 0.181157 0.344001 0.225446
O O2 0.162082 0.399227 0.346025
O O3 0.306015 0.921576 0.282171
O O4 0.881036 0.033768 0.085100
O O5 0.358412 0.418284 0.562335
O O6 0.255217 0.962625 0.478276
O O7 0.500000 0.000000 0.500000
O O8 0.750704 0.644031 0.868465
O O9 0.131185 0.484634 0.977674
O O10 0.000000 0.000000 0.000000
O O11 0.497521 0.773415 0.865439
O O12 0.716122 0.685450 0.351923
O O13 0.908183 0.333139 0.304910
O O14 0.873521 0.206400 0.382764
O O15 0.090337 0.809460 0.472489
#
# Coordination Sequence:
#
# PCOD8018206 Si02
#       7
#     2   2   2   2   2   2   2
#     4  10  22  40  63  96 124 162 203 253 320 364
#     4   9  21  39  61  94 126 157 205 254 314 364
#     4   9  21  38  59  93 122 162 205 245 312 368
#     4  10  22  41  62  91 127 160 202 264 303 367
#     4  10  23  42  61  90 123 163 213 252 309 361
#     4  10  22  42  64  89 126 165 210 251 304 374
#     4  10  22  41  62  89 120 168 209 257 302 362
#
# _framework density 22.936313999999999
#
# number of rings (size 3 to 8) (size 9 to 14) (size 15 to 20)
#    0.000    2.286    0.000    0.429    6.000    9.714 
#    5.143    1.429    0.000    0.000    0.000    0.000 
#    0.000    0.000    0.000    0.000    0.000    0.000 
#
# Total GULP energy -173437.465650 kJ/mol
# GULP energy per Si atom -12388.390404 kJ/mol
# Density = 2.288411 g / cm^3
# Si number density = 22.936314 Si / 1000 Ang^3
#
#
#
# Elastic Constant Matrix: (Units=GPa)
#
#
# Indices 1 2 3 4 5 6 
#
# 1 80.3182 22.9675 34.5596 -23.6784 -4.0451 7.7326
# 2 22.9675 122.1421 41.3626 -14.6898 -3.5632 8.0585
# 3 34.5596 41.3626 99.9480 -18.9431 8.0573 6.3756
# 4 -23.6784 -14.6898 -18.9431 28.3906 4.3465 -2.4874
# 5 -4.0451 -3.5632 8.0573 4.3465 41.5063 -8.8555
# 6 7.7326 8.0585 6.3756 -2.4874 -8.8555 32.7215
#
#
#
# Elastic Compliance Matrix: (Units=1/GPa)
#
#
# Indices 1 2 3 4 5 6 
#
# 1 0.017947 -0.000537 -0.003620 0.011971 0.000658 -0.002315
# 2 -0.000537 0.009826 -0.003499 0.002044 0.001004 -0.001184
# 3 -0.003620 -0.003499 0.014137 0.005105 -0.004320 -0.001818
# 4 0.011971 0.002044 0.005105 0.050318 -0.005333 -0.001946
# 5 0.000658 0.001004 -0.004320 -0.005333 0.027219 0.007400
# 6 -0.002315 -0.001184 -0.001818 -0.001946 0.007400 0.033609
#
#
# Mechanical properties :
#
#
# Convention : Reuss Voigt Hill
#
# Bulk Modulus (GPa) = 37.59594 55.57642 46.58618
# Shear Modulus (GPa) = 28.21155 34.09158 31.15157
#
# Velocity S-wave (km/s) = 3.51093 3.85951 3.68934
# Velocity P-wave (km/s) = 5.73259 6.64413 6.20512
#
# Compressibility (1/GPa) = 0.02659862
#
# Stress axis : x y z
#
# Youngs Moduli (GPa) = 55.71992 101.76781 70.73864
#
# Poissons Ratio (x) = 0.05467 0.25605
# Poissons Ratio (y) = 0.02993 0.24749
# Poissons Ratio (z) = 0.20169 0.35605
#
# Static dielectric constant tensor:
#      x y z
#    x 4.618570 0.174170 -0.115200 
#    y 0.174170 4.218860 -0.493010 
#    z -0.115200 -0.493010 3.936210 
# 
# 
# High freq. dielectric constant tensor:
#      x y z
#    x 1.922600 0.009680 -0.000420 
#    y 0.009680 1.907640 -0.017470 
#    z -0.000420 -0.017470 1.872720 
# 
# From -- ./inp_files/118830.got.cif
#   From: 2010.06.25/outbox.cif.g09.slc.cpg/sg2_60_cif.got.tgz:118830.got - 2010.06.27 13:26:56.
