data_PCOD8018876
_publ_section_title
;
Structure prediction by ZEFSAII (Michael W. Deem and Ramdas Pophale) SiO2 
 PCOD8018876
Probable space group: P -1
;
_chemical_formula_sum "Si O2"
_cell_formula_units_Z 16
_cell_length_a 14.815981
_cell_length_b 15.841886
_cell_length_c 9.434007
_cell_angle_alpha 145.799601
_cell_angle_beta 75.075494
_cell_angle_gamma 127.750515
_cell_volume 815.433626
_symmetry_space_group_name_H-M "P -1"
_symmetry_group_IT_number 2
_symmetry_cell_setting 'triclinic'
loop_
_space_group_symop_operation_xyz
x,y,z
-x,-y,-z
loop_
_atom_site_type_symbol
_atom_site_label
_atom_site_fract_x
_atom_site_fract_y
_atom_site_fract_z
Si Si1 0.895217 0.870369 0.235050
Si Si2 0.334472 0.898040 0.296193
Si Si3 0.141779 0.514576 0.345368
Si Si4 0.389433 0.275640 0.147080
Si Si5 0.077260 0.961403 0.834089
Si Si6 0.376756 0.288322 0.842728
Si Si7 0.613336 0.070074 0.354614
Si Si8 0.080314 0.520808 0.690978
O O1 0.749220 0.749247 0.186611
O O2 0.942816 0.041063 0.329671
O O3 0.885231 0.693842 0.927972
O O4 0.000000 0.000000 0.500000
O O5 0.326297 0.859618 0.413659
O O6 0.339754 0.079928 0.511220
O O7 0.464794 0.971948 0.274738
O O8 0.196280 0.666358 0.965400
O O9 0.284721 0.715253 0.487304
O O10 0.153067 0.587975 0.602907
O O11 0.013592 0.441249 0.215786
O O12 0.500000 0.500000 0.500000
O O13 0.422578 0.336366 0.053489
O O14 0.238189 0.158532 0.083588
O O15 0.401155 0.114345 0.958145
O O16 0.020142 0.734154 0.586697
O O17 0.000000 0.000000 0.000000
O O18 0.500000 0.500000 0.000000
#
# Coordination Sequence:
#
# PCOD8018876 Si02
#       8
#     2   2   2   2   2   2   2   2
#     4  11  24  39  63  93 122 161 205 249 310 359
#     4  10  23  40  63  90 120 167 203 249 315 358
#     4  11  23  41  61  92 127 157 206 258 295 370
#     4  10  23  40  63  90 121 164 204 248 308 361
#     4  11  23  43  61  92 129 158 206 253 300 374
#     4  10  22  42  59  89 126 155 206 255 296 369
#     4  10  22  41  61  91 124 155 212 253 295 372
#     4  11  24  41  64  91 127 163 202 252 312 361
#
# _framework density 19.621462000000001
#
# number of rings (size 3 to 8) (size 9 to 14) (size 15 to 20)
#    0.000    1.500    2.500    1.500    3.500    3.000 
#    0.000    0.000    0.000    0.000    0.000    0.000 
#    0.000    0.000    0.000    0.000    0.000    0.000 
#
# Total GULP energy -198494.279404 kJ/mol
# GULP energy per Si atom -12405.892463 kJ/mol
# Density = 1.957680 g / cm^3
# Si number density = 19.621462 Si / 1000 Ang^3
#
#
#
# Elastic Constant Matrix: (Units=GPa)
#
#
# Indices 1 2 3 4 5 6 
#
# 1 121.5502 29.5080 37.0686 -1.5825 -2.0613 12.8651
# 2 29.5080 107.5938 29.1008 20.5916 6.6195 8.3444
# 3 37.0686 29.1008 101.3640 -0.8794 15.3869 1.1900
# 4 -1.5825 20.5916 -0.8794 25.5877 -2.0137 -4.0407
# 5 -2.0613 6.6195 15.3869 -2.0137 35.5010 -1.8820
# 6 12.8651 8.3444 1.1900 -4.0407 -1.8820 32.4293
#
#
#
# Elastic Compliance Matrix: (Units=1/GPa)
#
#
# Indices 1 2 3 4 5 6 
#
# 1 0.010175 -0.002164 -0.003417 0.001976 0.002430 -0.002967
# 2 -0.002164 0.013345 -0.002744 -0.011794 -0.002310 -0.004078
# 3 -0.003417 -0.002744 0.012656 0.002293 -0.004958 0.001595
# 4 0.001976 -0.011794 0.002293 0.050518 0.004648 0.008731
# 5 0.002430 -0.002310 -0.004958 0.004648 0.031269 0.002206
# 6 -0.002967 -0.004078 0.001595 0.008731 0.002206 0.034220
#
#
# Mechanical properties :
#
#
# Convention : Reuss Voigt Hill
#
# Bulk Modulus (GPa) = 51.20852 57.98477 54.59664
# Shear Modulus (GPa) = 28.51559 34.35897 31.43728
#
# Velocity S-wave (km/s) = 3.81633 4.18914 4.00708
# Velocity P-wave (km/s) = 6.75086 7.28110 7.02099
#
# Compressibility (1/GPa) = 0.01952800
#
# Stress axis : x y z
#
# Youngs Moduli (GPa) = 98.27632 74.93270 79.01165
#
# Poissons Ratio (x) = 0.16216 0.26996
# Poissons Ratio (y) = 0.21268 0.21679
# Poissons Ratio (z) = 0.33578 0.20559
#
# Static dielectric constant tensor:
#      x y z
#    x 3.995040 0.130780 -0.248820 
#    y 0.130780 3.715680 -0.037500 
#    z -0.248820 -0.037500 3.502950 
# 
# 
# High freq. dielectric constant tensor:
#      x y z
#    x 1.784780 0.005770 -0.007020 
#    y 0.005770 1.774250 0.004640 
#    z -0.007020 0.004640 1.757610 
# 
# From -- ./inp_files/189451.got.cif
#   From: 2010.06.25/outbox.cif.g09.slc.cpg/sg2_95_cif.got.tgz:189451.got - 2010.06.27 13:26:56.
