data_PCOD8018982
_publ_section_title
;
Structure prediction by ZEFSAII (Michael W. Deem and Ramdas Pophale) SiO2 
 PCOD8018982
Probable space group: P -1
;
_chemical_formula_sum "Si O2"
_cell_formula_units_Z 14
_cell_length_a 11.742034
_cell_length_b 7.135684
_cell_length_c 11.247905
_cell_angle_alpha 61.002538
_cell_angle_beta 109.677050
_cell_angle_gamma 72.670369
_cell_volume 643.102461
_symmetry_space_group_name_H-M "P -1"
_symmetry_group_IT_number 2
_symmetry_cell_setting 'triclinic'
loop_
_space_group_symop_operation_xyz
x,y,z
-x,-y,-z
loop_
_atom_site_type_symbol
_atom_site_label
_atom_site_fract_x
_atom_site_fract_y
_atom_site_fract_z
Si Si1 0.893320 0.295242 0.529239
Si Si2 0.948007 0.576239 0.276816
Si Si3 0.630501 0.919138 0.978183
Si Si4 0.063028 0.219103 0.215294
Si Si5 0.581771 0.578217 0.374947
Si Si6 0.557378 0.705907 0.595246
Si Si7 0.766830 0.602709 0.899305
O O1 0.970679 0.330310 0.433745
O O2 0.724384 0.528339 0.375301
O O3 0.961971 0.321161 0.665164
O O4 0.898692 0.033075 0.621165
O O5 0.021061 0.457999 0.213326
O O6 0.779611 0.821949 0.131036
O O7 0.670875 0.700148 0.958675
O O8 0.570580 0.176587 0.800639
O O9 0.500000 0.000000 0.000000
O O10 0.196080 0.186002 0.193660
O O11 0.917170 0.321979 0.055449
O O12 0.616821 0.600226 0.517295
O O13 0.574125 0.331842 0.421211
O O14 0.682030 0.551939 0.785363
O O15 0.500000 0.000000 0.500000
#
# Coordination Sequence:
#
# PCOD8018982 Si02
#       7
#     2   2   2   2   2   2   2
#     4  11  22  40  64  92 124 171 205 260 309 376
#     4  10  23  41  64  90 126 167 214 250 314 372
#     4  11  22  44  64  93 131 164 206 268 311 376
#     4  10  22  41  63  93 126 164 212 260 308 368
#     4  11  24  38  67  96 126 165 209 257 322 368
#     4  11  22  40  62  94 128 162 208 258 313 377
#     4  10  22  42  65  93 128 168 208 262 314 372
#
# _framework density 21.769470999999999
#
# number of rings (size 3 to 8) (size 9 to 14) (size 15 to 20)
#    0.000    1.429    2.857    2.143    4.000    0.000 
#    0.000    5.000    0.000    0.000    0.000    0.000 
#    0.000    0.000    0.000    0.000    0.000    0.000 
#
# Total GULP energy -173456.664865 kJ/mol
# GULP energy per Si atom -12389.761776 kJ/mol
# Density = 2.171992 g / cm^3
# Si number density = 21.769471 Si / 1000 Ang^3
#
#
#
# Elastic Constant Matrix: (Units=GPa)
#
#
# Indices 1 2 3 4 5 6 
#
# 1 89.6792 39.3755 16.3719 5.0397 5.9959 -10.7775
# 2 39.3755 84.9915 32.9969 14.7976 13.7662 5.1504
# 3 16.3719 32.9969 103.8169 4.9274 14.4303 2.2079
# 4 5.0397 14.7976 4.9274 29.5031 -0.1435 -1.0904
# 5 5.9959 13.7662 14.4303 -0.1435 30.7736 2.3138
# 6 -10.7775 5.1504 2.2079 -1.0904 2.3138 21.4531
#
#
#
# Elastic Compliance Matrix: (Units=1/GPa)
#
#
# Indices 1 2 3 4 5 6 
#
# 1 0.015904 -0.008205 -0.000188 0.001802 -0.000090 0.010080
# 2 -0.008205 0.019747 -0.003734 -0.008212 -0.004893 -0.008368
# 3 -0.000188 -0.003734 0.011352 -0.000007 -0.003618 0.000024
# 4 0.001802 -0.008212 -0.000007 0.037887 0.003167 0.004462
# 5 -0.000090 -0.004893 -0.003618 0.003167 0.036584 -0.002283
# 6 0.010080 -0.008368 0.000024 0.004462 -0.002283 0.054157
#
#
# Mechanical properties :
#
#
# Convention : Reuss Voigt Hill
#
# Bulk Modulus (GPa) = 43.96117 50.66403 47.31260
# Shear Modulus (GPa) = 24.10011 28.99550 26.54781
#
# Velocity S-wave (km/s) = 3.33086 3.65353 3.49592
# Velocity P-wave (km/s) = 5.91867 6.41258 6.17057
#
# Compressibility (1/GPa) = 0.02274735
#
# Stress axis : x y z
#
# Youngs Moduli (GPa) = 62.87712 50.64181 88.09367
#
# Poissons Ratio (x) = 0.41554 0.01652
# Poissons Ratio (y) = 0.51594 0.32898
# Poissons Ratio (z) = 0.01179 0.18912
#
# Static dielectric constant tensor:
#      x y z
#    x 3.978340 0.136940 0.361800 
#    y 0.136940 3.893660 0.573340 
#    z 0.361800 0.573340 4.784230 
# 
# 
# High freq. dielectric constant tensor:
#      x y z
#    x 1.852960 -0.006770 0.005950 
#    y -0.006770 1.830350 0.007530 
#    z 0.005950 0.007530 1.876810 
# 
# From -- ./inp_files/65795.got.cif
#   From: 2010.06.25/outbox.cif.g09.slc.cpg/sg2_33_cif.got.tgz:65795.got - 2010.06.27 13:26:56.
