data_PCOD8018436
_publ_section_title
;
Structure prediction by ZEFSAII (Michael W. Deem and Ramdas Pophale) SiO2 
 PCOD8018436
Probable space group: P -1
;
_chemical_formula_sum "Si O2"
_cell_formula_units_Z 16
_cell_length_a 16.478330
_cell_length_b 8.298769
_cell_length_c 14.449355
_cell_angle_alpha 115.345152
_cell_angle_beta 153.583088
_cell_angle_gamma 71.798675
_cell_volume 781.991001
_symmetry_space_group_name_H-M "P -1"
_symmetry_group_IT_number 2
_symmetry_cell_setting 'triclinic'
loop_
_space_group_symop_operation_xyz
x,y,z
-x,-y,-z
loop_
_atom_site_type_symbol
_atom_site_label
_atom_site_fract_x
_atom_site_fract_y
_atom_site_fract_z
Si Si1 0.115383 0.418444 0.674209
Si Si2 0.843052 0.962173 0.091741
Si Si3 0.783208 0.877197 0.421810
Si Si4 0.403529 0.762009 0.105124
Si Si5 0.031990 0.443085 0.122615
Si Si6 0.719233 0.837606 0.734666
Si Si7 0.661269 0.219483 0.743646
Si Si8 0.937433 0.257297 0.633380
O O1 0.190673 0.246081 0.669527
O O2 0.970999 0.357575 0.594847
O O3 0.000000 0.500000 0.500000
O O4 0.291045 0.563270 0.921371
O O5 0.788003 0.860454 0.915097
O O6 0.693441 0.081421 0.000974
O O7 0.868472 0.807467 0.154375
O O8 0.041787 0.101056 0.322496
O O9 0.605712 0.783068 0.273731
O O10 0.774584 0.078259 0.420554
O O11 0.419693 0.793490 0.238850
O O12 0.156707 0.288039 0.220779
O O13 0.128101 0.613014 0.323668
O O14 0.000000 0.500000 0.000000
O O15 0.831703 0.381268 0.948659
O O16 0.501242 0.746349 0.484089
O O17 0.734369 0.032567 0.747243
#
# Coordination Sequence:
#
# PCOD8018436 Si02
#       8
#     2   2   2   2   2   2   2   2
#     4  12  22  43  71  95 127 171 219 276 329 376
#     4   9  21  42  64  90 136 170 209 264 331 381
#     4  10  23  42  67  93 128 175 216 265 329 394
#     4  11  22  42  68  96 128 170 223 272 321 388
#     4  12  22  41  64  95 133 176 219 260 325 395
#     4  10  22  40  66  92 129 177 214 267 320 389
#     4  10  24  40  62  99 134 167 223 271 323 376
#     4  10  23  43  63  96 136 172 209 272 329 388
#
# _framework density 20.460594
#
# number of rings (size 3 to 8) (size 9 to 14) (size 15 to 20)
#    0.750    0.750    3.750    1.125    0.000    9.500 
#    2.250    3.750    0.000    0.000    0.000    0.000 
#    0.000    0.000    0.000    0.000    0.000    0.000 
#
# Total GULP energy -198331.818033 kJ/mol
# GULP energy per Si atom -12395.738627 kJ/mol
# Density = 2.041402 g / cm^3
# Si number density = 20.460594 Si / 1000 Ang^3
#
#
#
# Elastic Constant Matrix: (Units=GPa)
#
#
# Indices 1 2 3 4 5 6 
#
# 1 110.5036 49.6513 28.2555 9.9181 0.0744 -4.1631
# 2 49.6513 87.7579 36.9476 18.1001 -10.3103 -16.7544
# 3 28.2555 36.9476 89.2194 8.6369 -1.8673 -4.5316
# 4 9.9181 18.1001 8.6369 36.2475 -0.3619 -8.8873
# 5 0.0744 -10.3103 -1.8673 -0.3619 30.0392 3.8845
# 6 -4.1631 -16.7544 -4.5316 -8.8873 3.8845 38.7364
#
#
#
# Elastic Compliance Matrix: (Units=1/GPa)
#
#
# Indices 1 2 3 4 5 6 
#
# 1 0.012510 -0.007206 -0.001112 0.000009 -0.002358 -0.001664
# 2 -0.007206 0.020650 -0.005313 -0.005630 0.005977 0.005644
# 3 -0.001112 -0.005313 0.013751 -0.000535 -0.000863 -0.000845
# 4 0.000009 -0.005630 -0.000535 0.031730 -0.002231 0.005007
# 5 -0.002358 0.005977 -0.000863 -0.002231 0.035505 -0.001841
# 6 -0.001664 0.005644 -0.000845 0.005007 -0.001841 0.029312
#
#
# Mechanical properties :
#
#
# Convention : Reuss Voigt Hill
#
# Bulk Modulus (GPa) = 50.89265 57.46553 54.17909
# Shear Modulus (GPa) = 28.20560 32.51306 30.35933
#
# Velocity S-wave (km/s) = 3.71689 3.99062 3.85619
# Velocity P-wave (km/s) = 6.58391 7.02712 6.80912
#
# Compressibility (1/GPa) = 0.01964920
#
# Stress axis : x y z
#
# Youngs Moduli (GPa) = 79.93745 48.42685 72.71934
#
# Poissons Ratio (x) = 0.34896 0.08089
# Poissons Ratio (y) = 0.57602 0.38633
# Poissons Ratio (z) = 0.08892 0.25727
#
# Static dielectric constant tensor:
#      x y z
#    x 3.433180 -0.147960 -0.152450 
#    y -0.147960 3.876620 0.117510 
#    z -0.152450 0.117510 3.706730 
# 
# 
# High freq. dielectric constant tensor:
#      x y z
#    x 1.783030 -0.011410 -0.013220 
#    y -0.011410 1.809440 0.011230 
#    z -0.013220 0.011230 1.796180 
# 
# From -- ./inp_files/529004.got.cif
#   From: 2010.06.25/outbox.cif.g09.slc.cpg/sg2_265_cif.got.tgz:529004.got - 2010.06.27 13:26:56.
