data_PCOD8018826
_publ_section_title
;
Structure prediction by ZEFSAII (Michael W. Deem and Ramdas Pophale) SiO2 
 PCOD8018826
Probable space group: P -1
;
_chemical_formula_sum "Si O2"
_cell_formula_units_Z 14
_cell_length_a 9.950673
_cell_length_b 8.530288
_cell_length_c 10.023584
_cell_angle_alpha 126.006338
_cell_angle_beta 112.240248
_cell_angle_gamma 48.199726
_cell_volume 512.964497
_symmetry_space_group_name_H-M "P -1"
_symmetry_group_IT_number 2
_symmetry_cell_setting 'triclinic'
loop_
_space_group_symop_operation_xyz
x,y,z
-x,-y,-z
loop_
_atom_site_type_symbol
_atom_site_label
_atom_site_fract_x
_atom_site_fract_y
_atom_site_fract_z
Si Si1 0.002311 0.235595 0.628752
Si Si2 0.811635 0.256479 0.347715
Si Si3 0.664311 0.606753 0.036476
Si Si4 0.033176 0.145513 0.982569
Si Si5 0.611418 0.144430 0.398066
Si Si6 0.488802 0.361691 0.745185
Si Si7 0.301541 0.255037 0.148715
O O1 0.931261 0.334317 0.498447
O O2 0.857627 0.455408 0.779055
O O3 0.209353 0.137896 0.687153
O O4 0.000000 0.000000 0.500000
O O5 0.658058 0.311781 0.426150
O O6 0.711364 0.403815 0.250720
O O7 0.937187 0.971642 0.212514
O O8 0.616605 0.431765 0.876087
O O9 0.612927 0.803851 0.999670
O O10 0.546997 0.751504 0.197673
O O11 0.876037 0.429243 0.062888
O O12 0.216501 0.112643 0.075231
O O13 0.000000 0.000000 0.000000
O O14 0.441450 0.184578 0.283014
O O15 0.424515 0.811662 0.435740
#
# Coordination Sequence:
#
# PCOD8018826 Si02
#       7
#     2   2   2   2   2   2   2
#     4  10  22  40  75 112 146 194 248 296 367 445
#     4  11  20  42  73 105 145 197 246 293 366 442
#     4  11  23  42  69 109 151 190 241 301 374 437
#     4  12  27  48  71 107 147 198 254 314 375 437
#     4  11  22  42  74 112 149 192 253 297 367 446
#     4  11  21  40  73 108 148 196 237 301 366 443
#     4  12  25  47  77 109 152 193 249 315 367 438
#
# _framework density 27.292337
#
# number of rings (size 3 to 8) (size 9 to 14) (size 15 to 20)
#    0.000    0.857    4.286    5.143    0.000    0.571 
#    2.571    2.857    0.000    8.571    0.000    0.000 
#    0.000    0.000    0.000    0.000    0.000    0.000 
#
# Total GULP energy -173543.329717 kJ/mol
# GULP energy per Si atom -12395.952123 kJ/mol
# Density = 2.723022 g / cm^3
# Si number density = 27.292337 Si / 1000 Ang^3
#
#
#
# Elastic Constant Matrix: (Units=GPa)
#
#
# Indices 1 2 3 4 5 6 
#
# 1 158.8807 42.7827 57.7851 -31.6686 -14.0256 5.7802
# 2 42.7827 86.8190 21.1616 -17.7829 -6.6946 -11.0329
# 3 57.7851 21.1616 111.9162 -24.6790 -38.1755 5.7059
# 4 -31.6686 -17.7829 -24.6790 42.5880 -9.3499 10.9518
# 5 -14.0256 -6.6946 -38.1755 -9.3499 45.4902 -6.8434
# 6 5.7802 -11.0329 5.7059 10.9518 -6.8434 38.4829
#
#
#
# Elastic Compliance Matrix: (Units=1/GPa)
#
#
# Indices 1 2 3 4 5 6 
#
# 1 0.009330 -0.003279 -0.002714 0.004972 0.000652 -0.003238
# 2 -0.003279 0.014463 0.000483 0.003454 0.002848 0.004091
# 3 -0.002714 0.000483 0.019954 0.014654 0.018496 -0.003294
# 4 0.004972 0.003454 0.014654 0.044686 0.021906 -0.010751
# 5 0.000652 0.002848 0.018496 0.021906 0.042522 -0.000696
# 6 -0.003238 0.004091 -0.003294 -0.010751 -0.000696 0.031069
#
#
# Mechanical properties :
#
#
# Convention : Reuss Voigt Hill
#
# Bulk Modulus (GPa) = 30.55546 66.78606 48.67076
# Shear Modulus (GPa) = 27.18068 41.03798 34.10933
#
# Velocity S-wave (km/s) = 3.15923 3.88189 3.53905
# Velocity P-wave (km/s) = 4.95253 6.67951 5.87977
#
# Compressibility (1/GPa) = 0.03272738
#
# Stress axis : x y z
#
# Youngs Moduli (GPa) = 107.17614 69.13990 50.11648
#
# Poissons Ratio (x) = 0.22673 0.13600
# Poissons Ratio (y) = 0.35146 -0.02420
# Poissons Ratio (z) = 0.29084 -0.03339
#
# Static dielectric constant tensor:
#      x y z
#    x 4.853590 -0.445410 -0.126750 
#    y -0.445410 5.380270 -0.464460 
#    z -0.126750 -0.464460 5.356320 
# 
# 
# High freq. dielectric constant tensor:
#      x y z
#    x 2.081440 -0.024670 -0.008210 
#    y -0.024670 2.112060 -0.013000 
#    z -0.008210 -0.013000 2.120720 
# 
# From -- ./inp_files/383297.got.cif
#   From: 2010.06.25/outbox.cif.g09.slc.cpg/sg2_192_cif.got.tgz:383297.got - 2010.06.27 13:26:56.
