data_PCOD8018693
_publ_section_title
;
Structure prediction by ZEFSAII (Michael W. Deem and Ramdas Pophale) SiO2 
 PCOD8018693
Probable space group: P -1
;
_chemical_formula_sum "Si O2"
_cell_formula_units_Z 12
_cell_length_a 17.479520
_cell_length_b 11.293606
_cell_length_c 9.598832
_cell_angle_alpha 152.206259
_cell_angle_beta 140.517585
_cell_angle_gamma 38.930360
_cell_volume 532.098168
_symmetry_space_group_name_H-M "P -1"
_symmetry_group_IT_number 2
_symmetry_cell_setting 'triclinic'
loop_
_space_group_symop_operation_xyz
x,y,z
-x,-y,-z
loop_
_atom_site_type_symbol
_atom_site_label
_atom_site_fract_x
_atom_site_fract_y
_atom_site_fract_z
Si Si1 0.070196 0.329863 0.669660
Si Si2 0.513977 0.922279 0.107358
Si Si3 0.362749 0.676344 0.399553
Si Si4 0.905114 0.946901 0.073948
Si Si5 0.763596 0.992911 0.201625
Si Si6 0.256149 0.039533 0.401562
O O1 0.154805 0.262184 0.858281
O O2 0.158605 0.277812 0.602662
O O3 0.980932 0.143639 0.339460
O O4 0.991370 0.640532 0.884221
O O5 0.607171 0.906917 0.355813
O O6 0.558954 0.105386 0.246564
O O7 0.539060 0.618701 0.772334
O O8 0.367219 0.050759 0.081163
O O9 0.268579 0.739805 0.467021
O O10 0.278795 0.756959 0.223544
O O11 0.843798 0.041370 0.235890
O O12 0.792174 0.979202 0.839539
#
# Coordination Sequence:
#
# PCOD8018693 Si02
#       6
#     2   2   2   2   2   2
#     4  11  26  41  66  87 128 170 210 246 302 373
#     4  10  22  40  69  95 117 165 207 257 312 361
#     4   9  22  38  66  93 122 158 209 245 314 366
#     4  12  26  42  62  96 126 167 204 255 312 361
#     4  11  24  42  66  93 131 155 209 263 309 366
#     4   9  24  41  70  88 127 159 215 251 305 374
#
# _framework density 22.552229000000001
#
# number of rings (size 3 to 8) (size 9 to 14) (size 15 to 20)
#    1.000    0.667    0.000    3.000    7.000    4.667 
#    0.000    0.833    0.000    0.000    0.000    0.000 
#    0.000    0.000    0.000    0.000    0.000    0.000 
#
# Total GULP energy -148733.183120 kJ/mol
# GULP energy per Si atom -12394.431927 kJ/mol
# Density = 2.250090 g / cm^3
# Si number density = 22.552229 Si / 1000 Ang^3
#
#
#
# Elastic Constant Matrix: (Units=GPa)
#
#
# Indices 1 2 3 4 5 6 
#
# 1 36.0280 19.1178 16.6743 -7.5874 -0.6856 3.8877
# 2 19.1178 129.5242 48.1913 -6.4597 0.8179 -7.2648
# 3 16.6743 48.1913 86.6437 -13.3475 13.6084 -1.4015
# 4 -7.5874 -6.4597 -13.3475 44.5247 0.2132 4.5521
# 5 -0.6856 0.8179 13.6084 0.2132 34.1261 -11.1325
# 6 3.8877 -7.2648 -1.4015 4.5521 -11.1325 21.5933
#
#
#
# Elastic Compliance Matrix: (Units=1/GPa)
#
#
# Indices 1 2 3 4 5 6 
#
# 1 0.033461 -0.003876 -0.003532 0.005008 -0.000803 -0.009027
# 2 -0.003876 0.010803 -0.006061 -0.001588 0.004189 0.006433
# 3 -0.003532 -0.006061 0.017567 0.004415 -0.008834 -0.005748
# 4 0.005008 -0.001588 0.004415 0.025339 -0.004686 -0.008907
# 5 -0.000803 0.004189 -0.008834 -0.004686 0.040130 0.022657
# 6 -0.009027 0.006433 -0.005748 -0.008907 0.022657 0.063286
#
#
# Mechanical properties :
#
#
# Convention : Reuss Voigt Hill
#
# Bulk Modulus (GPa) = 28.65960 46.68476 37.67218
# Shear Modulus (GPa) = 21.81925 31.26299 26.54112
#
# Velocity S-wave (km/s) = 3.11384 3.72727 3.43428
# Velocity P-wave (km/s) = 5.06593 6.26651 5.69793
#
# Compressibility (1/GPa) = 0.03489232
#
# Stress axis : x y z
#
# Youngs Moduli (GPa) = 29.88533 92.56663 56.92477
#
# Poissons Ratio (x) = 0.35881 0.20106
# Poissons Ratio (y) = 0.11584 0.34503
# Poissons Ratio (z) = 0.10556 0.56106
#
# Static dielectric constant tensor:
#      x y z
#    x 3.781140 -0.125500 0.176450 
#    y -0.125500 4.300870 -0.256110 
#    z 0.176450 -0.256110 3.890850 
# 
# 
# High freq. dielectric constant tensor:
#      x y z
#    x 1.862080 -0.006890 0.015390 
#    y -0.006890 1.919250 -0.019480 
#    z 0.015390 -0.019480 1.882860 
# 
# From -- ./inp_files/79291.got.cif
#   From: 2010.06.25/outbox.cif.g09.slc.cpg/sg2_40_cif.got.tgz:79291.got - 2010.06.27 13:26:56.
