data_PCOD8018255
_publ_section_title
;
Structure prediction by ZEFSAII (Michael W. Deem and Ramdas Pophale) SiO2 
 PCOD8018255
Probable space group: P -1
;
_chemical_formula_sum "Si O2"
_cell_formula_units_Z 16
_cell_length_a 27.433345
_cell_length_b 12.139532
_cell_length_c 6.679523
_cell_angle_alpha 128.946382
_cell_angle_beta 65.432164
_cell_angle_gamma 152.245306
_cell_volume 742.565958
_symmetry_space_group_name_H-M "P -1"
_symmetry_group_IT_number 2
_symmetry_cell_setting 'triclinic'
loop_
_space_group_symop_operation_xyz
x,y,z
-x,-y,-z
loop_
_atom_site_type_symbol
_atom_site_label
_atom_site_fract_x
_atom_site_fract_y
_atom_site_fract_z
Si Si1 0.553019 0.205253 0.834473
Si Si2 0.052215 0.800450 0.442323
Si Si3 0.179793 0.292113 0.499200
Si Si4 0.994869 0.132329 0.040067
Si Si5 0.439651 0.044593 0.229970
Si Si6 0.229320 0.697783 0.067304
Si Si7 0.176621 0.839110 0.089679
Si Si8 0.341278 0.423825 0.273104
O O1 0.636628 0.512754 0.933323
O O2 0.500000 0.000000 0.500000
O O3 0.611288 0.221760 0.896046
O O4 0.469806 0.096930 0.001849
O O5 0.038166 0.807099 0.704552
O O6 0.136014 0.862392 0.345616
O O7 0.102666 0.057334 0.544146
O O8 0.930238 0.484141 0.196874
O O9 0.291919 0.458441 0.473300
O O10 0.218417 0.541756 0.754942
O O11 0.104730 0.113210 0.227082
O O12 0.116149 0.451552 0.106559
O O13 0.000000 0.000000 0.000000
O O14 0.546148 0.344606 0.522919
O O15 0.339172 0.926162 0.281210
O O16 0.251305 0.894179 0.134535
O O17 0.252673 0.090428 0.076029
#
# Coordination Sequence:
#
# PCOD8018255 Si02
#       8
#     2   2   2   2   2   2   2   2
#     4   9  18  39  63  91 118 162 216 260 307 367
#     4  10  22  46  63  91 131 171 216 254 314 390
#     4  11  22  41  67  94 131 164 213 272 310 369
#     4  12  24  38  67 100 125 165 215 263 323 376
#     4  10  22  40  64  92 128 162 212 267 314 368
#     4  12  23  41  65  98 135 167 204 272 324 370
#     4  10  23  44  64  90 137 173 203 264 324 375
#     4  10  23  42  67  92 124 174 215 255 312 384
#
# _framework density 21.546907999999998
#
# number of rings (size 3 to 8) (size 9 to 14) (size 15 to 20)
#    0.000    1.500    2.500    3.375    1.750    3.000 
#    6.750    0.625    0.000    0.000    0.000    0.000 
#    0.000    0.000    0.000    0.000    0.000    0.000 
#
# Total GULP energy -198358.529552 kJ/mol
# GULP energy per Si atom -12397.408097 kJ/mol
# Density = 2.149787 g / cm^3
# Si number density = 21.546908 Si / 1000 Ang^3
#
#
#
# Elastic Constant Matrix: (Units=GPa)
#
#
# Indices 1 2 3 4 5 6 
#
# 1 136.9233 53.7500 31.1179 -1.4202 -2.7530 1.0034
# 2 53.7500 111.0988 34.6179 -5.4236 7.5619 -16.0540
# 3 31.1179 34.6179 49.9861 -33.2712 -3.6357 13.5307
# 4 -1.4202 -5.4236 -33.2712 12.0481 -9.8095 19.4347
# 5 -2.7530 7.5619 -3.6357 -9.8095 24.9520 12.5369
# 6 1.0034 -16.0540 13.5307 19.4347 12.5369 31.6035
#
#
#
# Elastic Compliance Matrix: (Units=1/GPa)
#
#
# Indices 1 2 3 4 5 6 
#
# 1 0.009709 -0.004593 -0.002313 -0.000567 0.003194 -0.002569
# 2 -0.004593 0.011163 0.001375 0.009174 0.000156 -0.000476
# 3 -0.002313 0.001375 0.005546 -0.015751 -0.012636 0.013096
# 4 -0.000567 0.009174 -0.015751 -0.004254 -0.017315 0.020907
# 5 0.003194 0.000156 -0.012636 -0.017315 0.029571 0.004305
# 6 -0.002569 -0.000476 0.013096 0.020907 0.004305 0.011311
#
#
# Mechanical properties :
#
#
# Convention : Reuss Voigt Hill
#
# Bulk Modulus (GPa) = 65.12439 59.66443 62.39441
# Shear Modulus (GPa) = 63.10927 25.62223 44.36575
#
# Velocity S-wave (km/s) = 5.41783 3.45213 4.54258
# Velocity P-wave (km/s) = 8.33230 6.60607 7.51889
#
# Compressibility (1/GPa) = 0.01535523
#
# Stress axis : x y z
#
# Youngs Moduli (GPa) = 102.99508 89.58014 180.30736
#
# Poissons Ratio (x) = 0.41142 0.41713
# Poissons Ratio (y) = 0.47303 -0.24785
# Poissons Ratio (z) = 0.23827 -0.12314
#
# Static dielectric constant tensor:
#      x y z
#    x 4.072350 -0.206510 0.055210 
#    y -0.206510 4.313460 -0.205770 
#    z 0.055210 -0.205770 3.666500 
# 
# 
# High freq. dielectric constant tensor:
#      x y z
#    x 1.846000 -0.001650 0.006120 
#    y -0.001650 1.855420 -0.003640 
#    z 0.006120 -0.003640 1.829720 
# 
# From -- ./inp_files/126939.got.cif
#   From: 2010.06.25/outbox.cif.g09.slc.cpg/sg2_64_cif.got.tgz:126939.got - 2010.06.27 13:26:56.
