data_PCOD8018306
_publ_section_title
;
Structure prediction by ZEFSAII (Michael W. Deem and Ramdas Pophale) SiO2 
 PCOD8018306
Probable space group: P -1
;
_chemical_formula_sum "Si O2"
_cell_formula_units_Z 14
_cell_length_a 18.387908
_cell_length_b 11.596853
_cell_length_c 17.730611
_cell_angle_alpha 28.830813
_cell_angle_beta 21.025743
_cell_angle_gamma 30.391000
_cell_volume 631.773546
_symmetry_space_group_name_H-M "P -1"
_symmetry_group_IT_number 2
_symmetry_cell_setting 'triclinic'
loop_
_space_group_symop_operation_xyz
x,y,z
-x,-y,-z
loop_
_atom_site_type_symbol
_atom_site_label
_atom_site_fract_x
_atom_site_fract_y
_atom_site_fract_z
Si Si1 0.094450 0.270836 0.149248
Si Si2 0.744242 0.424826 0.295940
Si Si3 0.975729 0.433677 0.683537
Si Si4 0.435877 0.272795 0.156859
Si Si5 0.239883 0.968546 0.614946
Si Si6 0.275645 0.559408 0.931047
Si Si7 0.692852 0.268134 0.769155
O O1 0.846619 0.360227 0.317094
O O2 0.161286 0.977453 0.269499
O O3 0.203947 0.338608 0.928682
O O4 0.147345 0.407367 0.093201
O O5 0.500000 0.500000 0.500000
O O6 0.831107 0.185911 0.294939
O O7 0.175120 0.534619 0.454144
O O8 0.805545 0.647928 0.682862
O O9 0.047898 0.198080 0.693651
O O10 0.864069 0.348952 0.912550
O O11 0.438991 0.063384 0.337180
O O12 0.500000 0.500000 0.000000
O O13 0.596079 0.173352 0.991437
O O14 0.312684 0.795900 0.715963
O O15 0.505704 0.390306 0.823708
#
# Coordination Sequence:
#
# PCOD8018306 Si02
#       7
#     2   2   2   2   2   2   2
#     4  10  22  41  65  92 130 168 214 263 312 377
#     4  10  22  40  64  99 124 164 213 267 323 369
#     4  11  24  42  63  96 131 169 214 258 326 380
#     4  11  23  40  64  98 125 166 214 265 319 377
#     4  11  22  43  67  92 133 164 211 270 319 377
#     4  10  25  43  62  97 131 175 214 256 316 384
#     4  11  23  42  66  95 133 168 216 259 319 382
#
# _framework density 22.159839999999999
#
# number of rings (size 3 to 8) (size 9 to 14) (size 15 to 20)
#    0.000    1.429    1.429    3.000    2.000    4.571 
#    5.143    0.000    0.000    0.000    0.000    0.000 
#    0.000    0.000    0.000    0.000    0.000    0.000 
#
# Total GULP energy -173599.751782 kJ/mol
# GULP energy per Si atom -12399.982270 kJ/mol
# Density = 2.210940 g / cm^3
# Si number density = 22.159840 Si / 1000 Ang^3
#
#
#
# Elastic Constant Matrix: (Units=GPa)
#
#
# Indices 1 2 3 4 5 6 
#
# 1 102.3854 29.2533 50.9265 3.2203 -9.0004 -3.4040
# 2 29.2533 87.7112 43.6558 -3.9243 -5.1075 2.6123
# 3 50.9265 43.6558 110.6212 -3.4613 -1.9157 -20.7383
# 4 3.2203 -3.9243 -3.4613 40.1000 -8.0146 -3.4574
# 5 -9.0004 -5.1075 -1.9157 -8.0146 46.9743 -3.7309
# 6 -3.4040 2.6123 -20.7383 -3.4574 -3.7309 27.6706
#
#
#
# Elastic Compliance Matrix: (Units=1/GPa)
#
#
# Indices 1 2 3 4 5 6 
#
# 1 0.013306 -0.001246 -0.006195 -0.001642 0.001653 -0.002870
# 2 -0.001246 0.015405 -0.006679 0.000629 0.000760 -0.006432
# 3 -0.006195 -0.006679 0.017043 0.002482 0.000237 0.012984
# 4 -0.001642 0.000629 0.002482 0.026802 0.004873 0.005605
# 5 0.001653 0.000760 0.000237 0.004873 0.022846 0.003998
# 6 -0.002870 -0.006432 0.012984 0.005605 0.003998 0.047364
#
#
# Mechanical properties :
#
#
# Convention : Reuss Voigt Hill
#
# Bulk Modulus (GPa) = 57.09478 60.93208 59.01343
# Shear Modulus (GPa) = 28.27359 34.74114 31.50736
#
# Velocity S-wave (km/s) = 3.57584 3.96378 3.77480
# Velocity P-wave (km/s) = 6.54750 6.96456 6.75925
#
# Compressibility (1/GPa) = 0.01751474
#
# Stress axis : x y z
#
# Youngs Moduli (GPa) = 75.15486 64.91504 58.67450
#
# Poissons Ratio (x) = 0.08090 0.36347
# Poissons Ratio (y) = 0.09366 0.39186
# Poissons Ratio (z) = 0.46556 0.43354
#
# Static dielectric constant tensor:
#      x y z
#    x 4.303570 -0.119290 0.009450 
#    y -0.119290 4.007760 -0.039180 
#    z 0.009450 -0.039180 4.146820 
# 
# 
# High freq. dielectric constant tensor:
#      x y z
#    x 1.873780 0.000660 0.002330 
#    y 0.000660 1.871850 -0.006780 
#    z 0.002330 -0.006780 1.877190 
# 
# From -- ./inp_files/69512.got.cif
#   From: 2010.06.25/outbox.cif.g09.slc.cpg/sg2_35_cif.got.tgz:69512.got - 2010.06.27 13:26:56.
