data_PCOD8018893
_publ_section_title
;
Structure prediction by ZEFSAII (Michael W. Deem and Ramdas Pophale) SiO2 
 PCOD8018893
Probable space group: P -1
;
_chemical_formula_sum "Si O2"
_cell_formula_units_Z 16
_cell_length_a 6.712493
_cell_length_b 9.451336
_cell_length_c 19.110982
_cell_angle_alpha 131.531505
_cell_angle_beta 52.192537
_cell_angle_gamma 124.014146
_cell_volume 692.695404
_symmetry_space_group_name_H-M "P -1"
_symmetry_group_IT_number 2
_symmetry_cell_setting 'triclinic'
loop_
_space_group_symop_operation_xyz
x,y,z
-x,-y,-z
loop_
_atom_site_type_symbol
_atom_site_label
_atom_site_fract_x
_atom_site_fract_y
_atom_site_fract_z
Si Si1 0.612245 0.228944 0.411328
Si Si2 0.871071 0.131493 0.913157
Si Si3 0.141879 0.906273 0.380786
Si Si4 0.905134 0.960410 0.306874
Si Si5 0.194421 0.403463 0.040427
Si Si6 0.255226 0.473377 0.639613
Si Si7 0.387378 0.255778 0.080393
Si Si8 0.688812 0.531864 0.219259
O O1 0.450458 0.351485 0.528560
O O2 0.747649 0.347997 0.352884
O O3 0.448992 0.006843 0.353530
O O4 0.822880 0.166630 0.394904
O O5 0.941131 0.039674 0.797648
O O6 0.738770 0.960040 0.937506
O O7 0.663253 0.259463 0.983702
O O8 0.123579 0.258460 0.941880
O O9 0.088767 0.974341 0.337813
O O10 0.038986 0.670547 0.335472
O O11 0.000000 0.000000 0.500000
O O12 0.674634 0.757787 0.296336
O O13 0.175612 0.302629 0.088163
O O14 0.983406 0.534015 0.129837
O O15 0.500000 0.500000 0.000000
O O16 0.358780 0.556098 0.720681
O O17 0.458916 0.408239 0.179499
#
# Coordination Sequence:
#
# PCOD8018893 Si02
#       8
#     2   2   2   2   2   2   2   2
#     4  10  22  42  64  90 129 170 204 268 326 365
#     4  10  23  39  59  94 126 161 217 260 307 386
#     4   9  21  41  62  90 126 163 208 259 315 377
#     4  11  23  39  62  97 121 164 215 259 312 388
#     4  11  22  39  63  90 127 171 207 260 323 377
#     4   9  21  42  63  92 128 163 216 264 312 390
#     4  10  22  41  62  87 128 171 202 265 319 371
#     4  10  23  39  62  94 125 163 219 260 313 386
#
# _framework density 23.098175000000001
#
# number of rings (size 3 to 8) (size 9 to 14) (size 15 to 20)
#    0.000    2.000    0.000    1.875    3.500   11.500 
#    0.000    6.875    0.000    0.000    0.000    0.000 
#    0.000    0.000    0.000    0.000    0.000    0.000 
#
# Total GULP energy -198260.761732 kJ/mol
# GULP energy per Si atom -12391.297608 kJ/mol
# Density = 2.304560 g / cm^3
# Si number density = 23.098175 Si / 1000 Ang^3
#
#
#
# Elastic Constant Matrix: (Units=GPa)
#
#
# Indices 1 2 3 4 5 6 
#
# 1 70.9685 18.9729 23.6181 -0.0218 8.1525 2.1946
# 2 18.9729 80.1044 16.6178 -9.6039 -12.8695 -5.4167
# 3 23.6181 16.6178 61.6816 -6.8342 19.4241 -3.4033
# 4 -0.0218 -9.6039 -6.8342 32.4739 -6.0649 -1.7282
# 5 8.1525 -12.8695 19.4241 -6.0649 27.3143 3.7485
# 6 2.1946 -5.4167 -3.4033 -1.7282 3.7485 31.2716
#
#
#
# Elastic Compliance Matrix: (Units=1/GPa)
#
#
# Indices 1 2 3 4 5 6 
#
# 1 0.017352 -0.004415 -0.004519 -0.003192 -0.004464 -0.002116
# 2 -0.004415 0.018927 -0.008036 0.007210 0.017411 0.001025
# 3 -0.004519 -0.008036 0.027451 -0.000601 -0.022724 0.004603
# 4 -0.003192 0.007210 -0.000601 0.035201 0.012336 0.001874
# 5 -0.004464 0.017411 -0.022724 0.012336 0.065919 -0.006364
# 6 -0.002116 0.001025 0.004603 0.001874 -0.006364 0.033671
#
#
# Mechanical properties :
#
#
# Convention : Reuss Voigt Hill
#
# Bulk Modulus (GPa) = 33.56871 36.79690 35.18280
# Shear Modulus (GPa) = 20.62762 28.44832 24.53797
#
# Velocity S-wave (km/s) = 2.99162 3.51326 3.26288
# Velocity P-wave (km/s) = 5.14759 5.69408 5.42772
#
# Compressibility (1/GPa) = 0.02978965
#
# Stress axis : x y z
#
# Youngs Moduli (GPa) = 57.62887 52.83346 36.42837
#
# Poissons Ratio (x) = 0.23327 0.16463
# Poissons Ratio (y) = 0.25445 0.29274
# Poissons Ratio (z) = 0.26045 0.42457
#
# Static dielectric constant tensor:
#      x y z
#    x 4.295560 -0.147960 0.119240 
#    y -0.147960 4.420550 -0.058590 
#    z 0.119240 -0.058590 3.991540 
# 
# 
# High freq. dielectric constant tensor:
#      x y z
#    x 1.905870 -0.009670 0.013530 
#    y -0.009670 1.922970 -0.006530 
#    z 0.013530 -0.006530 1.907830 
# 
# From -- ./inp_files/38091.got.cif
#   From: 2010.06.25/outbox.cif.g09.slc.cpg/sg2_20_cif.got.tgz:38091.got - 2010.06.27 13:26:56.
