data_PCOD8018392
_publ_section_title
;
Structure prediction by ZEFSAII (Michael W. Deem and Ramdas Pophale) SiO2 
 PCOD8018392
Probable space group: P -1
;
_chemical_formula_sum "Si O2"
_cell_formula_units_Z 14
_cell_length_a 7.091215
_cell_length_b 16.796812
_cell_length_c 9.946577
_cell_angle_alpha 45.250444
_cell_angle_beta 129.404266
_cell_angle_gamma 107.969914
_cell_volume 629.118732
_symmetry_space_group_name_H-M "P -1"
_symmetry_group_IT_number 2
_symmetry_cell_setting 'triclinic'
loop_
_space_group_symop_operation_xyz
x,y,z
-x,-y,-z
loop_
_atom_site_type_symbol
_atom_site_label
_atom_site_fract_x
_atom_site_fract_y
_atom_site_fract_z
Si Si1 0.731670 0.053833 0.753090
Si Si2 0.600042 0.803117 0.344446
Si Si3 0.523937 0.412832 0.997923
Si Si4 0.465263 0.159928 0.030787
Si Si5 0.148108 0.819859 0.599375
Si Si6 0.529286 0.425125 0.468988
Si Si7 0.922473 0.634575 0.263725
O O1 0.590071 0.155451 0.668003
O O2 0.759391 0.100324 0.561501
O O3 0.587479 0.953493 0.791769
O O4 0.000000 0.000000 0.000000
O O5 0.650154 0.663182 0.518002
O O6 0.847092 0.847623 0.440759
O O7 0.486477 0.860123 0.083023
O O8 0.542980 0.477954 0.791520
O O9 0.282429 0.356261 0.959056
O O10 0.500000 0.500000 0.000000
O O11 0.772757 0.312631 0.256895
O O12 0.718262 0.175341 0.200716
O O13 0.222424 0.272031 0.802156
O O14 0.500000 0.500000 0.500000
O O15 0.814736 0.340034 0.692239
O O16 0.000000 0.500000 0.500000
#
# Coordination Sequence:
#
# PCOD8018392 Si02
#       7
#     2   2   2   2   2   2   2
#     4  12  25  48  74  99 136 185 232 286 349 407
#     4  12  26  45  72 102 139 179 233 286 344 414
#     4  10  22  40  65  96 133 177 224 280 338 402
#     4  11  24  47  70 101 138 182 232 284 343 408
#     4  11  26  46  68 102 140 178 234 286 343 408
#     4  11  23  41  66 101 137 180 227 276 346 412
#     4   9  20  40  67  92 132 179 218 270 342 402
#
# _framework density 22.253350999999999
#
# number of rings (size 3 to 8) (size 9 to 14) (size 15 to 20)
#    0.000    1.143    1.429    5.143    6.000    1.143 
#   15.429    0.000    0.000    0.000    0.000    0.000 
#    0.000    0.000    0.000    0.000    0.000    0.000 
#
# Total GULP energy -173529.420227 kJ/mol
# GULP energy per Si atom -12394.958588 kJ/mol
# Density = 2.220270 g / cm^3
# Si number density = 22.253351 Si / 1000 Ang^3
#
#
#
# Elastic Constant Matrix: (Units=GPa)
#
#
# Indices 1 2 3 4 5 6 
#
# 1 79.6715 20.2442 28.6315 7.0728 4.8123 6.1178
# 2 20.2442 99.5740 17.1817 -4.2856 6.5998 6.0631
# 3 28.6315 17.1817 98.2114 4.7836 -3.7038 1.9954
# 4 7.0728 -4.2856 4.7836 38.5798 6.5520 -3.2278
# 5 4.8123 6.5998 -3.7038 6.5520 26.2857 -6.2035
# 6 6.1178 6.0631 1.9954 -3.2278 -6.2035 37.5326
#
#
#
# Elastic Compliance Matrix: (Units=1/GPa)
#
#
# Indices 1 2 3 4 5 6 
#
# 1 0.015088 -0.002135 -0.003970 -0.002245 -0.002831 -0.002564
# 2 -0.002135 0.011192 -0.001548 0.002294 -0.003629 -0.001780
# 3 -0.003970 -0.001548 0.011789 -0.001407 0.003291 0.000693
# 4 -0.002245 0.002294 -0.001407 0.028068 -0.007048 0.001319
# 5 -0.002831 -0.003629 0.003291 -0.007048 0.043451 0.007448
# 6 -0.002564 -0.001780 0.000693 0.001319 0.007448 0.028657
#
#
# Mechanical properties :
#
#
# Convention : Reuss Voigt Hill
#
# Bulk Modulus (GPa) = 43.93355 45.50797 44.72076
# Shear Modulus (GPa) = 31.02898 34.57292 32.80095
#
# Velocity S-wave (km/s) = 3.73815 3.94586 3.84341
# Velocity P-wave (km/s) = 6.19815 6.42293 6.31154
#
# Compressibility (1/GPa) = 0.02276165
#
# Stress axis : x y z
#
# Youngs Moduli (GPa) = 66.27726 89.35234 84.82526
#
# Poissons Ratio (x) = 0.19079 0.33679
# Poissons Ratio (y) = 0.14152 0.13130
# Poissons Ratio (z) = 0.26315 0.13831
#
# Static dielectric constant tensor:
#      x y z
#    x 4.228030 0.297100 0.263040 
#    y 0.297100 4.322390 -0.202450 
#    z 0.263040 -0.202450 3.736120 
# 
# 
# High freq. dielectric constant tensor:
#      x y z
#    x 1.866950 0.005710 0.004420 
#    y 0.005710 1.895530 -0.003170 
#    z 0.004420 -0.003170 1.874540 
# 
# From -- ./inp_files/138616.got.cif
#   From: 2010.06.25/outbox.cif.g09.slc.cpg/sg2_70_cif.got.tgz:138616.got - 2010.06.27 13:26:56.
