data_PCOD8018686
_publ_section_title
;
Structure prediction by ZEFSAII (Michael W. Deem and Ramdas Pophale) SiO2 
 PCOD8018686
Probable space group: P -1
;
_chemical_formula_sum "Si O2"
_cell_formula_units_Z 16
_cell_length_a 9.007140
_cell_length_b 11.622378
_cell_length_c 9.415453
_cell_angle_alpha 95.959669
_cell_angle_beta 87.103838
_cell_angle_gamma 39.893966
_cell_volume 615.515839
_symmetry_space_group_name_H-M "P -1"
_symmetry_group_IT_number 2
_symmetry_cell_setting 'triclinic'
loop_
_space_group_symop_operation_xyz
x,y,z
-x,-y,-z
loop_
_atom_site_type_symbol
_atom_site_label
_atom_site_fract_x
_atom_site_fract_y
_atom_site_fract_z
Si Si1 0.104136 0.793097 0.120218
Si Si2 0.640529 0.205052 0.107875
Si Si3 0.986322 0.607549 0.131578
Si Si4 0.498197 0.899146 0.095247
Si Si5 0.267047 0.025659 0.396613
Si Si6 0.806184 0.224112 0.562305
Si Si7 0.795688 0.691083 0.434419
Si Si8 0.619434 0.584817 0.569383
O O1 0.195337 0.782445 0.266999
O O2 0.127634 0.639260 0.091780
O O3 0.259421 0.746433 0.976867
O O4 0.837452 0.998391 0.132702
O O5 0.475972 0.349820 0.257869
O O6 0.466015 0.241054 0.014153
O O7 0.708721 0.806125 0.177292
O O8 0.008614 0.553736 0.287514
O O9 0.000000 0.500000 0.000000
O O10 0.265480 0.028197 0.223209
O O11 0.500000 0.000000 0.000000
O O12 0.174995 0.204148 0.477747
O O13 0.076520 0.040653 0.460375
O O14 0.525606 0.839564 0.415162
O O15 0.752280 0.383965 0.523817
O O16 0.599878 0.269758 0.511935
O O17 0.815492 0.566545 0.522018
#
# Coordination Sequence:
#
# PCOD8018686 Si02
#       8
#     2   2   2   2   2   2   2   2
#     4  11  25  47  68 102 135 182 232 276 350 407
#     4  11  26  44  71 104 137 179 232 285 337 411
#     4  11  25  43  69 103 138 180 224 281 347 411
#     4  11  23  41  66 104 137 177 228 280 342 403
#     4  10  22  40  69  93 133 178 225 284 332 403
#     4  11  26  45  67  98 139 183 225 281 350 403
#     4  10  22  43  67 100 129 178 233 279 338 402
#     4  11  27  44  67 102 137 180 232 281 342 414
#
# _framework density 25.994458999999999
#
# number of rings (size 3 to 8) (size 9 to 14) (size 15 to 20)
#    0.000    1.250    2.500    1.500   10.500    5.000 
#    0.000    0.000    0.000    0.000    0.000    0.000 
#    0.000    0.000    0.000    0.000    0.000    0.000 
#
# Total GULP energy -198353.924088 kJ/mol
# GULP energy per Si atom -12397.120255 kJ/mol
# Density = 2.593529 g / cm^3
# Si number density = 25.994459 Si / 1000 Ang^3
#
#
#
# Elastic Constant Matrix: (Units=GPa)
#
#
# Indices 1 2 3 4 5 6 
#
# 1 156.0616 13.8038 65.5362 -6.7706 -21.8987 14.2628
# 2 13.8038 41.5414 20.1131 -14.3085 -9.3485 6.8706
# 3 65.5362 20.1131 182.9130 2.8417 -8.2081 18.6805
# 4 -6.7706 -14.3085 2.8417 38.6535 4.7466 4.7172
# 5 -21.8987 -9.3485 -8.2081 4.7466 47.6333 -4.1816
# 6 14.2628 6.8706 18.6805 4.7172 -4.1816 43.4269
#
#
#
# Elastic Compliance Matrix: (Units=1/GPa)
#
#
# Indices 1 2 3 4 5 6 
#
# 1 0.008137 -0.000023 -0.002658 0.001411 0.003016 -0.001389
# 2 -0.000023 0.031258 -0.002966 0.011846 0.004032 -0.004560
# 3 -0.002658 -0.002966 0.006900 -0.001821 -0.000564 -0.001482
# 4 0.001411 0.011846 -0.001821 0.031365 -0.000909 -0.005049
# 5 0.003016 0.004032 -0.000564 -0.000909 0.023249 0.000951
# 6 -0.001389 -0.004560 -0.001482 -0.005049 0.000951 0.025482
#
#
# Mechanical properties :
#
#
# Convention : Reuss Voigt Hill
#
# Bulk Modulus (GPa) = 28.56998 64.38025 46.47512
# Shear Modulus (GPa) = 33.47795 44.68025 39.07910
#
# Velocity S-wave (km/s) = 3.59261 4.15038 3.88153
# Velocity P-wave (km/s) = 5.31261 6.91291 6.16490
#
# Compressibility (1/GPa) = 0.03500177
#
# Stress axis : x y z
#
# Youngs Moduli (GPa) = 122.89287 31.99162 144.92957
#
# Poissons Ratio (x) = 0.00072 0.38519
# Poissons Ratio (y) = 0.00277 0.42992
# Poissons Ratio (z) = 0.32662 0.09490
#
# Static dielectric constant tensor:
#      x y z
#    x 5.534780 -0.090090 0.322270 
#    y -0.090090 4.957290 0.181260 
#    z 0.322270 0.181260 5.016500 
# 
# 
# High freq. dielectric constant tensor:
#      x y z
#    x 2.072660 -0.007000 -0.006670 
#    y -0.007000 2.060350 -0.016510 
#    z -0.006670 -0.016510 2.047720 
# 
# From -- ./inp_files/187473.got.cif
#   From: 2010.06.25/outbox.cif.g09.slc.cpg/sg2_94_cif.got.tgz:187473.got - 2010.06.27 13:26:56.
