data_PCOD8018680
_publ_section_title
;
Structure prediction by ZEFSAII (Michael W. Deem and Ramdas Pophale) SiO2 
 PCOD8018680
Probable space group: P -1
;
_chemical_formula_sum "Si O2"
_cell_formula_units_Z 14
_cell_length_a 26.576520
_cell_length_b 11.659803
_cell_length_c 14.409205
_cell_angle_alpha 31.023079
_cell_angle_beta 160.833608
_cell_angle_gamma 149.646734
_cell_volume 716.810182
_symmetry_space_group_name_H-M "P -1"
_symmetry_group_IT_number 2
_symmetry_cell_setting 'triclinic'
loop_
_space_group_symop_operation_xyz
x,y,z
-x,-y,-z
loop_
_atom_site_type_symbol
_atom_site_label
_atom_site_fract_x
_atom_site_fract_y
_atom_site_fract_z
Si Si1 0.102555 0.433770 0.487040
Si Si2 0.317017 0.845084 0.284164
Si Si3 0.750110 0.114592 0.073002
Si Si4 0.680399 0.586602 0.293004
Si Si5 0.236849 0.198283 0.029645
Si Si6 0.124938 0.959227 0.174798
Si Si7 0.535761 0.729575 0.465218
O O1 0.191464 0.386926 0.583559
O O2 0.204954 0.411569 0.771642
O O3 0.082870 0.686274 0.272790
O O4 0.929154 0.242829 0.330870
O O5 0.292728 0.587903 0.461328
O O6 0.500000 0.000000 0.500000
O O7 0.254581 0.820785 0.087746
O O8 0.222309 0.982678 0.084353
O O9 0.710144 0.839873 0.213865
O O10 0.624414 0.195816 0.860017
O O11 0.500000 0.500000 0.000000
O O12 0.411117 0.303259 0.312610
O O13 0.101990 0.088495 0.949847
O O14 0.313421 0.068370 0.459757
O O15 0.000000 0.000000 0.000000
O O16 0.500000 0.500000 0.500000
#
# Coordination Sequence:
#
# PCOD8018680 Si02
#       7
#     2   2   2   2   2   2   2
#     4  12  24  41  65  98 131 168 213 267 321 379
#     4  12  20  40  66  95 130 172 207 261 329 378
#     4  12  25  39  66  99 132 167 215 265 317 387
#     4  12  22  38  65  93 132 171 212 260 320 385
#     4  10  22  40  69  90 129 167 213 260 326 371
#     4  10  22  43  68  88 129 173 215 263 320 373
#     4  10  22  46  67  90 127 169 215 267 314 379
#
# _framework density 19.530971999999998
#
# number of rings (size 3 to 8) (size 9 to 14) (size 15 to 20)
#    0.857    0.000    5.714    2.143    0.000    2.286 
#    0.000    0.714    0.000    0.000    0.000    0.000 
#    0.000    0.000    0.000    0.000    0.000    0.000 
#
# Total GULP energy -173556.343641 kJ/mol
# GULP energy per Si atom -12396.881689 kJ/mol
# Density = 1.948652 g / cm^3
# Si number density = 19.530972 Si / 1000 Ang^3
#
#
#
# Elastic Constant Matrix: (Units=GPa)
#
#
# Indices 1 2 3 4 5 6 
#
# 1 99.4799 29.4799 33.9777 -16.0746 25.6445 3.8850
# 2 29.4799 117.7914 25.5986 -0.5423 8.1517 -2.6237
# 3 33.9777 25.5986 71.2914 0.7311 11.6102 4.7401
# 4 -16.0746 -0.5423 0.7311 35.3238 12.6115 3.1552
# 5 25.6445 8.1517 11.6102 12.6115 47.9717 -4.8777
# 6 3.8850 -2.6237 4.7401 3.1552 -4.8777 37.9083
#
#
#
# Elastic Compliance Matrix: (Units=1/GPa)
#
#
# Indices 1 2 3 4 5 6 
#
# 1 0.017862 -0.002480 -0.005628 0.012647 -0.011479 -0.003828
# 2 -0.002480 0.009621 -0.002484 -0.001341 0.000791 0.001444
# 3 -0.005628 -0.002484 0.017792 -0.002703 -0.000331 -0.001637
# 4 0.012647 -0.001341 -0.002703 0.040874 -0.017303 -0.006679
# 5 -0.011479 0.000791 -0.000331 -0.017303 0.032173 0.006853
# 6 -0.003828 0.001444 -0.001637 -0.006679 0.006853 0.028514
#
#
# Mechanical properties :
#
#
# Convention : Reuss Voigt Hill
#
# Bulk Modulus (GPa) = 41.50983 51.85279 46.68131
# Shear Modulus (GPa) = 28.40089 37.54120 32.97104
#
# Velocity S-wave (km/s) = 3.81746 4.38897 4.11316
# Velocity P-wave (km/s) = 6.38202 7.23124 6.81986
#
# Compressibility (1/GPa) = 0.02409068
#
# Stress axis : x y z
#
# Youngs Moduli (GPa) = 55.98591 103.93661 56.20571
#
# Poissons Ratio (x) = 0.25774 0.31634
# Poissons Ratio (y) = 0.13883 0.13961
# Poissons Ratio (z) = 0.31510 0.25817
#
# Static dielectric constant tensor:
#      x y z
#    x 3.897840 -0.298490 -0.270260 
#    y -0.298490 4.016910 0.276940 
#    z -0.270260 0.276940 3.663030 
# 
# 
# High freq. dielectric constant tensor:
#      x y z
#    x 1.759440 0.006070 0.011900 
#    y 0.006070 1.762700 -0.004880 
#    z 0.011900 -0.004880 1.759730 
# 
# From -- ./inp_files/354438.got.cif
#   From: 2010.06.25/outbox.cif.g09.slc.cpg/sg2_178_cif.got.tgz:354438.got - 2010.06.27 13:26:56.
