data_PCOD8018329
_publ_section_title
;
Structure prediction by ZEFSAII (Michael W. Deem and Ramdas Pophale) SiO2 
 PCOD8018329
Probable space group: P -1
;
_chemical_formula_sum "Si O2"
_cell_formula_units_Z 16
_cell_length_a 9.092676
_cell_length_b 9.213235
_cell_length_c 16.230414
_cell_angle_alpha 111.923443
_cell_angle_beta 49.930631
_cell_angle_gamma 79.888697
_cell_volume 782.273864
_symmetry_space_group_name_H-M "P -1"
_symmetry_group_IT_number 2
_symmetry_cell_setting 'triclinic'
loop_
_space_group_symop_operation_xyz
x,y,z
-x,-y,-z
loop_
_atom_site_type_symbol
_atom_site_label
_atom_site_fract_x
_atom_site_fract_y
_atom_site_fract_z
Si Si1 0.045709 0.832148 0.391220
Si Si2 0.361962 0.185376 0.530036
Si Si3 0.202995 0.546881 0.770669
Si Si4 0.291009 0.076839 0.927551
Si Si5 0.738341 0.131168 0.964424
Si Si6 0.544570 0.524893 0.177596
Si Si7 0.734387 0.149127 0.261503
Si Si8 0.593102 0.209582 0.855614
O O1 0.261359 0.628336 0.310341
O O2 0.137754 0.869127 0.280740
O O3 0.821636 0.829138 0.459588
O O4 0.000000 0.000000 0.500000
O O5 0.216229 0.388069 0.674151
O O6 0.534041 0.189782 0.405106
O O7 0.500000 0.000000 0.500000
O O8 0.367658 0.422105 0.762844
O O9 0.306171 0.651676 0.709184
O O10 0.937287 0.701789 0.932394
O O11 0.524730 0.066936 0.821014
O O12 0.253473 0.964638 0.848016
O O13 0.341357 0.980015 0.978371
O O14 0.568906 0.234086 0.967933
O O15 0.698293 0.295723 0.073959
O O16 0.014836 0.985204 0.810254
O O17 0.589684 0.593875 0.088815
#
# Coordination Sequence:
#
# PCOD8018329 Si02
#       8
#     2   2   2   2   2   2   2   2
#     4  10  23  44  61  91 133 169 213 264 324 381
#     4  12  26  42  71  95 128 175 223 266 318 390
#     4  11  23  44  64 101 131 168 220 267 323 385
#     4  11  22  40  70  95 133 171 215 265 325 394
#     4  11  20  42  63  98 128 167 213 271 326 379
#     4  10  22  40  65  88 137 163 209 272 324 372
#     4  11  23  44  68  94 133 174 213 267 325 389
#     4  10  24  36  64  93 127 167 214 266 320 376
#
# _framework density 20.453196999999999
#
# number of rings (size 3 to 8) (size 9 to 14) (size 15 to 20)
#    0.750    0.500    2.500    4.125    3.500    1.500 
#    0.000    0.625    0.000    0.000    0.000    0.000 
#    0.000    0.000    0.000    0.000    0.000    0.000 
#
# Total GULP energy -198257.273030 kJ/mol
# GULP energy per Si atom -12391.079564 kJ/mol
# Density = 2.040664 g / cm^3
# Si number density = 20.453197 Si / 1000 Ang^3
#
#
#
# Elastic Constant Matrix: (Units=GPa)
#
#
# Indices 1 2 3 4 5 6 
#
# 1 99.0837 49.7295 18.9848 5.2640 7.6090 -4.0564
# 2 49.7295 88.0507 37.9348 4.2514 -7.5013 2.3173
# 3 18.9848 37.9348 69.0099 9.5083 12.0322 -1.8145
# 4 5.2640 4.2514 9.5083 33.2629 11.5393 2.6179
# 5 7.6090 -7.5013 12.0322 11.5393 26.5032 1.2461
# 6 -4.0564 2.3173 -1.8145 2.6179 1.2461 41.4755
#
#
#
# Elastic Compliance Matrix: (Units=1/GPa)
#
#
# Indices 1 2 3 4 5 6 
#
# 1 0.016068 -0.011658 0.003672 0.001246 -0.010245 0.002613
# 2 -0.011658 0.025739 -0.013777 -0.003705 0.018665 -0.003508
# 3 0.003672 -0.013777 0.023929 -0.000401 -0.015768 0.002675
# 4 0.001246 -0.003705 -0.000401 0.036482 -0.017039 -0.001479
# 5 -0.010245 0.018665 -0.015768 -0.017039 0.060697 -0.003483
# 6 0.002613 -0.003508 0.002675 -0.001479 -0.003483 0.024877
#
#
# Mechanical properties :
#
#
# Convention : Reuss Voigt Hill
#
# Bulk Modulus (GPa) = 45.03086 52.16028 48.59557
# Shear Modulus (GPa) = 20.94495 30.21467 25.57981
#
# Velocity S-wave (km/s) = 3.20354 3.84768 3.54029
# Velocity P-wave (km/s) = 5.97895 6.73032 6.36573
#
# Compressibility (1/GPa) = 0.02220700
#
# Stress axis : x y z
#
# Youngs Moduli (GPa) = 62.23656 38.85230 41.79065
#
# Poissons Ratio (x) = 0.45295 -0.15344
# Poissons Ratio (y) = 0.72557 0.57576
# Poissons Ratio (z) = -0.22850 0.53528
#
# Static dielectric constant tensor:
#      x y z
#    x 3.797880 0.109420 -0.069650 
#    y 0.109420 3.814920 -0.102570 
#    z -0.069650 -0.102570 3.607760 
# 
# 
# High freq. dielectric constant tensor:
#      x y z
#    x 1.806240 -0.001130 0.004710 
#    y -0.001130 1.804290 -0.000670 
#    z 0.004710 -0.000670 1.787870 
# 
# From -- ./inp_files/557428.got.cif
#   From: 2010.06.25/outbox.cif.g09.slc.cpg/sg2_279_cif.got.tgz:557428.got - 2010.06.27 13:26:56.
