data_PCOD8018247
_publ_section_title
;
Structure prediction by ZEFSAII (Michael W. Deem and Ramdas Pophale) SiO2 
 PCOD8018247
Probable space group: P -1
;
_chemical_formula_sum "Si O2"
_cell_formula_units_Z 16
_cell_length_a 12.107518
_cell_length_b 18.936233
_cell_length_c 12.700150
_cell_angle_alpha 18.055909
_cell_angle_beta 118.038631
_cell_angle_gamma 118.677509
_cell_volume 790.761885
_symmetry_space_group_name_H-M "P -1"
_symmetry_group_IT_number 2
_symmetry_cell_setting 'triclinic'
loop_
_space_group_symop_operation_xyz
x,y,z
-x,-y,-z
loop_
_atom_site_type_symbol
_atom_site_label
_atom_site_fract_x
_atom_site_fract_y
_atom_site_fract_z
Si Si1 0.483753 0.224684 0.109950
Si Si2 0.731435 0.148521 0.756242
Si Si3 0.499953 0.606585 0.734246
Si Si4 0.264817 0.254568 0.820160
Si Si5 0.274184 0.152700 0.620354
Si Si6 0.903727 0.143374 0.198342
Si Si7 0.003740 0.407591 0.517939
Si Si8 0.713748 0.421229 0.820236
O O1 0.500000 0.000000 0.500000
O O2 0.534069 0.416601 0.940990
O O3 0.343810 0.257858 0.959412
O O4 0.581968 0.263204 0.003733
O O5 0.639902 0.339114 0.428475
O O6 0.875079 0.250614 0.659151
O O7 0.701371 0.971298 0.900579
O O8 0.698507 0.036311 0.013875
O O9 0.610473 0.810730 0.464474
O O10 0.500000 0.500000 0.000000
O O11 0.304794 0.470282 0.456608
O O12 0.116743 0.248883 0.785671
O O13 0.246040 0.382641 0.348717
O O14 0.158609 0.029835 0.674267
O O15 0.812729 0.235230 0.116040
O O16 0.000000 0.000000 0.500000
O O17 0.980028 0.373977 0.859902
O O18 0.000000 0.500000 0.500000
#
# Coordination Sequence:
#
# PCOD8018247 Si02
#       8
#     2   2   2   2   2   2   2   2
#     4  11  23  40  61  94 127 162 206 262 323 366
#     4  11  22  41  66  92 126 165 211 265 312 377
#     4  11  25  40  64  95 128 163 209 265 315 380
#     4  10  22  40  64  91 123 167 207 262 314 374
#     4  10  23  44  64  94 127 166 216 258 320 371
#     4  11  25  41  67  92 129 172 209 260 316 377
#     4  11  22  41  62  93 124 164 216 253 311 382
#     4   9  23  42  64  91 126 164 216 259 309 383
#
# _framework density 20.233650999999998
#
# number of rings (size 3 to 8) (size 9 to 14) (size 15 to 20)
#    0.000    1.500    1.250    2.625    7.000    1.500 
#    0.000    0.000    0.000    0.000    0.000    0.000 
#    0.000    0.000    0.000    0.000    0.000    0.000 
#
# Total GULP energy -198261.572740 kJ/mol
# GULP energy per Si atom -12391.348296 kJ/mol
# Density = 2.018760 g / cm^3
# Si number density = 20.233651 Si / 1000 Ang^3
#
#
#
# Elastic Constant Matrix: (Units=GPa)
#
#
# Indices 1 2 3 4 5 6 
#
# 1 122.7520 26.3422 62.0996 18.4877 -6.7102 4.7346
# 2 26.3422 91.1945 39.5058 16.2749 0.2462 2.9647
# 3 62.0996 39.5058 113.2792 19.4760 6.1456 13.3809
# 4 18.4877 16.2749 19.4760 31.3003 1.1061 0.9704
# 5 -6.7102 0.2462 6.1456 1.1061 40.2096 -3.6815
# 6 4.7346 2.9647 13.3809 0.9704 -3.6815 30.6669
#
#
#
# Elastic Compliance Matrix: (Units=1/GPa)
#
#
# Indices 1 2 3 4 5 6 
#
# 1 0.011968 -0.000223 -0.006268 -0.003208 0.003172 0.001391
# 2 -0.000223 0.013512 -0.003933 -0.004491 0.000666 0.000666
# 3 -0.006268 -0.003933 0.015068 -0.003324 -0.003744 -0.005571
# 4 -0.003208 -0.004491 -0.003324 0.038248 -0.000955 0.001055
# 5 0.003172 0.000666 -0.003744 -0.000955 0.026385 0.004277
# 6 0.001391 0.000666 -0.005571 0.001055 0.004277 0.035240
#
#
# Mechanical properties :
#
#
# Convention : Reuss Voigt Hill
#
# Bulk Modulus (GPa) = 50.75983 64.79122 57.77552
# Shear Modulus (GPa) = 29.79116 33.72056 31.75586
#
# Velocity S-wave (km/s) = 3.84129 4.08678 3.96594
# Velocity P-wave (km/s) = 6.69443 7.37293 7.04185
#
# Compressibility (1/GPa) = 0.01970062
#
# Stress axis : x y z
#
# Youngs Moduli (GPa) = 83.55406 74.01040 66.36596
#
# Poissons Ratio (x) = 0.01650 0.41599
# Poissons Ratio (y) = 0.01863 0.26099
# Poissons Ratio (z) = 0.52372 0.29105
#
# Static dielectric constant tensor:
#      x y z
#    x 3.674210 -0.181020 0.023130 
#    y -0.181020 3.658700 -0.049840 
#    z 0.023130 -0.049840 3.680940 
# 
# 
# High freq. dielectric constant tensor:
#      x y z
#    x 1.801810 -0.007950 -0.003990 
#    y -0.007950 1.792020 -0.007810 
#    z -0.003990 -0.007810 1.795730 
# 
# From -- ./inp_files/201469.got.cif
#   From: 2010.06.25/outbox.cif.g09.slc.cpg/sg2_101_cif.got.tgz:201469.got - 2010.06.27 13:26:56.
