data_PCOD8018967
_publ_section_title
;
Structure prediction by ZEFSAII (Michael W. Deem and Ramdas Pophale) SiO2 
 PCOD8018967
Probable space group: P -1
;
_chemical_formula_sum "Si O2"
_cell_formula_units_Z 14
_cell_length_a 8.885693
_cell_length_b 17.280259
_cell_length_c 6.132662
_cell_angle_alpha 78.038922
_cell_angle_beta 52.356741
_cell_angle_gamma 56.137824
_cell_volume 606.344423
_symmetry_space_group_name_H-M "P -1"
_symmetry_group_IT_number 2
_symmetry_cell_setting 'triclinic'
loop_
_space_group_symop_operation_xyz
x,y,z
-x,-y,-z
loop_
_atom_site_type_symbol
_atom_site_label
_atom_site_fract_x
_atom_site_fract_y
_atom_site_fract_z
Si Si1 0.322913 0.457333 0.808280
Si Si2 0.641077 0.127612 0.762831
Si Si3 0.021983 0.558358 0.632364
Si Si4 0.126300 0.645690 0.132415
Si Si5 0.864238 0.806349 0.943147
Si Si6 0.260666 0.725454 0.305617
Si Si7 0.972876 0.948896 0.854212
O O1 0.584788 0.368966 0.626677
O O2 0.259760 0.497085 0.593890
O O3 0.178877 0.412327 0.033015
O O4 0.287395 0.538997 0.958673
O O5 0.632124 0.212013 0.855586
O O6 0.772279 0.116691 0.429613
O O7 0.783498 0.027158 0.814996
O O8 0.392173 0.150932 0.926134
O O9 0.000000 0.500000 0.500000
O O10 0.003645 0.645654 0.469542
O O11 0.260913 0.691539 0.076153
O O12 0.947395 0.711740 0.065844
O O13 0.883707 0.881112 0.031439
O O14 0.013518 0.785950 0.604829
O O15 0.000000 0.000000 0.000000
#
# Coordination Sequence:
#
# PCOD8018967 Si02
#       7
#     2   2   2   2   2   2   2
#     4  10  22  41  63  91 133 178 228 273 317 379
#     4  10  24  43  68  97 132 166 213 269 328 393
#     4   9  21  38  63  89 121 175 226 272 326 375
#     4  11  23  40  61  97 132 177 226 266 329 381
#     4  11  25  42  66 101 133 169 216 270 329 393
#     4  11  25  40  65  95 133 176 219 273 322 385
#     4  10  22  46  71  98 127 168 212 265 332 399
#
# _framework density 23.089189000000001
#
# number of rings (size 3 to 8) (size 9 to 14) (size 15 to 20)
#    0.000    1.714    0.000    2.571    8.000    6.286 
#    2.571    0.000    0.000    0.000    0.000    0.000 
#    0.000    0.000    0.000    0.000    0.000    0.000 
#
# Total GULP energy -173540.922024 kJ/mol
# GULP energy per Si atom -12395.780145 kJ/mol
# Density = 2.303664 g / cm^3
# Si number density = 23.089189 Si / 1000 Ang^3
#
#
#
# Elastic Constant Matrix: (Units=GPa)
#
#
# Indices 1 2 3 4 5 6 
#
# 1 128.9589 33.0609 34.0788 25.2404 -9.9927 12.0760
# 2 33.0609 99.4966 23.8367 8.8517 -15.7713 10.2675
# 3 34.0788 23.8367 54.1079 -0.7421 -12.3068 -0.7832
# 4 25.2404 8.8517 -0.7421 37.0769 0.9832 2.9478
# 5 -9.9927 -15.7713 -12.3068 0.9832 39.9905 6.2015
# 6 12.0760 10.2675 -0.7832 2.9478 6.2015 48.7863
#
#
#
# Elastic Compliance Matrix: (Units=1/GPa)
#
#
# Indices 1 2 3 4 5 6 
#
# 1 0.011616 -0.001179 -0.006725 -0.007595 0.000926 -0.002394
# 2 -0.001179 0.012479 -0.003938 -0.002139 0.003896 -0.002764
# 3 -0.006725 -0.003938 0.025507 0.005757 0.004160 0.002026
# 4 -0.007595 -0.002139 0.005757 0.032763 -0.001881 0.000682
# 5 0.000926 0.003896 0.004160 -0.001881 0.028803 -0.004530
# 6 -0.002394 -0.002764 0.002026 0.000682 -0.004530 0.022239
#
#
# Mechanical properties :
#
#
# Convention : Reuss Voigt Hill
#
# Bulk Modulus (GPa) = 38.58409 51.61293 45.09851
# Shear Modulus (GPa) = 30.16946 37.94319 34.05633
#
# Velocity S-wave (km/s) = 3.61868 4.05820 3.84473
# Velocity P-wave (km/s) = 5.84867 6.66040 6.26769
#
# Compressibility (1/GPa) = 0.02591742
#
# Stress axis : x y z
#
# Youngs Moduli (GPa) = 86.08506 80.13531 39.20546
#
# Poissons Ratio (x) = 0.09450 0.26366
# Poissons Ratio (y) = 0.10151 0.15439
# Poissons Ratio (z) = 0.57893 0.31557
#
# Static dielectric constant tensor:
#      x y z
#    x 4.394510 0.391020 -0.167860 
#    y 0.391020 4.618140 -0.359080 
#    z -0.167860 -0.359080 4.202170 
# 
# 
# High freq. dielectric constant tensor:
#      x y z
#    x 1.927170 0.016340 0.003530 
#    y 0.016340 1.918670 -0.005770 
#    z 0.003530 -0.005770 1.891210 
# 
# From -- ./inp_files/47330.got.cif
#   From: 2010.06.25/outbox.cif.g09.slc.cpg/sg2_24_cif.got.tgz:47330.got - 2010.06.27 13:26:56.
