data_PCOD8018044
_publ_section_title
;
Structure prediction by ZEFSAII (Michael W. Deem and Ramdas Pophale) SiO2 
 PCOD8018044
Probable space group: P -1
;
_chemical_formula_sum "Si O2"
_cell_formula_units_Z 16
_cell_length_a 8.561460
_cell_length_b 8.219299
_cell_length_c 27.638190
_cell_angle_alpha 31.044779
_cell_angle_beta 50.344113
_cell_angle_gamma 54.494828
_cell_volume 769.353632
_symmetry_space_group_name_H-M "P -1"
_symmetry_group_IT_number 2
_symmetry_cell_setting 'triclinic'
loop_
_space_group_symop_operation_xyz
x,y,z
-x,-y,-z
loop_
_atom_site_type_symbol
_atom_site_label
_atom_site_fract_x
_atom_site_fract_y
_atom_site_fract_z
Si Si1 0.356930 0.076509 0.229606
Si Si2 0.166034 0.863936 0.540139
Si Si3 0.548229 0.847095 0.913773
Si Si4 0.935836 0.844081 0.906726
Si Si5 0.559437 0.843245 0.418303
Si Si6 0.670691 0.170651 0.949903
Si Si7 0.945363 0.854676 0.406480
Si Si8 0.696073 0.858676 0.288883
O O1 0.421492 0.970218 0.189021
O O2 0.375400 0.448946 0.140068
O O3 0.509115 0.854826 0.289490
O O4 0.126904 0.002275 0.304457
O O5 0.373240 0.009086 0.444311
O O6 0.199678 0.485077 0.629861
O O7 0.106993 0.953820 0.583250
O O8 0.000000 0.000000 0.500000
O O9 0.752899 0.854834 0.902365
O O10 0.500000 0.500000 0.000000
O O11 0.350368 0.964675 0.956230
O O12 0.883609 0.065754 0.907977
O O13 0.133175 0.944300 0.816172
O O14 0.000000 0.500000 0.000000
O O15 0.500000 0.500000 0.500000
O O16 0.755929 0.849559 0.410362
O O17 0.603037 0.029421 0.312692
O O18 0.500000 0.000000 0.000000
O O19 0.000000 0.500000 0.500000
#
# Coordination Sequence:
#
# PCOD8018044 Si02
#       8
#     2   2   2   2   2   2   2   2
#     4  11  22  40  63  91 124 163 211 263 315 376
#     4  11  23  42  65  92 125 164 206 262 323 380
#     4   9  19  37  58  84 118 159 206 259 311 365
#     4  11  21  37  61  91 124 164 207 254 312 380
#     4  10  22  40  61  88 120 159 209 259 311 373
#     4   9  19  38  62  87 120 163 204 253 312 365
#     4  12  23  40  63  90 123 164 207 260 316 376
#     4  11  22  40  62  91 124 162 209 262 317 381
#
# _framework density 20.796679999999999
#
# number of rings (size 3 to 8) (size 9 to 14) (size 15 to 20)
#    0.000    1.500    0.000    7.875    0.000    0.000 
#    0.000   13.125    0.000    0.000    0.000    0.000 
#    0.000    0.000    0.000    0.000    0.000    0.000 
#
# Total GULP energy -198222.376300 kJ/mol
# GULP energy per Si atom -12388.898519 kJ/mol
# Density = 2.074935 g / cm^3
# Si number density = 20.796680 Si / 1000 Ang^3
#
#
#
# Elastic Constant Matrix: (Units=GPa)
#
#
# Indices 1 2 3 4 5 6 
#
# 1 147.9035 28.2871 56.0707 19.7065 11.0479 -7.9009
# 2 28.2871 83.0577 65.9703 33.7560 6.8078 3.5954
# 3 56.0707 65.9703 136.1305 37.5212 4.9995 -5.6996
# 4 19.7065 33.7560 37.5212 57.5689 -1.0782 4.6379
# 5 11.0479 6.8078 4.9995 -1.0782 45.7966 5.0242
# 6 -7.9009 3.5954 -5.6996 4.6379 5.0242 35.2201
#
#
#
# Elastic Compliance Matrix: (Units=1/GPa)
#
#
# Indices 1 2 3 4 5 6 
#
# 1 0.008265 0.000100 -0.003003 -0.001109 -0.001902 0.001775
# 2 0.000100 0.022245 -0.008871 -0.007144 -0.002265 -0.002420
# 3 -0.003003 -0.008871 0.013824 -0.003007 0.000151 0.002843
# 4 -0.001109 -0.007144 -0.003007 0.024236 0.002620 -0.003571
# 5 -0.001902 -0.002265 0.000151 0.002620 0.023094 -0.003810
# 6 0.001775 -0.002420 0.002843 -0.003571 -0.003810 0.030512
#
#
# Mechanical properties :
#
#
# Convention : Reuss Voigt Hill
#
# Bulk Modulus (GPa) = 48.10590 74.19422 61.15006
# Shear Modulus (GPa) = 32.75418 42.16801 37.46110
#
# Velocity S-wave (km/s) = 3.97290 4.50781 4.24878
# Velocity P-wave (km/s) = 6.65034 7.92762 7.31690
#
# Compressibility (1/GPa) = 0.02078747
#
# Stress axis : x y z
#
# Youngs Moduli (GPa) = 120.99021 44.95348 72.33904
#
# Poissons Ratio (x) = -0.00450 0.21723
# Poissons Ratio (y) = -0.01212 0.64169
# Poissons Ratio (z) = 0.36332 0.39877
#
# Static dielectric constant tensor:
#      x y z
#    x 3.961780 0.041400 -0.010510 
#    y 0.041400 4.240150 -0.105770 
#    z -0.010510 -0.105770 2.808140 
# 
# 
# High freq. dielectric constant tensor:
#      x y z
#    x 1.814950 0.005880 -0.002740 
#    y 0.005880 1.821830 0.035290 
#    z -0.002740 0.035290 1.825470 
# 
# From -- ./inp_files/616582.got.cif
#   From: 2010.06.25/outbox.cif.g09.slc.cpg/sg2_309_cif.got.tgz:616582.got - 2010.06.27 13:26:56.
