data_PCOD8018703
_publ_section_title
;
Structure prediction by ZEFSAII (Michael W. Deem and Ramdas Pophale) SiO2 
 PCOD8018703
Probable space group: P -1
;
_chemical_formula_sum "Si O2"
_cell_formula_units_Z 16
_cell_length_a 14.150002
_cell_length_b 9.663307
_cell_length_c 13.094696
_cell_angle_alpha 120.260457
_cell_angle_beta 119.446476
_cell_angle_gamma 111.550848
_cell_volume 775.194677
_symmetry_space_group_name_H-M "P -1"
_symmetry_group_IT_number 2
_symmetry_cell_setting 'triclinic'
loop_
_space_group_symop_operation_xyz
x,y,z
-x,-y,-z
loop_
_atom_site_type_symbol
_atom_site_label
_atom_site_fract_x
_atom_site_fract_y
_atom_site_fract_z
Si Si1 0.326615 0.293507 0.047147
Si Si2 0.156495 0.824038 0.200509
Si Si3 0.549381 0.192086 0.449374
Si Si4 0.181599 0.883087 0.650753
Si Si5 0.370091 0.080139 0.607528
Si Si6 0.767747 0.343784 0.256845
Si Si7 0.500041 0.201652 0.196785
Si Si8 0.905054 0.790566 0.961802
O O1 0.453328 0.592575 0.190369
O O2 0.431662 0.301408 0.184829
O O3 0.143265 0.141751 0.949684
O O4 0.264677 0.126127 0.851393
O O5 0.343404 0.000998 0.303208
O O6 0.210890 0.931833 0.385387
O O7 0.000000 0.500000 0.000000
O O8 0.065634 0.866455 0.114479
O O9 0.585543 0.283114 0.384761
O O10 0.712618 0.470399 0.706612
O O11 0.559349 0.015072 0.406583
O O12 0.205933 0.742272 0.665498
O O13 0.960508 0.646394 0.427132
O O14 0.286428 0.005870 0.646044
O O15 0.649065 0.349725 0.239670
O O16 0.667881 0.130679 0.030930
O O17 0.000000 0.000000 0.000000
#
# Coordination Sequence:
#
# PCOD8018703 Si02
#       8
#     2   2   2   2   2   2   2   2
#     4  11  25  44  65 100 141 173 222 286 337 402
#     4  12  26  45  69 101 137 180 230 276 338 409
#     4  12  25  46  73  99 134 184 229 279 337 408
#     4  10  22  41  68  98 135 176 221 278 337 402
#     4  12  24  45  69  98 137 181 222 278 346 402
#     4   9  20  41  66 100 130 172 230 274 322 409
#     4  10  22  40  69  96 131 176 222 276 338 391
#     4  12  28  46  71 102 137 182 229 284 341 399
#
# _framework density 20.639976000000001
#
# number of rings (size 3 to 8) (size 9 to 14) (size 15 to 20)
#    0.000    1.000    3.750    2.250    5.250    2.000 
#    0.000    1.250    0.000    0.000    0.000    0.000 
#    0.000    0.000    0.000    0.000    0.000    0.000 
#
# Total GULP energy -198464.583363 kJ/mol
# GULP energy per Si atom -12404.036460 kJ/mol
# Density = 2.059300 g / cm^3
# Si number density = 20.639976 Si / 1000 Ang^3
#
#
#
# Elastic Constant Matrix: (Units=GPa)
#
#
# Indices 1 2 3 4 5 6 
#
# 1 140.9419 68.5630 57.3068 2.7966 10.0860 -4.7045
# 2 68.5630 93.0137 28.7337 -2.0592 2.2553 -1.0554
# 3 57.3068 28.7337 88.0158 -1.9568 10.1556 1.2185
# 4 2.7966 -2.0592 -1.9568 39.2480 2.7454 0.8844
# 5 10.0860 2.2553 10.1556 2.7454 35.7891 -4.9404
# 6 -4.7045 -1.0554 1.2185 0.8844 -4.9404 38.0960
#
#
#
# Elastic Compliance Matrix: (Units=1/GPa)
#
#
# Indices 1 2 3 4 5 6 
#
# 1 0.013809 -0.008249 -0.006210 -0.001673 -0.001267 0.001550
# 2 -0.008249 0.016905 -0.000246 0.001391 0.001164 -0.000424
# 3 -0.006210 -0.000246 0.015899 0.001478 -0.003096 -0.001718
# 4 -0.001673 0.001391 0.001478 0.025922 -0.002176 -0.001099
# 5 -0.001267 0.001164 -0.003096 -0.002176 0.029808 0.003891
# 6 0.001550 -0.000424 -0.001718 -0.001099 0.003891 0.027014
#
#
# Mechanical properties :
#
#
# Convention : Reuss Voigt Hill
#
# Bulk Modulus (GPa) = 58.12748 70.13092 64.12920
# Shear Modulus (GPa) = 30.39498 33.78448 32.08973
#
# Velocity S-wave (km/s) = 3.84165 4.05019 3.94729
# Velocity P-wave (km/s) = 6.92108 7.47823 7.20504
#
# Compressibility (1/GPa) = 0.01720357
#
# Stress axis : x y z
#
# Youngs Moduli (GPa) = 72.41856 59.15315 62.89658
#
# Poissons Ratio (x) = 0.48795 0.39060
# Poissons Ratio (y) = 0.59738 0.01544
# Poissons Ratio (z) = 0.44973 0.01452
#
# Static dielectric constant tensor:
#      x y z
#    x 3.878110 0.108820 -0.012320 
#    y 0.108820 3.530790 0.076050 
#    z -0.012320 0.076050 3.898850 
# 
# 
# High freq. dielectric constant tensor:
#      x y z
#    x 1.821360 0.003010 0.000810 
#    y 0.003010 1.806910 -0.000220 
#    z 0.000810 -0.000220 1.817800 
# 
# From -- ./inp_files/447881.got.cif
#   From: 2010.06.25/outbox.cif.g09.slc.cpg/sg2_224_cif.got.tgz:447881.got - 2010.06.27 13:26:56.
