data_PCOD8018747
_publ_section_title
;
Structure prediction by ZEFSAII (Michael W. Deem and Ramdas Pophale) SiO2 
 PCOD8018747
Probable space group: P -1
;
_chemical_formula_sum "Si O2"
_cell_formula_units_Z 16
_cell_length_a 12.301418
_cell_length_b 21.683859
_cell_length_c 11.568560
_cell_angle_alpha 151.311828
_cell_angle_beta 141.263964
_cell_angle_gamma 31.206850
_cell_volume 762.016810
_symmetry_space_group_name_H-M "P -1"
_symmetry_group_IT_number 2
_symmetry_cell_setting 'triclinic'
loop_
_space_group_symop_operation_xyz
x,y,z
-x,-y,-z
loop_
_atom_site_type_symbol
_atom_site_label
_atom_site_fract_x
_atom_site_fract_y
_atom_site_fract_z
Si Si1 0.242550 0.385469 0.494152
Si Si2 0.554234 0.878322 0.942795
Si Si3 0.532418 0.484296 0.212111
Si Si4 0.604202 0.724234 0.316481
Si Si5 0.593184 0.340137 0.251372
Si Si6 0.773627 0.190479 0.380314
Si Si7 0.200142 0.334831 0.851265
Si Si8 0.233640 0.070036 0.583177
O O1 0.285795 0.293109 0.259320
O O2 0.333285 0.490135 0.724565
O O3 0.336211 0.268395 0.489546
O O4 0.000000 0.500000 0.500000
O O5 0.337738 0.899339 0.835890
O O6 0.678169 0.893991 0.173668
O O7 0.500000 0.000000 0.000000
O O8 0.675924 0.355612 0.220588
O O9 0.346335 0.644693 0.381321
O O10 0.434316 0.411642 0.936461
O O11 0.790962 0.673054 0.294563
O O12 0.401311 0.893760 0.389571
O O13 0.500000 0.500000 0.500000
O O14 0.773515 0.208923 0.270376
O O15 0.413031 0.308511 0.033551
O O16 0.014357 0.087642 0.456592
O O17 0.185024 0.194568 0.648940
O O18 0.000000 0.500000 0.000000
#
# Coordination Sequence:
#
# PCOD8018747 Si02
#       8
#     2   2   2   2   2   2   2   2
#     4  11  25  40  65  94 133 176 219 279 324 386
#     4  11  24  46  65  98 136 175 223 270 326 404
#     4   9  21  41  62  92 130 168 222 274 319 396
#     4  11  24  43  61  98 137 167 220 275 332 390
#     4   9  17  36  62  94 126 156 219 276 314 381
#     4  10  22  40  70  94 126 176 222 271 328 391
#     4  11  23  40  71  98 130 173 220 277 327 396
#     4  12  24  43  69  98 135 174 217 273 338 392
#
# _framework density 20.996911000000001
#
# number of rings (size 3 to 8) (size 9 to 14) (size 15 to 20)
#    0.000    1.500    2.500    3.000    3.500    2.500 
#    0.000    2.500    0.000    0.000    0.000    0.000 
#    0.000    0.000    0.000    0.000    0.000    0.000 
#
# Total GULP energy -198333.727535 kJ/mol
# GULP energy per Si atom -12395.857971 kJ/mol
# Density = 2.094912 g / cm^3
# Si number density = 20.996911 Si / 1000 Ang^3
#
#
#
# Elastic Constant Matrix: (Units=GPa)
#
#
# Indices 1 2 3 4 5 6 
#
# 1 135.6983 63.4144 29.6713 -1.5472 5.2172 1.1838
# 2 63.4144 100.9582 35.1484 2.3574 12.0968 -7.8571
# 3 29.6713 35.1484 56.9282 -12.4248 1.4129 0.0816
# 4 -1.5472 2.3574 -12.4248 35.5443 2.6701 1.0132
# 5 5.2172 12.0968 1.4129 2.6701 30.7241 2.9987
# 6 1.1838 -7.8571 0.0816 1.0132 2.9987 33.7669
#
#
#
# Elastic Compliance Matrix: (Units=1/GPa)
#
#
# Indices 1 2 3 4 5 6 
#
# 1 0.010713 -0.006472 -0.001534 0.000343 0.000962 -0.001974
# 2 -0.006472 0.018163 -0.008623 -0.004212 -0.005789 0.005114
# 3 -0.001534 -0.008623 0.025702 0.009417 0.001896 -0.002466
# 4 0.000343 -0.004212 0.009417 0.031880 -0.001424 -0.001845
# 5 0.000962 -0.005789 0.001896 -0.001424 0.035136 -0.004463
# 6 -0.001974 0.005114 -0.002466 -0.001845 -0.004463 0.031332
#
#
# Mechanical properties :
#
#
# Convention : Reuss Voigt Hill
#
# Bulk Modulus (GPa) = 46.90785 61.11701 54.01243
# Shear Modulus (GPa) = 25.86789 31.03043 28.44916
#
# Velocity S-wave (km/s) = 3.51377 3.84846 3.68492
# Velocity P-wave (km/s) = 6.23306 6.99417 6.62455
#
# Compressibility (1/GPa) = 0.02131839
#
# Stress axis : x y z
#
# Youngs Moduli (GPa) = 93.34061 55.05789 38.90817
#
# Poissons Ratio (x) = 0.35635 0.05968
# Poissons Ratio (y) = 0.60413 0.33552
# Poissons Ratio (z) = 0.14318 0.47479
#
# Static dielectric constant tensor:
#      x y z
#    x 4.320460 0.560780 -0.022750 
#    y 0.560780 3.991870 -0.125670 
#    z -0.022750 -0.125670 4.045660 
# 
# 
# High freq. dielectric constant tensor:
#      x y z
#    x 1.829480 0.018070 0.005120 
#    y 0.018070 1.804360 -0.002290 
#    z 0.005120 -0.002290 1.831600 
# 
# From -- ./inp_files/438744.got.cif
#   From: 2010.06.25/outbox.cif.g09.slc.cpg/sg2_220_cif.got.tgz:438744.got - 2010.06.27 13:26:56.
