data_PCOD8018574
_publ_section_title
;
Structure prediction by ZEFSAII (Michael W. Deem and Ramdas Pophale) SiO2 
 PCOD8018574
Probable space group: P -1
;
_chemical_formula_sum "Si O2"
_cell_formula_units_Z 16
_cell_length_a 8.498789
_cell_length_b 15.627651
_cell_length_c 9.775149
_cell_angle_alpha 45.131304
_cell_angle_beta 109.531430
_cell_angle_gamma 83.660436
_cell_volume 741.552565
_symmetry_space_group_name_H-M "P -1"
_symmetry_group_IT_number 2
_symmetry_cell_setting 'triclinic'
loop_
_space_group_symop_operation_xyz
x,y,z
-x,-y,-z
loop_
_atom_site_type_symbol
_atom_site_label
_atom_site_fract_x
_atom_site_fract_y
_atom_site_fract_z
Si Si1 0.595827 0.123562 0.893617
Si Si2 0.041922 0.282914 0.943694
Si Si3 0.474343 0.197906 0.084783
Si Si4 0.015794 0.521407 0.821631
Si Si5 0.657791 0.376613 0.582944
Si Si6 0.408458 0.466012 0.885272
Si Si7 0.774246 0.840344 0.374071
Si Si8 0.859671 0.939679 0.555661
O O1 0.653596 0.234189 0.741293
O O2 0.450532 0.121379 0.740014
O O3 0.500342 0.168836 0.964465
O O4 0.780191 0.960034 0.145682
O O5 0.940149 0.427355 0.837624
O O6 0.882786 0.325356 0.732223
O O7 0.253722 0.239962 0.999447
O O8 0.059781 0.153087 0.180696
O O9 0.633213 0.062029 0.369788
O O10 0.527046 0.315552 0.011861
O O11 0.234259 0.459133 0.910431
O O12 0.899881 0.678498 0.546869
O O13 0.000000 0.500000 0.000000
O O14 0.500000 0.500000 0.500000
O O15 0.629389 0.420461 0.367987
O O16 0.500000 0.500000 0.000000
O O17 0.860284 0.840394 0.547335
O O18 0.000000 0.000000 0.500000
#
# Coordination Sequence:
#
# PCOD8018574 Si02
#       8
#     2   2   2   2   2   2   2   2
#     4  10  22  42  70  92 136 178 230 274 343 398
#     4  11  24  41  66 100 134 177 236 274 349 401
#     4  10  23  43  65  99 135 182 226 287 336 411
#     4  11  24  41  69  95 135 179 224 278 338 405
#     4  12  25  44  71 101 137 182 230 287 344 407
#     4  11  28  43  66 102 138 174 230 286 343 404
#     4  10  22  40  67  97 128 180 228 275 331 408
#     4  11  23  41  71  96 136 180 232 276 346 408
#
# _framework density 21.576353000000001
#
# number of rings (size 3 to 8) (size 9 to 14) (size 15 to 20)
#    0.000    1.250    2.500    2.625    7.000    1.000 
#    0.000    0.625    0.000    0.000    0.000    0.000 
#    0.000    0.000    0.000    0.000    0.000    0.000 
#
# Total GULP energy -198217.538290 kJ/mol
# GULP energy per Si atom -12388.596143 kJ/mol
# Density = 2.152724 g / cm^3
# Si number density = 21.576353 Si / 1000 Ang^3
#
#
#
# Elastic Constant Matrix: (Units=GPa)
#
#
# Indices 1 2 3 4 5 6 
#
# 1 86.3243 44.6816 48.0980 0.3922 -8.2209 14.1994
# 2 44.6816 98.6395 61.2705 -0.5007 -7.7434 21.8559
# 3 48.0980 61.2705 144.4585 -6.4534 -9.1232 10.5082
# 4 0.3922 -0.5007 -6.4534 49.2247 6.1745 -2.5070
# 5 -8.2209 -7.7434 -9.1232 6.1745 43.4742 -1.0216
# 6 14.1994 21.8559 10.5082 -2.5070 -1.0216 32.6181
#
#
#
# Elastic Compliance Matrix: (Units=1/GPa)
#
#
# Indices 1 2 3 4 5 6 
#
# 1 0.016449 -0.004654 -0.003220 -0.000964 0.001672 -0.003027
# 2 -0.004654 0.017310 -0.005192 -0.001006 0.001070 -0.007944
# 3 -0.003220 -0.005192 0.010159 0.001336 0.000449 0.001725
# 4 -0.000964 -0.001006 0.001336 0.020976 -0.003009 0.002182
# 5 0.001672 0.001070 0.000449 -0.003009 0.024005 -0.001069
# 6 -0.003027 -0.007944 0.001725 0.002182 -0.001069 0.036877
#
#
# Mechanical properties :
#
#
# Convention : Reuss Voigt Hill
#
# Bulk Modulus (GPa) = 56.22295 70.83580 63.52937
# Shear Modulus (GPa) = 31.67835 36.75490 34.21662
#
# Velocity S-wave (km/s) = 3.83586 4.13180 3.98658
# Velocity P-wave (km/s) = 6.76260 7.46083 7.12028
#
# Compressibility (1/GPa) = 0.01778633
#
# Stress axis : x y z
#
# Youngs Moduli (GPa) = 60.79546 57.77006 98.43245
#
# Poissons Ratio (x) = 0.26885 0.31697
# Poissons Ratio (y) = 0.28292 0.51105
# Poissons Ratio (z) = 0.19577 0.29994
#
# Static dielectric constant tensor:
#      x y z
#    x 3.723200 0.156500 0.030830 
#    y 0.156500 4.152090 -0.345530 
#    z 0.030830 -0.345530 4.259790 
# 
# 
# High freq. dielectric constant tensor:
#      x y z
#    x 1.832690 0.024860 -0.001270 
#    y 0.024860 1.857380 -0.010810 
#    z -0.001270 -0.010810 1.864910 
# 
# From -- ./inp_files/205715.got.cif
#   From: 2010.06.25/outbox.cif.g09.slc.cpg/sg2_103_cif.got.tgz:205715.got - 2010.06.27 13:26:56.
