data_PCOD8018272
_publ_section_title
;
Structure prediction by ZEFSAII (Michael W. Deem and Ramdas Pophale) SiO2 
 PCOD8018272
Probable space group: P -1
;
_chemical_formula_sum "Si O2"
_cell_formula_units_Z 14
_cell_length_a 9.541649
_cell_length_b 14.789079
_cell_length_c 12.185372
_cell_angle_alpha 151.605132
_cell_angle_beta 126.992501
_cell_angle_gamma 50.565362
_cell_volume 627.222839
_symmetry_space_group_name_H-M "P -1"
_symmetry_group_IT_number 2
_symmetry_cell_setting 'triclinic'
loop_
_space_group_symop_operation_xyz
x,y,z
-x,-y,-z
loop_
_atom_site_type_symbol
_atom_site_label
_atom_site_fract_x
_atom_site_fract_y
_atom_site_fract_z
Si Si1 0.991340 0.129943 0.482947
Si Si2 0.714891 0.667581 0.129293
Si Si3 0.262608 0.776713 0.345591
Si Si4 0.911421 0.003724 0.084817
Si Si5 0.883722 0.414602 0.270183
Si Si6 0.631903 0.169457 0.977153
Si Si7 0.359130 0.203575 0.537863
O O1 0.086805 0.295730 0.747398
O O2 0.800326 0.174244 0.505566
O O3 0.121173 0.914855 0.343195
O O4 0.957286 0.145343 0.352026
O O5 0.588449 0.745783 0.045838
O O6 0.603585 0.803717 0.321941
O O7 0.734449 0.441629 0.921402
O O8 0.461263 0.808263 0.461263
O O9 0.971530 0.779848 0.922108
O O10 0.694261 0.091272 0.047161
O O11 0.000000 0.000000 0.000000
O O12 0.796558 0.588134 0.328886
O O13 0.000000 0.500000 0.500000
O O14 0.718082 0.347171 0.175669
O O15 0.711597 0.982653 0.731824
#
# Coordination Sequence:
#
# PCOD8018272 Si02
#       7
#     2   2   2   2   2   2   2
#     4  11  25  45  65  93 132 172 210 265 318 382
#     4  12  23  39  71  96 125 168 220 265 311 372
#     4  11  25  43  66  94 131 169 216 260 322 378
#     4  10  22  40  64  94 129 164 208 261 321 369
#     4  11  22  37  62  94 130 158 210 265 314 374
#     4  11  23  38  61  95 132 162 204 270 320 367
#     4  12  23  39  67  98 127 167 215 271 311 371
#
# _framework density 22.320616000000001
#
# number of rings (size 3 to 8) (size 9 to 14) (size 15 to 20)
#    0.000    0.857    4.286    3.857    6.000    0.000 
#    0.000    1.429    0.000    0.000    0.000    0.000 
#    0.000    0.000    0.000    0.000    0.000    0.000 
#
# Total GULP energy -173498.504475 kJ/mol
# GULP energy per Si atom -12392.750320 kJ/mol
# Density = 2.226981 g / cm^3
# Si number density = 22.320616 Si / 1000 Ang^3
#
#
#
# Elastic Constant Matrix: (Units=GPa)
#
#
# Indices 1 2 3 4 5 6 
#
# 1 85.6654 24.5571 19.4020 -16.1033 4.2644 5.5824
# 2 24.5571 51.0843 20.5920 -30.1692 2.5772 -9.1383
# 3 19.4020 20.5920 109.8259 -11.8060 14.4964 0.5757
# 4 -16.1033 -30.1692 -11.8060 44.3762 2.6903 2.8607
# 5 4.2644 2.5772 14.4964 2.6903 24.0151 -4.1830
# 6 5.5824 -9.1383 0.5757 2.8607 -4.1830 22.5665
#
#
#
# Elastic Compliance Matrix: (Units=1/GPa)
#
#
# Indices 1 2 3 4 5 6 
#
# 1 0.014740 -0.007590 -0.000717 0.000632 -0.002709 -0.007284
# 2 -0.007590 0.041477 -0.003916 0.023429 -0.000632 0.015686
# 3 -0.000717 -0.003916 0.010919 0.000577 -0.006629 -0.002989
# 4 0.000632 0.023429 0.000577 0.039059 -0.006810 0.003103
# 5 -0.002709 -0.000632 -0.006629 -0.006810 0.048780 0.010489
# 6 -0.007284 0.015686 -0.002989 0.003103 0.010489 0.054095
#
#
# Mechanical properties :
#
#
# Convention : Reuss Voigt Hill
#
# Bulk Modulus (GPa) = 23.42472 41.74200 32.58336
# Shear Modulus (GPa) = 20.18196 30.32652 25.25424
#
# Velocity S-wave (km/s) = 3.01023 3.69002 3.36732
# Velocity P-wave (km/s) = 4.75388 6.07427 5.45418
#
# Compressibility (1/GPa) = 0.04268995
#
# Stress axis : x y z
#
# Youngs Moduli (GPa) = 67.84391 24.10951 91.58411
#
# Poissons Ratio (x) = 0.18298 0.06568
# Poissons Ratio (y) = 0.51490 0.35867
# Poissons Ratio (z) = 0.04866 0.09442
#
# Static dielectric constant tensor:
#      x y z
#    x 3.739870 -0.273850 0.203240 
#    y -0.273850 4.716050 0.080590 
#    z 0.203240 0.080590 4.130490 
# 
# 
# High freq. dielectric constant tensor:
#      x y z
#    x 1.833680 -0.016640 0.019410 
#    y -0.016640 1.897260 0.006550 
#    z 0.019410 0.006550 1.890800 
# 
# From -- ./inp_files/345026.got.cif
#   From: 2010.06.25/outbox.cif.g09.slc.cpg/sg2_173_cif.got.tgz:345026.got - 2010.06.27 13:26:56.
