data_PCOD8018809
_publ_section_title
;
Structure prediction by ZEFSAII (Michael W. Deem and Ramdas Pophale) SiO2 
 PCOD8018809
Probable space group: P -1
;
_chemical_formula_sum "Si O2"
_cell_formula_units_Z 12
_cell_length_a 9.151713
_cell_length_b 18.441520
_cell_length_c 12.677018
_cell_angle_alpha 19.886218
_cell_angle_beta 131.090045
_cell_angle_gamma 133.130836
_cell_volume 530.231146
_symmetry_space_group_name_H-M "P -1"
_symmetry_group_IT_number 2
_symmetry_cell_setting 'triclinic'
loop_
_space_group_symop_operation_xyz
x,y,z
-x,-y,-z
loop_
_atom_site_type_symbol
_atom_site_label
_atom_site_fract_x
_atom_site_fract_y
_atom_site_fract_z
Si Si1 0.825019 0.034492 0.444614
Si Si2 0.902517 0.056771 0.690088
Si Si3 0.780105 0.506572 0.723285
Si Si4 0.568704 0.296700 0.718773
Si Si5 0.150451 0.725406 0.296831
Si Si6 0.590054 0.082230 0.671940
O O1 0.618944 0.869982 0.529076
O O2 0.865526 0.974288 0.665222
O O3 0.000000 0.000000 0.500000
O O4 0.799544 0.282188 0.093497
O O5 0.692595 0.014324 0.709283
O O6 0.015285 0.313588 0.400981
O O7 0.034918 0.912602 0.004413
O O8 0.741578 0.472225 0.626035
O O9 0.587854 0.581953 0.575433
O O10 0.678625 0.193122 0.822268
O O11 0.448960 0.114314 0.992459
O O12 0.263718 0.707103 0.487068
O O13 0.000000 0.500000 0.500000
#
# Coordination Sequence:
#
# PCOD8018809 Si02
#       6
#     2   2   2   2   2   2
#     4  11  26  46  68  96 133 180 224 271 332 398
#     4  12  24  44  67 101 136 173 221 273 333 396
#     4  10  22  40  72  94 133 172 222 268 332 388
#     4  10  22  41  68 101 130 174 221 271 329 393
#     4  12  26  41  69 103 136 170 226 276 328 391
#     4  11  24  44  68  97 137 176 219 276 333 391
#
# _framework density 22.631640999999998
#
# number of rings (size 3 to 8) (size 9 to 14) (size 15 to 20)
#    0.000    1.000    1.667    5.000    9.333    0.000 
#    0.000    1.667    0.000    0.000    0.000    0.000 
#    0.000    0.000    0.000    0.000    0.000    0.000 
#
# Total GULP energy -148810.062019 kJ/mol
# GULP energy per Si atom -12400.838502 kJ/mol
# Density = 2.258013 g / cm^3
# Si number density = 22.631641 Si / 1000 Ang^3
#
#
#
# Elastic Constant Matrix: (Units=GPa)
#
#
# Indices 1 2 3 4 5 6 
#
# 1 170.3160 53.2744 7.4644 16.7081 6.3919 -3.1062
# 2 53.2744 169.9162 16.1676 8.8838 -4.3261 10.1227
# 3 7.4644 16.1676 37.7794 -0.0987 2.1567 10.8290
# 4 16.7081 8.8838 -0.0987 29.8041 2.5351 0.3517
# 5 6.3919 -4.3261 2.1567 2.5351 29.8352 7.3525
# 6 -3.1062 10.1227 10.8290 0.3517 7.3525 35.6708
#
#
#
# Elastic Compliance Matrix: (Units=1/GPa)
#
#
# Indices 1 2 3 4 5 6 
#
# 1 0.006986 -0.002101 -0.000928 -0.003151 -0.001939 0.001917
# 2 -0.002101 0.006976 -0.002138 -0.001072 0.002189 -0.001954
# 3 -0.000928 -0.002138 0.030038 0.001383 -0.000294 -0.008546
# 4 -0.003151 -0.001072 0.001383 0.035864 -0.002575 -0.000213
# 5 -0.001939 0.002189 -0.000294 -0.002575 0.036511 -0.008201
# 6 0.001917 -0.001954 -0.008546 -0.000213 -0.008201 0.033043
#
#
# Mechanical properties :
#
#
# Convention : Reuss Voigt Hill
#
# Bulk Modulus (GPa) = 29.70391 59.09162 44.39777
# Shear Modulus (GPa) = 29.24434 39.13569 34.19001
#
# Velocity S-wave (km/s) = 3.59860 4.16293 3.89101
# Velocity P-wave (km/s) = 5.51543 7.01951 6.31243
#
# Compressibility (1/GPa) = 0.03366560
#
# Stress axis : x y z
#
# Youngs Moduli (GPa) = 143.14098 143.35843 33.29145
#
# Poissons Ratio (x) = 0.30118 0.03090
# Poissons Ratio (y) = 0.30072 0.07117
# Poissons Ratio (z) = 0.13288 0.30646
#
# Static dielectric constant tensor:
#      x y z
#    x 4.109080 0.100910 0.105700 
#    y 0.100910 4.619900 -0.023600 
#    z 0.105700 -0.023600 3.762330 
# 
# 
# High freq. dielectric constant tensor:
#      x y z
#    x 1.899820 0.006250 0.009700 
#    y 0.006250 1.914240 -0.000590 
#    z 0.009700 -0.000590 1.860680 
# 
# From -- ./inp_files/159544.got.cif
#   From: 2010.06.25/outbox.cif.g09.slc.cpg/sg2_80_cif.got.tgz:159544.got - 2010.06.27 13:26:56.
