data_PCOD8018208
_publ_section_title
;
Structure prediction by ZEFSAII (Michael W. Deem and Ramdas Pophale) SiO2 
 PCOD8018208
Probable space group: P -1
;
_chemical_formula_sum "Si O2"
_cell_formula_units_Z 16
_cell_length_a 9.033232
_cell_length_b 15.560422
_cell_length_c 9.512666
_cell_angle_alpha 112.990248
_cell_angle_beta 110.395047
_cell_angle_gamma 39.175419
_cell_volume 775.152181
_symmetry_space_group_name_H-M "P -1"
_symmetry_group_IT_number 2
_symmetry_cell_setting 'triclinic'
loop_
_space_group_symop_operation_xyz
x,y,z
-x,-y,-z
loop_
_atom_site_type_symbol
_atom_site_label
_atom_site_fract_x
_atom_site_fract_y
_atom_site_fract_z
Si Si1 0.744114 0.080098 0.928360
Si Si2 0.492888 0.305238 0.756653
Si Si3 0.164826 0.116408 0.383602
Si Si4 0.513013 0.123331 0.454322
Si Si5 0.608246 0.371250 0.358664
Si Si6 0.039308 0.560318 0.934020
Si Si7 0.627698 0.441855 0.859064
Si Si8 0.465788 0.223695 0.209631
O O1 0.630938 0.208453 0.875923
O O2 0.753021 0.978410 0.785054
O O3 0.600590 0.131875 0.056857
O O4 0.000000 0.000000 0.000000
O O5 0.467989 0.242319 0.585473
O O6 0.234588 0.446384 0.812656
O O7 0.637849 0.328107 0.747852
O O8 0.277750 0.168220 0.436843
O O9 0.887393 0.247913 0.389210
O O10 0.258141 0.027166 0.500674
O O11 0.555330 0.119723 0.300518
O O12 0.500000 0.500000 0.500000
O O13 0.536301 0.425232 0.211083
O O14 0.506353 0.313822 0.322905
O O15 0.807138 0.678255 0.842368
O O16 0.116098 0.621896 0.081018
O O17 0.000000 0.500000 0.000000
O O18 0.500000 0.500000 0.000000
#
# Coordination Sequence:
#
# PCOD8018208 Si02
#       8
#     2   2   2   2   2   2   2   2
#     4  11  22  43  70  90 130 174 219 269 318 389
#     4  10  22  42  65  94 132 176 208 263 337 380
#     4  10  25  47  66  90 133 177 211 268 333 382
#     4  10  25  45  66  96 128 170 224 267 326 388
#     4  12  25  42  65  98 133 169 213 264 330 391
#     4  11  21  38  65  99 136 161 214 274 315 382
#     4  10  22  40  63  96 130 170 210 258 325 388
#     4  12  24  42  69 101 124 170 227 268 321 380
#
# _framework density 20.641107999999999
#
# number of rings (size 3 to 8) (size 9 to 14) (size 15 to 20)
#    0.000    1.250    3.750    1.500    5.250    1.500 
#    4.500    0.000    0.000    0.000    0.000    0.000 
#    0.000    0.000    0.000    0.000    0.000    0.000 
#
# Total GULP energy -198407.691614 kJ/mol
# GULP energy per Si atom -12400.480726 kJ/mol
# Density = 2.059413 g / cm^3
# Si number density = 20.641108 Si / 1000 Ang^3
#
#
#
# Elastic Constant Matrix: (Units=GPa)
#
#
# Indices 1 2 3 4 5 6 
#
# 1 147.0670 71.1882 59.1419 -8.4877 27.8258 3.3735
# 2 71.1882 123.0571 66.8688 -11.4514 6.2043 -13.9033
# 3 59.1419 66.8688 98.7622 -21.6498 7.9256 2.8969
# 4 -8.4877 -11.4514 -21.6498 38.4376 5.5828 4.0719
# 5 27.8258 6.2043 7.9256 5.5828 43.5364 -3.3671
# 6 3.3735 -13.9033 2.8969 4.0719 -3.3671 43.5133
#
#
#
# Elastic Compliance Matrix: (Units=1/GPa)
#
#
# Indices 1 2 3 4 5 6 
#
# 1 0.011825 -0.005313 -0.002686 0.000802 -0.006649 -0.003025
# 2 -0.005313 0.016434 -0.008993 -0.002575 0.003546 0.006777
# 3 -0.002686 -0.008993 0.020095 0.008894 -0.002187 -0.005005
# 4 0.000802 -0.002575 0.008894 0.031864 -0.006233 -0.004941
# 5 -0.006649 0.003546 -0.002187 -0.006233 0.028264 0.004564
# 6 -0.003025 0.006777 -0.005005 -0.004941 0.004564 0.026530
#
#
# Mechanical properties :
#
#
# Convention : Reuss Voigt Hill
#
# Bulk Modulus (GPa) = 69.59231 84.80934 77.20082
# Shear Modulus (GPa) = 28.77093 36.54329 32.65711
#
# Velocity S-wave (km/s) = 3.73750 4.21219 3.98193
# Velocity P-wave (km/s) = 7.23974 8.05193 7.65661
#
# Compressibility (1/GPa) = 0.01436940
#
# Stress axis : x y z
#
# Youngs Moduli (GPa) = 84.56454 60.84868 49.76470
#
# Poissons Ratio (x) = 0.32332 0.13366
# Poissons Ratio (y) = 0.44933 0.44754
# Poissons Ratio (z) = 0.22712 0.54722
#
# Static dielectric constant tensor:
#      x y z
#    x 6.841390 0.997510 0.653040 
#    y 0.997510 4.222710 -0.053720 
#    z 0.653040 -0.053720 3.960840 
# 
# 
# High freq. dielectric constant tensor:
#      x y z
#    x 1.818490 0.007740 0.012690 
#    y 0.007740 1.803830 -0.011990 
#    z 0.012690 -0.011990 1.821200 
# 
# From -- ./inp_files/208455.got.cif
#   From: 2010.06.25/outbox.cif.g09.slc.cpg/sg2_105_cif.got.tgz:208455.got - 2010.06.27 13:26:56.
