data_PCOD8018643
_publ_section_title
;
Structure prediction by ZEFSAII (Michael W. Deem and Ramdas Pophale) SiO2 
 PCOD8018643
Probable space group: P -1
;
_chemical_formula_sum "Si O2"
_cell_formula_units_Z 16
_cell_length_a 8.817578
_cell_length_b 12.042245
_cell_length_c 12.332087
_cell_angle_alpha 93.937547
_cell_angle_beta 132.072414
_cell_angle_gamma 56.995090
_cell_volume 716.875070
_symmetry_space_group_name_H-M "P -1"
_symmetry_group_IT_number 2
_symmetry_cell_setting 'triclinic'
loop_
_space_group_symop_operation_xyz
x,y,z
-x,-y,-z
loop_
_atom_site_type_symbol
_atom_site_label
_atom_site_fract_x
_atom_site_fract_y
_atom_site_fract_z
Si Si1 0.177489 0.599643 0.345355
Si Si2 0.143801 0.008356 0.311745
Si Si3 0.340799 0.688726 0.774473
Si Si4 0.948460 0.482320 0.096717
Si Si5 0.843399 0.213955 0.819517
Si Si6 0.779734 0.846068 0.813361
Si Si7 0.216820 0.517578 0.584826
Si Si8 0.690621 0.123949 0.395807
O O1 0.500000 0.500000 0.500000
O O2 0.043003 0.745550 0.217469
O O3 0.083652 0.634463 0.427836
O O4 0.092416 0.513508 0.249184
O O5 0.297777 0.047203 0.318839
O O6 0.876726 0.160321 0.250846
O O7 0.071402 0.940498 0.185482
O O8 0.334008 0.877426 0.484913
O O9 0.241710 0.598042 0.700118
O O10 0.410726 0.721402 0.692591
O O11 0.622393 0.588284 0.971225
O O12 0.083094 0.315527 0.178213
O O13 0.000000 0.500000 0.000000
O O14 0.517060 0.352913 0.693752
O O15 0.010799 0.171768 0.006604
O O16 0.495228 0.911014 0.740934
O O17 0.000000 0.500000 0.500000
O O18 0.000000 0.000000 0.500000
#
# Coordination Sequence:
#
# PCOD8018643 Si02
#       8
#     2   2   2   2   2   2   2   2
#     4  10  22  40  68  98 130 174 226 273 329 400
#     4  11  27  42  69  98 140 177 220 275 341 404
#     4  11  23  47  67 102 133 179 231 275 332 407
#     4  12  21  41  76 100 128 179 230 284 330 392
#     4  11  23  46  66  98 132 183 222 271 337 409
#     4  12  24  42  72  97 137 176 227 275 341 397
#     4  11  25  41  67 101 139 170 223 290 334 386
#     4  10  23  43  66  97 132 178 222 274 327 408
#
# _framework density 22.319092000000001
#
# number of rings (size 3 to 8) (size 9 to 14) (size 15 to 20)
#    0.000    1.000    3.750    2.250    5.250    3.500 
#    0.000    8.125    0.000    0.000    0.000    0.000 
#    0.000    0.000    0.000    0.000    0.000    0.000 
#
# Total GULP energy -198274.986020 kJ/mol
# GULP energy per Si atom -12392.186626 kJ/mol
# Density = 2.226829 g / cm^3
# Si number density = 22.319092 Si / 1000 Ang^3
#
#
#
# Elastic Constant Matrix: (Units=GPa)
#
#
# Indices 1 2 3 4 5 6 
#
# 1 116.4570 41.5603 45.0251 -0.1416 11.4577 20.5104
# 2 41.5603 146.7084 39.4050 19.0943 19.5568 12.9328
# 3 45.0251 39.4050 112.9163 12.1314 22.2632 7.6588
# 4 -0.1416 19.0943 12.1314 35.8625 12.3290 3.7188
# 5 11.4577 19.5568 22.2632 12.3290 36.5929 -2.5235
# 6 20.5104 12.9328 7.6588 3.7188 -2.5235 38.4611
#
#
#
# Elastic Compliance Matrix: (Units=1/GPa)
#
#
# Indices 1 2 3 4 5 6 
#
# 1 0.011902 -0.002131 -0.003640 0.003651 -0.001975 -0.005388
# 2 -0.002131 0.008592 -0.001288 -0.003280 -0.002128 -0.001319
# 3 -0.003640 -0.001288 0.011906 -0.001668 -0.004864 -0.000155
# 4 0.003651 -0.003280 -0.001668 0.034181 -0.010201 -0.004486
# 5 -0.001975 -0.002128 -0.004864 -0.010201 0.035899 0.006079
# 6 -0.005388 -0.001319 -0.000155 -0.004486 0.006079 0.030181
#
#
# Mechanical properties :
#
#
# Convention : Reuss Voigt Hill
#
# Bulk Modulus (GPa) = 54.69287 69.78472 62.23880
# Shear Modulus (GPa) = 32.70702 38.85605 35.78153
#
# Velocity S-wave (km/s) = 3.83224 4.17698 4.00832
# Velocity P-wave (km/s) = 6.64377 7.38901 7.02628
#
# Compressibility (1/GPa) = 0.01828392
#
# Stress axis : x y z
#
# Youngs Moduli (GPa) = 84.01748 116.38097 83.99470
#
# Poissons Ratio (x) = 0.24801 0.30571
# Poissons Ratio (y) = 0.17904 0.10815
# Poissons Ratio (z) = 0.30579 0.14985
#
# Static dielectric constant tensor:
#      x y z
#    x 4.337400 0.334730 -0.239980 
#    y 0.334730 3.978690 0.009170 
#    z -0.239980 0.009170 4.616320 
# 
# 
# High freq. dielectric constant tensor:
#      x y z
#    x 1.881180 0.024020 -0.000230 
#    y 0.024020 1.866040 0.002090 
#    z -0.000230 0.002090 1.893640 
# 
# From -- ./inp_files/392644.got.cif
#   From: 2010.06.25/outbox.cif.g09.slc.cpg/sg2_197_cif.got.tgz:392644.got - 2010.06.27 13:26:56.
