data_PCOD8018427
_publ_section_title
;
Structure prediction by ZEFSAII (Michael W. Deem and Ramdas Pophale) SiO2 
 PCOD8018427
Probable space group: P -1
;
_chemical_formula_sum "Si O2"
_cell_formula_units_Z 16
_cell_length_a 11.868985
_cell_length_b 14.675372
_cell_length_c 11.877451
_cell_angle_alpha 120.470044
_cell_angle_beta 38.107166
_cell_angle_gamma 91.252764
_cell_volume 775.980774
_symmetry_space_group_name_H-M "P -1"
_symmetry_group_IT_number 2
_symmetry_cell_setting 'triclinic'
loop_
_space_group_symop_operation_xyz
x,y,z
-x,-y,-z
loop_
_atom_site_type_symbol
_atom_site_label
_atom_site_fract_x
_atom_site_fract_y
_atom_site_fract_z
Si Si1 0.468754 0.067198 0.949604
Si Si2 0.394838 0.444969 0.117033
Si Si3 0.373643 0.665785 0.718051
Si Si4 0.894490 0.925773 0.369098
Si Si5 0.542971 0.774801 0.222174
Si Si6 0.242644 0.821279 0.690421
Si Si7 0.389539 0.763128 0.987969
Si Si8 0.044218 0.258608 0.235818
O O1 0.706307 0.933331 0.599816
O O2 0.464052 0.195285 0.052334
O O3 0.207938 0.140788 0.136474
O O4 0.500000 0.000000 0.000000
O O5 0.599402 0.329735 0.981221
O O6 0.125804 0.578284 0.475289
O O7 0.500000 0.500000 0.000000
O O8 0.347511 0.371824 0.019291
O O9 0.500000 0.500000 0.500000
O O10 0.380714 0.737876 0.648024
O O11 0.518896 0.665548 0.708182
O O12 0.066897 0.777852 0.061381
O O13 0.730790 0.077064 0.521867
O O14 0.089697 0.911960 0.287892
O O15 0.476298 0.775900 0.404845
O O16 0.761075 0.776576 0.036346
O O17 0.143257 0.752666 0.673404
O O18 0.000000 0.000000 0.000000
#
# Coordination Sequence:
#
# PCOD8018427 Si02
#       8
#     2   2   2   2   2   2   2   2
#     4  11  24  38  65  99 126 166 210 278 345 380
#     4  12  23  39  70  99 131 173 212 276 349 389
#     4  10  23  41  65  92 129 178 220 262 322 391
#     4   9  21  40  65  89 128 166 216 271 324 379
#     4  11  23  43  66 100 128 174 218 279 329 384
#     4  12  24  44  70  94 129 181 232 263 318 404
#     4  10  22  40  66  90 134 158 218 270 327 390
#     4  11  26  42  65 100 137 162 222 281 330 393
#
# _framework density 20.619069
#
# number of rings (size 3 to 8) (size 9 to 14) (size 15 to 20)
#    0.750    0.500    5.000    1.500    5.250    0.500 
#    0.000    0.000    0.000    2.250    0.000    0.000 
#    0.000    0.000    0.000    0.000    0.000    0.000 
#
# Total GULP energy -198273.872571 kJ/mol
# GULP energy per Si atom -12392.117036 kJ/mol
# Density = 2.057214 g / cm^3
# Si number density = 20.619069 Si / 1000 Ang^3
#
#
#
# Elastic Constant Matrix: (Units=GPa)
#
#
# Indices 1 2 3 4 5 6 
#
# 1 49.8371 23.5916 9.9914 -10.5614 7.1482 -17.0637
# 2 23.5916 129.6912 39.3540 -13.5941 9.6351 -30.4038
# 3 9.9914 39.3540 115.3334 -1.8486 24.2851 -3.8093
# 4 -10.5614 -13.5941 -1.8486 34.7936 2.6686 10.9172
# 5 7.1482 9.6351 24.2851 2.6686 29.5689 -5.0647
# 6 -17.0637 -30.4038 -3.8093 10.9172 -5.0647 36.5416
#
#
#
# Elastic Compliance Matrix: (Units=1/GPa)
#
#
# Indices 1 2 3 4 5 6 
#
# 1 0.025449 -0.001740 -0.000357 0.004720 -0.004280 0.008395
# 2 -0.001740 0.010950 -0.003518 0.001056 0.000974 0.007751
# 3 -0.000357 -0.003518 0.011709 0.000899 -0.009047 -0.003395
# 4 0.004720 0.001056 0.000899 0.033576 -0.006584 -0.007767
# 5 -0.004280 0.000974 -0.009047 -0.006584 0.043567 0.005874
# 6 0.008395 0.007751 -0.003395 -0.007767 0.005874 0.040516
#
#
# Mechanical properties :
#
#
# Convention : Reuss Voigt Hill
#
# Bulk Modulus (GPa) = 27.11572 48.97064 38.04318
# Shear Modulus (GPa) = 26.41448 34.97581 30.69514
#
# Velocity S-wave (km/s) = 3.58309 4.12307 3.86252
# Velocity P-wave (km/s) = 5.50430 6.81674 6.19537
#
# Compressibility (1/GPa) = 0.03687897
#
# Stress axis : x y z
#
# Youngs Moduli (GPa) = 39.29371 91.32381 85.40491
#
# Poissons Ratio (x) = 0.15893 0.03046
# Poissons Ratio (y) = 0.06838 0.30043
# Poissons Ratio (z) = 0.01402 0.32126
#
# Static dielectric constant tensor:
#      x y z
#    x 3.667640 -0.137200 0.197560 
#    y -0.137200 4.445650 -0.133610 
#    z 0.197560 -0.133610 3.901920 
# 
# 
# High freq. dielectric constant tensor:
#      x y z
#    x 1.795380 -0.020670 0.015920 
#    y -0.020670 1.802960 0.002790 
#    z 0.015920 0.002790 1.811510 
# 
# From -- ./inp_files/434188.got.cif
#   From: 2010.06.25/outbox.cif.g09.slc.cpg/sg2_218_cif.got.tgz:434188.got - 2010.06.27 13:26:56.
