data_PCOD8018776
_publ_section_title
;
Structure prediction by ZEFSAII (Michael W. Deem and Ramdas Pophale) SiO2 
 PCOD8018776
Probable space group: P -1
;
_chemical_formula_sum "Si O2"
_cell_formula_units_Z 14
_cell_length_a 13.132944
_cell_length_b 17.850731
_cell_length_c 8.308334
_cell_angle_alpha 139.494518
_cell_angle_beta 51.096118
_cell_angle_gamma 149.186887
_cell_volume 646.202477
_symmetry_space_group_name_H-M "P -1"
_symmetry_group_IT_number 2
_symmetry_cell_setting 'triclinic'
loop_
_space_group_symop_operation_xyz
x,y,z
-x,-y,-z
loop_
_atom_site_type_symbol
_atom_site_label
_atom_site_fract_x
_atom_site_fract_y
_atom_site_fract_z
Si Si1 0.933569 0.080177 0.632367
Si Si2 0.637134 0.025188 0.281094
Si Si3 0.371453 0.459456 0.296216
Si Si4 0.021409 0.886032 0.731283
Si Si5 0.231463 0.668486 0.532087
Si Si6 0.512877 0.801574 0.752504
Si Si7 0.288317 0.464764 0.026043
O O1 0.912745 0.064299 0.436458
O O2 0.082575 0.282294 0.859223
O O3 0.720478 0.970596 0.737463
O O4 0.000000 0.000000 0.500000
O O5 0.500000 0.000000 0.500000
O O6 0.809022 0.067414 0.264349
O O7 0.736942 0.185855 0.332467
O O8 0.502809 0.852088 0.021026
O O9 0.493191 0.651406 0.549142
O O10 0.526330 0.456365 0.135501
O O11 0.191288 0.317907 0.367179
O O12 0.288424 0.418804 0.132930
O O13 0.000000 0.000000 0.000000
O O14 0.332419 0.729903 0.707500
O O15 0.000000 0.500000 0.500000
O O16 0.309782 0.617754 0.254848
#
# Coordination Sequence:
#
# PCOD8018776 Si02
#       7
#     2   2   2   2   2   2   2
#     4  12  23  44  70 105 136 184 236 291 355 420
#     4  12  27  46  68 105 143 182 233 296 354 414
#     4  10  22  42  71 103 140 176 237 291 348 409
#     4  12  28  44  69 103 145 184 238 296 347 410
#     4  11  24  44  70  99 143 190 236 279 348 432
#     4  11  23  45  75 101 138 189 235 281 353 426
#     4  10  22  40  71 102 138 187 231 286 350 419
#
# _framework density 21.665036000000001
#
# number of rings (size 3 to 8) (size 9 to 14) (size 15 to 20)
#    0.000    0.857    1.429    6.429    6.000    2.857 
#    0.000    2.143    0.000    0.000    0.000    0.000 
#    0.000    0.000    0.000    0.000    0.000    0.000 
#
# Total GULP energy -173667.371172 kJ/mol
# GULP energy per Si atom -12404.812227 kJ/mol
# Density = 2.161573 g / cm^3
# Si number density = 21.665036 Si / 1000 Ang^3
#
#
#
# Elastic Constant Matrix: (Units=GPa)
#
#
# Indices 1 2 3 4 5 6 
#
# 1 113.8911 32.2331 62.1096 -0.8788 -7.8168 16.5212
# 2 32.2331 95.1079 41.0251 -11.1621 7.4669 23.8418
# 3 62.1096 41.0251 164.4263 -2.0716 8.6388 10.8258
# 4 -0.8788 -11.1621 -2.0716 37.7629 2.1494 0.3348
# 5 -7.8168 7.4669 8.6388 2.1494 37.7545 1.0666
# 6 16.5212 23.8418 10.8258 0.3348 1.0666 37.1728
#
#
#
# Elastic Compliance Matrix: (Units=1/GPa)
#
#
# Indices 1 2 3 4 5 6 
#
# 1 0.012350 -0.002011 -0.004181 -0.000739 0.004041 -0.003090
# 2 -0.002011 0.014907 -0.002227 0.004472 -0.002884 -0.007976
# 3 -0.004181 -0.002227 0.008275 -0.000177 -0.002335 0.000945
# 4 -0.000739 0.004472 -0.000177 0.027943 -0.002512 -0.002668
# 5 0.004041 -0.002884 -0.002335 -0.002512 0.028573 -0.000063
# 6 -0.003090 -0.007976 0.000945 -0.002668 -0.000063 0.033141
#
#
# Mechanical properties :
#
#
# Convention : Reuss Voigt Hill
#
# Bulk Modulus (GPa) = 53.49361 71.57343 62.53352
# Shear Modulus (GPa) = 33.72483 38.40854 36.06669
#
# Velocity S-wave (km/s) = 3.94972 4.21507 4.08455
# Velocity P-wave (km/s) = 6.74872 7.53639 7.15340
#
# Compressibility (1/GPa) = 0.01869382
#
# Stress axis : x y z
#
# Youngs Moduli (GPa) = 80.97400 67.08096 120.84628
#
# Poissons Ratio (x) = 0.13491 0.50529
# Poissons Ratio (y) = 0.16285 0.26909
# Poissons Ratio (z) = 0.33857 0.14937
#
# Static dielectric constant tensor:
#      x y z
#    x 3.980160 0.033380 -0.118310 
#    y 0.033380 4.059870 0.052430 
#    z -0.118310 0.052430 4.476560 
# 
# 
# High freq. dielectric constant tensor:
#      x y z
#    x 1.852510 0.009720 -0.004750 
#    y 0.009720 1.856090 0.006290 
#    z -0.004750 0.006290 1.868340 
# 
# From -- ./inp_files/280068.got.cif
#   From: 2010.06.25/outbox.cif.g09.slc.cpg/sg2_141_cif.got.tgz:280068.got - 2010.06.27 13:26:56.
