data_PCOD8018231
_publ_section_title
;
Structure prediction by ZEFSAII (Michael W. Deem and Ramdas Pophale) SiO2 
 PCOD8018231
Probable space group: P -1
;
_chemical_formula_sum "Si O2"
_cell_formula_units_Z 14
_cell_length_a 8.636597
_cell_length_b 16.051484
_cell_length_c 6.408976
_cell_angle_alpha 116.594517
_cell_angle_beta 89.945180
_cell_angle_gamma 118.281831
_cell_volume 674.013461
_symmetry_space_group_name_H-M "P -1"
_symmetry_group_IT_number 2
_symmetry_cell_setting 'triclinic'
loop_
_space_group_symop_operation_xyz
x,y,z
-x,-y,-z
loop_
_atom_site_type_symbol
_atom_site_label
_atom_site_fract_x
_atom_site_fract_y
_atom_site_fract_z
Si Si1 0.193652 0.082868 0.193891
Si Si2 0.964535 0.834783 0.390933
Si Si3 0.080063 0.393823 0.808972
Si Si4 0.863131 0.462982 0.649376
Si Si5 0.403718 0.554240 0.675952
Si Si6 0.347418 0.029207 0.496495
Si Si7 0.338834 0.206447 0.933640
O O1 0.167305 0.159826 0.436508
O O2 0.286658 0.024268 0.249042
O O3 0.338814 0.163138 0.114679
O O4 0.000000 0.000000 0.000000
O O5 0.971776 0.729298 0.322265
O O6 0.868091 0.827622 0.162147
O O7 0.166477 0.941466 0.524585
O O8 0.250873 0.467982 0.739586
O O9 0.896527 0.385178 0.711842
O O10 0.115324 0.438194 0.095702
O O11 0.668898 0.405102 0.470152
O O12 0.000000 0.500000 0.500000
O O13 0.500000 0.500000 0.500000
O O14 0.537263 0.661568 0.932155
O O15 0.418780 0.150843 0.721368
O O16 0.500000 0.000000 0.500000
#
# Coordination Sequence:
#
# PCOD8018231 Si02
#       7
#     2   2   2   2   2   2   2
#     4  11  20  43  66  85 121 167 207 251 311 371
#     4  11  22  40  65  90 122 164 211 249 320 378
#     4  10  22  40  64  88 128 168 200 262 320 365
#     4   9  21  41  59  86 125 166 210 253 309 377
#     4  11  23  39  61  97 125 159 218 255 309 379
#     4  11  25  41  61  96 126 158 211 263 315 370
#     4  11  23  41  64  89 125 167 204 263 306 377
#
# _framework density 20.771099
#
# number of rings (size 3 to 8) (size 9 to 14) (size 15 to 20)
#    0.000    1.429    2.857    2.571    0.000   10.857 
#    2.571    0.000    0.000    0.000    0.000    0.000 
#    0.000    0.000    0.000    0.000    0.000    0.000 
#
# Total GULP energy -173517.209543 kJ/mol
# GULP energy per Si atom -12394.086396 kJ/mol
# Density = 2.072382 g / cm^3
# Si number density = 20.771099 Si / 1000 Ang^3
#
#
#
# Elastic Constant Matrix: (Units=GPa)
#
#
# Indices 1 2 3 4 5 6 
#
# 1 123.8707 26.6999 44.8214 8.2250 7.8204 -21.7644
# 2 26.6999 84.0835 34.5636 10.6881 -3.5865 -15.7817
# 3 44.8214 34.5636 106.0486 3.4499 2.4380 -8.6494
# 4 8.2250 10.6881 3.4499 41.1808 -3.6436 -4.0783
# 5 7.8204 -3.5865 2.4380 -3.6436 30.0669 -3.1221
# 6 -21.7644 -15.7817 -8.6494 -4.0783 -3.1221 32.3947
#
#
#
# Elastic Compliance Matrix: (Units=1/GPa)
#
#
# Indices 1 2 3 4 5 6 
#
# 1 0.010792 -0.000776 -0.003768 -0.001287 -0.002180 0.005494
# 2 -0.000776 0.015403 -0.004194 -0.002684 0.002654 0.005780
# 3 -0.003768 -0.004194 0.012278 0.000636 -0.000571 -0.001272
# 4 -0.001287 -0.002684 0.000636 0.025621 0.003227 0.001534
# 5 -0.002180 0.002654 -0.000571 0.003227 0.034938 0.003450
# 6 0.005494 0.005780 -0.001272 0.001534 0.003450 0.037563
#
#
# Mechanical properties :
#
#
# Convention : Reuss Voigt Hill
#
# Bulk Modulus (GPa) = 47.62890 58.46361 53.04626
# Shear Modulus (GPa) = 31.04219 34.58966 32.81593
#
# Velocity S-wave (km/s) = 3.87006 4.08521 3.97909
# Velocity P-wave (km/s) = 6.55362 7.10349 6.83409
#
# Compressibility (1/GPa) = 0.02099566
#
# Stress axis : x y z
#
# Youngs Moduli (GPa) = 92.65975 64.92313 81.44622
#
# Poissons Ratio (x) = 0.05038 0.30691
# Poissons Ratio (y) = 0.07191 0.34162
# Poissons Ratio (z) = 0.34917 0.27231
#
# Static dielectric constant tensor:
#      x y z
#    x 4.047780 -0.237110 0.295490 
#    y -0.237110 3.660900 -0.231690 
#    z 0.295490 -0.231690 4.174800 
# 
# 
# High freq. dielectric constant tensor:
#      x y z
#    x 1.813570 -0.015090 0.005440 
#    y -0.015090 1.802760 -0.007930 
#    z 0.005440 -0.007930 1.825980 
# 
# From -- ./inp_files/27296.got.cif
#   From: 2010.06.25/outbox.cif.g09.slc.cpg/sg2_14_cif.got.tgz:27296.got - 2010.06.27 13:26:56.
