data_PCOD8018896
_publ_section_title
;
Structure prediction by ZEFSAII (Michael W. Deem and Ramdas Pophale) SiO2 
 PCOD8018896
Probable space group: P -1
;
_chemical_formula_sum "Si O2"
_cell_formula_units_Z 12
_cell_length_a 9.657103
_cell_length_b 11.323896
_cell_length_c 9.077414
_cell_angle_alpha 76.192120
_cell_angle_beta 138.353606
_cell_angle_gamma 80.436358
_cell_volume 541.687415
_symmetry_space_group_name_H-M "P -1"
_symmetry_group_IT_number 2
_symmetry_cell_setting 'triclinic'
loop_
_space_group_symop_operation_xyz
x,y,z
-x,-y,-z
loop_
_atom_site_type_symbol
_atom_site_label
_atom_site_fract_x
_atom_site_fract_y
_atom_site_fract_z
Si Si1 0.652826 0.148276 0.949279
Si Si2 0.244556 0.674741 0.822228
Si Si3 0.095158 0.176110 0.769324
Si Si4 0.716746 0.272763 0.686840
Si Si5 0.782693 0.481560 0.885044
Si Si6 0.264306 0.360254 0.772390
O O1 0.688633 0.164127 0.800617
O O2 0.366724 0.265350 0.730213
O O3 0.821382 0.184463 0.174504
O O4 0.720993 0.987789 0.084436
O O5 0.081691 0.725396 0.532738
O O6 0.184839 0.574028 0.903891
O O7 0.540400 0.594765 0.038000
O O8 0.246846 0.252751 0.907117
O O9 0.942015 0.177001 0.785734
O O10 0.770568 0.373424 0.796832
O O11 0.471406 0.365093 0.368392
O O12 0.000000 0.500000 0.000000
O O13 0.000000 0.500000 0.500000
#
# Coordination Sequence:
#
# PCOD8018896 Si02
#       6
#     2   2   2   2   2   2
#     4   9  22  45  59  90 132 167 201 253 312 369
#     4   9  23  39  62  92 124 162 211 252 306 367
#     4  12  22  39  69  91 127 165 205 257 310 367
#     4  10  23  39  62  93 126 160 213 253 305 369
#     4  10  22  41  62  88 127 169 201 256 313 366
#     4  10  23  39  63  93 124 160 212 256 301 367
#
# _framework density 22.152996000000002
#
# number of rings (size 3 to 8) (size 9 to 14) (size 15 to 20)
#    1.000    1.000    0.000    2.500    4.667    4.000 
#    0.000    0.000    0.000    5.000    0.000    0.000 
#    0.000    0.000    0.000    0.000    0.000    0.000 
#
# Total GULP energy -148729.171973 kJ/mol
# GULP energy per Si atom -12394.097664 kJ/mol
# Density = 2.210258 g / cm^3
# Si number density = 22.152996 Si / 1000 Ang^3
#
#
#
# Elastic Constant Matrix: (Units=GPa)
#
#
# Indices 1 2 3 4 5 6 
#
# 1 162.7986 38.3134 55.4410 -16.5146 6.5319 7.8371
# 2 38.3134 42.7407 27.8949 -15.5310 15.6065 17.5264
# 3 55.4410 27.8949 88.0211 -11.3933 0.1662 7.0275
# 4 -16.5146 -15.5310 -11.3933 21.4173 -5.5230 -3.1093
# 5 6.5319 15.6065 0.1662 -5.5230 35.5691 1.5445
# 6 7.8371 17.5264 7.0275 -3.1093 1.5445 44.1717
#
#
#
# Elastic Compliance Matrix: (Units=1/GPa)
#
#
# Indices 1 2 3 4 5 6 
#
# 1 0.008810 -0.006371 -0.003548 0.000834 0.001256 0.001544
# 2 -0.006371 0.059985 -0.010215 0.025202 -0.020383 -0.018559
# 3 -0.003548 -0.010215 0.016715 0.000315 0.005023 0.001870
# 4 0.000834 0.025202 0.000315 0.064727 -0.000918 -0.005610
# 5 0.001256 -0.020383 0.005023 -0.000918 0.036412 0.005728
# 6 0.001544 -0.018559 0.001870 -0.005610 0.005728 0.028836
#
#
# Mechanical properties :
#
#
# Convention : Reuss Voigt Hill
#
# Bulk Modulus (GPa) = 22.10277 59.65099 40.87688
# Shear Modulus (GPa) = 18.46155 31.69234 25.07695
#
# Velocity S-wave (km/s) = 2.88994 3.78645 3.36815
# Velocity P-wave (km/s) = 4.59724 6.78981 5.79811
#
# Compressibility (1/GPa) = 0.04524321
#
# Stress axis : x y z
#
# Youngs Moduli (GPa) = 113.50844 16.67073 59.82710
#
# Poissons Ratio (x) = 0.10620 0.21225
# Poissons Ratio (y) = 0.72311 0.61114
# Poissons Ratio (z) = 0.40270 0.17029
#
# Static dielectric constant tensor:
#      x y z
#    x 4.333580 0.229940 0.017370 
#    y 0.229940 4.013850 0.019150 
#    z 0.017370 0.019150 3.682180 
# 
# 
# High freq. dielectric constant tensor:
#      x y z
#    x 1.891220 0.005580 0.002610 
#    y 0.005580 1.876080 -0.009750 
#    z 0.002610 -0.009750 1.844730 
# 
# From -- ./inp_files/176902.got.cif
#   From: 2010.06.25/outbox.cif.g09.slc.cpg/sg2_89_cif.got.tgz:176902.got - 2010.06.27 13:26:56.
