data_PCOD8018033
_publ_section_title
;
Structure prediction by ZEFSAII (Michael W. Deem and Ramdas Pophale) SiO2 
 PCOD8018033
Probable space group: P -1
;
_chemical_formula_sum "Si O2"
_cell_formula_units_Z 16
_cell_length_a 17.593352
_cell_length_b 8.389508
_cell_length_c 18.851727
_cell_angle_alpha 136.671574
_cell_angle_beta 156.076234
_cell_angle_gamma 42.235512
_cell_volume 745.252462
_symmetry_space_group_name_H-M "P -1"
_symmetry_group_IT_number 2
_symmetry_cell_setting 'triclinic'
loop_
_space_group_symop_operation_xyz
x,y,z
-x,-y,-z
loop_
_atom_site_type_symbol
_atom_site_label
_atom_site_fract_x
_atom_site_fract_y
_atom_site_fract_z
Si Si1 0.853297 0.722583 0.251023
Si Si2 0.257482 0.003577 0.114397
Si Si3 0.260592 0.798046 0.609971
Si Si4 0.672138 0.480863 0.897793
Si Si5 0.010594 0.002862 0.768702
Si Si6 0.724884 0.475646 0.194660
Si Si7 0.999358 0.479223 0.076495
Si Si8 0.671945 0.925484 0.381937
O O1 0.821373 0.551674 0.231722
O O2 0.082946 0.675439 0.416745
O O3 0.764807 0.003195 0.285308
O O4 0.745846 0.660506 0.070137
O O5 0.312299 0.775564 0.137348
O O6 0.443684 0.019554 0.233098
O O7 0.180133 0.247002 0.174754
O O8 0.086080 0.984891 0.907994
O O9 0.450364 0.587300 0.721538
O O10 0.280531 0.918381 0.591047
O O11 0.800722 0.434336 0.921243
O O12 0.797868 0.954400 0.567681
O O13 0.161631 0.804022 0.784035
O O14 0.984323 0.266039 0.796089
O O15 0.740781 0.641487 0.328864
O O16 0.500000 0.500000 0.000000
O O17 0.000000 0.500000 0.000000
#
# Coordination Sequence:
#
# PCOD8018033 Si02
#       8
#     2   2   2   2   2   2   2   2
#     4  10  22  40  60  96 134 165 213 255 312 389
#     4  11  24  43  64  98 125 167 220 268 320 368
#     4  10  23  39  61  96 130 173 208 253 316 382
#     4  12  22  41  68  89 130 166 208 270 322 372
#     4  11  22  42  65  92 128 171 213 259 314 376
#     4  11  21  40  65  99 135 168 208 260 318 384
#     4  10  24  43  68  91 124 169 221 266 315 380
#     4  11  23  41  68  94 133 171 213 257 315 388
#
# _framework density 21.469234
#
# number of rings (size 3 to 8) (size 9 to 14) (size 15 to 20)
#    0.000    1.250    2.500    3.375    3.500    0.500 
#   11.250    2.500    0.000    6.000    0.000    0.000 
#    0.000    0.000    0.000    0.000    0.000    0.000 
#
# Total GULP energy -198395.244749 kJ/mol
# GULP energy per Si atom -12399.702797 kJ/mol
# Density = 2.142037 g / cm^3
# Si number density = 21.469234 Si / 1000 Ang^3
#
#
#
# Elastic Constant Matrix: (Units=GPa)
#
#
# Indices 1 2 3 4 5 6 
#
# 1 84.6831 32.7491 52.7380 -9.8777 29.0836 -5.2807
# 2 32.7491 171.4867 54.0891 -5.6378 6.2579 -10.2561
# 3 52.7380 54.0891 129.1485 -4.7916 10.6603 -1.9453
# 4 -9.8777 -5.6378 -4.7916 27.5430 4.4521 7.5894
# 5 29.0836 6.2579 10.6603 4.4521 32.6130 -3.2631
# 6 -5.2807 -10.2561 -1.9453 7.5894 -3.2631 20.0676
#
#
#
# Elastic Compliance Matrix: (Units=1/GPa)
#
#
# Indices 1 2 3 4 5 6 
#
# 1 0.026215 -0.001493 -0.007816 0.012164 -0.022486 -0.002879
# 2 -0.001493 0.007011 -0.002399 -0.000647 0.001198 0.003398
# 3 -0.007816 -0.002399 0.011552 -0.001641 0.003786 -0.000927
# 4 0.012164 -0.000647 -0.001641 0.048400 -0.018658 -0.018627
# 5 -0.022486 0.001198 0.003786 -0.018658 0.052867 0.010715
# 6 -0.002879 0.003398 -0.000927 -0.018627 0.010715 0.059508
#
#
# Mechanical properties :
#
#
# Convention : Reuss Voigt Hill
#
# Bulk Modulus (GPa) = 46.80785 73.83009 60.31897
# Shear Modulus (GPa) = 21.17843 32.42753 26.80298
#
# Velocity S-wave (km/s) = 3.14420 3.89063 3.53716
# Velocity P-wave (km/s) = 5.91869 7.39230 6.69616
#
# Compressibility (1/GPa) = 0.02136394
#
# Stress axis : x y z
#
# Youngs Moduli (GPa) = 38.14539 142.62977 86.56607
#
# Poissons Ratio (x) = 0.21293 0.67659
# Poissons Ratio (y) = 0.05695 0.20763
# Poissons Ratio (z) = 0.29814 0.34210
#
# Static dielectric constant tensor:
#      x y z
#    x 3.770840 -0.247770 0.140990 
#    y -0.247770 4.639910 0.135920 
#    z 0.140990 0.135920 3.928200 
# 
# 
# High freq. dielectric constant tensor:
#      x y z
#    x 1.828560 -0.003780 0.012520 
#    y -0.003780 1.857750 0.002930 
#    z 0.012520 0.002930 1.842330 
# 
# From -- ./inp_files/352447.got.cif
#   From: 2010.06.25/outbox.cif.g09.slc.cpg/sg2_177_cif.got.tgz:352447.got - 2010.06.27 13:26:56.
