data_PCOD8018541
_publ_section_title
;
Structure prediction by ZEFSAII (Michael W. Deem and Ramdas Pophale) SiO2 
 PCOD8018541
Probable space group: P -1
;
_chemical_formula_sum "Si O2"
_cell_formula_units_Z 16
_cell_length_a 24.240091
_cell_length_b 14.914742
_cell_length_c 17.957826
_cell_angle_alpha 30.799543
_cell_angle_beta 160.189313
_cell_angle_gamma 159.877325
_cell_volume 740.195659
_symmetry_space_group_name_H-M "P -1"
_symmetry_group_IT_number 2
_symmetry_cell_setting 'triclinic'
loop_
_space_group_symop_operation_xyz
x,y,z
-x,-y,-z
loop_
_atom_site_type_symbol
_atom_site_label
_atom_site_fract_x
_atom_site_fract_y
_atom_site_fract_z
Si Si1 0.270428 0.053754 0.356532
Si Si2 0.278222 0.410319 0.978592
Si Si3 0.711810 0.069388 0.260982
Si Si4 0.598834 0.124602 0.236739
Si Si5 0.349598 0.105973 0.252149
Si Si6 0.377604 0.373868 0.603404
Si Si7 0.874363 0.419377 0.672647
Si Si8 0.972723 0.332009 0.149097
O O1 0.326001 0.918807 0.564090
O O2 0.407477 0.159886 0.375504
O O3 0.410601 0.331628 0.376814
O O4 0.977894 0.839891 0.125265
O O5 0.508680 0.609215 0.186876
O O6 0.301802 0.268778 0.050441
O O7 0.251902 0.571632 0.787262
O O8 0.679695 0.075058 0.303769
O O9 0.965527 0.358531 0.346354
O O10 0.693624 0.847173 0.381692
O O11 0.500000 0.000000 0.000000
O O12 0.312947 0.946688 0.004110
O O13 0.115728 0.786065 0.170185
O O14 0.592150 0.238787 0.421816
O O15 0.125035 0.279858 0.360863
O O16 0.942335 0.528141 0.763719
O O17 0.000000 0.500000 0.000000
#
# Coordination Sequence:
#
# PCOD8018541 Si02
#       8
#     2   2   2   2   2   2   2   2
#     4  11  23  42  65  93 130 170 215 265 328 381
#     4  11  22  38  67  93 125 167 221 264 313 390
#     4  12  25  39  64 101 132 167 215 275 317 385
#     4  12  25  42  66  96 135 171 211 270 333 375
#     4  10  22  40  67  93 119 173 220 263 308 391
#     4  11  23  42  67  97 124 175 220 261 325 386
#     4  11  22  40  65  91 131 164 215 262 323 376
#     4  12  23  44  69  95 133 171 215 270 324 390
#
# _framework density 21.615907
#
# number of rings (size 3 to 8) (size 9 to 14) (size 15 to 20)
#    0.000    0.750    6.250    2.625    3.500    1.500 
#    2.250    0.000    0.000    3.000    0.000    0.000 
#    0.000    0.000    0.000    0.000    0.000    0.000 
#
# Total GULP energy -198319.429490 kJ/mol
# GULP energy per Si atom -12394.964343 kJ/mol
# Density = 2.156671 g / cm^3
# Si number density = 21.615907 Si / 1000 Ang^3
#
#
#
# Elastic Constant Matrix: (Units=GPa)
#
#
# Indices 1 2 3 4 5 6 
#
# 1 63.7941 31.8688 22.6419 -4.9720 22.8280 -1.1307
# 2 31.8688 145.7162 25.8081 -15.3291 27.2736 -3.9796
# 3 22.6419 25.8081 68.4365 -5.9664 22.4547 -2.6471
# 4 -4.9720 -15.3291 -5.9664 47.2862 4.4367 12.2601
# 5 22.8280 27.2736 22.4547 4.4367 29.0323 -5.5505
# 6 -1.1307 -3.9796 -2.6471 12.2601 -5.5505 39.1313
#
#
#
# Elastic Compliance Matrix: (Units=1/GPa)
#
#
# Indices 1 2 3 4 5 6 
#
# 1 0.023282 -0.001219 -0.001236 0.004426 -0.017533 -0.003408
# 2 -0.001219 0.009103 0.000075 0.004049 -0.008574 -0.001589
# 3 -0.001236 0.000075 0.020625 0.004637 -0.016216 -0.002386
# 4 0.004426 0.004049 0.004637 0.027776 -0.017078 -0.010272
# 5 -0.017533 -0.008574 -0.016216 -0.017078 0.073993 0.013371
# 6 -0.003408 -0.001589 -0.002386 -0.010272 0.013371 0.030248
#
#
# Mechanical properties :
#
#
# Convention : Reuss Voigt Hill
#
# Bulk Modulus (GPa) = 20.72522 48.73161 34.72841
# Shear Modulus (GPa) = 24.28705 36.26516 30.27611
#
# Velocity S-wave (km/s) = 3.35561 4.10043 3.74657
# Velocity P-wave (km/s) = 4.96208 6.70904 5.90057
#
# Compressibility (1/GPa) = 0.04825039
#
# Stress axis : x y z
#
# Youngs Moduli (GPa) = 42.95246 109.85097 48.48429
#
# Poissons Ratio (x) = 0.13387 0.05994
# Poissons Ratio (y) = 0.05235 -0.00364
# Poissons Ratio (z) = 0.05310 -0.00825
#
# Static dielectric constant tensor:
#      x y z
#    x 3.850280 -0.106540 0.378090 
#    y -0.106540 4.179320 -0.096340 
#    z 0.378090 -0.096340 3.985420 
# 
# 
# High freq. dielectric constant tensor:
#      x y z
#    x 1.822900 0.000230 0.022010 
#    y 0.000230 1.875860 -0.002420 
#    z 0.022010 -0.002420 1.848750 
# 
# From -- ./inp_files/464349.got.cif
#   From: 2010.06.25/outbox.cif.g09.slc.cpg/sg2_233_cif.got.tgz:464349.got - 2010.06.27 13:26:56.
