data_PCOD8018091
_publ_section_title
;
Structure prediction by ZEFSAII (Michael W. Deem and Ramdas Pophale) SiO2 
 PCOD8018091
Probable space group: P -1
;
_chemical_formula_sum "Si O2"
_cell_formula_units_Z 14
_cell_length_a 10.406944
_cell_length_b 13.283564
_cell_length_c 12.231732
_cell_angle_alpha 84.255262
_cell_angle_beta 117.985202
_cell_angle_gamma 145.810434
_cell_volume 683.237881
_symmetry_space_group_name_H-M "P -1"
_symmetry_group_IT_number 2
_symmetry_cell_setting 'triclinic'
loop_
_space_group_symop_operation_xyz
x,y,z
-x,-y,-z
loop_
_atom_site_type_symbol
_atom_site_label
_atom_site_fract_x
_atom_site_fract_y
_atom_site_fract_z
Si Si1 0.593338 0.690010 0.672102
Si Si2 0.792227 0.826404 0.104771
Si Si3 0.510570 0.996044 0.831306
Si Si4 0.805605 0.054301 0.124700
Si Si5 0.063822 0.494817 0.405095
Si Si6 0.351448 0.451121 0.810328
Si Si7 0.248782 0.807898 0.331829
O O1 0.352688 0.592378 0.501767
O O2 0.351225 0.492291 0.683886
O O3 0.824624 0.741762 0.717479
O O4 0.825424 0.924185 0.781987
O O5 0.684318 0.692864 0.181857
O O6 0.636395 0.841750 0.053259
O O7 0.676158 0.693431 0.966718
O O8 0.363672 0.001606 0.833424
O O9 0.251555 0.750347 0.737636
O O10 0.627729 0.110512 0.750829
O O11 0.785351 0.115470 0.003737
O O12 0.152790 0.634892 0.338900
O O13 0.000000 0.500000 0.500000
O O14 0.055601 0.309552 0.774853
O O15 0.500000 0.000000 0.500000
#
# Coordination Sequence:
#
# PCOD8018091 Si02
#       7
#     2   2   2   2   2   2   2
#     4  10  22  40  62  89 131 160 210 264 308 375
#     4   9  22  35  59  92 124 155 212 256 315 364
#     4  11  24  46  63  91 133 166 215 259 310 382
#     4   9  24  45  64  88 131 175 203 263 314 367
#     4  12  23  40  66  96 127 165 210 258 324 372
#     4  11  20  34  62  95 118 165 205 260 318 364
#     4  12  24  38  65  96 129 163 208 266 318 371
#
# _framework density 20.490667999999999
#
# number of rings (size 3 to 8) (size 9 to 14) (size 15 to 20)
#    0.857    0.571    2.857    2.143    4.000    0.571 
#    2.571    2.857    0.000    0.000    0.000    0.000 
#    0.000    0.000    0.000    0.000    0.000    0.000 
#
# Total GULP energy -173478.524750 kJ/mol
# GULP energy per Si atom -12391.323196 kJ/mol
# Density = 2.044403 g / cm^3
# Si number density = 20.490668 Si / 1000 Ang^3
#
#
#
# Elastic Constant Matrix: (Units=GPa)
#
#
# Indices 1 2 3 4 5 6 
#
# 1 102.2965 45.4816 24.4349 -17.5262 10.8336 0.6858
# 2 45.4816 147.1099 20.3588 -26.4530 -5.8401 -5.7999
# 3 24.4349 20.3588 49.4269 -11.4896 14.2544 10.0089
# 4 -17.5262 -26.4530 -11.4896 31.7163 4.4381 3.2191
# 5 10.8336 -5.8401 14.2544 4.4381 29.2224 1.0493
# 6 0.6858 -5.7999 10.0089 3.2191 1.0493 30.5847
#
#
#
# Elastic Compliance Matrix: (Units=1/GPa)
#
#
# Indices 1 2 3 4 5 6 
#
# 1 0.013048 -0.003072 -0.002747 0.004347 -0.004762 -0.000270
# 2 -0.003072 0.009103 -0.002713 0.004198 0.003568 0.002119
# 3 -0.002747 -0.002713 0.032618 0.011577 -0.016771 -0.011771
# 4 0.004347 0.004198 0.011577 0.044168 -0.012866 -0.007298
# 5 -0.004762 0.003568 -0.016771 -0.012866 0.046617 0.006026
# 6 -0.000270 0.002119 -0.011771 -0.007298 0.006026 0.037517
#
#
# Mechanical properties :
#
#
# Convention : Reuss Voigt Hill
#
# Bulk Modulus (GPa) = 26.52082 53.26487 39.89285
# Shear Modulus (GPa) = 23.50690 32.20854 27.85772
#
# Velocity S-wave (km/s) = 3.39071 3.96898 3.69118
# Velocity P-wave (km/s) = 5.31979 6.85965 6.13820
#
# Compressibility (1/GPa) = 0.03770622
#
# Stress axis : x y z
#
# Youngs Moduli (GPa) = 76.63820 109.85588 30.65747
#
# Poissons Ratio (x) = 0.33748 0.08421
# Poissons Ratio (y) = 0.23544 0.08317
# Poissons Ratio (z) = 0.21050 0.29804
#
# Static dielectric constant tensor:
#      x y z
#    x 3.584290 -0.151010 0.249300 
#    y -0.151010 3.835070 -0.044370 
#    z 0.249300 -0.044370 3.692020 
# 
# 
# High freq. dielectric constant tensor:
#      x y z
#    x 1.785230 -0.014010 0.028430 
#    y -0.014010 1.811130 -0.002710 
#    z 0.028430 -0.002710 1.794410 
# 
# From -- ./inp_files/425134.got.cif
#   From: 2010.06.25/outbox.cif.g09.slc.cpg/sg2_213_cif.got.tgz:425134.got - 2010.06.27 13:26:56.
