data_PCOD8018771
_publ_section_title
;
Structure prediction by ZEFSAII (Michael W. Deem and Ramdas Pophale) SiO2 
 PCOD8018771
Probable space group: P -1
;
_chemical_formula_sum "Si O2"
_cell_formula_units_Z 16
_cell_length_a 8.670124
_cell_length_b 12.172578
_cell_length_c 18.284361
_cell_angle_alpha 49.803024
_cell_angle_beta 85.913383
_cell_angle_gamma 45.015491
_cell_volume 731.395416
_symmetry_space_group_name_H-M "P -1"
_symmetry_group_IT_number 2
_symmetry_cell_setting 'triclinic'
loop_
_space_group_symop_operation_xyz
x,y,z
-x,-y,-z
loop_
_atom_site_type_symbol
_atom_site_label
_atom_site_fract_x
_atom_site_fract_y
_atom_site_fract_z
Si Si1 0.442984 0.610967 0.276790
Si Si2 0.693416 0.646250 0.363012
Si Si3 0.593674 0.298988 0.531247
Si Si4 0.300843 0.750840 0.705624
Si Si5 0.756508 0.490165 0.023716
Si Si6 0.376199 0.024808 0.567250
Si Si7 0.778023 0.236715 0.019841
Si Si8 0.689215 0.818928 0.794029
O O1 0.551369 0.662263 0.296876
O O2 0.442846 0.463635 0.387796
O O3 0.681277 0.381331 0.302750
O O4 0.111480 0.911105 0.120609
O O5 0.572940 0.703772 0.425423
O O6 0.059813 0.351350 0.467234
O O7 0.568250 0.911081 0.254996
O O8 0.500000 0.500000 0.500000
O O9 0.968790 0.988699 0.651591
O O10 0.589221 0.492935 0.861444
O O11 0.323602 0.896501 0.612890
O O12 0.423830 0.743048 0.965622
O O13 0.004719 0.329105 0.146705
O O14 0.846067 0.264837 0.081511
O O15 0.755042 0.605443 0.909418
O O16 0.500000 0.000000 0.500000
O O17 0.619524 0.864475 0.691139
#
# Coordination Sequence:
#
# PCOD8018771 Si02
#       8
#     2   2   2   2   2   2   2   2
#     4  11  24  40  69 103 138 174 224 287 351 398
#     4  11  24  42  68 101 131 177 234 282 335 412
#     4  10  22  40  71 100 128 172 233 293 334 386
#     4  12  24  44  67 103 142 180 224 290 347 411
#     4  10  23  39  73  98 130 181 230 295 335 398
#     4  12  28  43  64  98 143 187 221 274 354 424
#     4  11  23  42  70 102 135 175 239 286 339 403
#     4  11  23  45  66  99 137 179 231 279 348 411
#
# _framework density 21.875992
#
# number of rings (size 3 to 8) (size 9 to 14) (size 15 to 20)
#    0.000    1.000    5.000    1.875    8.750    2.000 
#    0.000    0.000    0.000    3.750    0.000    0.000 
#    0.000    0.000    0.000    0.000    0.000    0.000 
#
# Total GULP energy -198284.785294 kJ/mol
# GULP energy per Si atom -12392.799081 kJ/mol
# Density = 2.182620 g / cm^3
# Si number density = 21.875992 Si / 1000 Ang^3
#
#
#
# Elastic Constant Matrix: (Units=GPa)
#
#
# Indices 1 2 3 4 5 6 
#
# 1 84.1688 34.9441 28.1840 0.2294 5.9632 -10.8965
# 2 34.9441 119.0284 41.4903 -8.6655 9.2854 -8.2122
# 3 28.1840 41.4903 115.2021 -8.2598 22.4278 -12.7302
# 4 0.2294 -8.6655 -8.2598 37.8424 -1.3063 2.1467
# 5 5.9632 9.2854 22.4278 -1.3063 21.7492 -1.1858
# 6 -10.8965 -8.2122 -12.7302 2.1467 -1.1858 39.0012
#
#
#
# Elastic Compliance Matrix: (Units=1/GPa)
#
#
# Indices 1 2 3 4 5 6 
#
# 1 0.014349 -0.003401 -0.002028 -0.001473 -0.000332 0.002702
# 2 -0.003401 0.010534 -0.002667 0.001811 -0.000691 0.000277
# 3 -0.002028 -0.002667 0.012718 0.001645 -0.011180 0.002593
# 4 -0.001473 0.001811 0.001645 0.027249 -0.000484 -0.001008
# 5 -0.000332 -0.000691 -0.011180 -0.000484 0.057750 -0.002105
# 6 0.002702 0.000277 0.002593 -0.001008 -0.002105 0.027291
#
#
# Mechanical properties :
#
#
# Convention : Reuss Voigt Hill
#
# Bulk Modulus (GPa) = 46.70725 58.62623 52.66674
# Shear Modulus (GPa) = 28.86519 33.97061 31.41790
#
# Velocity S-wave (km/s) = 3.63642 3.94492 3.79381
# Velocity P-wave (km/s) = 6.24729 6.89981 6.58165
#
# Compressibility (1/GPa) = 0.02140995
#
# Stress axis : x y z
#
# Youngs Moduli (GPa) = 69.69052 94.92905 78.62831
#
# Poissons Ratio (x) = 0.32281 0.15947
# Poissons Ratio (y) = 0.23699 0.20970
# Poissons Ratio (z) = 0.14134 0.25318
#
# Static dielectric constant tensor:
#      x y z
#    x 3.763260 0.024290 0.008060 
#    y 0.024290 5.177930 1.232610 
#    z 0.008060 1.232610 5.479090 
# 
# 
# High freq. dielectric constant tensor:
#      x y z
#    x 1.856120 0.008710 0.002220 
#    y 0.008710 1.853060 -0.007710 
#    z 0.002220 -0.007710 1.872620 
# 
# From -- ./inp_files/559767.got.cif
#   From: 2010.06.25/outbox.cif.g09.slc.cpg/sg2_280_cif.got.tgz:559767.got - 2010.06.27 13:26:56.
