data_PCOD8018496
_publ_section_title
;
Structure prediction by ZEFSAII (Michael W. Deem and Ramdas Pophale) SiO2 
 PCOD8018496
Probable space group: P -1
;
_chemical_formula_sum "Si O2"
_cell_formula_units_Z 16
_cell_length_a 10.515296
_cell_length_b 24.077063
_cell_length_c 6.439875
_cell_angle_alpha 50.186493
_cell_angle_beta 57.280556
_cell_angle_gamma 33.333964
_cell_volume 688.149550
_symmetry_space_group_name_H-M "P -1"
_symmetry_group_IT_number 2
_symmetry_cell_setting 'triclinic'
loop_
_space_group_symop_operation_xyz
x,y,z
-x,-y,-z
loop_
_atom_site_type_symbol
_atom_site_label
_atom_site_fract_x
_atom_site_fract_y
_atom_site_fract_z
Si Si1 0.000674 0.685295 0.356546
Si Si2 0.094736 0.903409 0.498147
Si Si3 0.705518 0.846754 0.880557
Si Si4 0.523222 0.278222 0.700993
Si Si5 0.240085 0.028478 0.686889
Si Si6 0.330215 0.495035 0.197269
Si Si7 0.870549 0.210849 0.887533
Si Si8 0.084001 0.348855 0.073339
O O1 0.152520 0.578621 0.335886
O O2 0.162085 0.690388 0.299793
O O3 0.778566 0.803404 0.156841
O O4 0.896338 0.667128 0.659353
O O5 0.339738 0.820645 0.354938
O O6 0.911737 0.972140 0.307496
O O7 0.108772 0.825677 0.807816
O O8 0.000000 0.000000 0.500000
O O9 0.689021 0.937587 0.629264
O O10 0.453712 0.907020 0.890212
O O11 0.896652 0.738912 0.827816
O O12 0.480832 0.370817 0.411812
O O13 0.665651 0.244191 0.866745
O O14 0.282381 0.328341 0.854636
O O15 0.109075 0.111946 0.794066
O O16 0.173733 0.531098 0.047520
O O17 0.500000 0.500000 0.000000
#
# Coordination Sequence:
#
# PCOD8018496 Si02
#       8
#     2   2   2   2   2   2   2   2
#     4  11  23  43  71 105 131 185 236 277 347 416
#     4  11  26  44  71 100 140 187 236 277 349 418
#     4  10  22  40  66  99 141 178 228 294 336 400
#     4  11  27  46  68 102 146 182 223 296 345 403
#     4  10  22  41  66  99 137 181 233 290 338 394
#     4  11  25  46  76 101 137 180 230 293 343 411
#     4  11  23  41  69 100 139 179 238 280 334 421
#     4  11  25  44  69 102 145 176 234 282 351 411
#
# _framework density 23.250761000000001
#
# number of rings (size 3 to 8) (size 9 to 14) (size 15 to 20)
#    0.000    1.250    2.500    1.875    7.000    8.000 
#    0.000    0.000    0.000    0.000    0.000    0.000 
#    0.000    0.000    0.000    0.000    0.000    0.000 
#
# Total GULP energy -198305.951339 kJ/mol
# GULP energy per Si atom -12394.121959 kJ/mol
# Density = 2.319784 g / cm^3
# Si number density = 23.250761 Si / 1000 Ang^3
#
#
#
# Elastic Constant Matrix: (Units=GPa)
#
#
# Indices 1 2 3 4 5 6 
#
# 1 88.8632 40.0968 45.9303 4.5175 9.2236 -14.8151
# 2 40.0968 86.0845 36.3172 0.7324 4.1206 -9.6465
# 3 45.9303 36.3172 140.0281 13.7891 1.4927 -15.3015
# 4 4.5175 0.7324 13.7891 26.3635 -1.1426 -0.8995
# 5 9.2236 4.1206 1.4927 -1.1426 38.5460 -0.4357
# 6 -14.8151 -9.6465 -15.3015 -0.8995 -0.4357 43.5309
#
#
#
# Elastic Compliance Matrix: (Units=1/GPa)
#
#
# Indices 1 2 3 4 5 6 
#
# 1 0.016524 -0.005724 -0.003477 -0.000887 -0.003199 0.003083
# 2 -0.005724 0.015270 -0.002173 0.001712 -0.000120 0.000706
# 3 -0.003477 -0.002173 0.009423 -0.004193 0.000593 0.001567
# 4 -0.000887 0.001712 -0.004193 0.040270 0.001379 -0.000551
# 5 -0.003199 -0.000120 0.000593 0.001379 0.026732 -0.000611
# 6 0.003083 0.000706 0.001567 -0.000551 -0.000611 0.024711
#
#
# Mechanical properties :
#
#
# Convention : Reuss Voigt Hill
#
# Bulk Modulus (GPa) = 54.14376 62.18494 58.16435
# Shear Modulus (GPa) = 30.89569 34.53017 32.71293
#
# Velocity S-wave (km/s) = 3.64923 3.85791 3.75502
# Velocity P-wave (km/s) = 6.41040 6.82993 6.62349
#
# Compressibility (1/GPa) = 0.01846935
#
# Stress axis : x y z
#
# Youngs Moduli (GPa) = 60.51708 65.48995 106.11876
#
# Poissons Ratio (x) = 0.37484 0.36901
# Poissons Ratio (y) = 0.34638 0.23060
# Poissons Ratio (z) = 0.21044 0.14231
#
# Static dielectric constant tensor:
#      x y z
#    x 4.178930 -0.143250 0.213560 
#    y -0.143250 4.244340 -0.091000 
#    z 0.213560 -0.091000 4.297730 
# 
# 
# High freq. dielectric constant tensor:
#      x y z
#    x 1.915630 -0.005310 0.006690 
#    y -0.005310 1.915990 -0.005710 
#    z 0.006690 -0.005710 1.930580 
# 
# From -- ./inp_files/47955.got.cif
#   From: 2010.06.25/outbox.cif.g09.slc.cpg/sg2_24_cif.got.tgz:47955.got - 2010.06.27 13:26:56.
