data_PCOD8018491
_publ_section_title
;
Structure prediction by ZEFSAII (Michael W. Deem and Ramdas Pophale) SiO2 
 PCOD8018491
Probable space group: P -1
;
_chemical_formula_sum "Si O2"
_cell_formula_units_Z 16
_cell_length_a 8.858575
_cell_length_b 19.802987
_cell_length_c 21.309566
_cell_angle_alpha 20.837456
_cell_angle_beta 147.220638
_cell_angle_gamma 150.116928
_cell_volume 652.693532
_symmetry_space_group_name_H-M "P -1"
_symmetry_group_IT_number 2
_symmetry_cell_setting 'triclinic'
loop_
_space_group_symop_operation_xyz
x,y,z
-x,-y,-z
loop_
_atom_site_type_symbol
_atom_site_label
_atom_site_fract_x
_atom_site_fract_y
_atom_site_fract_z
Si Si1 0.723887 0.188448 0.118705
Si Si2 0.165329 0.248959 0.115354
Si Si3 0.096895 0.322402 0.253146
Si Si4 0.143617 0.366236 0.482214
Si Si5 0.829218 0.996639 0.114199
Si Si6 0.230150 0.547427 0.623056
Si Si7 0.069644 0.839141 0.223109
Si Si8 0.804766 0.316290 0.278397
O O1 0.891995 0.119410 0.181634
O O2 0.863935 0.180241 0.242714
O O3 0.366014 0.023415 0.135679
O O4 0.786286 0.427951 0.924229
O O5 0.446368 0.182965 0.288322
O O6 0.233944 0.490661 0.937362
O O7 0.070661 0.215854 0.036639
O O8 0.414354 0.303241 0.370718
O O9 0.936334 0.222040 0.350493
O O10 0.500000 0.500000 0.500000
O O11 0.092301 0.143968 0.685125
O O12 0.957909 0.475895 0.358590
O O13 0.043809 0.357867 0.382350
O O14 0.889064 0.944916 0.109404
O O15 0.500000 0.000000 0.000000
O O16 0.136783 0.675863 0.428691
O O17 0.156094 0.309486 0.780859
#
# Coordination Sequence:
#
# PCOD8018491 Si02
#       8
#     2   2   2   2   2   2   2   2
#     4  10  22  40  66  99 130 172 225 268 332 395
#     4  10  22  41  66  97 133 173 221 274 327 399
#     4  10  22  40  67  96 131 174 220 273 327 399
#     4  11  25  41  66  96 131 177 219 269 336 395
#     4  11  25  42  66  96 134 170 221 276 330 397
#     4  10  24  42  65  93 132 173 218 271 330 395
#     4  10  24  43  65  94 132 172 219 271 332 394
#     4  10  22  41  68  95 133 177 219 270 334 396
#
# _framework density 24.513801999999998
#
# number of rings (size 3 to 8) (size 9 to 14) (size 15 to 20)
#    0.000    1.750    0.000    2.250   10.500    5.500 
#    0.000    0.000    0.000    0.000    0.000    0.000 
#    0.000    0.000    0.000    0.000    0.000    0.000 
#
# Total GULP energy -198234.892782 kJ/mol
# GULP energy per Si atom -12389.680799 kJ/mol
# Density = 2.445801 g / cm^3
# Si number density = 24.513802 Si / 1000 Ang^3
#
#
#
# Elastic Constant Matrix: (Units=GPa)
#
#
# Indices 1 2 3 4 5 6 
#
# 1 48.2581 -136.3635 131.7384 -2.5253 -18.5758 36.4504
# 2 -136.3635 -151.1955 153.1399 -6.5256 -48.3709 47.8155
# 3 131.7384 153.1399 -27.4029 29.0818 43.8550 -24.0635
# 4 -2.5253 -6.5256 29.0818 39.1111 -4.4477 7.3398
# 5 -18.5758 -48.3709 43.8550 -4.4477 22.8173 19.5788
# 6 36.4504 47.8155 -24.0635 7.3398 19.5788 42.1953
#
#
#
# Elastic Compliance Matrix: (Units=1/GPa)
#
#
# Indices 1 2 3 4 5 6 
#
# 1 0.006563 -0.003967 0.000113 -0.001046 -0.004471 0.001146
# 2 -0.003967 0.007938 0.008090 -0.006036 -0.005334 0.002570
# 3 0.000113 0.008090 0.009434 -0.004824 0.001303 -0.003651
# 4 -0.001046 -0.006036 -0.004824 0.028451 0.001883 -0.000830
# 5 -0.004471 -0.005334 0.001303 0.001883 0.029718 -0.003468
# 6 0.001146 0.002570 -0.003651 -0.000830 -0.003468 0.019468
#
#
# Mechanical properties :
#
#
# Convention : Reuss Voigt Hill
#
# Bulk Modulus (GPa) = 30.85615 18.52102 24.68859
# Shear Modulus (GPa) = 48.12297 2.23439 25.17868
#
# Velocity S-wave (km/s) = 4.43549 0.95575 3.20835
# Velocity P-wave (km/s) = 6.23266 2.96474 4.88035
#
# Compressibility (1/GPa) = 0.03240845
#
# Stress axis : x y z
#
# Youngs Moduli (GPa) = 152.36879 125.98371 105.99908
#
# Poissons Ratio (x) = 0.49972 -0.01200
# Poissons Ratio (y) = 0.60437 -0.85755
# Poissons Ratio (z) = -0.01725 -1.01923
#
# Static dielectric constant tensor:
#      x y z
#    x 4.741720 0.016300 0.339980 
#    y 0.016300 4.483930 0.025980 
#    z 0.339980 0.025980 4.152820 
# 
# 
# High freq. dielectric constant tensor:
#      x y z
#    x 1.981710 -0.001510 0.009800 
#    y -0.001510 1.980060 0.008610 
#    z 0.009800 0.008610 1.972670 
# 
# From -- ./inp_files/608649.got.cif
#   From: 2010.06.25/outbox.cif.g09.slc.cpg/sg2_305_cif.got.tgz:608649.got - 2010.06.27 13:26:56.
