data_PCOD8018483
_publ_section_title
;
Structure prediction by ZEFSAII (Michael W. Deem and Ramdas Pophale) SiO2 
 PCOD8018483
Probable space group: P -1
;
_chemical_formula_sum "Si O2"
_cell_formula_units_Z 16
_cell_length_a 5.709106
_cell_length_b 8.364418
_cell_length_c 17.986040
_cell_angle_alpha 92.336699
_cell_angle_beta 89.989416
_cell_angle_gamma 128.864461
_cell_volume 667.850238
_symmetry_space_group_name_H-M "P -1"
_symmetry_group_IT_number 2
_symmetry_cell_setting 'triclinic'
loop_
_space_group_symop_operation_xyz
x,y,z
-x,-y,-z
loop_
_atom_site_type_symbol
_atom_site_label
_atom_site_fract_x
_atom_site_fract_y
_atom_site_fract_z
Si Si1 0.228733 0.541248 0.909556
Si Si2 0.158244 0.395245 0.514614
Si Si3 0.224973 0.244434 0.655203
Si Si4 0.576804 0.188498 0.956821
Si Si5 0.412335 0.084812 0.290609
Si Si6 0.773243 0.120487 0.164909
Si Si7 0.323175 0.965678 0.573214
Si Si8 0.431201 0.413339 0.226360
O O1 0.187623 0.699583 0.877963
O O2 0.407544 0.502343 0.852476
O O3 0.910584 0.322039 0.923300
O O4 0.427701 0.654734 0.987619
O O5 0.500000 0.500000 0.500000
O O6 0.104164 0.330883 0.600733
O O7 0.000000 0.500000 0.500000
O O8 0.021061 0.209314 0.452659
O O9 0.486780 0.403648 0.716831
O O10 0.371374 0.166977 0.604281
O O11 0.945848 0.066675 0.701436
O O12 0.317245 0.071566 0.890713
O O13 0.500000 0.000000 0.000000
O O14 0.501881 0.003379 0.222573
O O15 0.580914 0.119063 0.366876
O O16 0.550389 0.313275 0.270387
O O17 0.080311 0.229808 0.211411
O O18 0.500000 0.000000 0.500000
#
# Coordination Sequence:
#
# PCOD8018483 Si02
#       8
#     2   2   2   2   2   2   2   2
#     4   9  20  40  66  96 142 178 229 284 344 417
#     4  12  28  47  75 105 142 188 244 311 379 453
#     4  12  27  44  71  98 140 183 236 299 370 440
#     4   9  18  39  68  99 134 187 226 282 342 412
#     4  11  25  45  70  96 139 182 235 297 358 439
#     4  10  22  40  66  97 139 177 236 282 350 424
#     4  12  26  49  71 103 137 184 244 305 376 442
#     4  11  25  43  66 104 138 185 232 290 357 430
#
# _framework density 23.957466
#
# number of rings (size 3 to 8) (size 9 to 14) (size 15 to 20)
#    0.000    1.250    1.250    3.375    5.250    4.500 
#    0.000    5.625    0.000    0.000    0.000    0.000 
#    0.000    0.000    0.000    0.000    0.000    0.000 
#
# Total GULP energy -198251.560135 kJ/mol
# GULP energy per Si atom -12390.722508 kJ/mol
# Density = 2.390294 g / cm^3
# Si number density = 23.957466 Si / 1000 Ang^3
#
#
#
# Elastic Constant Matrix: (Units=GPa)
#
#
# Indices 1 2 3 4 5 6 
#
# 1 97.8396 45.0582 56.7872 15.7191 -15.8537 12.9745
# 2 45.0582 124.4745 82.8679 25.3654 -8.5699 28.7017
# 3 56.7872 82.8679 177.1021 27.7970 -12.6861 10.0008
# 4 15.7191 25.3654 27.7970 64.7387 11.6203 3.0751
# 5 -15.8537 -8.5699 -12.6861 11.6203 31.4770 9.2403
# 6 12.9745 28.7017 10.0008 3.0751 9.2403 31.2384
#
#
#
# Elastic Compliance Matrix: (Units=1/GPa)
#
#
# Indices 1 2 3 4 5 6 
#
# 1 0.015399 -0.000287 -0.003048 -0.003766 0.010123 -0.007780
# 2 -0.000287 0.017231 -0.005631 -0.005093 0.008863 -0.016030
# 3 -0.003048 -0.005631 0.009249 -0.001205 0.000053 0.003582
# 4 -0.003766 -0.005093 -0.001205 0.020986 -0.014078 0.008728
# 5 0.010123 0.008863 0.000053 -0.014078 0.052261 -0.026438
# 6 -0.007780 -0.016030 0.003582 0.008728 -0.026438 0.055786
#
#
# Mechanical properties :
#
#
# Convention : Reuss Voigt Hill
#
# Bulk Modulus (GPa) = 41.75788 85.42701 63.59244
# Shear Modulus (GPa) = 25.40313 39.80436 32.60374
#
# Velocity S-wave (km/s) = 3.25982 4.08052 3.69304
# Velocity P-wave (km/s) = 5.62463 7.61158 6.69225
#
# Compressibility (1/GPa) = 0.02394757
#
# Stress axis : x y z
#
# Youngs Moduli (GPa) = 64.93906 58.03574 108.11795
#
# Poissons Ratio (x) = 0.01664 0.32954
# Poissons Ratio (y) = 0.01862 0.60881
# Poissons Ratio (z) = 0.19793 0.32680
#
# Static dielectric constant tensor:
#      x y z
#    x 3.989340 0.159030 0.123170 
#    y 0.159030 4.814610 -0.092450 
#    z 0.123170 -0.092450 4.608750 
# 
# 
# High freq. dielectric constant tensor:
#      x y z
#    x 1.922820 0.010580 0.005950 
#    y 0.010580 1.958640 -0.001600 
#    z 0.005950 -0.001600 1.979230 
# 
# From -- ./inp_files/548162.got.cif
#   From: 2010.06.25/outbox.cif.g09.slc.cpg/sg2_275_cif.got.tgz:548162.got - 2010.06.27 13:26:56.
