data_PCOD8018794
_publ_section_title
;
Structure prediction by ZEFSAII (Michael W. Deem and Ramdas Pophale) SiO2 
 PCOD8018794
Probable space group: P -1
;
_chemical_formula_sum "Si O2"
_cell_formula_units_Z 16
_cell_length_a 11.732504
_cell_length_b 9.880516
_cell_length_c 10.212565
_cell_angle_alpha 41.533598
_cell_angle_beta 100.135754
_cell_angle_gamma 101.492792
_cell_volume 768.582692
_symmetry_space_group_name_H-M "P -1"
_symmetry_group_IT_number 2
_symmetry_cell_setting 'triclinic'
loop_
_space_group_symop_operation_xyz
x,y,z
-x,-y,-z
loop_
_atom_site_type_symbol
_atom_site_label
_atom_site_fract_x
_atom_site_fract_y
_atom_site_fract_z
Si Si1 0.248251 0.736334 0.641761
Si Si2 0.136295 0.539348 0.021719
Si Si3 0.279597 0.197730 0.392943
Si Si4 0.514344 0.242384 0.824181
Si Si5 0.283356 0.236033 0.666145
Si Si6 0.230603 0.798600 0.095508
Si Si7 0.484432 0.547814 0.812207
Si Si8 0.867834 0.412675 0.531363
O O1 0.367514 0.649963 0.688341
O O2 0.155667 0.680798 0.549020
O O3 0.270348 0.979248 0.480874
O O4 0.199971 0.643353 0.834596
O O5 0.186476 0.323804 0.211352
O O6 0.160188 0.686298 0.044004
O O7 0.000000 0.500000 0.000000
O O8 0.247153 0.177850 0.553597
O O9 0.410389 0.298566 0.331360
O O10 0.422915 0.311973 0.647051
O O11 0.650709 0.312653 0.773237
O O12 0.480267 0.331435 0.892996
O O13 0.500000 0.000000 0.000000
O O14 0.210401 0.406842 0.584792
O O15 0.256705 0.038021 0.897280
O O16 0.155289 0.767896 0.234704
O O17 0.500000 0.500000 0.000000
O O18 0.000000 0.500000 0.500000
#
# Coordination Sequence:
#
# PCOD8018794 Si02
#       8
#     2   2   2   2   2   2   2   2
#     4  12  27  45  69 106 141 177 226 291 349 399
#     4  12  25  46  72  97 136 186 233 281 334 409
#     4  12  26  44  72 102 136 184 233 273 348 426
#     4  10  22  40  72 100 131 177 226 272 343 413
#     4  11  24  44  73  98 133 181 226 276 343 414
#     4  11  23  46  70  99 134 177 229 276 334 413
#     4  12  23  43  68 102 144 175 220 290 353 404
#     4  12  27  45  68 101 137 176 230 285 337 393
#
# _framework density 20.817540000000001
#
# number of rings (size 3 to 8) (size 9 to 14) (size 15 to 20)
#    0.000    0.500    6.250    1.125    3.500    6.000 
#    0.000    0.000    0.000    0.000    0.000    0.000 
#    0.000    0.000    0.000    0.000    0.000    0.000 
#
# Total GULP energy -198463.926376 kJ/mol
# GULP energy per Si atom -12403.995398 kJ/mol
# Density = 2.077016 g / cm^3
# Si number density = 20.817540 Si / 1000 Ang^3
#
#
#
# Elastic Constant Matrix: (Units=GPa)
#
#
# Indices 1 2 3 4 5 6 
#
# 1 119.3217 18.0392 31.9010 -7.6914 11.8187 23.9551
# 2 18.0392 130.1256 31.0724 -2.8419 16.9150 9.5755
# 3 31.9010 31.0724 106.7463 4.3735 -2.4124 5.7167
# 4 -7.6914 -2.8419 4.3735 34.8603 2.6648 5.9790
# 5 11.8187 16.9150 -2.4124 2.6648 19.4184 6.8157
# 6 23.9551 9.5755 5.7167 5.9790 6.8157 31.9325
#
#
#
# Elastic Compliance Matrix: (Units=1/GPa)
#
#
# Indices 1 2 3 4 5 6 
#
# 1 0.011783 0.000733 -0.003647 0.004962 -0.006126 -0.008028
# 2 0.000733 0.009703 -0.003272 0.002294 -0.009145 -0.001351
# 3 -0.003647 -0.003272 0.011648 -0.003180 0.006671 0.000803
# 4 0.004962 0.002294 -0.003180 0.032339 -0.006894 -0.008425
# 5 -0.006126 -0.009145 0.006671 -0.006894 0.067407 -0.006953
# 6 -0.008028 -0.001351 0.000803 -0.008425 -0.006953 0.040661
#
#
# Mechanical properties :
#
#
# Convention : Reuss Voigt Hill
#
# Bulk Modulus (GPa) = 48.16185 57.57985 52.87085
# Shear Modulus (GPa) = 25.92909 35.58763 30.75836
#
# Velocity S-wave (km/s) = 3.53305 4.13910 3.84802
# Velocity P-wave (km/s) = 6.31100 7.11071 6.72276
#
# Compressibility (1/GPa) = 0.02076332
#
# Stress axis : x y z
#
# Youngs Moduli (GPa) = 84.86660 103.06305 85.85061
#
# Poissons Ratio (x) = -0.07552 0.31305
# Poissons Ratio (y) = -0.06218 0.28087
# Poissons Ratio (z) = 0.30947 0.33718
#
# Static dielectric constant tensor:
#      x y z
#    x 7.588380 -1.487010 0.238720 
#    y -1.487010 4.595650 0.098130 
#    z 0.238720 0.098130 4.016100 
# 
# 
# High freq. dielectric constant tensor:
#      x y z
#    x 1.821450 0.005220 0.004730 
#    y 0.005220 1.828950 0.001160 
#    z 0.004730 0.001160 1.824080 
# 
# From -- ./inp_files/187089.got.cif
#   From: 2010.06.25/outbox.cif.g09.slc.cpg/sg2_94_cif.got.tgz:187089.got - 2010.06.27 13:26:56.
