data_PCOD8018767
_publ_section_title
;
Structure prediction by ZEFSAII (Michael W. Deem and Ramdas Pophale) SiO2 
 PCOD8018767
Probable space group: P -1
;
_chemical_formula_sum "Si O2"
_cell_formula_units_Z 16
_cell_length_a 8.741884
_cell_length_b 21.744459
_cell_length_c 9.391401
_cell_angle_alpha 59.697167
_cell_angle_beta 102.418164
_cell_angle_gamma 51.958877
_cell_volume 769.292137
_symmetry_space_group_name_H-M "P -1"
_symmetry_group_IT_number 2
_symmetry_cell_setting 'triclinic'
loop_
_space_group_symop_operation_xyz
x,y,z
-x,-y,-z
loop_
_atom_site_type_symbol
_atom_site_label
_atom_site_fract_x
_atom_site_fract_y
_atom_site_fract_z
Si Si1 0.060544 0.377813 0.347229
Si Si2 0.037073 0.622528 0.986559
Si Si3 0.389569 0.523860 0.670807
Si Si4 0.347422 0.120463 0.242757
Si Si5 0.285435 0.903255 0.771993
Si Si6 0.121589 0.421590 0.766554
Si Si7 0.733544 0.305074 0.767508
Si Si8 0.737431 0.137007 0.882185
O O1 0.408214 0.245747 0.624321
O O2 0.892630 0.378033 0.392805
O O3 0.850028 0.525599 0.179608
O O4 0.042881 0.387006 0.162765
O O5 0.310707 0.570675 0.070232
O O6 0.103270 0.546734 0.230157
O O7 0.738598 0.784900 0.772391
O O8 0.472952 0.424034 0.698672
O O9 0.305506 0.627476 0.449607
O O10 0.589282 0.064932 0.252137
O O11 0.500000 0.000000 0.500000
O O12 0.065959 0.195533 0.018805
O O13 0.546842 0.741703 0.991591
O O14 0.181267 0.936273 0.873117
O O15 0.000000 0.000000 0.500000
O O16 0.000000 0.500000 0.500000
O O17 0.735518 0.222921 0.809556
O O18 0.000000 0.000000 0.000000
#
# Coordination Sequence:
#
# PCOD8018767 Si02
#       8
#     2   2   2   2   2   2   2   2
#     4  12  24  41  68 100 139 174 219 285 347 404
#     4  10  24  42  64 102 136 170 218 286 343 400
#     4  10  22  40  70  98 131 167 230 278 344 408
#     4  10  22  42  68  91 131 180 226 272 335 406
#     4  11  24  44  70 101 134 179 240 276 333 412
#     4  11  23  42  73  97 134 178 233 275 331 409
#     4  10  22  41  68  95 130 177 225 281 334 410
#     4  12  27  43  66  99 140 180 226 284 348 403
#
# _framework density 20.798341000000001
#
# number of rings (size 3 to 8) (size 9 to 14) (size 15 to 20)
#    0.000    1.250    1.250    3.750   10.500    1.000 
#    2.250    1.250    0.000    0.000    0.000    0.000 
#    0.000    0.000    0.000    0.000    0.000    0.000 
#
# Total GULP energy -198236.126438 kJ/mol
# GULP energy per Si atom -12389.757902 kJ/mol
# Density = 2.075100 g / cm^3
# Si number density = 20.798341 Si / 1000 Ang^3
#
#
#
# Elastic Constant Matrix: (Units=GPa)
#
#
# Indices 1 2 3 4 5 6 
#
# 1 133.4972 67.4772 63.8661 4.0249 -4.3202 -12.1169
# 2 67.4772 135.5832 59.9628 15.2709 -11.4549 -3.0328
# 3 63.8661 59.9628 116.5641 9.1169 -12.1695 -7.9689
# 4 4.0249 15.2709 9.1169 30.8329 4.6284 0.3495
# 5 -4.3202 -11.4549 -12.1695 4.6284 38.1211 -4.4581
# 6 -12.1169 -3.0328 -7.9689 0.3495 -4.4581 34.4816
#
#
#
# Elastic Compliance Matrix: (Units=1/GPa)
#
#
# Indices 1 2 3 4 5 6 
#
# 1 0.011891 -0.004226 -0.004457 0.002022 -0.001288 0.002590
# 2 -0.004226 0.011543 -0.003057 -0.004625 0.002481 -0.000809
# 3 -0.004457 -0.003057 0.013232 -0.002328 0.003278 0.001670
# 4 0.002022 -0.004625 -0.002328 0.036133 -0.006458 -0.001435
# 5 -0.001288 0.002481 0.003278 -0.006458 0.029172 0.004360
# 6 0.002590 -0.000809 0.001670 -0.001435 0.004360 0.030804
#
#
# Mechanical properties :
#
#
# Convention : Reuss Voigt Hill
#
# Bulk Modulus (GPa) = 75.83459 85.36185 80.59822
# Shear Modulus (GPa) = 31.12308 33.64303 32.38306
#
# Velocity S-wave (km/s) = 3.87256 4.02628 3.95017
# Velocity P-wave (km/s) = 7.51908 7.92126 7.72279
#
# Compressibility (1/GPa) = 0.01318659
#
# Stress axis : x y z
#
# Youngs Moduli (GPa) = 84.09425 86.63249 75.57222
#
# Poissons Ratio (x) = 0.36607 0.33684
# Poissons Ratio (y) = 0.35534 0.23105
# Poissons Ratio (z) = 0.37483 0.26487
#
# Static dielectric constant tensor:
#      x y z
#    x 3.924100 -0.156190 -0.045780 
#    y -0.156190 3.871310 -0.065790 
#    z -0.045780 -0.065790 4.021510 
# 
# 
# High freq. dielectric constant tensor:
#      x y z
#    x 1.835220 -0.005290 -0.000090 
#    y -0.005290 1.805120 0.003440 
#    z -0.000090 0.003440 1.821030 
# 
# From -- ./inp_files/223462.got.cif
#   From: 2010.06.25/outbox.cif.g09.slc.cpg/sg2_112_cif.got.tgz:223462.got - 2010.06.27 13:26:56.
