data_PCOD8018104
_publ_section_title
;
Structure prediction by ZEFSAII (Michael W. Deem and Ramdas Pophale) SiO2 
 PCOD8018104
Probable space group: P -1
;
_chemical_formula_sum "Si O2"
_cell_formula_units_Z 16
_cell_length_a 15.663002
_cell_length_b 14.546240
_cell_length_c 12.157530
_cell_angle_alpha 30.381340
_cell_angle_beta 32.044834
_cell_angle_gamma 45.526982
_cell_volume 738.429095
_symmetry_space_group_name_H-M "P -1"
_symmetry_group_IT_number 2
_symmetry_cell_setting 'triclinic'
loop_
_space_group_symop_operation_xyz
x,y,z
-x,-y,-z
loop_
_atom_site_type_symbol
_atom_site_label
_atom_site_fract_x
_atom_site_fract_y
_atom_site_fract_z
Si Si1 0.247343 0.529942 0.746202
Si Si2 0.514985 0.311664 0.316334
Si Si3 0.144108 0.514274 0.244971
Si Si4 0.344320 0.020636 0.435259
Si Si5 0.522549 0.592410 0.204968
Si Si6 0.242027 0.186472 0.577499
Si Si7 0.016625 0.810851 0.958355
Si Si8 0.024008 0.207248 0.217641
O O1 0.377278 0.597527 0.442676
O O2 0.328539 0.495243 0.810386
O O3 0.140811 0.697145 0.701677
O O4 0.153803 0.334116 0.016001
O O5 0.467241 0.467899 0.289366
O O6 0.385279 0.297917 0.374795
O O7 0.520977 0.121897 0.572789
O O8 0.695631 0.358956 0.019695
O O9 0.193239 0.308821 0.398416
O O10 0.000000 0.500000 0.500000
O O11 0.073425 0.606249 0.119855
O O12 0.306483 0.023846 0.606280
O O13 0.176247 0.955506 0.623861
O O14 0.426162 0.202966 0.101775
O O15 0.091757 0.129591 0.882322
O O16 0.915163 0.805961 0.961551
O O17 0.000000 0.000000 0.500000
#
# Coordination Sequence:
#
# PCOD8018104 Si02
#       8
#     2   2   2   2   2   2   2   2
#     4  10  24  42  66  95 122 161 214 269 310 381
#     4  11  22  39  60  90 129 162 206 260 305 370
#     4   9  19  35  58  85 118 163 204 244 304 362
#     4  11  23  38  62  89 128 168 205 252 311 375
#     4  11  23  42  65  92 126 166 213 257 321 371
#     4  11  21  38  62  91 127 167 209 252 307 367
#     4  10  22  40  62  91 123 165 209 257 309 375
#     4  11  23  44  68  93 128 160 210 265 323 370
#
# _framework density 21.667618999999998
#
# number of rings (size 3 to 8) (size 9 to 14) (size 15 to 20)
#    0.000    1.500    1.250    4.125    0.000    2.000 
#    0.000    3.125    0.000    0.000    0.000    0.000 
#    0.000    0.000    0.000    0.000    0.000    0.000 
#
# Total GULP energy -198251.128994 kJ/mol
# GULP energy per Si atom -12390.695562 kJ/mol
# Density = 2.161830 g / cm^3
# Si number density = 21.667619 Si / 1000 Ang^3
#
#
#
# Elastic Constant Matrix: (Units=GPa)
#
#
# Indices 1 2 3 4 5 6 
#
# 1 71.5312 2.4558 13.6011 -7.1046 5.6242 4.7626
# 2 2.4558 59.8250 41.0028 -13.1956 7.5755 -2.7449
# 3 13.6011 41.0028 106.3140 -17.0449 18.0621 -6.9475
# 4 -7.1046 -13.1956 -17.0449 31.8072 -2.7009 -2.5377
# 5 5.6242 7.5755 18.0621 -2.7009 27.0660 -2.6756
# 6 4.7626 -2.7449 -6.9475 -2.5377 -2.6756 30.7061
#
#
#
# Elastic Compliance Matrix: (Units=1/GPa)
#
#
# Indices 1 2 3 4 5 6 
#
# 1 0.014877 0.001349 -0.001803 0.002517 -0.002270 -0.002585
# 2 0.001349 0.023674 -0.008226 0.005682 -0.000806 0.000445
# 3 -0.001803 -0.008226 0.014676 0.003706 -0.006490 0.002606
# 4 0.002517 0.005682 0.003706 0.036613 -0.000544 0.003934
# 5 -0.002270 -0.000806 -0.006490 -0.000544 0.042162 0.002441
# 6 -0.002585 0.000445 0.002606 0.003934 0.002441 0.034135
#
#
# Mechanical properties :
#
#
# Convention : Reuss Voigt Hill
#
# Bulk Modulus (GPa) = 27.88071 39.08775 33.48423
# Shear Modulus (GPa) = 25.58171 29.95656 27.76913
#
# Velocity S-wave (km/s) = 3.43978 3.72230 3.58382
# Velocity P-wave (km/s) = 5.35457 6.04590 5.71071
#
# Compressibility (1/GPa) = 0.03586710
#
# Stress axis : x y z
#
# Youngs Moduli (GPa) = 67.21754 42.24096 68.13640
#
# Poissons Ratio (x) = -0.05700 0.12287
# Poissons Ratio (y) = -0.09070 0.56050
# Poissons Ratio (z) = 0.12122 0.34748
#
# Static dielectric constant tensor:
#      x y z
#    x 1.813450 1.172000 -2.624270 
#    y 1.172000 3.538910 1.723400 
#    z -2.624270 1.723400 0.568750 
# 
# 
# High freq. dielectric constant tensor:
#      x y z
#    x 1.845840 -0.007840 0.002820 
#    y -0.007840 1.857100 -0.001080 
#    z 0.002820 -0.001080 1.857190 
# 
# From -- ./inp_files/452331.got.cif
#   From: 2010.06.25/outbox.cif.g09.slc.cpg/sg2_227_cif.got.tgz:452331.got - 2010.06.27 13:26:56.
