data_PCOD8018161
_publ_section_title
;
Structure prediction by ZEFSAII (Michael W. Deem and Ramdas Pophale) SiO2 
 PCOD8018161
Probable space group: P -1
;
_chemical_formula_sum "Si O2"
_cell_formula_units_Z 16
_cell_length_a 14.035146
_cell_length_b 9.206164
_cell_length_c 9.086442
_cell_angle_alpha 48.158132
_cell_angle_beta 99.587007
_cell_angle_gamma 82.807925
_cell_volume 816.606607
_symmetry_space_group_name_H-M "P -1"
_symmetry_group_IT_number 2
_symmetry_cell_setting 'triclinic'
loop_
_space_group_symop_operation_xyz
x,y,z
-x,-y,-z
loop_
_atom_site_type_symbol
_atom_site_label
_atom_site_fract_x
_atom_site_fract_y
_atom_site_fract_z
Si Si1 0.647234 0.382983 0.840011
Si Si2 0.686897 0.192649 0.669381
Si Si3 0.519212 0.834279 0.488898
Si Si4 0.825759 0.332444 0.405254
Si Si5 0.019543 0.111293 0.785017
Si Si6 0.171013 0.848170 0.780814
Si Si7 0.796276 0.784101 0.127302
Si Si8 0.332589 0.028084 0.769397
O O1 0.667297 0.356018 0.687963
O O2 0.568405 0.601967 0.718000
O O3 0.755236 0.348073 0.975681
O O4 0.601376 0.203534 0.003191
O O5 0.584406 0.145925 0.633744
O O6 0.726243 0.289334 0.474180
O O7 0.770829 0.973992 0.878170
O O8 0.500000 0.000000 0.500000
O O9 0.600092 0.870336 0.373844
O O10 0.861132 0.211187 0.345160
O O11 0.800057 0.571912 0.195029
O O12 0.914218 0.267667 0.593229
O O13 0.094741 0.240371 0.754783
O O14 0.068811 0.943384 0.784842
O O15 0.000000 0.000000 0.000000
O O16 0.233630 0.011477 0.664988
O O17 0.707370 0.830499 0.194506
#
# Coordination Sequence:
#
# PCOD8018161 Si02
#       8
#     2   2   2   2   2   2   2   2
#     4   9  21  42  57  81 125 158 202 238 302 351
#     4  11  23  40  62  88 122 164 204 239 296 360
#     4  12  24  35  62  94 118 159 206 249 297 348
#     4  12  22  37  66  90 124 154 198 253 298 350
#     4  11  20  42  67  87 122 158 200 245 297 364
#     4   9  21  41  60  90 124 159 191 250 309 343
#     4  10  22  40  63  90 116 160 203 239 299 360
#     4   8  20  41  58  80 125 159 194 247 287 358
#
# _framework density 19.593278999999999
#
# number of rings (size 3 to 8) (size 9 to 14) (size 15 to 20)
#    0.750    1.000    2.500    2.625    1.750    3.500 
#    0.000    0.625    0.000    0.000    0.000    0.000 
#    0.000    0.000    0.000    0.000    0.000    0.000 
#
# Total GULP energy -198338.973031 kJ/mol
# GULP energy per Si atom -12396.185814 kJ/mol
# Density = 1.954868 g / cm^3
# Si number density = 19.593279 Si / 1000 Ang^3
#
#
#
# Elastic Constant Matrix: (Units=GPa)
#
#
# Indices 1 2 3 4 5 6 
#
# 1 85.0981 25.1617 19.7962 3.0806 -5.2667 1.8593
# 2 25.1617 92.2348 33.8896 -2.4214 -6.0694 2.4587
# 3 19.7962 33.8896 55.8979 -3.0132 2.7147 5.7680
# 4 3.0806 -2.4214 -3.0132 30.2813 -7.2989 -0.6305
# 5 -5.2667 -6.0694 2.7147 -7.2989 29.6157 0.8302
# 6 1.8593 2.4587 5.7680 -0.6305 0.8302 16.4026
#
#
#
# Elastic Compliance Matrix: (Units=1/GPa)
#
#
# Indices 1 2 3 4 5 6 
#
# 1 0.013416 -0.002273 -0.003534 -0.001444 0.001891 -0.000089
# 2 -0.002273 0.014794 -0.008352 0.001502 0.003740 0.000846
# 3 -0.003534 -0.008352 0.025182 0.001041 -0.004197 -0.006950
# 4 -0.001444 0.001502 0.001041 0.035499 0.008691 0.000497
# 5 0.001891 0.003740 -0.004197 0.008691 0.037419 -0.000859
# 6 -0.000089 0.000846 -0.006950 0.000497 -0.000859 0.063356
#
#
# Mechanical properties :
#
#
# Convention : Reuss Voigt Hill
#
# Bulk Modulus (GPa) = 39.88097 43.43619 41.65858
# Shear Modulus (GPa) = 22.09040 25.55215 23.82128
#
# Velocity S-wave (km/s) = 3.36139 3.61519 3.49060
# Velocity P-wave (km/s) = 5.95516 6.29628 6.12809
#
# Compressibility (1/GPa) = 0.02507461
#
# Stress axis : x y z
#
# Youngs Moduli (GPa) = 74.53521 67.59665 39.71060
#
# Poissons Ratio (x) = 0.15362 0.14034
# Poissons Ratio (y) = 0.16939 0.33167
# Poissons Ratio (z) = 0.26342 0.56457
#
# Static dielectric constant tensor:
#      x y z
#    x 3.541800 -0.059460 0.069110 
#    y -0.059460 3.484180 -0.012390 
#    z 0.069110 -0.012390 3.418690 
# 
# 
# High freq. dielectric constant tensor:
#      x y z
#    x 1.759300 -0.002840 0.003080 
#    y -0.002840 1.761530 0.000040 
#    z 0.003080 0.000040 1.754180 
# 
# From -- ./inp_files/294167.got.cif
#   From: 2010.06.25/outbox.cif.g09.slc.cpg/sg2_148_cif.got.tgz:294167.got - 2010.06.27 13:26:56.
