data_PCOD8018043
_publ_section_title
;
Structure prediction by ZEFSAII (Michael W. Deem and Ramdas Pophale) SiO2 
 PCOD8018043
Probable space group: P -1
;
_chemical_formula_sum "Si O2"
_cell_formula_units_Z 14
_cell_length_a 25.438893
_cell_length_b 7.716300
_cell_length_c 9.580331
_cell_angle_alpha 57.937737
_cell_angle_beta 32.472899
_cell_angle_gamma 38.243057
_cell_volume 573.777771
_symmetry_space_group_name_H-M "P -1"
_symmetry_group_IT_number 2
_symmetry_cell_setting 'triclinic'
loop_
_space_group_symop_operation_xyz
x,y,z
-x,-y,-z
loop_
_atom_site_type_symbol
_atom_site_label
_atom_site_fract_x
_atom_site_fract_y
_atom_site_fract_z
Si Si1 0.467157 0.432264 0.745266
Si Si2 0.941957 0.849868 0.141429
Si Si3 0.170849 0.052167 0.203975
Si Si4 0.364592 0.801051 0.257809
Si Si5 0.276279 0.372902 0.117668
Si Si6 0.092490 0.637675 0.160367
Si Si7 0.994119 0.282019 0.249194
O O1 0.500000 0.500000 0.500000
O O2 0.599468 0.207747 0.655043
O O3 0.419494 0.278389 0.874896
O O4 0.339417 0.742466 0.986019
O O5 0.968950 0.564759 0.181138
O O6 0.063308 0.770032 0.010238
O O7 0.776000 0.132427 0.449013
O O8 0.966369 0.896655 0.908937
O O9 0.143456 0.331732 0.147924
O O10 0.067384 0.105764 0.524570
O O11 0.132244 0.022786 0.149519
O O12 0.319505 0.068809 0.154904
O O13 0.500000 0.500000 0.000000
O O14 0.216817 0.534953 0.027914
O O15 0.149653 0.606265 0.416184
#
# Coordination Sequence:
#
# PCOD8018043 Si02
#       7
#     2   2   2   2   2   2   2
#     4  12  25  40  60  85 121 164 205 243 285 354
#     4   9  16  31  58  92 118 149 190 240 301 348
#     4   9  17  34  56  83 114 153 193 237 299 347
#     4  11  22  40  63  87 125 165 194 232 294 369
#     4  10  22  40  61  88 118 158 202 244 298 349
#     4   9  17  34  63  88 114 146 194 251 295 348
#     4   8  16  31  57  87 118 147 191 250 295 345
#
# _framework density 24.399688999999999
#
# number of rings (size 3 to 8) (size 9 to 14) (size 15 to 20)
#    0.000    2.286    0.000    5.571    0.000    3.429 
#    0.000    4.286    0.000    5.143    0.000    0.000 
#    0.000    0.000    0.000    0.000    0.000    0.000 
#
# Total GULP energy -173499.565316 kJ/mol
# GULP energy per Si atom -12392.826094 kJ/mol
# Density = 2.434415 g / cm^3
# Si number density = 24.399689 Si / 1000 Ang^3
#
#
#
# Elastic Constant Matrix: (Units=GPa)
#
#
# Indices 1 2 3 4 5 6 
#
# 1 169.5288 32.4793 42.4482 -5.2380 6.8531 -34.7195
# 2 32.4793 80.8685 28.1463 -2.7115 10.4060 -28.7457
# 3 42.4482 28.1463 88.4252 4.3745 -1.2001 -1.9754
# 4 -5.2380 -2.7115 4.3745 40.4180 -1.2352 9.6214
# 5 6.8531 10.4060 -1.2001 -1.2352 37.1620 6.2213
# 6 -34.7195 -28.7457 -1.9754 9.6214 6.2213 45.4520
#
#
#
# Elastic Compliance Matrix: (Units=1/GPa)
#
#
# Indices 1 2 3 4 5 6 
#
# 1 0.008399 0.001189 -0.004275 -0.000251 -0.003281 0.007484
# 2 0.001189 0.020837 -0.006901 -0.001627 -0.008900 0.015349
# 3 -0.004275 -0.006901 0.015492 -0.000798 0.004432 -0.007394
# 4 -0.000251 -0.001627 -0.000798 0.026481 0.002564 -0.007212
# 5 -0.003281 -0.008900 0.004432 0.002564 0.032398 -0.012920
# 6 0.007484 0.015349 -0.007394 -0.007212 -0.012920 0.040399
#
#
# Mechanical properties :
#
#
# Convention : Reuss Voigt Hill
#
# Bulk Modulus (GPa) = 40.39759 60.55221 50.47490
# Shear Modulus (GPa) = 29.03070 40.32297 34.67684
#
# Velocity S-wave (km/s) = 3.45309 4.06963 3.77397
# Velocity P-wave (km/s) = 5.70008 6.85224 6.30255
#
# Compressibility (1/GPa) = 0.02475395
#
# Stress axis : x y z
#
# Youngs Moduli (GPa) = 119.06121 47.99225 64.54839
#
# Poissons Ratio (x) = -0.05705 0.27596
# Poissons Ratio (y) = -0.14154 0.44542
# Poissons Ratio (z) = 0.50902 0.33117
#
# Static dielectric constant tensor:
#      x y z
#    x 4.929970 -0.385560 0.158110 
#    y -0.385560 4.722380 -0.080440 
#    z 0.158110 -0.080440 4.211090 
# 
# 
# High freq. dielectric constant tensor:
#      x y z
#    x 1.995970 -0.001010 0.007680 
#    y -0.001010 1.996880 -0.004320 
#    z 0.007680 -0.004320 1.940170 
# 
# From -- ./inp_files/184909.got.cif
#   From: 2010.06.25/outbox.cif.g09.slc.cpg/sg2_93_cif.got.tgz:184909.got - 2010.06.27 13:26:56.
