data_PCOD8018741
_publ_section_title
;
Structure prediction by ZEFSAII (Michael W. Deem and Ramdas Pophale) SiO2 
 PCOD8018741
Probable space group: P -1
;
_chemical_formula_sum "Si O2"
_cell_formula_units_Z 14
_cell_length_a 8.516837
_cell_length_b 17.889039
_cell_length_c 9.041058
_cell_angle_alpha 30.890578
_cell_angle_beta 115.248005
_cell_angle_gamma 122.831426
_cell_volume 591.837168
_symmetry_space_group_name_H-M "P -1"
_symmetry_group_IT_number 2
_symmetry_cell_setting 'triclinic'
loop_
_space_group_symop_operation_xyz
x,y,z
-x,-y,-z
loop_
_atom_site_type_symbol
_atom_site_label
_atom_site_fract_x
_atom_site_fract_y
_atom_site_fract_z
Si Si1 0.945770 0.647568 0.736295
Si Si2 0.854717 0.338191 0.779844
Si Si3 0.472618 0.144179 0.819204
Si Si4 0.856846 0.789136 0.946806
Si Si5 0.840957 0.008885 0.815551
Si Si6 0.286645 0.466023 0.436876
Si Si7 0.662059 0.669899 0.783785
O O1 0.770810 0.615193 0.607323
O O2 0.859613 0.654585 0.850133
O O3 0.124341 0.806650 0.501157
O O4 0.000000 0.500000 0.000000
O O5 0.675522 0.276979 0.703903
O O6 0.773314 0.381469 0.828568
O O7 0.000000 0.500000 0.500000
O O8 0.945542 0.203894 0.060469
O O9 0.364392 0.208525 0.548468
O O10 0.500000 0.000000 0.000000
O O11 0.358748 0.088793 0.022448
O O12 0.689418 0.741181 0.839760
O O13 0.862453 0.945834 0.766773
O O14 0.830259 0.658737 0.279080
O O15 0.000000 0.000000 0.000000
O O16 0.500000 0.500000 0.500000
O O17 0.500000 0.500000 0.000000
#
# Coordination Sequence:
#
# PCOD8018741 Si02
#       7
#     2   2   2   2   2   2   2
#     4  12  27  46  74 106 145 195 249 306 369 444
#     4  10  22  40  70 109 139 188 246 296 362 438
#     4  12  27  47  76 109 148 195 244 307 375 443
#     4  11  23  43  74 102 145 190 241 304 368 433
#     4  12  24  50  75 103 150 200 245 304 381 442
#     4  11  21  42  71 101 143 192 246 295 367 441
#     4  12  26  46  73 111 149 189 248 305 366 437
#
# _framework density 23.655156000000002
#
# number of rings (size 3 to 8) (size 9 to 14) (size 15 to 20)
#    0.000    0.571    2.857    6.000    4.000    0.571 
#    2.571    0.714    0.000    0.000    0.000    0.000 
#    0.000    0.000    0.000    0.000    0.000    0.000 
#
# Total GULP energy -173519.338750 kJ/mol
# GULP energy per Si atom -12394.238482 kJ/mol
# Density = 2.360132 g / cm^3
# Si number density = 23.655156 Si / 1000 Ang^3
#
#
#
# Elastic Constant Matrix: (Units=GPa)
#
#
# Indices 1 2 3 4 5 6 
#
# 1 119.3105 40.2013 38.5484 -20.4702 8.4230 -6.0078
# 2 40.2013 166.0043 36.9129 -12.7204 1.9249 -9.0385
# 3 38.5484 36.9129 115.8161 -22.1870 4.2797 -7.0295
# 4 -20.4702 -12.7204 -22.1870 34.4367 -5.0158 -0.8148
# 5 8.4230 1.9249 4.2797 -5.0158 32.3845 -11.8298
# 6 -6.0078 -9.0385 -7.0295 -0.8148 -11.8298 43.6860
#
#
#
# Elastic Compliance Matrix: (Units=1/GPa)
#
#
# Indices 1 2 3 4 5 6 
#
# 1 0.010454 -0.001722 -0.002079 0.004019 -0.001575 0.000395
# 2 -0.001722 0.006871 -0.001434 0.000731 0.000772 0.001177
# 3 -0.002079 -0.001434 0.010875 0.005352 0.000533 0.001412
# 4 0.004019 0.000731 0.005352 0.035974 0.005097 0.003616
# 5 -0.001575 0.000772 0.000533 0.005097 0.035521 0.009743
# 6 0.000395 0.001177 0.001412 0.003616 0.009743 0.026121
#
#
# Mechanical properties :
#
#
# Convention : Reuss Voigt Hill
#
# Bulk Modulus (GPa) = 56.39909 70.27290 63.33600
# Shear Modulus (GPa) = 35.16336 41.13268 38.14802
#
# Velocity S-wave (km/s) = 3.85970 4.17447 4.02017
# Velocity P-wave (km/s) = 6.61490 7.28057 6.95570
#
# Compressibility (1/GPa) = 0.01773078
#
# Stress axis : x y z
#
# Youngs Moduli (GPa) = 95.65898 145.54238 91.95813
#
# Poissons Ratio (x) = 0.25057 0.19115
# Poissons Ratio (y) = 0.16469 0.13186
# Poissons Ratio (z) = 0.19884 0.20869
#
# Static dielectric constant tensor:
#      x y z
#    x 4.924000 -0.534390 0.037660 
#    y -0.534390 5.044820 -0.243760 
#    z 0.037660 -0.243760 4.116770 
# 
# 
# High freq. dielectric constant tensor:
#      x y z
#    x 1.945160 -0.012130 0.006870 
#    y -0.012130 1.955090 -0.010510 
#    z 0.006870 -0.010510 1.919390 
# 
# From -- ./inp_files/216368.got.cif
#   From: 2010.06.25/outbox.cif.g09.slc.cpg/sg2_109_cif.got.tgz:216368.got - 2010.06.27 13:26:56.
