data_PCOD8018217
_publ_section_title
;
Structure prediction by ZEFSAII (Michael W. Deem and Ramdas Pophale) SiO2 
 PCOD8018217
Probable space group: P -1
;
_chemical_formula_sum "Si O2"
_cell_formula_units_Z 16
_cell_length_a 13.794670
_cell_length_b 24.183735
_cell_length_c 8.873445
_cell_angle_alpha 136.958273
_cell_angle_beta 37.531244
_cell_angle_gamma 156.920441
_cell_volume 706.922809
_symmetry_space_group_name_H-M "P -1"
_symmetry_group_IT_number 2
_symmetry_cell_setting 'triclinic'
loop_
_space_group_symop_operation_xyz
x,y,z
-x,-y,-z
loop_
_atom_site_type_symbol
_atom_site_label
_atom_site_fract_x
_atom_site_fract_y
_atom_site_fract_z
Si Si1 0.286125 0.367537 0.610259
Si Si2 0.871347 0.074473 0.381291
Si Si3 0.678270 0.542784 0.729790
Si Si4 0.045120 0.547207 0.367245
Si Si5 0.427462 0.192166 0.645854
Si Si6 0.555901 0.994145 0.091916
Si Si7 0.196151 0.712169 0.890648
Si Si8 0.936863 0.816296 0.957566
O O1 0.500000 0.500000 0.500000
O O2 0.478253 0.415134 0.603181
O O3 0.129960 0.227245 0.445919
O O4 0.068683 0.339079 0.898268
O O5 0.585403 0.003339 0.613680
O O6 0.908328 0.078404 0.165184
O O7 0.827078 0.968147 0.300352
O O8 0.906527 0.574590 0.561892
O O9 0.827172 0.685277 0.765980
O O10 0.500000 0.500000 0.000000
O O11 0.914442 0.420462 0.173292
O O12 0.000000 0.500000 0.500000
O O13 0.377838 0.696106 0.231612
O O14 0.636098 0.228163 0.354115
O O15 0.304800 0.220979 0.770507
O O16 0.415995 0.847327 0.999164
O O17 0.876115 0.119866 0.996255
O O18 0.500000 0.000000 0.000000
#
# Coordination Sequence:
#
# PCOD8018217 Si02
#       8
#     2   2   2   2   2   2   2   2
#     4  11  24  45  71 100 139 179 224 282 338 402
#     4  11  24  45  70  96 143 178 222 284 340 400
#     4  12  24  40  71  99 131 182 231 272 332 408
#     4  10  22  40  63  97 136 168 218 283 329 386
#     4  11  22  43  69 102 137 177 225 283 335 402
#     4  11  24  43  68  98 134 178 225 285 334 400
#     4  10  22  43  67  96 138 176 219 286 337 392
#     4  12  26  42  70 101 135 182 229 273 343 411
#
# _framework density 22.633306999999999
#
# number of rings (size 3 to 8) (size 9 to 14) (size 15 to 20)
#    0.000    1.000    2.500    5.250    5.250    1.500 
#    0.000    0.625    0.000    0.000    0.000    0.000 
#    0.000    0.000    0.000    0.000    0.000    0.000 
#
# Total GULP energy -198270.436343 kJ/mol
# GULP energy per Si atom -12391.902271 kJ/mol
# Density = 2.258179 g / cm^3
# Si number density = 22.633307 Si / 1000 Ang^3
#
#
#
# Elastic Constant Matrix: (Units=GPa)
#
#
# Indices 1 2 3 4 5 6 
#
# 1 118.4334 48.6599 42.2653 -2.5385 -19.3265 19.3421
# 2 48.6599 152.7147 27.0166 12.8225 -18.2026 5.7272
# 3 42.2653 27.0166 85.1852 -2.3481 -16.8812 2.3531
# 4 -2.5385 12.8225 -2.3481 37.8287 -5.7004 -5.8809
# 5 -19.3265 -18.2026 -16.8812 -5.7004 37.7960 -2.6981
# 6 19.3421 5.7272 2.3531 -5.8809 -2.6981 37.0804
#
#
#
# Elastic Compliance Matrix: (Units=1/GPa)
#
#
# Indices 1 2 3 4 5 6 
#
# 1 0.012607 -0.002742 -0.004646 0.001059 0.002819 -0.005484
# 2 -0.002742 0.008011 -0.000931 -0.002722 0.001625 -0.000061
# 3 -0.004646 -0.000931 0.015209 0.001962 0.004424 0.002235
# 4 0.001059 -0.002722 0.001962 0.029006 0.004817 0.004694
# 5 0.002819 0.001625 0.004424 0.004817 0.031459 0.001051
# 6 -0.005484 -0.000061 0.002235 0.004694 0.001051 0.030518
#
#
# Mechanical properties :
#
#
# Convention : Reuss Voigt Hill
#
# Bulk Modulus (GPa) = 52.11761 65.80185 58.95973
# Shear Modulus (GPa) = 33.36783 38.43378 35.90080
#
# Velocity S-wave (km/s) = 3.84380 4.12528 3.98703
# Velocity P-wave (km/s) = 6.54039 7.19908 6.87762
#
# Compressibility (1/GPa) = 0.01918737
#
# Stress axis : x y z
#
# Youngs Moduli (GPa) = 79.32346 124.82425 65.75180
#
# Poissons Ratio (x) = 0.34230 0.30547
# Poissons Ratio (y) = 0.21753 0.06125
# Poissons Ratio (z) = 0.36853 0.11627
#
# Static dielectric constant tensor:
#      x y z
#    x 3.703440 -0.087420 -0.120200 
#    y -0.087420 4.782460 0.174180 
#    z -0.120200 0.174180 4.071440 
# 
# 
# High freq. dielectric constant tensor:
#      x y z
#    x 1.860290 0.004970 -0.013980 
#    y 0.004970 1.922020 0.005240 
#    z -0.013980 0.005240 1.890000 
# 
# From -- ./inp_files/283204.got.cif
#   From: 2010.06.25/outbox.cif.g09.slc.cpg/sg2_142_cif.got.tgz:283204.got - 2010.06.27 13:26:56.
