data_PCOD8018850
_publ_section_title
;
Structure prediction by ZEFSAII (Michael W. Deem and Ramdas Pophale) SiO2 
 PCOD8018850
Probable space group: P -1
;
_chemical_formula_sum "Si O2"
_cell_formula_units_Z 16
_cell_length_a 20.562293
_cell_length_b 20.994378
_cell_length_c 8.851824
_cell_angle_alpha 38.665483
_cell_angle_beta 39.671033
_cell_angle_gamma 19.744566
_cell_volume 795.485172
_symmetry_space_group_name_H-M "P -1"
_symmetry_group_IT_number 2
_symmetry_cell_setting 'triclinic'
loop_
_space_group_symop_operation_xyz
x,y,z
-x,-y,-z
loop_
_atom_site_type_symbol
_atom_site_label
_atom_site_fract_x
_atom_site_fract_y
_atom_site_fract_z
Si Si1 0.083652 0.540035 0.142632
Si Si2 0.858572 0.345206 0.423416
Si Si3 0.890121 0.988079 0.194320
Si Si4 0.921938 0.177873 0.334752
Si Si5 0.763523 0.014989 0.067113
Si Si6 0.274252 0.177463 0.542358
Si Si7 0.346747 0.457243 0.024551
Si Si8 0.467968 0.406535 0.230256
O O1 0.190844 0.340681 0.287021
O O2 0.195083 0.500678 0.156437
O O3 0.857986 0.713287 0.270717
O O4 0.095732 0.591722 0.868639
O O5 0.870830 0.237034 0.491512
O O6 0.644183 0.533500 0.530374
O O7 0.008423 0.194979 0.568662
O O8 0.886387 0.970627 0.055045
O O9 0.674047 0.175632 0.299734
O O10 0.000000 0.000000 0.000000
O O11 0.726449 0.372037 0.229316
O O12 0.000000 0.000000 0.500000
O O13 0.101803 0.099283 0.112280
O O14 0.560112 0.246288 0.970269
O O15 0.734747 0.923119 0.341838
O O16 0.500000 0.000000 0.500000
O O17 0.350936 0.466353 0.181050
O O18 0.500000 0.500000 0.000000
#
# Coordination Sequence:
#
# PCOD8018850 Si02
#       8
#     2   2   2   2   2   2   2   2
#     4  10  23  41  64  96 120 161 209 269 319 363
#     4  11  23  40  60  93 128 163 208 259 314 367
#     4  11  23  40  64  88 130 174 210 244 311 378
#     4  11  24  38  60  91 129 162 206 262 316 364
#     4  11  22  41  65  93 119 170 212 258 310 378
#     4  11  21  40  70  93 122 160 212 263 326 369
#     4  10  22  41  60  90 124 161 215 250 310 375
#     4  11  24  38  63  88 125 172 210 248 303 379
#
# _framework density 20.113512
#
# number of rings (size 3 to 8) (size 9 to 14) (size 15 to 20)
#    0.000    1.250    5.000    1.500    3.500    3.500 
#    0.000    0.625    0.000    2.250    0.000    0.000 
#    0.000    0.000    0.000    0.000    0.000    0.000 
#
# Total GULP energy -198332.905276 kJ/mol
# GULP energy per Si atom -12395.806580 kJ/mol
# Density = 2.006773 g / cm^3
# Si number density = 20.113512 Si / 1000 Ang^3
#
#
#
# Elastic Constant Matrix: (Units=GPa)
#
#
# Indices 1 2 3 4 5 6 
#
# 1 72.7817 36.3571 22.1616 5.9680 -7.9934 -4.6118
# 2 36.3571 147.0315 51.9547 -2.9197 9.5078 -9.5225
# 3 22.1616 51.9547 112.7731 -8.7426 -2.6878 -6.7283
# 4 5.9680 -2.9197 -8.7426 46.5988 12.6934 -1.6860
# 5 -7.9934 9.5078 -2.6878 12.6934 27.3570 0.2211
# 6 -4.6118 -9.5225 -6.7283 -1.6860 0.2211 30.5881
#
#
#
# Elastic Compliance Matrix: (Units=1/GPa)
#
#
# Indices 1 2 3 4 5 6 
#
# 1 0.017978 -0.004539 -0.001604 -0.005361 0.009156 0.000583
# 2 -0.004539 0.009691 -0.003438 0.002268 -0.006099 0.001745
# 3 -0.001604 -0.003438 0.011003 0.001841 0.000943 0.001203
# 4 -0.005361 0.002268 0.001841 0.026669 -0.014563 0.001878
# 5 0.009156 -0.006099 0.000943 -0.014563 0.048210 -0.001462
# 6 0.000583 0.001745 0.001203 0.001878 -0.001462 0.033702
#
#
# Mechanical properties :
#
#
# Convention : Reuss Voigt Hill
#
# Bulk Modulus (GPa) = 51.25801 61.50366 56.38084
# Shear Modulus (GPa) = 28.91521 35.71631 32.31576
#
# Velocity S-wave (km/s) = 3.79568 4.21852 4.01268
# Velocity P-wave (km/s) = 6.68949 7.37377 7.03995
#
# Compressibility (1/GPa) = 0.01950915
#
# Stress axis : x y z
#
# Youngs Moduli (GPa) = 55.62421 103.18843 90.88027
#
# Poissons Ratio (x) = 0.46840 0.14579
# Poissons Ratio (y) = 0.25250 0.31245
# Poissons Ratio (z) = 0.08923 0.35476
#
# Static dielectric constant tensor:
#      x y z
#    x 3.610290 0.070710 -0.075880 
#    y 0.070710 4.163620 -0.162790 
#    z -0.075880 -0.162790 3.858290 
# 
# 
# High freq. dielectric constant tensor:
#      x y z
#    x 1.762680 0.004750 -0.005900 
#    y 0.004750 1.818210 -0.005800 
#    z -0.005900 -0.005800 1.773810 
# 
# From -- ./inp_files/349693.got.cif
#   From: 2010.06.25/outbox.cif.g09.slc.cpg/sg2_175_cif.got.tgz:349693.got - 2010.06.27 13:26:56.
