data_PCOD8018326
_publ_section_title
;
Structure prediction by ZEFSAII (Michael W. Deem and Ramdas Pophale) SiO2 
 PCOD8018326
Probable space group: P -1
;
_chemical_formula_sum "Si O2"
_cell_formula_units_Z 16
_cell_length_a 14.184629
_cell_length_b 9.900890
_cell_length_c 8.774409
_cell_angle_alpha 47.241467
_cell_angle_beta 78.167790
_cell_angle_gamma 103.994462
_cell_volume 750.810127
_symmetry_space_group_name_H-M "P -1"
_symmetry_group_IT_number 2
_symmetry_cell_setting 'triclinic'
loop_
_space_group_symop_operation_xyz
x,y,z
-x,-y,-z
loop_
_atom_site_type_symbol
_atom_site_label
_atom_site_fract_x
_atom_site_fract_y
_atom_site_fract_z
Si Si1 0.512552 0.798724 0.671416
Si Si2 0.994671 0.989805 0.256990
Si Si3 0.251145 0.027552 0.482472
Si Si4 0.409665 0.369373 0.500603
Si Si5 0.162690 0.038383 0.926266
Si Si6 0.166898 0.697317 0.024514
Si Si7 0.014470 0.731119 0.703338
Si Si8 0.310210 0.484073 0.187048
O O1 0.538797 0.731257 0.552390
O O2 0.500000 0.000000 0.500000
O O3 0.620164 0.873642 0.694092
O O4 0.400643 0.597167 0.934357
O O5 0.893817 0.895662 0.239311
O O6 0.962062 0.799492 0.533120
O O7 0.006682 0.197362 0.179828
O O8 0.115172 0.063734 0.082723
O O9 0.245765 0.909967 0.733701
O O10 0.151564 0.851864 0.539154
O O11 0.231997 0.226098 0.370278
O O12 0.500000 0.500000 0.500000
O O13 0.298047 0.190251 0.764756
O O14 0.376909 0.517169 0.298439
O O15 0.127790 0.786378 0.110591
O O16 0.235245 0.590814 0.143733
O O17 0.056366 0.530520 0.085210
#
# Coordination Sequence:
#
# PCOD8018326 Si02
#       8
#     2   2   2   2   2   2   2   2
#     4  11  21  43  68  95 122 168 218 258 315 383
#     4  10  22  40  65  87 133 165 213 249 323 378
#     4  11  21  39  63  96 131 158 209 266 312 370
#     4  11  23  41  63  93 130 164 210 266 319 369
#     4  11  22  42  60  92 129 172 202 259 320 384
#     4  12  22  39  70  91 130 163 218 255 316 378
#     4  11  22  39  63 100 121 168 212 268 303 370
#     4  11  22  41  71  90 126 178 207 258 323 378
#
# _framework density 21.310313000000001
#
# number of rings (size 3 to 8) (size 9 to 14) (size 15 to 20)
#    0.000    1.000    5.000    4.125    0.000    3.500 
#    0.000    3.750    0.000    0.000    0.000    0.000 
#    0.000    0.000    0.000    0.000    0.000    0.000 
#
# Total GULP energy -198323.488940 kJ/mol
# GULP energy per Si atom -12395.218059 kJ/mol
# Density = 2.126181 g / cm^3
# Si number density = 21.310313 Si / 1000 Ang^3
#
#
#
# Elastic Constant Matrix: (Units=GPa)
#
#
# Indices 1 2 3 4 5 6 
#
# 1 110.8310 45.9968 14.8852 -12.8172 -1.2436 3.7177
# 2 45.9968 93.2070 37.8343 -8.9498 -16.5779 7.5267
# 3 14.8852 37.8343 76.2569 -16.2398 -1.4240 1.3013
# 4 -12.8172 -8.9498 -16.2398 30.3425 -1.6203 -3.1135
# 5 -1.2436 -16.5779 -1.4240 -1.6203 41.9873 -7.0797
# 6 3.7177 7.5267 1.3013 -3.1135 -7.0797 34.8492
#
#
#
# Elastic Compliance Matrix: (Units=1/GPa)
#
#
# Indices 1 2 3 4 5 6 
#
# 1 0.011956 -0.006590 0.001734 0.003928 -0.002034 0.000021
# 2 -0.006590 0.018371 -0.007994 -0.001484 0.006428 -0.001793
# 3 0.001734 -0.007994 0.018444 0.008264 -0.001959 0.001193
# 4 0.003928 -0.001484 0.008264 0.039059 0.001903 0.003469
# 5 -0.002034 0.006428 -0.001959 0.001903 0.027072 0.004572
# 6 0.000021 -0.001793 0.001193 0.003469 0.004572 0.030274
#
#
# Mechanical properties :
#
#
# Convention : Reuss Voigt Hill
#
# Bulk Modulus (GPa) = 43.34382 53.08081 48.21232
# Shear Modulus (GPa) = 28.00068 33.54105 30.77087
#
# Velocity S-wave (km/s) = 3.62878 3.97159 3.80405
# Velocity P-wave (km/s) = 6.15962 6.78188 6.47823
#
# Compressibility (1/GPa) = 0.02307134
#
# Stress axis : x y z
#
# Youngs Moduli (GPa) = 83.64262 54.43252 54.21771
#
# Poissons Ratio (x) = 0.35872 -0.09402
# Poissons Ratio (y) = 0.55122 0.43341
# Poissons Ratio (z) = -0.14505 0.43513
#
# Static dielectric constant tensor:
#      x y z
#    x 4.145050 -0.064880 -0.061350 
#    y -0.064880 3.746780 -0.079820 
#    z -0.061350 -0.079820 3.993690 
# 
# 
# High freq. dielectric constant tensor:
#      x y z
#    x 1.859000 -0.000050 -0.002610 
#    y -0.000050 1.804300 -0.013030 
#    z -0.002610 -0.013030 1.840310 
# 
# From -- ./inp_files/297453.got.cif
#   From: 2010.06.25/outbox.cif.g09.slc.cpg/sg2_149_cif.got.tgz:297453.got - 2010.06.27 13:26:56.
