data_PCOD8018972
_publ_section_title
;
Structure prediction by ZEFSAII (Michael W. Deem and Ramdas Pophale) SiO2 
 PCOD8018972
Probable space group: P -1
;
_chemical_formula_sum "Si O2"
_cell_formula_units_Z 12
_cell_length_a 14.311707
_cell_length_b 11.010281
_cell_length_c 6.474817
_cell_angle_alpha 109.672708
_cell_angle_beta 54.883004
_cell_angle_gamma 139.048884
_cell_volume 537.803354
_symmetry_space_group_name_H-M "P -1"
_symmetry_group_IT_number 2
_symmetry_cell_setting 'triclinic'
loop_
_space_group_symop_operation_xyz
x,y,z
-x,-y,-z
loop_
_atom_site_type_symbol
_atom_site_label
_atom_site_fract_x
_atom_site_fract_y
_atom_site_fract_z
Si Si1 0.283141 0.500099 0.444602
Si Si2 0.588760 0.687860 0.384168
Si Si3 0.893769 0.787877 0.153755
Si Si4 0.419567 0.862569 0.329272
Si Si5 0.005341 0.133088 0.356267
Si Si6 0.329408 0.017757 0.255801
O O1 0.481317 0.628448 0.279829
O O2 0.196029 0.404998 0.726335
O O3 0.278306 0.644858 0.463180
O O4 0.187869 0.328137 0.309985
O O5 0.500000 0.500000 0.500000
O O6 0.775343 0.789626 0.171120
O O7 0.581813 0.806440 0.608035
O O8 0.012815 0.837157 0.847003
O O9 0.981939 0.956554 0.307259
O O10 0.322125 0.877162 0.307681
O O11 0.500000 0.000000 0.500000
O O12 0.566941 0.911298 0.046118
O O13 0.856850 0.089078 0.633728
#
# Coordination Sequence:
#
# PCOD8018972 Si02
#       6
#     2   2   2   2   2   2
#     4  11  22  37  65  94 119 162 220 245 304 369
#     4   9  19  38  62  93 123 158 200 258 300 370
#     4   9  21  41  61  91 136 158 201 252 319 369
#     4  11  24  42  67  88 122 170 215 258 297 370
#     4  10  22  41  63  92 127 168 193 265 313 368
#     4  10  23  44  62  89 130 161 208 257 317 355
#
# _framework density 22.312988000000001
#
# number of rings (size 3 to 8) (size 9 to 14) (size 15 to 20)
#    0.000    2.000    1.667    0.500    4.667    2.667 
#    9.000    1.667    0.000    0.000    0.000    0.000 
#    0.000    0.000    0.000    0.000    0.000    0.000 
#
# Total GULP energy -148684.167655 kJ/mol
# GULP energy per Si atom -12390.347305 kJ/mol
# Density = 2.226220 g / cm^3
# Si number density = 22.312988 Si / 1000 Ang^3
#
#
#
# Elastic Constant Matrix: (Units=GPa)
#
#
# Indices 1 2 3 4 5 6 
#
# 1 68.3448 44.2057 18.7646 3.4537 -0.2984 -6.4653
# 2 44.2057 155.1430 30.2098 4.9949 8.7235 -8.7975
# 3 18.7646 30.2098 92.3606 -0.0896 -8.8017 -7.2069
# 4 3.4537 4.9949 -0.0896 29.7909 -6.2484 19.1979
# 5 -0.2984 8.7235 -8.8017 -6.2484 23.7858 -3.6086
# 6 -6.4653 -8.7975 -7.2069 19.1979 -3.6086 51.8075
#
#
#
# Elastic Compliance Matrix: (Units=1/GPa)
#
#
# Indices 1 2 3 4 5 6 
#
# 1 0.018599 -0.004753 -0.001962 -0.002649 0.000901 0.002285
# 2 -0.004753 0.008640 -0.002200 -0.002655 -0.004553 0.001234
# 3 -0.001962 -0.002200 0.012598 0.001155 0.005917 0.001118
# 4 -0.002649 -0.002655 0.001155 0.048067 0.011318 -0.017644
# 5 0.000901 -0.004553 0.005917 0.011318 0.048790 -0.000633
# 6 0.002285 0.001234 0.001118 -0.017644 -0.000633 0.026447
#
#
# Mechanical properties :
#
#
# Convention : Reuss Voigt Hill
#
# Bulk Modulus (GPa) = 45.44484 55.80096 50.62290
# Shear Modulus (GPa) = 26.55241 35.92136 31.23689
#
# Velocity S-wave (km/s) = 3.45338 4.01669 3.74564
# Velocity P-wave (km/s) = 6.02597 6.82454 6.43765
#
# Compressibility (1/GPa) = 0.02200470
#
# Stress axis : x y z
#
# Youngs Moduli (GPa) = 53.76695 115.74147 79.37898
#
# Poissons Ratio (x) = 0.55014 0.15577
# Poissons Ratio (y) = 0.25556 0.17467
# Poissons Ratio (z) = 0.10551 0.25468
#
# Static dielectric constant tensor:
#      x y z
#    x 5.373870 0.615750 -0.401230 
#    y 0.615750 4.411770 -0.235040 
#    z -0.401230 -0.235040 4.006650 
# 
# 
# High freq. dielectric constant tensor:
#      x y z
#    x 1.866980 -0.000660 0.017060 
#    y -0.000660 1.891960 -0.007500 
#    z 0.017060 -0.007500 1.867210 
# 
# From -- ./inp_files/93853.got.cif
#   From: 2010.06.25/outbox.cif.g09.slc.cpg/sg2_47_cif.got.tgz:93853.got - 2010.06.27 13:26:56.
