data_PCOD8018630
_publ_section_title
;
Structure prediction by ZEFSAII (Michael W. Deem and Ramdas Pophale) SiO2 
 PCOD8018630
Probable space group: P -1
;
_chemical_formula_sum "Si O2"
_cell_formula_units_Z 16
_cell_length_a 6.569601
_cell_length_b 18.453921
_cell_length_c 19.802215
_cell_angle_alpha 152.558399
_cell_angle_beta 137.052424
_cell_angle_gamma 46.072228
_cell_volume 746.309708
_symmetry_space_group_name_H-M "P -1"
_symmetry_group_IT_number 2
_symmetry_cell_setting 'triclinic'
loop_
_space_group_symop_operation_xyz
x,y,z
-x,-y,-z
loop_
_atom_site_type_symbol
_atom_site_label
_atom_site_fract_x
_atom_site_fract_y
_atom_site_fract_z
Si Si1 0.778214 0.642279 0.379053
Si Si2 0.879399 0.680864 0.803628
Si Si3 0.139048 0.830377 0.870266
Si Si4 0.097835 0.679369 0.099161
Si Si5 0.802329 0.882140 0.075701
Si Si6 0.669207 0.824696 0.379225
Si Si7 0.935970 0.336900 0.769844
Si Si8 0.198804 0.772946 0.689189
O O1 0.839781 0.773303 0.447520
O O2 0.424279 0.648444 0.315222
O O3 0.933044 0.475793 0.248353
O O4 0.969215 0.670081 0.514419
O O5 0.525609 0.671327 0.698028
O O6 0.020274 0.699878 0.780105
O O7 0.944639 0.817867 0.985348
O O8 0.039389 0.815585 0.756939
O O9 0.495385 0.809847 0.947547
O O10 0.000000 0.000000 0.000000
O O11 0.449902 0.692995 0.202588
O O12 0.958191 0.709215 0.165654
O O13 0.983346 0.819826 0.135012
O O14 0.040296 0.506531 0.916084
O O15 0.760522 0.072455 0.218124
O O16 0.904346 0.805933 0.357957
O O17 0.500000 0.000000 0.500000
#
# Coordination Sequence:
#
# PCOD8018630 Si02
#       8
#     2   2   2   2   2   2   2   2
#     4  11  25  41  62  95 124 170 207 255 320 371
#     4  11  22  40  64  88 130 164 212 260 303 375
#     4  11  20  39  61  90 123 163 210 259 303 360
#     4  10  22  40  68  96 121 169 212 254 319 370
#     4  11  21  38  64  94 122 165 210 260 309 369
#     4  11  24  45  66  93 131 163 204 267 320 376
#     4  10  23  45  64  93 129 160 215 263 308 383
#     4  11  23  40  60  92 129 166 210 257 311 370
#
# _framework density 21.438821999999998
#
# number of rings (size 3 to 8) (size 9 to 14) (size 15 to 20)
#    0.000    1.250    2.500    3.750    0.000    7.500 
#    4.500    0.000    0.000    0.000    0.000    0.000 
#    0.000    0.000    0.000    0.000    0.000    0.000 
#
# Total GULP energy -198318.309186 kJ/mol
# GULP energy per Si atom -12394.894324 kJ/mol
# Density = 2.139003 g / cm^3
# Si number density = 21.438822 Si / 1000 Ang^3
#
#
#
# Elastic Constant Matrix: (Units=GPa)
#
#
# Indices 1 2 3 4 5 6 
#
# 1 111.2577 42.8947 37.8650 2.2418 -17.6786 -1.3012
# 2 42.8947 114.8710 22.8219 9.9363 -12.6299 2.2942
# 3 37.8650 22.8219 76.4578 -1.0888 -4.1412 -16.9686
# 4 2.2418 9.9363 -1.0888 36.1388 -3.8283 -2.2936
# 5 -17.6786 -12.6299 -4.1412 -3.8283 31.3500 4.0121
# 6 -1.3012 2.2942 -16.9686 -2.2936 4.0121 31.9560
#
#
#
# Elastic Compliance Matrix: (Units=1/GPa)
#
#
# Indices 1 2 3 4 5 6 
#
# 1 0.013050 -0.003017 -0.005936 0.000257 0.005789 -0.003112
# 2 -0.003017 0.010823 -0.002219 -0.002769 0.002357 -0.002573
# 3 -0.005936 -0.002219 0.018869 0.001907 -0.002851 0.010432
# 4 0.000257 -0.002769 0.001907 0.028921 0.002430 0.002993
# 5 0.005789 0.002357 -0.002851 0.002430 0.036786 -0.005891
# 6 -0.003112 -0.002573 0.010432 0.002993 -0.005891 0.037845
#
#
# Mechanical properties :
#
#
# Convention : Reuss Voigt Hill
#
# Bulk Modulus (GPa) = 49.02496 56.63886 52.83191
# Shear Modulus (GPa) = 28.50022 33.15596 30.82809
#
# Velocity S-wave (km/s) = 3.65001 3.93687 3.79615
# Velocity P-wave (km/s) = 6.37813 6.86596 6.62654
#
# Compressibility (1/GPa) = 0.02039777
#
# Stress axis : x y z
#
# Youngs Moduli (GPa) = 76.62922 92.39545 52.99702
#
# Poissons Ratio (x) = 0.27879 0.31457
# Poissons Ratio (y) = 0.23122 0.11760
# Poissons Ratio (z) = 0.45485 0.20503
#
# Static dielectric constant tensor:
#      x y z
#    x 3.747040 0.203350 -0.130770 
#    y 0.203350 4.083270 0.009050 
#    z -0.130770 0.009050 3.887440 
# 
# 
# High freq. dielectric constant tensor:
#      x y z
#    x 1.842720 0.007440 -0.007370 
#    y 0.007440 1.848100 -0.004710 
#    z -0.007370 -0.004710 1.835510 
# 
# From -- ./inp_files/37908.got.cif
#   From: 2010.06.25/outbox.cif.g09.slc.cpg/sg2_19_cif.got.tgz:37908.got - 2010.06.27 13:26:56.
