data_PCOD8018339
_publ_section_title
;
Structure prediction by ZEFSAII (Michael W. Deem and Ramdas Pophale) SiO2 
 PCOD8018339
Probable space group: P -1
;
_chemical_formula_sum "Si O2"
_cell_formula_units_Z 16
_cell_length_a 15.162785
_cell_length_b 11.792566
_cell_length_c 14.698067
_cell_angle_alpha 114.876107
_cell_angle_beta 28.181330
_cell_angle_gamma 132.823173
_cell_volume 780.156479
_symmetry_space_group_name_H-M "P -1"
_symmetry_group_IT_number 2
_symmetry_cell_setting 'triclinic'
loop_
_space_group_symop_operation_xyz
x,y,z
-x,-y,-z
loop_
_atom_site_type_symbol
_atom_site_label
_atom_site_fract_x
_atom_site_fract_y
_atom_site_fract_z
Si Si1 0.993188 0.978854 0.256318
Si Si2 0.196579 0.361861 0.757791
Si Si3 0.108180 0.413479 0.373703
Si Si4 0.274917 0.980666 0.359108
Si Si5 0.310777 0.513493 0.899259
Si Si6 0.330356 0.361698 0.995786
Si Si7 0.951240 0.837330 0.429496
Si Si8 0.133469 0.696803 0.123525
O O1 0.916059 0.834612 0.206087
O O2 0.102952 0.968273 0.246478
O O3 0.739983 0.939739 0.509743
O O4 0.205911 0.170870 0.077692
O O5 0.500000 0.500000 0.500000
O O6 0.179523 0.412225 0.889344
O O7 0.043308 0.377244 0.831962
O O8 0.240431 0.433709 0.165231
O O9 0.000000 0.500000 0.500000
O O10 0.844737 0.210241 0.571459
O O11 0.347437 0.503016 0.258249
O O12 0.088159 0.952851 0.438384
O O13 0.574966 0.105155 0.096668
O O14 0.628285 0.703109 0.671530
O O15 0.244227 0.364507 0.974815
O O16 0.154365 0.562850 0.090084
O O17 0.006978 0.714446 0.328236
#
# Coordination Sequence:
#
# PCOD8018339 Si02
#       8
#     2   2   2   2   2   2   2   2
#     4  10  22  40  65  90 130 168 208 256 313 381
#     4  11  22  44  67  91 124 170 216 269 318 360
#     4  10  23  39  63  88 141 170 201 253 316 399
#     4  11  21  39  63 101 126 162 214 260 323 375
#     4  12  23  42  67  94 130 167 218 260 311 383
#     4  10  24  41  61  96 128 175 202 252 330 364
#     4  11  22  39  64  99 126 164 204 271 316 374
#     4  11  24  37  66  99 123 164 214 267 320 373
#
# _framework density 20.508707000000001
#
# number of rings (size 3 to 8) (size 9 to 14) (size 15 to 20)
#    0.000    1.250    5.000    1.125    5.250    0.500 
#    0.000    0.000    0.000    2.250    0.000    0.000 
#    0.000    0.000    0.000    0.000    0.000    0.000 
#
# Total GULP energy -198321.733142 kJ/mol
# GULP energy per Si atom -12395.108321 kJ/mol
# Density = 2.046203 g / cm^3
# Si number density = 20.508707 Si / 1000 Ang^3
#
#
#
# Elastic Constant Matrix: (Units=GPa)
#
#
# Indices 1 2 3 4 5 6 
#
# 1 93.3066 20.9180 23.8906 -6.9745 -9.4294 -7.3997
# 2 20.9180 94.3821 25.3070 -0.4151 -8.0124 -15.3767
# 3 23.8906 25.3070 60.6560 8.7185 -16.0891 -5.1579
# 4 -6.9745 -0.4151 8.7185 23.1080 -7.3670 -5.4458
# 5 -9.4294 -8.0124 -16.0891 -7.3670 30.3250 -1.8451
# 6 -7.3997 -15.3767 -5.1579 -5.4458 -1.8451 38.2594
#
#
#
# Elastic Compliance Matrix: (Units=1/GPa)
#
#
# Indices 1 2 3 4 5 6 
#
# 1 0.013270 -0.000876 -0.004821 0.007531 0.003337 0.002797
# 2 -0.000876 0.013036 -0.004681 0.003509 0.001847 0.005027
# 3 -0.004821 -0.004681 0.023517 -0.008034 0.007765 -0.000412
# 4 0.007531 0.003509 -0.008034 0.055223 0.013047 0.010274
# 5 0.003337 0.001847 0.007765 0.013047 0.042176 0.006326
# 6 0.002797 0.005027 -0.000412 0.010274 0.006326 0.030411
#
#
# Mechanical properties :
#
#
# Convention : Reuss Voigt Hill
#
# Bulk Modulus (GPa) = 34.40218 43.17509 38.78864
# Shear Modulus (GPa) = 24.02952 30.22041 27.12497
#
# Velocity S-wave (km/s) = 3.42669 3.84284 3.64071
# Velocity P-wave (km/s) = 5.69799 6.38652 6.05205
#
# Compressibility (1/GPa) = 0.02906793
#
# Stress axis : x y z
#
# Youngs Moduli (GPa) = 75.35715 76.71219 42.52185
#
# Poissons Ratio (x) = 0.06723 0.20498
# Poissons Ratio (y) = 0.06604 0.19903
# Poissons Ratio (z) = 0.36327 0.35907
#
# Static dielectric constant tensor:
#      x y z
#    x 8.095910 2.018340 -0.679250 
#    y 2.018340 4.683020 -0.263810 
#    z -0.679250 -0.263810 3.636110 
# 
# 
# High freq. dielectric constant tensor:
#      x y z
#    x 1.791740 -0.011340 -0.001850 
#    y -0.011340 1.815490 0.015330 
#    z -0.001850 0.015330 1.795650 
# 
# From -- ./inp_files/455738.got.cif
#   From: 2010.06.25/outbox.cif.g09.slc.cpg/sg2_228_cif.got.tgz:455738.got - 2010.06.27 13:26:56.
