data_PCOD8018009
_publ_section_title
;
Structure prediction by ZEFSAII (Michael W. Deem and Ramdas Pophale) SiO2 
 PCOD8018009
Probable space group: P -1
;
_chemical_formula_sum "Si O2"
_cell_formula_units_Z 10
_cell_length_a 13.392170
_cell_length_b 9.212770
_cell_length_c 19.094259
_cell_angle_alpha 27.573794
_cell_angle_beta 151.980233
_cell_angle_gamma 141.906135
_cell_volume 512.178002
_symmetry_space_group_name_H-M "P -1"
_symmetry_group_IT_number 2
_symmetry_cell_setting 'triclinic'
loop_
_space_group_symop_operation_xyz
x,y,z
-x,-y,-z
loop_
_atom_site_type_symbol
_atom_site_label
_atom_site_fract_x
_atom_site_fract_y
_atom_site_fract_z
Si Si1 0.507173 0.569798 0.627206
Si Si2 0.144529 0.677626 0.150457
Si Si3 0.192612 0.198914 0.503531
Si Si4 0.458662 0.226318 0.145839
Si Si5 0.665332 0.743587 0.794487
O O1 0.716621 0.528869 0.727575
O O2 0.332122 0.307162 0.610498
O O3 0.566248 0.530449 0.762237
O O4 0.408072 0.903083 0.409017
O O5 0.114929 0.494255 0.284172
O O6 0.251747 0.016439 0.087212
O O7 0.919290 0.732996 0.951535
O O8 0.334932 0.988440 0.630811
O O9 0.000000 0.000000 0.500000
O O10 0.421331 0.387800 0.128952
O O11 0.500000 0.500000 0.000000
#
# Coordination Sequence:
#
# PCOD8018009 Si02
#       5
#     2   2   2   2   2
#     4  10  22  40  59  93 122 154 197 250 300 349
#     4  11  21  41  62  88 121 160 202 238 301 356
#     4  11  22  40  62  88 123 160 201 245 292 357
#     4  11  22  38  62  93 119 157 207 243 288 363
#     4  11  21  38  65  89 121 156 197 250 301 347
#
# _framework density 19.524460999999999
#
# number of rings (size 3 to 8) (size 9 to 14) (size 15 to 20)
#    0.000    1.200    4.000    3.600    2.800    0.000 
#    0.000   12.000    0.000    0.000    0.000    0.000 
#    0.000    0.000    0.000    0.000    0.000    0.000 
#
# Total GULP energy -124022.475947 kJ/mol
# GULP energy per Si atom -12402.247595 kJ/mol
# Density = 1.948002 g / cm^3
# Si number density = 19.524461 Si / 1000 Ang^3
#
#
#
# Elastic Constant Matrix: (Units=GPa)
#
#
# Indices 1 2 3 4 5 6 
#
# 1 135.7749 88.9381 56.8489 19.6771 -10.9712 -4.4215
# 2 88.9381 117.0298 54.8763 12.4958 -9.4269 6.4036
# 3 56.8489 54.8763 104.9188 14.4532 -2.3604 -2.7027
# 4 19.6771 12.4958 14.4532 33.0415 7.0880 -5.9002
# 5 -10.9712 -9.4269 -2.3604 7.0880 36.5739 -3.1149
# 6 -4.4215 6.4036 -2.7027 -5.9002 -3.1149 34.3273
#
#
#
# Elastic Compliance Matrix: (Units=1/GPa)
#
#
# Indices 1 2 3 4 5 6 
#
# 1 0.016578 -0.010851 -0.002491 -0.004759 0.003231 0.003439
# 2 -0.010851 0.019152 -0.004241 -0.000069 0.000976 -0.005227
# 3 -0.002491 -0.004241 0.013466 -0.002530 -0.000390 0.001060
# 4 -0.004759 -0.000069 -0.002530 0.036876 -0.008348 0.004781
# 5 0.003231 0.000976 -0.000390 -0.008348 0.030284 0.001517
# 6 0.003439 -0.005227 0.001060 0.004781 0.001517 0.031592
#
#
# Mechanical properties :
#
#
# Convention : Reuss Voigt Hill
#
# Bulk Modulus (GPa) = 71.26935 84.33890 77.80412
# Shear Modulus (GPa) = 26.62542 31.25922 28.94232
#
# Velocity S-wave (km/s) = 3.69683 4.00563 3.85432
# Velocity P-wave (km/s) = 7.40297 8.04262 7.72941
#
# Compressibility (1/GPa) = 0.01403128
#
# Stress axis : x y z
#
# Youngs Moduli (GPa) = 60.31941 52.21496 74.26197
#
# Poissons Ratio (x) = 0.56658 0.18495
# Poissons Ratio (y) = 0.65452 0.31493
# Poissons Ratio (z) = 0.15023 0.22143
#
# Static dielectric constant tensor:
#      x y z
#    x 3.859970 -0.172200 0.027960 
#    y -0.172200 3.538190 0.033530 
#    z 0.027960 0.033530 3.794700 
# 
# 
# High freq. dielectric constant tensor:
#      x y z
#    x 1.768250 -0.006540 0.012660 
#    y -0.006540 1.745220 0.005460 
#    z 0.012660 0.005460 1.772810 
# 
# From -- ./inp_files/26050.got.cif
#   From: 2010.06.25/outbox.cif.g09.slc.cpg/sg2_14_cif.got.tgz:26050.got - 2010.06.27 13:26:56.
