data_PCOD8018617
_publ_section_title
;
Structure prediction by ZEFSAII (Michael W. Deem and Ramdas Pophale) SiO2 
 PCOD8018617
Probable space group: P -1
;
_chemical_formula_sum "Si O2"
_cell_formula_units_Z 16
_cell_length_a 11.422184
_cell_length_b 8.451670
_cell_length_c 11.117911
_cell_angle_alpha 64.514431
_cell_angle_beta 129.854356
_cell_angle_gamma 116.138300
_cell_volume 722.423307
_symmetry_space_group_name_H-M "P -1"
_symmetry_group_IT_number 2
_symmetry_cell_setting 'triclinic'
loop_
_space_group_symop_operation_xyz
x,y,z
-x,-y,-z
loop_
_atom_site_type_symbol
_atom_site_label
_atom_site_fract_x
_atom_site_fract_y
_atom_site_fract_z
Si Si1 0.044597 0.710505 0.979853
Si Si2 0.251860 0.786619 0.319738
Si Si3 0.144457 0.111345 0.687748
Si Si4 0.829284 0.921376 0.670765
Si Si5 0.460437 0.294452 0.586566
Si Si6 0.063567 0.449864 0.432314
Si Si7 0.523363 0.800686 0.094721
Si Si8 0.796539 0.249316 0.172110
O O1 0.168199 0.791626 0.930016
O O2 0.885252 0.778910 0.840134
O O3 0.119140 0.773777 0.135940
O O4 0.000000 0.500000 0.000000
O O5 0.421417 0.805773 0.368468
O O6 0.206369 0.608461 0.430955
O O7 0.263947 0.962988 0.350295
O O8 0.125174 0.267650 0.532528
O O9 0.302802 0.199305 0.842715
O O10 0.187513 0.943538 0.694504
O O11 0.985470 0.055995 0.676793
O O12 0.716198 0.809611 0.531305
O O13 0.500000 0.500000 0.500000
O O14 0.485390 0.280152 0.749941
O O15 0.000000 0.500000 0.500000
O O16 0.919417 0.418508 0.253709
O O17 0.372462 0.695590 0.950884
O O18 0.500000 0.000000 0.000000
#
# Coordination Sequence:
#
# PCOD8018617 Si02
#       8
#     2   2   2   2   2   2   2   2
#     4  11  21  41  67  95 126 175 233 277 330 402
#     4  12  24  44  65  98 144 176 223 284 349 407
#     4  10  23  41  67  98 127 176 228 272 333 404
#     4  11  26  42  67  98 136 180 221 285 350 407
#     4  12  26  43  70 102 134 177 237 289 340 411
#     4  12  24  41  67  99 138 176 224 277 338 410
#     4  10  23  41  67  99 130 171 230 283 331 398
#     4  10  22  40  68  94 127 174 227 279 330 394
#
# _framework density 22.147677999999999
#
# number of rings (size 3 to 8) (size 9 to 14) (size 15 to 20)
#    0.000    1.000    3.750    2.625    8.750    0.000 
#    0.000    0.625    0.000    0.000    0.000    0.000 
#    0.000    0.000    0.000    0.000    0.000    0.000 
#
# Total GULP energy -198266.905878 kJ/mol
# GULP energy per Si atom -12391.681617 kJ/mol
# Density = 2.209727 g / cm^3
# Si number density = 22.147678 Si / 1000 Ang^3
#
#
#
# Elastic Constant Matrix: (Units=GPa)
#
#
# Indices 1 2 3 4 5 6 
#
# 1 89.2108 23.7258 27.2256 3.4942 19.6693 9.0733
# 2 23.7258 91.0039 38.0749 -10.5116 5.3886 2.0397
# 3 27.2256 38.0749 106.2168 -7.7813 13.6828 3.6883
# 4 3.4942 -10.5116 -7.7813 40.2924 7.8485 -2.4347
# 5 19.6693 5.3886 13.6828 7.8485 42.1599 3.4606
# 6 9.0733 2.0397 3.6883 -2.4347 3.4606 27.5149
#
#
#
# Elastic Compliance Matrix: (Units=1/GPa)
#
#
# Indices 1 2 3 4 5 6 
#
# 1 0.014052 -0.002626 -0.002004 -0.001543 -0.004980 -0.003681
# 2 -0.002626 0.013696 -0.004060 0.003021 0.000177 0.000640
# 3 -0.002004 -0.004060 0.011885 0.001940 -0.002755 -0.000113
# 4 -0.001543 0.003021 0.001940 0.027408 -0.005658 0.003162
# 5 -0.004980 0.000177 -0.002755 -0.005658 0.028135 -0.002041
# 6 -0.003681 0.000640 -0.000113 0.003162 -0.002041 0.038062
#
#
# Mechanical properties :
#
#
# Convention : Reuss Voigt Hill
#
# Bulk Modulus (GPa) = 44.93908 51.60936 48.27422
# Shear Modulus (GPa) = 31.63835 35.15380 33.39607
#
# Velocity S-wave (km/s) = 3.78367 3.98835 3.88736
# Velocity P-wave (km/s) = 6.27877 6.67549 6.48017
#
# Compressibility (1/GPa) = 0.02225235
#
# Stress axis : x y z
#
# Youngs Moduli (GPa) = 71.16266 73.01431 84.14112
#
# Poissons Ratio (x) = 0.19173 0.16864
# Poissons Ratio (y) = 0.18686 0.34163
# Poissons Ratio (z) = 0.14263 0.29645
#
# Static dielectric constant tensor:
#      x y z
#    x 4.187810 0.541370 0.419160 
#    y 0.541370 4.333270 0.129680 
#    z 0.419160 0.129680 5.035380 
# 
# 
# High freq. dielectric constant tensor:
#      x y z
#    x 1.858920 0.025240 0.018750 
#    y 0.025240 1.865420 -0.011570 
#    z 0.018750 -0.011570 1.887850 
# 
# From -- ./inp_files/416713.got.cif
#   From: 2010.06.25/outbox.cif.g09.slc.cpg/sg2_209_cif.got.tgz:416713.got - 2010.06.27 13:26:56.
