data_PCOD8018476
_publ_section_title
;
Structure prediction by ZEFSAII (Michael W. Deem and Ramdas Pophale) SiO2 
 PCOD8018476
Probable space group: P -1
;
_chemical_formula_sum "Si O2"
_cell_formula_units_Z 10
_cell_length_a 8.800832
_cell_length_b 8.613395
_cell_length_c 11.430662
_cell_angle_alpha 67.541542
_cell_angle_beta 54.013249
_cell_angle_gamma 32.843677
_cell_volume 367.743538
_symmetry_space_group_name_H-M "P -1"
_symmetry_group_IT_number 2
_symmetry_cell_setting 'triclinic'
loop_
_space_group_symop_operation_xyz
x,y,z
-x,-y,-z
loop_
_atom_site_type_symbol
_atom_site_label
_atom_site_fract_x
_atom_site_fract_y
_atom_site_fract_z
Si Si1 0.575689 0.262908 0.977659
Si Si2 0.072345 0.401887 0.245243
Si Si3 0.797196 0.404097 0.588240
Si Si4 0.291312 0.035460 0.663615
Si Si5 0.220184 0.617212 0.809740
O O1 0.378908 0.394554 0.906772
O O2 0.500000 0.500000 0.000000
O O3 0.449785 0.191402 0.128709
O O4 0.973152 0.946135 0.875440
O O5 0.008482 0.343745 0.410569
O O6 0.865896 0.729381 0.234267
O O7 0.985139 0.351674 0.189920
O O8 0.537584 0.458621 0.638734
O O9 0.019501 0.156543 0.660352
O O10 0.550260 0.707666 0.688379
O O11 0.500000 0.000000 0.500000
#
# Coordination Sequence:
#
# PCOD8018476 Si02
#       5
#     2   2   2   2   2
#     4  12  27  46  67  93 132 176 217 264 327 394
#     4  11  24  43  68  98 131 171 217 271 321 381
#     4  11  23  43  68  97 131 173 217 263 320 388
#     4  10  22  40  66  97 130 170 215 261 317 384
#     4  12  26  44  66  99 132 168 216 273 327 379
#
# _framework density 27.192865000000001
#
# number of rings (size 3 to 8) (size 9 to 14) (size 15 to 20)
#    0.000    0.800    0.000    8.400    0.000    9.600 
#    0.000    7.000    0.000    0.000    0.000    0.000 
#    0.000    0.000    0.000    0.000    0.000    0.000 
#
# Total GULP energy -123881.358126 kJ/mol
# GULP energy per Si atom -12388.135813 kJ/mol
# Density = 2.713097 g / cm^3
# Si number density = 27.192865 Si / 1000 Ang^3
#
#
#
# Elastic Constant Matrix: (Units=GPa)
#
#
# Indices 1 2 3 4 5 6 
#
# 1 116.7345 -6.8265 43.1022 5.7142 -20.4945 2.5757
# 2 -6.8265 86.2782 30.2740 -2.1871 -0.4184 -23.4779
# 3 43.1022 30.2740 133.9896 1.0189 -33.8968 -7.2042
# 4 5.7142 -2.1871 1.0189 31.1153 -1.2111 -7.7826
# 5 -20.4945 -0.4184 -33.8968 -1.2111 56.2517 5.7102
# 6 2.5757 -23.4779 -7.2042 -7.7826 5.7102 24.4509
#
#
#
# Elastic Compliance Matrix: (Units=1/GPa)
#
#
# Indices 1 2 3 4 5 6 
#
# 1 0.010326 0.001418 -0.003225 -0.002063 0.001967 -0.001792
# 2 0.001418 0.018721 -0.004710 0.005866 -0.004010 0.019242
# 3 -0.003225 -0.004710 0.010845 -0.000488 0.005562 -0.002442
# 4 -0.002063 0.005866 -0.000488 0.037389 -0.002033 0.018082
# 5 0.001967 -0.004010 0.005562 -0.002033 0.022619 -0.008348
# 6 -0.001792 0.019242 -0.002442 0.018082 -0.008348 0.066549
#
#
# Mechanical properties :
#
#
# Convention : Reuss Voigt Hill
#
# Bulk Modulus (GPa) = 37.23456 52.23350 44.73403
# Shear Modulus (GPa) = 26.53417 40.39374 33.46395
#
# Velocity S-wave (km/s) = 3.12713 3.85834 3.51182
# Velocity P-wave (km/s) = 5.17311 6.25294 5.73848
#
# Compressibility (1/GPa) = 0.02685677
#
# Stress axis : x y z
#
# Youngs Moduli (GPa) = 96.84214 53.41606 92.21164
#
# Poissons Ratio (x) = -0.07576 0.29741
# Poissons Ratio (y) = -0.13736 0.43436
# Poissons Ratio (z) = 0.31235 0.25162
#
# Static dielectric constant tensor:
#      x y z
#    x 4.580470 -0.541350 -0.693950 
#    y -0.541350 2.773410 -0.241330 
#    z -0.693950 -0.241330 5.072590 
# 
# 
# High freq. dielectric constant tensor:
#      x y z
#    x 2.096820 -0.012930 -0.030110 
#    y -0.012930 2.089610 0.001410 
#    z -0.030110 0.001410 2.108400 
# 
# From -- ./inp_files/25841.got.cif
#   From: 2010.06.25/outbox.cif.g09.slc.cpg/sg2_13_cif.got.tgz:25841.got - 2010.06.27 13:26:56.
