data_PCOD8018913
_publ_section_title
;
Structure prediction by ZEFSAII (Michael W. Deem and Ramdas Pophale) SiO2 
 PCOD8018913
Probable space group: P -1
;
_chemical_formula_sum "Si O2"
_cell_formula_units_Z 16
_cell_length_a 11.521058
_cell_length_b 11.866984
_cell_length_c 21.813282
_cell_angle_alpha 25.570099
_cell_angle_beta 147.641796
_cell_angle_gamma 138.623368
_cell_volume 688.060254
_symmetry_space_group_name_H-M "P -1"
_symmetry_group_IT_number 2
_symmetry_cell_setting 'triclinic'
loop_
_space_group_symop_operation_xyz
x,y,z
-x,-y,-z
loop_
_atom_site_type_symbol
_atom_site_label
_atom_site_fract_x
_atom_site_fract_y
_atom_site_fract_z
Si Si1 0.547097 0.128321 0.281998
Si Si2 0.583013 0.902569 0.896929
Si Si3 0.221488 0.275701 0.618155
Si Si4 0.903363 0.304491 0.858937
Si Si5 0.835761 0.668250 0.926420
Si Si6 0.906081 0.457432 0.287937
Si Si7 0.439468 0.340768 0.401978
Si Si8 0.079457 0.137673 0.260895
O O1 0.503852 0.193461 0.159512
O O2 0.419482 0.328289 0.174249
O O3 0.802804 0.173225 0.384036
O O4 0.495919 0.835351 0.423492
O O5 0.391347 0.056989 0.772772
O O6 0.786541 0.075368 0.884379
O O7 0.700710 0.666785 0.104340
O O8 0.353232 0.492729 0.609293
O O9 0.099527 0.453874 0.424716
O O10 0.037742 0.132436 0.645295
O O11 0.733175 0.440165 0.762249
O O12 0.995441 0.505244 0.753630
O O13 0.082553 0.197134 0.040301
O O14 0.892160 0.852040 0.804517
O O15 0.918783 0.371309 0.098673
O O16 0.322996 0.164368 0.384927
#
# Coordination Sequence:
#
# PCOD8018913 Si02
#       8
#     2   2   2   2   2   2   2   2
#     4  12  23  38  63  98 130 167 213 268 322 384
#     4  11  24  39  63  99 132 166 212 268 319 391
#     4  11  24  43  68  97 131 170 213 264 324 383
#     4  10  22  41  62  93 131 172 210 259 328 385
#     4  10  23  41  70  89 127 172 216 267 319 376
#     4  12  23  37  65  98 131 171 211 257 332 387
#     4  10  23  41  64  95 129 168 215 264 321 377
#     4  10  22  48  66  89 127 176 217 263 319 379
#
# _framework density 23.253776999999999
#
# number of rings (size 3 to 8) (size 9 to 14) (size 15 to 20)
#    0.000    1.250    2.500    3.000    5.250    3.500 
#    0.000   11.875    0.000    0.000    0.000    0.000 
#    0.000    0.000    0.000    0.000    0.000    0.000 
#
# Total GULP energy -198218.277950 kJ/mol
# GULP energy per Si atom -12388.642372 kJ/mol
# Density = 2.320085 g / cm^3
# Si number density = 23.253777 Si / 1000 Ang^3
#
#
#
# Elastic Constant Matrix: (Units=GPa)
#
#
# Indices 1 2 3 4 5 6 
#
# 1 76.1316 47.2398 13.7648 11.8222 -17.5169 22.9282
# 2 47.2398 119.2324 34.8668 40.3676 9.8716 6.4012
# 3 13.7648 34.8668 84.8601 -14.1994 -34.9536 42.0458
# 4 11.8222 40.3676 -14.1994 -24.5202 -40.0050 70.3665
# 5 -17.5169 9.8716 -34.9536 -40.0050 -5.3876 55.3181
# 6 22.9282 6.4012 42.0458 70.3665 55.3181 -65.1378
#
#
#
# Elastic Compliance Matrix: (Units=1/GPa)
#
#
# Indices 1 2 3 4 5 6 
#
# 1 0.019609 -0.003816 -0.000124 -0.012889 0.006607 -0.001866
# 2 -0.003816 0.014036 -0.001374 -0.009098 -0.000641 -0.011223
# 3 -0.000124 -0.001374 0.011338 -0.006899 0.003583 0.002730
# 4 -0.012889 -0.009098 -0.006899 0.048361 -0.018890 0.026317
# 5 0.006607 -0.000641 0.003583 -0.018890 0.032876 0.012089
# 6 -0.001866 -0.011223 0.002730 0.026317 0.012089 0.023346
#
#
# Mechanical properties :
#
#
# Convention : Reuss Voigt Hill
#
# Bulk Modulus (GPa) = 29.10715 52.44076 40.77395
# Shear Modulus (GPa) = 29.13004 -6.71894 11.20555
#
# Velocity S-wave (km/s) = 3.54319 -1.70167 2.19756
# Velocity P-wave (km/s) = 5.41140 4.32892 4.90015
#
# Compressibility (1/GPa) = 0.03435582
#
# Stress axis : x y z
#
# Youngs Moduli (GPa) = 50.99755 71.24322 88.20267
#
# Poissons Ratio (x) = 0.27185 0.01092
# Poissons Ratio (y) = 0.19460 0.12117
# Poissons Ratio (z) = 0.00632 0.09787
#
# Static dielectric constant tensor:
#      x y z
#    x 3.952510 0.271730 0.143460 
#    y 0.271730 4.579270 0.309400 
#    z 0.143460 0.309400 4.368890 
# 
# 
# High freq. dielectric constant tensor:
#      x y z
#    x 1.906380 0.024200 0.010130 
#    y 0.024200 1.919130 0.006880 
#    z 0.010130 0.006880 1.927100 
# 
# From -- ./inp_files/201485.got.cif
#   From: 2010.06.25/outbox.cif.g09.slc.cpg/sg2_101_cif.got.tgz:201485.got - 2010.06.27 13:26:56.
