data_PCOD8018324
_publ_section_title
;
Structure prediction by ZEFSAII (Michael W. Deem and Ramdas Pophale) SiO2 
 PCOD8018324
Probable space group: P -1
;
_chemical_formula_sum "Si O2"
_cell_formula_units_Z 16
_cell_length_a 12.205671
_cell_length_b 18.168631
_cell_length_c 10.113117
_cell_angle_alpha 46.963627
_cell_angle_beta 131.426655
_cell_angle_gamma 150.460956
_cell_volume 793.687804
_symmetry_space_group_name_H-M "P -1"
_symmetry_group_IT_number 2
_symmetry_cell_setting 'triclinic'
loop_
_space_group_symop_operation_xyz
x,y,z
-x,-y,-z
loop_
_atom_site_type_symbol
_atom_site_label
_atom_site_fract_x
_atom_site_fract_y
_atom_site_fract_z
Si Si1 0.396821 0.126434 0.653580
Si Si2 0.176756 0.955545 0.958681
Si Si3 0.630811 0.437788 0.565578
Si Si4 0.143487 0.714034 0.276624
Si Si5 0.428677 0.177889 0.128984
Si Si6 0.087148 0.591913 0.659295
Si Si7 0.350720 0.327405 0.730175
Si Si8 0.896038 0.002693 0.670284
O O1 0.475922 0.283436 0.542622
O O2 0.600278 0.166531 0.712214
O O3 0.190628 0.017409 0.520195
O O4 0.316654 0.036185 0.836630
O O5 0.069903 0.789043 0.093622
O O6 0.347395 0.066599 0.079326
O O7 0.971861 0.926620 0.832806
O O8 0.544584 0.397613 0.695669
O O9 0.620378 0.542229 0.361060
O O10 0.884986 0.529259 0.663423
O O11 0.128671 0.688688 0.452093
O O12 0.969300 0.549534 0.264161
O O13 0.693956 0.298582 0.208444
O O14 0.300789 0.079484 0.280992
O O15 0.374926 0.267267 0.948953
O O16 0.105966 0.186769 0.639229
#
# Coordination Sequence:
#
# PCOD8018324 Si02
#       8
#     2   2   2   2   2   2   2   2
#     4  11  21  44  61  91 123 165 202 252 303 361
#     4  11  23  39  65  90 123 160 208 251 305 357
#     4  10  22  40  65  86 127 163 198 250 305 363
#     4  10  23  42  60  90 123 165 205 250 300 364
#     4  11  23  42  62  95 122 159 205 256 301 362
#     4  10  23  42  62  86 129 164 200 249 308 360
#     4  10  22  41  61  96 122 160 202 253 304 363
#     4  11  23  40  65  92 126 155 205 256 305 358
#
# _framework density 20.159058999999999
#
# number of rings (size 3 to 8) (size 9 to 14) (size 15 to 20)
#    0.000    1.500    3.750    2.250    3.500    3.000 
#    2.250    1.250    0.000    0.000    0.000    0.000 
#    0.000    0.000    0.000    0.000    0.000    0.000 
#
# Total GULP energy -198478.682132 kJ/mol
# GULP energy per Si atom -12404.917633 kJ/mol
# Density = 2.011318 g / cm^3
# Si number density = 20.159059 Si / 1000 Ang^3
#
#
#
# Elastic Constant Matrix: (Units=GPa)
#
#
# Indices 1 2 3 4 5 6 
#
# 1 35.9112 31.2632 33.5558 2.4719 -10.3039 3.0645
# 2 31.2632 80.2271 47.4556 -1.9226 -4.6114 11.6180
# 3 33.5558 47.4556 70.6474 -6.6441 -4.5760 -7.9222
# 4 2.4719 -1.9226 -6.6441 40.2807 -5.1861 8.9365
# 5 -10.3039 -4.6114 -4.5760 -5.1861 25.3879 -6.8757
# 6 3.0645 11.6180 -7.9222 8.9365 -6.8757 29.5975
#
#
#
# Elastic Compliance Matrix: (Units=1/GPa)
#
#
# Indices 1 2 3 4 5 6 
#
# 1 0.064235 -0.009500 -0.023850 -0.005223 0.018019 -0.003542
# 2 -0.009500 0.027779 -0.016132 0.002110 -0.005672 -0.016193
# 3 -0.023850 -0.016132 0.038638 0.003014 -0.000098 0.018211
# 4 -0.005223 0.002110 0.003014 0.027675 0.002494 -0.007257
# 5 0.018019 -0.005672 -0.000098 0.002494 0.049142 0.010997
# 6 -0.003542 -0.016193 0.018211 -0.007257 0.010997 0.050130
#
#
# Mechanical properties :
#
#
# Convention : Reuss Voigt Hill
#
# Bulk Modulus (GPa) = 31.55786 45.70388 38.63087
# Shear Modulus (GPa) = 13.61932 24.02062 18.81997
#
# Velocity S-wave (km/s) = 2.60204 3.45564 3.05876
# Velocity P-wave (km/s) = 4.97151 6.21633 5.62844
#
# Compressibility (1/GPa) = 0.03168782
#
# Stress axis : x y z
#
# Youngs Moduli (GPa) = 15.56795 35.99896 25.88110
#
# Poissons Ratio (x) = 0.34200 0.61725
# Poissons Ratio (y) = 0.14790 0.41751
# Poissons Ratio (z) = 0.37129 0.58073
#
# Static dielectric constant tensor:
#      x y z
#    x 3.718100 0.041900 -0.022170 
#    y 0.041900 3.704240 -0.161410 
#    z -0.022170 -0.161410 3.546600 
# 
# 
# High freq. dielectric constant tensor:
#      x y z
#    x 1.795740 0.007250 -0.003060 
#    y 0.007250 1.788000 -0.011190 
#    z -0.003060 -0.011190 1.780530 
# 
# From -- ./inp_files/279123.got.cif
#   From: 2010.06.25/outbox.cif.g09.slc.cpg/sg2_140_cif.got.tgz:279123.got - 2010.06.27 13:26:56.
