data_PCOD8018456
_publ_section_title
;
Structure prediction by ZEFSAII (Michael W. Deem and Ramdas Pophale) SiO2 
 PCOD8018456
Probable space group: P -1
;
_chemical_formula_sum "Si O2"
_cell_formula_units_Z 16
_cell_length_a 9.204767
_cell_length_b 19.663966
_cell_length_c 8.894751
_cell_angle_alpha 142.968323
_cell_angle_beta 119.437161
_cell_angle_gamma 51.937718
_cell_volume 763.416613
_symmetry_space_group_name_H-M "P -1"
_symmetry_group_IT_number 2
_symmetry_cell_setting 'triclinic'
loop_
_space_group_symop_operation_xyz
x,y,z
-x,-y,-z
loop_
_atom_site_type_symbol
_atom_site_label
_atom_site_fract_x
_atom_site_fract_y
_atom_site_fract_z
Si Si1 0.968398 0.967180 0.262127
Si Si2 0.737704 0.572601 0.070844
Si Si3 0.014350 0.275850 0.038817
Si Si4 0.600356 0.072681 0.097300
Si Si5 0.053787 0.301146 0.769187
Si Si6 0.602609 0.449893 0.121167
Si Si7 0.140812 0.036669 0.224721
Si Si8 0.292016 0.344100 0.454457
O O1 0.776151 0.068091 0.272492
O O2 0.946185 0.838578 0.029421
O O3 0.000000 0.000000 0.500000
O O4 0.145781 0.967750 0.264341
O O5 0.798661 0.648470 0.117493
O O6 0.733291 0.631308 0.336678
O O7 0.537649 0.592555 0.938842
O O8 0.858514 0.422464 0.872998
O O9 0.095375 0.361974 0.317199
O O10 0.797898 0.333896 0.997978
O O11 0.105295 0.244759 0.864354
O O12 0.450904 0.212971 0.256602
O O13 0.500000 0.000000 0.000000
O O14 0.666062 0.016871 0.863438
O O15 0.064252 0.187001 0.467985
O O16 0.643697 0.556697 0.413046
O O17 0.500000 0.500000 0.000000
O O18 0.000000 0.000000 0.000000
#
# Coordination Sequence:
#
# PCOD8018456 Si02
#       8
#     2   2   2   2   2   2   2   2
#     4  11  24  41  66  98 129 178 221 276 330 388
#     4  10  24  41  70  98 127 183 216 276 333 400
#     4  12  23  43  67  98 135 170 220 279 335 392
#     4  11  23  44  66  97 131 178 222 263 338 401
#     4  11  22  43  66  97 138 167 228 272 338 391
#     4  10  22  40  66  95 123 176 219 266 327 392
#     4  10  24  41  67  98 134 179 220 275 326 401
#     4  11  23  42  70  95 134 173 223 271 335 400
#
# _framework density 20.958413
#
# number of rings (size 3 to 8) (size 9 to 14) (size 15 to 20)
#    0.000    1.250    5.000    1.125    8.750    0.000 
#    2.250    1.875    0.000    0.000    0.000    0.000 
#    0.000    0.000    0.000    0.000    0.000    0.000 
#
# Total GULP energy -198220.438920 kJ/mol
# GULP energy per Si atom -12388.777433 kJ/mol
# Density = 2.091071 g / cm^3
# Si number density = 20.958413 Si / 1000 Ang^3
#
#
#
# Elastic Constant Matrix: (Units=GPa)
#
#
# Indices 1 2 3 4 5 6 
#
# 1 169.5885 40.6484 55.4817 -2.6287 -1.8320 5.5748
# 2 40.6484 63.4064 27.3792 2.4313 -3.2420 -2.8768
# 3 55.4817 27.3792 115.2987 13.2060 -1.6800 -2.1405
# 4 -2.6287 2.4313 13.2060 33.5836 -3.3293 6.8130
# 5 -1.8320 -3.2420 -1.6800 -3.3293 43.7900 -2.4672
# 6 5.5748 -2.8768 -2.1405 6.8130 -2.4672 39.9244
#
#
#
# Elastic Compliance Matrix: (Units=1/GPa)
#
#
# Indices 1 2 3 4 5 6 
#
# 1 0.008009 -0.003918 -0.003259 0.002602 0.000004 -0.002019
# 2 -0.003918 0.019600 -0.002598 -0.001002 0.001228 0.002067
# 3 -0.003259 -0.002598 0.011453 -0.004935 -0.000168 0.001714
# 4 0.002602 -0.001002 -0.004935 0.033470 0.002036 -0.006286
# 5 0.000004 0.001228 -0.000168 0.002036 0.023141 0.001162
# 6 -0.002019 0.002067 0.001714 -0.006286 0.001162 0.026715
#
#
# Mechanical properties :
#
#
# Convention : Reuss Voigt Hill
#
# Bulk Modulus (GPa) = 51.25142 66.14579 58.69861
# Shear Modulus (GPa) = 33.68356 38.44522 36.06439
#
# Velocity S-wave (km/s) = 4.01329 4.28759 4.15270
# Velocity P-wave (km/s) = 6.78102 7.49268 7.14572
#
# Compressibility (1/GPa) = 0.01951165
#
# Stress axis : x y z
#
# Youngs Moduli (GPa) = 124.86516 51.02080 87.31553
#
# Poissons Ratio (x) = 0.19991 0.28454
# Poissons Ratio (y) = 0.48924 0.22683
# Poissons Ratio (z) = 0.40691 0.13254
#
# Static dielectric constant tensor:
#      x y z
#    x 4.420970 -0.230250 0.118770 
#    y -0.230250 3.888940 0.307080 
#    z 0.118770 0.307080 4.067630 
# 
# 
# High freq. dielectric constant tensor:
#      x y z
#    x 1.841800 0.005370 0.013070 
#    y 0.005370 1.799480 0.009440 
#    z 0.013070 0.009440 1.822890 
# 
# From -- ./inp_files/224269.got.cif
#   From: 2010.06.25/outbox.cif.g09.slc.cpg/sg2_113_cif.got.tgz:224269.got - 2010.06.27 13:26:56.
