data_PCOD8018428
_publ_section_title
;
Structure prediction by ZEFSAII (Michael W. Deem and Ramdas Pophale) SiO2 
 PCOD8018428
Probable space group: P -1
;
_chemical_formula_sum "Si O2"
_cell_formula_units_Z 14
_cell_length_a 8.950177
_cell_length_b 15.105794
_cell_length_c 5.192653
_cell_angle_alpha 120.672689
_cell_angle_beta 80.623458
_cell_angle_gamma 96.145897
_cell_volume 595.520091
_symmetry_space_group_name_H-M "P -1"
_symmetry_group_IT_number 2
_symmetry_cell_setting 'triclinic'
loop_
_space_group_symop_operation_xyz
x,y,z
-x,-y,-z
loop_
_atom_site_type_symbol
_atom_site_label
_atom_site_fract_x
_atom_site_fract_y
_atom_site_fract_z
Si Si1 0.739180 0.554688 0.705697
Si Si2 0.932844 0.723486 0.138335
Si Si3 0.315067 0.280610 0.421411
Si Si4 0.751588 0.349791 0.161375
Si Si5 0.579581 0.375267 0.737894
Si Si6 0.153507 0.057550 0.633854
Si Si7 0.343604 0.053482 0.067992
O O1 0.652108 0.641056 0.702426
O O2 0.807782 0.468859 0.367666
O O3 0.612503 0.498257 0.846162
O O4 0.880323 0.611048 0.886445
O O5 0.862532 0.733312 0.461888
O O6 0.876089 0.820400 0.129559
O O7 0.114036 0.723722 0.074966
O O8 0.405292 0.333156 0.716044
O O9 0.382594 0.171979 0.164117
O O10 0.670363 0.311917 0.393799
O O11 0.633977 0.344799 0.956033
O O12 0.263037 0.042003 0.344090
O O13 0.234224 0.011203 0.799851
O O14 0.000000 0.000000 0.500000
O O15 0.500000 0.000000 0.000000
#
# Coordination Sequence:
#
# PCOD8018428 Si02
#       7
#     2   2   2   2   2   2   2
#     4  10  22  40  66  90 138 172 224 252 328 376
#     4  11  24  41  68  95 132 174 220 265 328 388
#     4  11  24  41  68  95 132 174 220 265 328 388
#     4  10  25  40  61  94 133 177 216 263 315 382
#     4  10  25  40  61  94 133 177 216 263 315 382
#     4  11  25  46  72 101 131 173 222 281 339 398
#     4  11  25  46  72 101 131 173 222 281 339 398
#
# _framework density 23.508863000000002
#
# number of rings (size 3 to 8) (size 9 to 14) (size 15 to 20)
#    0.857    0.571    1.429    2.571    4.000    4.571 
#    0.000    0.000    0.000    0.000    0.000    0.000 
#    0.000    0.000    0.000    0.000    0.000    0.000 
#
# Total GULP energy -173463.790476 kJ/mol
# GULP energy per Si atom -12390.270748 kJ/mol
# Density = 2.345536 g / cm^3
# Si number density = 23.508863 Si / 1000 Ang^3
#
#
#
# Elastic Constant Matrix: (Units=GPa)
#
#
# Indices 1 2 3 4 5 6 
#
# 1 62.5157 34.4367 18.9647 11.2937 3.3189 -2.3031
# 2 34.4367 66.1764 38.8324 -0.4393 -16.8159 -23.2032
# 3 18.9647 38.8324 89.9314 -7.2374 -2.0383 -6.9668
# 4 11.2937 -0.4393 -7.2374 32.1767 -8.8689 3.9286
# 5 3.3189 -16.8159 -2.0383 -8.8689 40.2855 -6.5302
# 6 -2.3031 -23.2032 -6.9668 3.9286 -6.5302 31.6237
#
#
#
# Elastic Compliance Matrix: (Units=1/GPa)
#
#
# Indices 1 2 3 4 5 6 
#
# 1 0.043979 -0.046800 0.005973 -0.019576 -0.032700 -0.034140
# 2 -0.046800 0.088747 -0.020468 0.020130 0.055003 0.066056
# 3 0.005973 -0.020468 0.017497 0.000329 -0.010164 -0.012868
# 4 -0.019576 0.020130 0.000329 0.042682 0.021462 0.012546
# 5 -0.032700 0.055003 -0.010164 0.021462 0.062127 0.045900
# 6 -0.034140 0.066056 -0.012868 0.012546 0.045900 0.082687
#
#
# Mechanical properties :
#
#
# Convention : Reuss Voigt Hill
#
# Bulk Modulus (GPa) = 36.18937 44.78792 40.48864
# Shear Modulus (GPa) = 10.64916 29.24317 19.94617
#
# Velocity S-wave (km/s) = 2.13065 3.53075 2.91598
# Velocity P-wave (km/s) = 4.63468 5.97616 5.34765
#
# Compressibility (1/GPa) = 0.02763243
#
# Stress axis : x y z
#
# Youngs Moduli (GPa) = 22.73830 11.26803 57.15135
#
# Poissons Ratio (x) = 0.52734 -0.34135
# Poissons Ratio (y) = 1.06415 1.16976
# Poissons Ratio (z) = -0.13581 0.23063
#
# Static dielectric constant tensor:
#      x y z
#    x 4.251310 0.176270 0.048100 
#    y 0.176270 4.201590 0.044220 
#    z 0.048100 0.044220 4.358030 
# 
# 
# High freq. dielectric constant tensor:
#      x y z
#    x 1.927580 0.003470 -0.002250 
#    y 0.003470 1.912000 -0.008300 
#    z -0.002250 -0.008300 1.945870 
# 
# From -- ./inp_files/33562.got.cif
#   From: 2010.06.25/outbox.cif.g09.slc.cpg/sg2_17_cif.got.tgz:33562.got - 2010.06.27 13:26:56.
