data_PCOD8018639
_publ_section_title
;
Structure prediction by ZEFSAII (Michael W. Deem and Ramdas Pophale) SiO2 
 PCOD8018639
Probable space group: P -1
;
_chemical_formula_sum "Si O2"
_cell_formula_units_Z 12
_cell_length_a 17.410591
_cell_length_b 11.769792
_cell_length_c 5.729089
_cell_angle_alpha 120.019666
_cell_angle_beta 66.254611
_cell_angle_gamma 148.545284
_cell_volume 529.685202
_symmetry_space_group_name_H-M "P -1"
_symmetry_group_IT_number 2
_symmetry_cell_setting 'triclinic'
loop_
_space_group_symop_operation_xyz
x,y,z
-x,-y,-z
loop_
_atom_site_type_symbol
_atom_site_label
_atom_site_fract_x
_atom_site_fract_y
_atom_site_fract_z
Si Si1 0.200530 0.029829 0.463990
Si Si2 0.447151 0.491585 0.809758
Si Si3 0.922607 0.982621 0.777199
Si Si4 0.571108 0.888115 0.834974
Si Si5 0.900738 0.689973 0.711931
Si Si6 0.612824 0.194065 0.373016
O O1 0.205217 0.089933 0.251732
O O2 0.030543 0.794934 0.501343
O O3 0.272470 0.232641 0.755859
O O4 0.292438 0.013743 0.348052
O O5 0.500000 0.500000 0.500000
O O6 0.488425 0.698893 0.949112
O O7 0.500000 0.500000 0.000000
O O8 0.854999 0.783163 0.819533
O O9 0.000000 0.000000 0.500000
O O10 0.039452 0.231017 0.014679
O O11 0.450797 0.765061 0.654836
O O12 0.643163 0.112959 0.076997
O O13 0.759645 0.418864 0.565738
O O14 0.500000 0.000000 0.500000
#
# Coordination Sequence:
#
# PCOD8018639 Si02
#       6
#     2   2   2   2   2   2
#     4  10  22  40  70  99 132 170 230 294 349 407
#     4  10  23  40  71 105 141 172 223 297 359 416
#     4   9  20  39  63  98 135 166 219 284 357 408
#     4  10  25  45  66  99 138 182 235 283 354 415
#     4  10  22  40  68  97 133 178 228 283 348 417
#     4  11  26  44  66  93 140 192 232 281 344 430
#
# _framework density 22.654965000000001
#
# number of rings (size 3 to 8) (size 9 to 14) (size 15 to 20)
#    0.000    2.000    0.000    1.000    9.333   10.000 
#    0.000    1.667    0.000    0.000    0.000    0.000 
#    0.000    0.000    0.000    0.000    0.000    0.000 
#
# Total GULP energy -148669.038161 kJ/mol
# GULP energy per Si atom -12389.086513 kJ/mol
# Density = 2.260340 g / cm^3
# Si number density = 22.654965 Si / 1000 Ang^3
#
#
#
# Elastic Constant Matrix: (Units=GPa)
#
#
# Indices 1 2 3 4 5 6 
#
# 1 148.8164 47.5282 59.0594 9.0561 14.1133 -2.8213
# 2 47.5282 126.3755 46.2130 28.0998 12.1796 3.3037
# 3 59.0594 46.2130 132.4644 24.8600 26.6187 0.6503
# 4 9.0561 28.0998 24.8600 47.0007 4.9947 7.4019
# 5 14.1133 12.1796 26.6187 4.9947 47.1630 -7.1320
# 6 -2.8213 3.3037 0.6503 7.4019 -7.1320 27.6560
#
#
#
# Elastic Compliance Matrix: (Units=1/GPa)
#
#
# Indices 1 2 3 4 5 6 
#
# 1 0.008738 -0.002395 -0.003290 0.001372 -0.000156 0.000847
# 2 -0.002395 0.010544 -0.001558 -0.004897 -0.000658 -0.000326
# 3 -0.003290 -0.001558 0.011200 -0.003773 -0.004625 -0.000596
# 4 0.001372 -0.004897 -0.003773 0.027080 -0.000892 -0.006664
# 5 -0.000156 -0.000658 -0.004625 -0.000892 0.025168 0.006900
# 6 0.000847 -0.000326 -0.000596 -0.006664 0.006900 0.039861
#
#
# Mechanical properties :
#
#
# Convention : Reuss Voigt Hill
#
# Bulk Modulus (GPa) = 62.51768 79.25082 70.88425
# Shear Modulus (GPa) = 35.10999 41.35432 38.23216
#
# Velocity S-wave (km/s) = 3.94098 4.27710 4.11248
# Velocity P-wave (km/s) = 6.95442 7.71032 7.34211
#
# Compressibility (1/GPa) = 0.01599548
#
# Stress axis : x y z
#
# Youngs Moduli (GPa) = 114.44439 94.83896 89.28414
#
# Poissons Ratio (x) = 0.22715 0.29378
# Poissons Ratio (y) = 0.27410 0.13909
# Poissons Ratio (z) = 0.37657 0.14775
#
# Static dielectric constant tensor:
#      x y z
#    x 4.509580 -0.092790 0.357220 
#    y -0.092790 4.058860 0.159730 
#    z 0.357220 0.159730 4.552020 
# 
# 
# High freq. dielectric constant tensor:
#      x y z
#    x 1.892050 0.010440 0.013220 
#    y 0.010440 1.877350 0.001040 
#    z 0.013220 0.001040 1.911290 
# 
# From -- ./inp_files/109252.got.cif
#   From: 2010.06.25/outbox.cif.g09.slc.cpg/sg2_55_cif.got.tgz:109252.got - 2010.06.27 13:26:56.
