data_PCOD8018757
_publ_section_title
;
Structure prediction by ZEFSAII (Michael W. Deem and Ramdas Pophale) SiO2 
 PCOD8018757
Probable space group: P -1
;
_chemical_formula_sum "Si O2"
_cell_formula_units_Z 14
_cell_length_a 8.755575
_cell_length_b 18.136926
_cell_length_c 9.543629
_cell_angle_alpha 136.196533
_cell_angle_beta 96.940067
_cell_angle_gamma 116.783985
_cell_volume 648.072464
_symmetry_space_group_name_H-M "P -1"
_symmetry_group_IT_number 2
_symmetry_cell_setting 'triclinic'
loop_
_space_group_symop_operation_xyz
x,y,z
-x,-y,-z
loop_
_atom_site_type_symbol
_atom_site_label
_atom_site_fract_x
_atom_site_fract_y
_atom_site_fract_z
Si Si1 0.820650 0.729715 0.727085
Si Si2 0.743536 0.858454 0.354378
Si Si3 0.658767 0.993741 0.723394
Si Si4 0.561185 0.374675 0.256671
Si Si5 0.345451 0.802091 0.873141
Si Si6 0.250279 0.315905 0.665469
Si Si7 0.774331 0.176486 0.389488
O O1 0.765518 0.577608 0.558173
O O2 0.666731 0.723242 0.802057
O O3 0.737034 0.704123 0.524263
O O4 0.107696 0.916529 0.032498
O O5 0.662872 0.934888 0.494998
O O6 0.785320 0.814508 0.438990
O O7 0.535110 0.695666 0.008365
O O8 0.000000 0.000000 0.500000
O O9 0.390218 0.829533 0.543841
O O10 0.694565 0.142331 0.918366
O O11 0.691623 0.339104 0.280790
O O12 0.618073 0.980799 0.085244
O O13 0.160247 0.734557 0.632356
O O14 0.033641 0.283342 0.634623
O O15 0.500000 0.500000 0.000000
#
# Coordination Sequence:
#
# PCOD8018757 Si02
#       7
#     2   2   2   2   2   2   2
#     4  11  23  43  67  99 133 181 230 263 342 397
#     4  12  25  42  68 105 135 172 229 277 334 392
#     4  10  22  40  70  96 128 178 224 272 330 400
#     4  11  24  41  65 101 139 175 220 284 331 399
#     4   9  19  40  66  92 134 171 220 277 325 392
#     4  12  24  44  71  95 138 178 220 282 335 399
#     4   9  20  41  63 100 129 169 230 273 326 402
#
# _framework density 21.602522
#
# number of rings (size 3 to 8) (size 9 to 14) (size 15 to 20)
#    0.857    0.571    4.286    0.857    2.000    1.714 
#    0.000    0.714    3.143    0.000    0.000    0.000 
#    0.000    0.000    0.000    0.000    0.000    0.000 
#
# Total GULP energy -173463.059441 kJ/mol
# GULP energy per Si atom -12390.218531 kJ/mol
# Density = 2.155335 g / cm^3
# Si number density = 21.602522 Si / 1000 Ang^3
#
#
#
# Elastic Constant Matrix: (Units=GPa)
#
#
# Indices 1 2 3 4 5 6 
#
# 1 130.2252 47.7617 42.9101 -4.8277 -15.6448 12.2758
# 2 47.7617 92.6944 16.2189 -10.7634 -9.8262 -4.8439
# 3 42.9101 16.2189 91.2884 -11.9870 7.5492 9.9980
# 4 -4.8277 -10.7634 -11.9870 25.3163 7.0982 -1.6772
# 5 -15.6448 -9.8262 7.5492 7.0982 39.8954 -3.0545
# 6 12.2758 -4.8439 9.9980 -1.6772 -3.0545 49.6716
#
#
#
# Elastic Compliance Matrix: (Units=1/GPa)
#
#
# Indices 1 2 3 4 5 6 
#
# 1 0.012093 -0.005340 -0.005442 -0.004095 0.005014 -0.002244
# 2 -0.005340 0.014317 0.000279 0.005202 0.000674 0.002877
# 3 -0.005442 0.000279 0.015254 0.008009 -0.006517 -0.001828
# 4 -0.004095 0.005202 0.008009 0.047656 -0.010252 0.000886
# 5 0.005014 0.000674 -0.006517 -0.010252 0.030382 0.001661
# 6 -0.002244 0.002877 -0.001828 0.000886 0.001661 0.021467
#
#
# Mechanical properties :
#
#
# Convention : Reuss Voigt Hill
#
# Bulk Modulus (GPa) = 48.41107 58.66549 53.53828
# Shear Modulus (GPa) = 29.57515 36.79781 33.18648
#
# Velocity S-wave (km/s) = 3.70410 4.13171 3.92373
# Velocity P-wave (km/s) = 6.38376 7.06945 6.73533
#
# Compressibility (1/GPa) = 0.02065643
#
# Stress axis : x y z
#
# Youngs Moduli (GPa) = 82.69427 69.84839 65.55792
#
# Poissons Ratio (x) = 0.37299 0.35677
# Poissons Ratio (y) = 0.44159 -0.01827
# Poissons Ratio (z) = 0.45003 -0.01947
#
# Static dielectric constant tensor:
#      x y z
#    x 3.937650 0.255790 -0.045680 
#    y 0.255790 3.558740 -0.004170 
#    z -0.045680 -0.004170 3.716660 
# 
# 
# High freq. dielectric constant tensor:
#      x y z
#    x 1.853030 0.011070 0.006580 
#    y 0.011070 1.834870 -0.001150 
#    z 0.006580 -0.001150 1.834520 
# 
# From -- ./inp_files/213595.got.cif
#   From: 2010.06.25/outbox.cif.g09.slc.cpg/sg2_107_cif.got.tgz:213595.got - 2010.06.27 13:26:56.
