data_PCOD8018774
_publ_section_title
;
Structure prediction by ZEFSAII (Michael W. Deem and Ramdas Pophale) SiO2 
 PCOD8018774
Probable space group: P -1
;
_chemical_formula_sum "Si O2"
_cell_formula_units_Z 16
_cell_length_a 8.977782
_cell_length_b 17.299014
_cell_length_c 11.734775
_cell_angle_alpha 127.712910
_cell_angle_beta 40.197244
_cell_angle_gamma 97.617580
_cell_volume 702.751100
_symmetry_space_group_name_H-M "P -1"
_symmetry_group_IT_number 2
_symmetry_cell_setting 'triclinic'
loop_
_space_group_symop_operation_xyz
x,y,z
-x,-y,-z
loop_
_atom_site_type_symbol
_atom_site_label
_atom_site_fract_x
_atom_site_fract_y
_atom_site_fract_z
Si Si1 0.406403 0.112827 0.415407
Si Si2 0.221610 0.489984 0.770440
Si Si3 0.398521 0.793887 0.784299
Si Si4 0.747301 0.430557 0.549345
Si Si5 0.168680 0.858098 0.226215
Si Si6 0.362440 0.362013 0.069510
Si Si7 0.093618 0.160570 0.036637
Si Si8 0.709275 0.739587 0.171972
O O1 0.419414 0.163298 0.332220
O O2 0.473268 0.172508 0.531563
O O3 0.068268 0.164180 0.672189
O O4 0.656596 0.958513 0.136583
O O5 0.395693 0.359981 0.478141
O O6 0.455824 0.499507 0.700905
O O7 0.000000 0.500000 0.000000
O O8 0.039836 0.608841 0.897646
O O9 0.311370 0.844425 0.008839
O O10 0.103419 0.864230 0.938874
O O11 0.631735 0.521788 0.811927
O O12 0.008738 0.424864 0.334640
O O13 0.885526 0.283645 0.355722
O O14 0.440647 0.748957 0.051039
O O15 0.000000 0.000000 0.500000
O O16 0.474504 0.298045 0.819309
O O17 0.258865 0.180787 0.863597
#
# Coordination Sequence:
#
# PCOD8018774 Si02
#       8
#     2   2   2   2   2   2   2   2
#     4  12  24  47  72 102 141 181 241 288 344 423
#     4  11  23  43  69 105 141 180 243 289 350 413
#     4  11  26  42  73 104 136 185 233 297 343 415
#     4   9  21  40  64  97 133 180 230 283 343 411
#     4  12  27  46  71 102 141 191 232 284 361 419
#     4  10  23  40  66 102 139 177 234 286 351 419
#     4  10  22  40  71 102 134 179 238 292 342 408
#     4  11  22  41  72 100 132 186 230 285 346 409
#
# _framework density 22.767662999999999
#
# number of rings (size 3 to 8) (size 9 to 14) (size 15 to 20)
#    0.000    1.250    2.500    3.000    7.000    3.000 
#    0.000    1.875    0.000    0.000    0.000    0.000 
#    0.000    0.000    0.000    0.000    0.000    0.000 
#
# Total GULP energy -198350.718124 kJ/mol
# GULP energy per Si atom -12396.919883 kJ/mol
# Density = 2.271584 g / cm^3
# Si number density = 22.767663 Si / 1000 Ang^3
#
#
#
# Elastic Constant Matrix: (Units=GPa)
#
#
# Indices 1 2 3 4 5 6 
#
# 1 140.7298 53.2458 64.3544 13.3588 22.0045 1.5877
# 2 53.2458 74.3303 46.5207 13.3253 12.8809 -6.6237
# 3 64.3544 46.5207 105.4164 12.4159 22.8388 -4.8153
# 4 13.3588 13.3253 12.4159 32.7529 -6.5198 2.7192
# 5 22.0045 12.8809 22.8388 -6.5198 46.3246 8.2432
# 6 1.5877 -6.6237 -4.8153 2.7192 8.2432 15.2438
#
#
#
# Elastic Compliance Matrix: (Units=1/GPa)
#
#
# Indices 1 2 3 4 5 6 
#
# 1 0.011527 -0.005553 -0.004499 -0.000574 -0.001014 -0.004384
# 2 -0.005553 0.023760 -0.004346 -0.007986 -0.005421 0.013886
# 3 -0.004499 -0.004346 0.016631 -0.004809 -0.007044 0.008501
# 4 -0.000574 -0.007986 -0.004809 0.040268 0.014038 -0.019704
# 5 -0.001014 -0.005421 -0.007044 0.014038 0.033488 -0.025088
# 6 -0.004384 0.013886 0.008501 -0.019704 -0.025088 0.091857
#
#
# Mechanical properties :
#
#
# Convention : Reuss Voigt Hill
#
# Bulk Modulus (GPa) = 43.24957 72.07982 57.66469
# Shear Modulus (GPa) = 19.68223 29.28796 24.48509
#
# Velocity S-wave (km/s) = 2.94340 3.59051 3.28294
# Velocity P-wave (km/s) = 5.53071 6.99404 6.30497
#
# Compressibility (1/GPa) = 0.02312162
#
# Stress axis : x y z
#
# Youngs Moduli (GPa) = 86.75389 42.08767 60.12712
#
# Poissons Ratio (x) = 0.23373 0.27052
# Poissons Ratio (y) = 0.48177 0.26130
# Poissons Ratio (z) = 0.39032 0.18290
#
# Static dielectric constant tensor:
#      x y z
#    x 4.498090 0.249940 0.188620 
#    y 0.249940 3.895930 0.257820 
#    z 0.188620 0.257820 4.294450 
# 
# 
# High freq. dielectric constant tensor:
#      x y z
#    x 1.903500 0.010300 0.003590 
#    y 0.010300 1.882690 0.021740 
#    z 0.003590 0.021740 1.902640 
# 
# From -- ./inp_files/403181.got.cif
#   From: 2010.06.25/outbox.cif.g09.slc.cpg/sg2_202_cif.got.tgz:403181.got - 2010.06.27 13:26:56.
