data_PCOD8018828
_publ_section_title
;
Structure prediction by ZEFSAII (Michael W. Deem and Ramdas Pophale) SiO2 
 PCOD8018828
Probable space group: P -1
;
_chemical_formula_sum "Si O2"
_cell_formula_units_Z 14
_cell_length_a 7.469074
_cell_length_b 9.328945
_cell_length_c 14.369013
_cell_angle_alpha 89.844033
_cell_angle_beta 136.430148
_cell_angle_gamma 113.435259
_cell_volume 564.985215
_symmetry_space_group_name_H-M "P -1"
_symmetry_group_IT_number 2
_symmetry_cell_setting 'triclinic'
loop_
_space_group_symop_operation_xyz
x,y,z
-x,-y,-z
loop_
_atom_site_type_symbol
_atom_site_label
_atom_site_fract_x
_atom_site_fract_y
_atom_site_fract_z
Si Si1 0.171651 0.990331 0.940879
Si Si2 0.508894 0.824403 0.110209
Si Si3 0.519180 0.166770 0.340751
Si Si4 0.799512 0.544123 0.990005
Si Si5 0.634153 0.385195 0.563549
Si Si6 0.556627 0.175040 0.705033
Si Si7 0.341122 0.646904 0.782396
O O1 0.200101 0.014789 0.838479
O O2 0.467470 0.173120 0.089878
O O3 0.825606 0.932893 0.840731
O O4 0.207516 0.837488 0.988891
O O5 0.414890 0.637948 0.031586
O O6 0.598037 0.833843 0.253141
O O7 0.521655 0.247930 0.438436
O O8 0.753046 0.316808 0.354530
O O9 0.594177 0.023245 0.384827
O O10 0.554034 0.572479 0.847068
O O11 0.000000 0.500000 0.000000
O O12 0.056529 0.715928 0.145223
O O13 0.500000 0.500000 0.500000
O O14 0.481575 0.273654 0.601034
O O15 0.015769 0.506979 0.713142
#
# Coordination Sequence:
#
# PCOD8018828 Si02
#       7
#     2   2   2   2   2   2   2
#     4  11  23  42  77 112 144 181 242 306 366 426
#     4  10  23  39  71 113 143 181 237 306 360 422
#     4  12  25  47  72 107 144 195 240 300 363 436
#     4  10  22  40  76 111 140 180 240 305 361 422
#     4  12  32  48  71 104 151 200 245 291 361 441
#     4  11  23  48  70 104 144 193 241 299 357 427
#     4  12  25  49  76 108 149 188 238 305 370 424
#
# _framework density 24.779411
#
# number of rings (size 3 to 8) (size 9 to 14) (size 15 to 20)
#    0.000    0.857    2.857    3.857   12.000    1.143 
#    0.000    1.429    0.000    0.000    0.000    0.000 
#    0.000    0.000    0.000    0.000    0.000    0.000 
#
# Total GULP energy -173559.429521 kJ/mol
# GULP energy per Si atom -12397.102109 kJ/mol
# Density = 2.472301 g / cm^3
# Si number density = 24.779411 Si / 1000 Ang^3
#
#
#
# Elastic Constant Matrix: (Units=GPa)
#
#
# Indices 1 2 3 4 5 6 
#
# 1 68.1106 35.0183 11.6824 -13.1388 -5.2432 1.5491
# 2 35.0183 178.2809 36.6064 -25.3477 -16.0602 -15.3519
# 3 11.6824 36.6064 68.8620 -1.8685 -11.7915 -4.5651
# 4 -13.1388 -25.3477 -1.8685 47.9886 1.8114 -11.8619
# 5 -5.2432 -16.0602 -11.7915 1.8114 42.9724 -10.2002
# 6 1.5491 -15.3519 -4.5651 -11.8619 -10.2002 42.1899
#
#
#
# Elastic Compliance Matrix: (Units=1/GPa)
#
#
# Indices 1 2 3 4 5 6 
#
# 1 0.016899 -0.002655 -0.001365 0.002957 0.000378 -0.000811
# 2 -0.002655 0.008002 -0.002902 0.004422 0.002778 0.004610
# 3 -0.001365 -0.002902 0.017018 -0.001025 0.003810 0.001469
# 4 0.002957 0.004422 -0.001025 0.026169 0.002870 0.009441
# 5 0.000378 0.002778 0.003810 0.002870 0.027377 0.008835
# 6 -0.000811 0.004610 0.001469 0.009441 0.008835 0.030359
#
#
# Mechanical properties :
#
#
# Convention : Reuss Voigt Hill
#
# Bulk Modulus (GPa) = 35.61691 53.54085 44.57888
# Shear Modulus (GPa) = 33.55123 42.09327 37.82225
#
# Velocity S-wave (km/s) = 3.68366 4.12602 3.91110
# Velocity P-wave (km/s) = 5.70064 6.65978 6.19879
#
# Compressibility (1/GPa) = 0.02807655
#
# Stress axis : x y z
#
# Youngs Moduli (GPa) = 59.17591 124.96187 58.76088
#
# Poissons Ratio (x) = 0.33172 0.08018
# Poissons Ratio (y) = 0.15709 0.17054
# Poissons Ratio (z) = 0.08075 0.36268
#
# Static dielectric constant tensor:
#      x y z
#    x 4.303820 0.278000 -0.101910 
#    y 0.278000 5.232860 0.074530 
#    z -0.101910 0.074530 4.137730 
# 
# 
# High freq. dielectric constant tensor:
#      x y z
#    x 1.978500 0.010530 -0.013670 
#    y 0.010530 2.020260 -0.002540 
#    z -0.013670 -0.002540 1.954490 
# 
# From -- ./inp_files/495002.got.cif
#   From: 2010.06.25/outbox.cif.g09.slc.cpg/sg2_248_cif.got.tgz:495002.got - 2010.06.27 13:26:56.
