data_PCOD8018502
_publ_section_title
;
Structure prediction by ZEFSAII (Michael W. Deem and Ramdas Pophale) SiO2 
 PCOD8018502
Probable space group: P -1
;
_chemical_formula_sum "Si O2"
_cell_formula_units_Z 16
_cell_length_a 12.131548
_cell_length_b 9.105244
_cell_length_c 18.179397
_cell_angle_alpha 103.038030
_cell_angle_beta 38.552493
_cell_angle_gamma 131.743547
_cell_volume 721.703331
_symmetry_space_group_name_H-M "P -1"
_symmetry_group_IT_number 2
_symmetry_cell_setting 'triclinic'
loop_
_space_group_symop_operation_xyz
x,y,z
-x,-y,-z
loop_
_atom_site_type_symbol
_atom_site_label
_atom_site_fract_x
_atom_site_fract_y
_atom_site_fract_z
Si Si1 0.173133 0.684184 0.362737
Si Si2 0.965289 0.060208 0.241035
Si Si3 0.988759 0.566301 0.091750
Si Si4 0.960004 0.549594 0.803472
Si Si5 0.719292 0.475838 0.455743
Si Si6 0.405527 0.136537 0.952687
Si Si7 0.634841 0.868137 0.667590
Si Si8 0.963585 0.003016 0.645480
O O1 0.383140 0.706454 0.212794
O O2 0.000000 0.500000 0.500000
O O3 0.900925 0.560407 0.443071
O O4 0.391260 0.968497 0.305761
O O5 0.949923 0.224428 0.246826
O O6 0.634564 0.765713 0.373019
O O7 0.100053 0.135433 0.262423
O O8 0.184391 0.126922 0.076098
O O9 0.655889 0.409021 0.248171
O O10 0.031844 0.458517 0.114084
O O11 0.000000 0.500000 0.000000
O O12 0.224965 0.858061 0.016380
O O13 0.625197 0.278496 0.923485
O O14 0.201864 0.592270 0.655166
O O15 0.824035 0.715316 0.405228
O O16 0.900929 0.005656 0.490689
O O17 0.670988 0.858558 0.736254
#
# Coordination Sequence:
#
# PCOD8018502 Si02
#       8
#     2   2   2   2   2   2   2   2
#     4  10  23  42  69  95 139 181 222 276 347 408
#     4  12  24  41  71 100 140 173 233 286 340 394
#     4  12  24  42  72  96 133 176 237 275 333 412
#     4  11  26  43  67 101 137 181 231 276 347 407
#     4  10  22  42  67  99 132 185 232 269 332 413
#     4  11  25  46  67 101 138 183 221 286 343 402
#     4  10  22  41  66 101 132 179 231 271 339 406
#     4  10  22  40  67 100 136 180 224 281 337 405
#
# _framework density 22.169774
#
# number of rings (size 3 to 8) (size 9 to 14) (size 15 to 20)
#    0.000    1.250    1.250    3.750    7.000    0.000 
#    0.000    2.500    0.000    0.000    0.000    0.000 
#    0.000    0.000    0.000    0.000    0.000    0.000 
#
# Total GULP energy -198291.258060 kJ/mol
# GULP energy per Si atom -12393.203629 kJ/mol
# Density = 2.211932 g / cm^3
# Si number density = 22.169774 Si / 1000 Ang^3
#
#
#
# Elastic Constant Matrix: (Units=GPa)
#
#
# Indices 1 2 3 4 5 6 
#
# 1 103.7864 53.0544 50.7302 -8.1356 24.0737 6.4433
# 2 53.0544 100.6342 32.4760 2.5860 4.6767 -0.0929
# 3 50.7302 32.4760 113.6614 8.2459 -4.0677 3.9753
# 4 -8.1356 2.5860 8.2459 46.4407 6.0102 -9.6780
# 5 24.0737 4.6767 -4.0677 6.0102 39.3287 -5.1244
# 6 6.4433 -0.0929 3.9753 -9.6780 -5.1244 17.4911
#
#
#
# Elastic Compliance Matrix: (Units=1/GPa)
#
#
# Indices 1 2 3 4 5 6 
#
# 1 0.022944 -0.008789 -0.008500 0.006481 -0.015863 -0.007628
# 2 -0.008789 0.014423 0.000003 -0.002212 0.004445 0.003392
# 3 -0.008500 0.000003 0.013219 -0.004867 0.007257 -0.000440
# 4 0.006481 -0.002212 -0.004867 0.026961 -0.006813 0.011628
# 5 -0.015863 0.004445 0.007257 -0.006813 0.037905 0.011554
# 6 -0.007628 0.003392 -0.000440 0.011628 0.011554 0.069919
#
#
# Mechanical properties :
#
#
# Convention : Reuss Voigt Hill
#
# Bulk Modulus (GPa) = 62.44999 65.62258 64.03628
# Shear Modulus (GPa) = 22.19423 32.77353 27.48388
#
# Velocity S-wave (km/s) = 3.16745 3.84904 3.52476
# Velocity P-wave (km/s) = 6.45036 7.02977 6.74629
#
# Compressibility (1/GPa) = 0.01601281
#
# Stress axis : x y z
#
# Youngs Moduli (GPa) = 43.58377 69.33231 75.64609
#
# Poissons Ratio (x) = 0.60939 0.64302
# Poissons Ratio (y) = 0.38308 -0.00021
# Poissons Ratio (z) = 0.37048 -0.00019
#
# Static dielectric constant tensor:
#      x y z
#    x 2.814030 -0.641790 0.850230 
#    y -0.641790 3.797420 0.662590 
#    z 0.850230 0.662590 3.329120 
# 
# 
# High freq. dielectric constant tensor:
#      x y z
#    x 1.869680 0.011910 -0.007850 
#    y 0.011910 1.875490 0.005110 
#    z -0.007850 0.005110 1.879850 
# 
# From -- ./inp_files/283013.got.cif
#   From: 2010.06.25/outbox.cif.g09.slc.cpg/sg2_142_cif.got.tgz:283013.got - 2010.06.27 13:26:56.
