data_PCOD8018853
_publ_section_title
;
Structure prediction by ZEFSAII (Michael W. Deem and Ramdas Pophale) SiO2 
 PCOD8018853
Probable space group: P -1
;
_chemical_formula_sum "Si O2"
_cell_formula_units_Z 14
_cell_length_a 20.647682
_cell_length_b 8.947806
_cell_length_c 17.901007
_cell_angle_alpha 137.371788
_cell_angle_beta 159.904943
_cell_angle_gamma 38.042391
_cell_volume 700.120385
_symmetry_space_group_name_H-M "P -1"
_symmetry_group_IT_number 2
_symmetry_cell_setting 'triclinic'
loop_
_space_group_symop_operation_xyz
x,y,z
-x,-y,-z
loop_
_atom_site_type_symbol
_atom_site_label
_atom_site_fract_x
_atom_site_fract_y
_atom_site_fract_z
Si Si1 0.099180 0.455691 0.900948
Si Si2 0.642761 0.718644 0.538842
Si Si3 0.008405 0.739623 0.435290
Si Si4 0.563294 0.999926 0.855447
Si Si5 0.627541 0.789887 0.118753
Si Si6 0.460412 0.410585 0.780542
Si Si7 0.508815 0.552178 0.614994
O O1 0.074701 0.394964 0.765898
O O2 0.886027 0.656408 0.776144
O O3 0.266303 0.567555 0.142640
O O4 0.193105 0.186798 0.942127
O O5 0.577081 0.631585 0.360601
O O6 0.633679 0.553483 0.536618
O O7 0.500000 0.000000 0.500000
O O8 0.865374 0.760944 0.361037
O O9 0.246565 0.574688 0.651501
O O10 0.000000 0.000000 0.500000
O O11 0.469997 0.155153 0.884936
O O12 0.560357 0.159609 0.840171
O O13 0.425507 0.844709 0.637151
O O14 0.617396 0.538266 0.993694
O O15 0.500000 0.000000 0.000000
O O16 0.500000 0.500000 0.500000
#
# Coordination Sequence:
#
# PCOD8018853 Si02
#       7
#     2   2   2   2   2   2   2
#     4   9  22  40  62  90 123 161 207 247 317 361
#     4  11  23  41  67  90 120 165 210 254 313 371
#     4  11  21  36  64  92 124 166 205 252 307 376
#     4  10  22  41  60  91 128 161 205 260 302 366
#     4  12  20  38  64  90 124 169 205 248 315 363
#     4  11  23  40  59  92 128 157 212 259 303 369
#     4  10  22  43  63  88 124 160 208 261 308 363
#
# _framework density 19.996561
#
# number of rings (size 3 to 8) (size 9 to 14) (size 15 to 20)
#    0.857    0.571    2.857    3.000    2.000    1.714 
#    2.571    0.000    0.000    0.000    0.000    0.000 
#    0.000    0.000    0.000    0.000    0.000    0.000 
#
# Total GULP energy -173445.120579 kJ/mol
# GULP energy per Si atom -12388.937184 kJ/mol
# Density = 1.995105 g / cm^3
# Si number density = 19.996561 Si / 1000 Ang^3
#
#
#
# Elastic Constant Matrix: (Units=GPa)
#
#
# Indices 1 2 3 4 5 6 
#
# 1 83.1856 18.2502 11.7020 1.7232 1.2945 2.3853
# 2 18.2502 96.9162 8.6266 -0.4021 15.9255 0.6088
# 3 11.7020 8.6266 65.7875 8.2032 7.5733 -11.8012
# 4 1.7232 -0.4021 8.2032 34.4032 -2.4527 5.7536
# 5 1.2945 15.9255 7.5733 -2.4527 32.9453 -1.1799
# 6 2.3853 0.6088 -11.8012 5.7536 -1.1799 39.6161
#
#
#
# Elastic Compliance Matrix: (Units=1/GPa)
#
#
# Indices 1 2 3 4 5 6 
#
# 1 0.012905 -0.002398 -0.002405 0.000226 0.001170 -0.001454
# 2 -0.002398 0.011718 -0.000557 0.000064 -0.005450 -0.000373
# 3 -0.002405 -0.000557 0.017947 -0.005480 -0.003948 0.006178
# 4 0.000226 0.000064 -0.005480 0.031629 0.003355 -0.006141
# 5 0.001170 -0.005450 -0.003948 0.003355 0.034077 -0.000635
# 6 -0.001454 -0.000373 0.006178 -0.006141 -0.000635 0.028049
#
#
# Mechanical properties :
#
#
# Convention : Reuss Voigt Hill
#
# Bulk Modulus (GPa) = 31.39796 35.89411 33.64603
# Shear Modulus (GPa) = 31.71358 35.21363 33.46361
#
# Velocity S-wave (km/s) = 3.98672 4.20096 4.09524
# Velocity P-wave (km/s) = 6.07682 6.44359 6.26289
#
# Compressibility (1/GPa) = 0.03184921
#
# Stress axis : x y z
#
# Youngs Moduli (GPa) = 77.49216 85.34133 55.71852
#
# Poissons Ratio (x) = 0.20466 0.13398
# Poissons Ratio (y) = 0.18584 0.03106
# Poissons Ratio (z) = 0.18634 0.04757
#
# Static dielectric constant tensor:
#      x y z
#    x 3.598980 -0.190440 0.092480 
#    y -0.190440 3.634580 0.035360 
#    z 0.092480 0.035360 3.770300 
# 
# 
# High freq. dielectric constant tensor:
#      x y z
#    x 1.775400 -0.004210 -0.000860 
#    y -0.004210 1.775910 0.008840 
#    z -0.000860 0.008840 1.777070 
# 
# From -- ./inp_files/447138.got.cif
#   From: 2010.06.25/outbox.cif.g09.slc.cpg/sg2_224_cif.got.tgz:447138.got - 2010.06.27 13:26:56.
