data_PCOD8018713
_publ_section_title
;
Structure prediction by ZEFSAII (Michael W. Deem and Ramdas Pophale) SiO2 
 PCOD8018713
Probable space group: P -1
;
_chemical_formula_sum "Si O2"
_cell_formula_units_Z 12
_cell_length_a 9.795495
_cell_length_b 12.387752
_cell_length_c 15.697492
_cell_angle_alpha 24.561177
_cell_angle_beta 44.000755
_cell_angle_gamma 36.607699
_cell_volume 471.704781
_symmetry_space_group_name_H-M "P -1"
_symmetry_group_IT_number 2
_symmetry_cell_setting 'triclinic'
loop_
_space_group_symop_operation_xyz
x,y,z
-x,-y,-z
loop_
_atom_site_type_symbol
_atom_site_label
_atom_site_fract_x
_atom_site_fract_y
_atom_site_fract_z
Si Si1 0.092439 0.324526 0.302315
Si Si2 0.423606 0.315449 0.725437
Si Si3 0.336914 0.614588 0.285541
Si Si4 0.464301 0.015144 0.758455
Si Si5 0.359003 0.838151 0.658716
Si Si6 0.847021 0.144207 0.085657
O O1 0.835402 0.461876 0.284920
O O2 0.270046 0.185021 0.244342
O O3 0.141528 0.069119 0.533347
O O4 0.110714 0.588809 0.152825
O O5 0.500000 0.500000 0.500000
O O6 0.582449 0.199231 0.822652
O O7 0.446381 0.045320 0.848340
O O8 0.349764 0.341073 0.530352
O O9 0.496845 0.477940 0.229032
O O10 0.080086 0.826310 0.217259
O O11 0.316046 0.867819 0.903511
O O12 0.279973 0.756792 0.838203
O O13 0.500000 0.000000 0.500000
#
# Coordination Sequence:
#
# PCOD8018713 Si02
#       6
#     2   2   2   2   2   2
#     4  11  25  42  68 101 132 175 220 272 333 387
#     4  10  23  43  66  95 135 178 220 266 329 397
#     4  10  23  41  66  96 134 177 220 267 330 391
#     4  10  22  40  69  98 133 172 222 271 332 388
#     4  11  23  41  68  98 133 169 218 271 331 385
#     4  12  24  42  70 102 133 169 223 277 327 390
#
# _framework density 25.439640000000001
#
# number of rings (size 3 to 8) (size 9 to 14) (size 15 to 20)
#    0.000    1.333    3.333    3.000    2.333   10.000 
#    0.000    1.667    0.000    0.000    0.000    0.000 
#    0.000    0.000    0.000    0.000    0.000    0.000 
#
# Total GULP energy -148859.958715 kJ/mol
# GULP energy per Si atom -12404.996560 kJ/mol
# Density = 2.538174 g / cm^3
# Si number density = 25.439640 Si / 1000 Ang^3
#
#
#
# Elastic Constant Matrix: (Units=GPa)
#
#
# Indices 1 2 3 4 5 6 
#
# 1 134.2878 80.8310 21.4414 11.1481 1.3075 10.0133
# 2 80.8310 155.5058 32.3421 -9.7426 4.0680 0.7232
# 3 21.4414 32.3421 42.5333 -6.5639 3.3307 3.4073
# 4 11.1481 -9.7426 -6.5639 28.1464 2.7705 -0.4460
# 5 1.3075 4.0680 3.3307 2.7705 31.4915 1.2712
# 6 10.0133 0.7232 3.4073 -0.4460 1.2712 52.2303
#
#
#
# Elastic Compliance Matrix: (Units=1/GPa)
#
#
# Indices 1 2 3 4 5 6 
#
# 1 0.012626 -0.006564 -0.002542 -0.008039 0.001391 -0.002266
# 2 -0.006564 0.011113 -0.004297 0.005591 -0.001260 0.001463
# 3 -0.002542 -0.004297 0.029420 0.006655 -0.002986 -0.001243
# 4 -0.008039 0.005591 0.006655 0.042707 -0.004911 0.001514
# 5 0.001391 -0.001260 -0.002986 -0.004911 0.032643 -0.000891
# 6 -0.002266 0.001463 -0.001243 0.001514 -0.000891 0.019676
#
#
# Mechanical properties :
#
#
# Convention : Reuss Voigt Hill
#
# Bulk Modulus (GPa) = 37.94496 66.83956 52.39226
# Shear Modulus (GPa) = 27.20723 35.55448 31.38086
#
# Velocity S-wave (km/s) = 3.27384 3.74251 3.51599
# Velocity P-wave (km/s) = 5.40729 6.70865 6.09281
#
# Compressibility (1/GPa) = 0.02635396
#
# Stress axis : x y z
#
# Youngs Moduli (GPa) = 79.19969 89.98781 33.99056
#
# Poissons Ratio (x) = 0.59067 0.08640
# Poissons Ratio (y) = 0.51986 0.14605
# Poissons Ratio (z) = 0.20131 0.38666
#
# Static dielectric constant tensor:
#      x y z
#    x 5.006060 0.332340 -0.083320 
#    y 0.332340 4.889760 -0.017270 
#    z -0.083320 -0.017270 4.647260 
# 
# 
# High freq. dielectric constant tensor:
#      x y z
#    x 2.014630 0.005900 -0.000600 
#    y 0.005900 2.024280 -0.004720 
#    z -0.000600 -0.004720 2.026880 
# 
# From -- ./inp_files/191087.got.cif
#   From: 2010.06.25/outbox.cif.g09.slc.cpg/sg2_96_cif.got.tgz:191087.got - 2010.06.27 13:26:56.
