data_PCOD8018944
_publ_section_title
;
Structure prediction by ZEFSAII (Michael W. Deem and Ramdas Pophale) SiO2 
 PCOD8018944
Probable space group: P -1
;
_chemical_formula_sum "Si O2"
_cell_formula_units_Z 16
_cell_length_a 16.158208
_cell_length_b 12.641635
_cell_length_c 21.774459
_cell_angle_alpha 153.019904
_cell_angle_beta 156.223524
_cell_angle_gamma 28.082250
_cell_volume 757.446097
_symmetry_space_group_name_H-M "P -1"
_symmetry_group_IT_number 2
_symmetry_cell_setting 'triclinic'
loop_
_space_group_symop_operation_xyz
x,y,z
-x,-y,-z
loop_
_atom_site_type_symbol
_atom_site_label
_atom_site_fract_x
_atom_site_fract_y
_atom_site_fract_z
Si Si1 0.316511 0.510802 0.689454
Si Si2 0.201779 0.776810 0.158154
Si Si3 0.124542 0.261889 0.644793
Si Si4 0.216811 0.567869 0.188021
Si Si5 0.288811 0.720476 0.448493
Si Si6 0.678626 0.197760 0.274593
Si Si7 0.954092 0.330861 0.295580
Si Si8 0.124274 0.326250 0.814614
O O1 0.559040 0.295631 0.748892
O O2 0.328925 0.725042 0.762156
O O3 0.160692 0.371038 0.487850
O O4 0.232108 0.644153 0.766503
O O5 0.222356 0.756436 0.235337
O O6 0.042319 0.060098 0.182240
O O7 0.092304 0.587131 0.960228
O O8 0.202403 0.319571 0.794121
O O9 0.874612 0.263133 0.474290
O O10 0.153390 0.466758 0.725068
O O11 0.303224 0.993259 0.606642
O O12 0.208981 0.707438 0.318560
O O13 0.445627 0.331999 0.219240
O O14 0.000000 0.500000 0.000000
O O15 0.500000 0.500000 0.500000
O O16 0.109047 0.701879 0.364126
O O17 0.717182 0.903710 0.155034
#
# Coordination Sequence:
#
# PCOD8018944 Si02
#       8
#     2   2   2   2   2   2   2   2
#     4   9  21  40  63  89 122 165 207 261 320 373
#     4  11  24  38  61  95 131 161 207 268 320 370
#     4  10  22  42  63  87 122 175 215 252 312 384
#     4  11  22  37  61 101 130 157 207 267 326 378
#     4  11  22  41  65  95 124 166 211 261 319 387
#     4   9  20  39  63  90 125 162 202 266 319 372
#     4  10  22  41  63  88 123 170 215 259 305 381
#     4  11  22  40  61  91 127 166 209 258 325 380
#
# _framework density 21.123614
#
# number of rings (size 3 to 8) (size 9 to 14) (size 15 to 20)
#    0.000    1.750    1.250    3.375    7.000    3.500 
#    4.500    0.625    0.000    0.000    0.000    0.000 
#    0.000    0.000    0.000    0.000    0.000    0.000 
#
# Total GULP energy -198378.082035 kJ/mol
# GULP energy per Si atom -12398.630127 kJ/mol
# Density = 2.107554 g / cm^3
# Si number density = 21.123614 Si / 1000 Ang^3
#
#
#
# Elastic Constant Matrix: (Units=GPa)
#
#
# Indices 1 2 3 4 5 6 
#
# 1 128.3667 59.6690 33.7741 12.3291 -12.9646 0.9605
# 2 59.6690 160.0915 33.4532 29.1134 -2.3566 -0.4940
# 3 33.7741 33.4532 45.1220 23.1872 -12.1950 8.6061
# 4 12.3291 29.1134 23.1872 34.8291 -9.2297 5.2132
# 5 -12.9646 -2.3566 -12.1950 -9.2297 33.1384 -4.7084
# 6 0.9605 -0.4940 8.6061 5.2132 -4.7084 30.4420
#
#
#
# Elastic Compliance Matrix: (Units=1/GPa)
#
#
# Indices 1 2 3 4 5 6 
#
# 1 0.011218 -0.003330 -0.007772 0.004500 0.002750 0.001444
# 2 -0.003330 0.008973 -0.002224 -0.005824 -0.002902 0.001428
# 3 -0.007772 -0.002224 0.043917 -0.021968 0.005771 -0.007552
# 4 0.004500 -0.005824 -0.021968 0.048558 0.006599 -0.001321
# 5 0.002750 -0.002902 0.005771 0.006599 0.035374 0.002576
# 6 0.001444 0.001428 -0.007552 -0.001321 0.002576 0.035587
#
#
# Mechanical properties :
#
#
# Convention : Reuss Voigt Hill
#
# Bulk Modulus (GPa) = 26.69791 65.26362 45.98077
# Shear Modulus (GPa) = 22.44524 33.46081 27.95303
#
# Velocity S-wave (km/s) = 3.26324 3.98433 3.64168
# Velocity P-wave (km/s) = 5.18311 7.22008 6.28467
#
# Compressibility (1/GPa) = 0.03745611
#
# Stress axis : x y z
#
# Youngs Moduli (GPa) = 89.14343 111.44245 22.77022
#
# Poissons Ratio (x) = 0.37115 0.17697
# Poissons Ratio (y) = 0.29688 0.05064
# Poissons Ratio (z) = 0.69281 0.24782
#
# Static dielectric constant tensor:
#      x y z
#    x 4.086170 -0.142000 0.017090 
#    y -0.142000 4.018920 0.010670 
#    z 0.017090 0.010670 3.515680 
# 
# 
# High freq. dielectric constant tensor:
#      x y z
#    x 1.834510 -0.006050 -0.002660 
#    y -0.006050 1.831820 0.002740 
#    z -0.002660 0.002740 1.806720 
# 
# From -- ./inp_files/541122.got.cif
#   From: 2010.06.25/outbox.cif.g09.slc.cpg/sg2_271_cif.got.tgz:541122.got - 2010.06.27 13:26:56.
