data_PCOD8018487
_publ_section_title
;
Structure prediction by ZEFSAII (Michael W. Deem and Ramdas Pophale) SiO2 
 PCOD8018487
Probable space group: P -1
;
_chemical_formula_sum "Si O2"
_cell_formula_units_Z 16
_cell_length_a 9.814727
_cell_length_b 8.368935
_cell_length_c 11.208488
_cell_angle_alpha 65.269067
_cell_angle_beta 76.798179
_cell_angle_gamma 62.108116
_cell_volume 738.458434
_symmetry_space_group_name_H-M "P -1"
_symmetry_group_IT_number 2
_symmetry_cell_setting 'triclinic'
loop_
_space_group_symop_operation_xyz
x,y,z
-x,-y,-z
loop_
_atom_site_type_symbol
_atom_site_label
_atom_site_fract_x
_atom_site_fract_y
_atom_site_fract_z
Si Si1 0.193658 0.861336 0.375012
Si Si2 0.157056 0.505406 0.430162
Si Si3 0.869569 0.178306 0.037103
Si Si4 0.998880 0.732909 0.775864
Si Si5 0.753657 0.588192 0.819352
Si Si6 0.523229 0.199126 0.809301
Si Si7 0.280835 0.536288 0.626325
Si Si8 0.566113 0.141978 0.090904
O O1 0.128199 0.731197 0.351966
O O2 0.314616 0.904932 0.256445
O O3 0.269193 0.748135 0.519402
O O4 0.059086 0.074927 0.356879
O O5 0.226754 0.385462 0.334038
O O6 0.274778 0.416139 0.546355
O O7 0.000000 0.500000 0.500000
O O8 0.726557 0.127587 0.117819
O O9 0.944420 0.224842 0.123174
O O10 0.803050 0.364072 0.906911
O O11 0.000000 0.000000 0.000000
O O12 0.863488 0.662974 0.847339
O O13 0.137790 0.564544 0.731782
O O14 0.575679 0.712616 0.848025
O O15 0.437319 0.415146 0.703704
O O16 0.425078 0.074434 0.845772
O O17 0.545778 0.225932 0.935163
#
# Coordination Sequence:
#
# PCOD8018487 Si02
#       8
#     2   2   2   2   2   2   2   2
#     4  10  22  43  66  98 136 179 217 280 340 400
#     4  10  22  40  66  98 135 177 220 280 338 390
#     4  12  28  43  69 106 136 178 224 287 339 406
#     4  12  23  43  70 102 133 177 230 276 336 409
#     4  12  23  45  69  98 140 181 223 277 345 400
#     4  11  22  45  67 101 128 184 226 276 344 401
#     4  10  24  39  73  95 133 174 227 277 330 403
#     4  11  26  43  71  96 143 173 229 284 339 401
#
# _framework density 21.666758999999999
#
# number of rings (size 3 to 8) (size 9 to 14) (size 15 to 20)
#    0.750    0.250    2.500    4.500    3.500    2.000 
#    0.000    0.625    0.000    0.000    0.000    0.000 
#    0.000    0.000    0.000    0.000    0.000    0.000 
#
# Total GULP energy -198373.317263 kJ/mol
# GULP energy per Si atom -12398.332329 kJ/mol
# Density = 2.161744 g / cm^3
# Si number density = 21.666759 Si / 1000 Ang^3
#
#
#
# Elastic Constant Matrix: (Units=GPa)
#
#
# Indices 1 2 3 4 5 6 
#
# 1 115.1133 35.8211 23.5657 12.8912 -17.8988 9.4954
# 2 35.8211 98.5061 27.8537 10.8286 2.2144 -12.2107
# 3 23.5657 27.8537 88.2450 11.8658 0.9743 -3.2697
# 4 12.8912 10.8286 11.8658 35.5839 -0.9706 -3.2781
# 5 -17.8988 2.2144 0.9743 -0.9706 36.0925 1.7238
# 6 9.4954 -12.2107 -3.2697 -3.2781 1.7238 34.5302
#
#
#
# Elastic Compliance Matrix: (Units=1/GPa)
#
#
# Indices 1 2 3 4 5 6 
#
# 1 0.012268 -0.004513 -0.001756 -0.002834 0.006606 -0.005735
# 2 -0.004513 0.013458 -0.002638 -0.001136 -0.003300 0.005807
# 3 -0.001756 -0.002638 0.013057 -0.002894 -0.001167 0.000570
# 4 -0.002834 -0.001136 -0.002894 0.030705 -0.000577 0.003047
# 5 0.006606 -0.003300 -0.001167 -0.000577 0.031426 -0.004718
# 6 -0.005735 0.005807 0.000570 0.003047 -0.004718 0.033169
#
#
# Mechanical properties :
#
#
# Convention : Reuss Voigt Hill
#
# Bulk Modulus (GPa) = 47.69047 52.92726 50.30886
# Shear Modulus (GPa) = 31.46881 35.54956 33.50918
#
# Velocity S-wave (km/s) = 3.81517 4.05500 3.93691
# Velocity P-wave (km/s) = 6.43941 6.81212 6.62839
#
# Compressibility (1/GPa) = 0.02096855
#
# Stress axis : x y z
#
# Youngs Moduli (GPa) = 81.51026 74.30796 76.58707
#
# Poissons Ratio (x) = 0.33532 0.13451
# Poissons Ratio (y) = 0.36782 0.20206
# Poissons Ratio (z) = 0.14316 0.19605
#
# Static dielectric constant tensor:
#      x y z
#    x 3.881920 0.008110 -0.086220 
#    y 0.008110 3.889550 0.010510 
#    z -0.086220 0.010510 3.940730 
# 
# 
# High freq. dielectric constant tensor:
#      x y z
#    x 1.850330 -0.001270 -0.011160 
#    y -0.001270 1.845570 0.004290 
#    z -0.011160 0.004290 1.854990 
# 
# From -- ./inp_files/381305.got.cif
#   From: 2010.06.25/outbox.cif.g09.slc.cpg/sg2_191_cif.got.tgz:381305.got - 2010.06.27 13:26:56.
