data_PCOD8018994
_publ_section_title
;
Structure prediction by ZEFSAII (Michael W. Deem and Ramdas Pophale) SiO2 
 PCOD8018994
Probable space group: P -1
;
_chemical_formula_sum "Si O2"
_cell_formula_units_Z 14
_cell_length_a 22.465699
_cell_length_b 5.151327
_cell_length_c 9.577528
_cell_angle_alpha 106.414729
_cell_angle_beta 38.687669
_cell_angle_gamma 88.445200
_cell_volume 605.221602
_symmetry_space_group_name_H-M "P -1"
_symmetry_group_IT_number 2
_symmetry_cell_setting 'triclinic'
loop_
_space_group_symop_operation_xyz
x,y,z
-x,-y,-z
loop_
_atom_site_type_symbol
_atom_site_label
_atom_site_fract_x
_atom_site_fract_y
_atom_site_fract_z
Si Si1 0.837907 0.497254 0.438212
Si Si2 0.290509 0.871213 0.343099
Si Si3 0.328713 0.183278 0.572830
Si Si4 0.408808 0.894805 0.643768
Si Si5 0.868490 0.279921 0.048968
Si Si6 0.022916 0.399780 0.284239
Si Si7 0.470464 0.740982 0.794494
O O1 0.786887 0.850505 0.563056
O O2 0.918363 0.413194 0.404867
O O3 0.746952 0.393397 0.631014
O O4 0.896112 0.328163 0.165256
O O5 0.292126 0.972182 0.514748
O O6 0.408105 0.745124 0.048976
O O7 0.451478 0.096217 0.300162
O O8 0.315500 0.124647 0.753456
O O9 0.254427 0.525849 0.727467
O O10 0.381925 0.876799 0.853698
O O11 0.448351 0.582686 0.447044
O O12 0.500000 0.000000 0.500000
O O13 0.937458 0.382043 0.835231
O O14 0.890750 0.938490 0.930966
O O15 0.000000 0.500000 0.500000
#
# Coordination Sequence:
#
# PCOD8018994 Si02
#       7
#     2   2   2   2   2   2   2
#     4  11  25  47  68 102 134 178 225 271 343 404
#     4  11  25  41  69 100 135 174 226 278 324 382
#     4  10  23  40  66  99 128 177 230 266 327 402
#     4   9  21  40  59  89 134 176 232 256 335 389
#     4  11  24  45  74  97 136 177 220 275 341 403
#     4  12  26  48  71 105 131 171 223 284 341 400
#     4  10  22  41  63  94 139 180 221 273 324 389
#
# _framework density 23.132023
#
# number of rings (size 3 to 8) (size 9 to 14) (size 15 to 20)
#    0.000    1.429    0.000    4.286   10.000    1.714 
#   10.286    0.000    0.000    0.000    0.000    0.000 
#    0.000    0.000    0.000    0.000    0.000    0.000 
#
# Total GULP energy -173575.497009 kJ/mol
# GULP energy per Si atom -12398.249786 kJ/mol
# Density = 2.307937 g / cm^3
# Si number density = 23.132023 Si / 1000 Ang^3
#
#
#
# Elastic Constant Matrix: (Units=GPa)
#
#
# Indices 1 2 3 4 5 6 
#
# 1 159.6105 26.0250 38.5108 2.7271 4.2818 -24.8892
# 2 26.0250 68.6986 -6.0614 -12.5182 4.3267 -8.3664
# 3 38.5108 -6.0614 72.6331 -16.3312 8.6415 -1.4059
# 4 2.7271 -12.5182 -16.3312 29.2788 4.6122 -1.7684
# 5 4.2818 4.3267 8.6415 4.6122 27.3704 -0.5963
# 6 -24.8892 -8.3664 -1.4059 -1.7684 -0.5963 28.5289
#
#
#
# Elastic Compliance Matrix: (Units=1/GPa)
#
#
# Indices 1 2 3 4 5 6 
#
# 1 0.010037 -0.005284 -0.007720 -0.007604 0.003124 0.006420
# 2 -0.005284 0.021170 0.009212 0.016130 -0.008084 0.002884
# 3 -0.007720 0.009212 0.024437 0.019969 -0.011369 -0.001829
# 4 -0.007604 0.016130 0.019969 0.055707 -0.017005 0.002178
# 5 0.003124 -0.008084 -0.011369 -0.017005 0.043772 -0.000345
# 6 0.006420 0.002884 -0.001829 0.002178 -0.000345 0.041537
#
#
# Mechanical properties :
#
#
# Convention : Reuss Voigt Hill
#
# Bulk Modulus (GPa) = 20.80654 46.43234 33.61944
# Shear Modulus (GPa) = 22.70026 33.20016 27.95021
#
# Velocity S-wave (km/s) = 3.13602 3.79257 3.47982
# Velocity P-wave (km/s) = 4.70394 6.26853 5.54173
#
# Compressibility (1/GPa) = 0.04806181
#
# Stress axis : x y z
#
# Youngs Moduli (GPa) = 99.63513 47.23622 40.92215
#
# Poissons Ratio (x) = 0.24958 0.31590
# Poissons Ratio (y) = 0.52644 -0.37699
# Poissons Ratio (z) = 0.76914 -0.43516
#
# Static dielectric constant tensor:
#      x y z
#    x 4.662090 -0.391700 0.232990 
#    y -0.391700 4.223910 -0.006140 
#    z 0.232990 -0.006140 3.881260 
# 
# 
# High freq. dielectric constant tensor:
#      x y z
#    x 1.925810 -0.006500 0.004680 
#    y -0.006500 1.927000 -0.006810 
#    z 0.004680 -0.006810 1.888660 
# 
# From -- ./inp_files/81228.got.cif
#   From: 2010.06.25/outbox.cif.g09.slc.cpg/sg2_41_cif.got.tgz:81228.got - 2010.06.27 13:26:56.
