data_PCOD8018614
_publ_section_title
;
Structure prediction by ZEFSAII (Michael W. Deem and Ramdas Pophale) SiO2 
 PCOD8018614
Probable space group: P -1
;
_chemical_formula_sum "Si O2"
_cell_formula_units_Z 16
_cell_length_a 8.934461
_cell_length_b 11.595105
_cell_length_c 11.720038
_cell_angle_alpha 130.109997
_cell_angle_beta 125.567087
_cell_angle_gamma 57.016565
_cell_volume 726.718330
_symmetry_space_group_name_H-M "P -1"
_symmetry_group_IT_number 2
_symmetry_cell_setting 'triclinic'
loop_
_space_group_symop_operation_xyz
x,y,z
-x,-y,-z
loop_
_atom_site_type_symbol
_atom_site_label
_atom_site_fract_x
_atom_site_fract_y
_atom_site_fract_z
Si Si1 0.803312 0.697775 0.429723
Si Si2 0.314991 0.724220 0.700596
Si Si3 0.115716 0.336028 0.899418
Si Si4 0.035819 0.835385 0.465997
Si Si5 0.791228 0.086294 0.011334
Si Si6 0.530892 0.668419 0.103635
Si Si7 0.180219 0.430190 0.414471
Si Si8 0.704786 0.790713 0.883091
O O1 0.888556 0.833860 0.503549
O O2 0.604802 0.711838 0.286190
O O3 0.774444 0.710584 0.561555
O O4 0.958461 0.528714 0.371921
O O5 0.182508 0.807524 0.801100
O O6 0.316708 0.541430 0.580243
O O7 0.512791 0.764130 0.833512
O O8 0.243978 0.792691 0.587722
O O9 0.978788 0.286313 0.715941
O O10 0.312744 0.342126 0.932008
O O11 0.157777 0.218851 0.952147
O O12 0.000000 0.500000 0.000000
O O13 0.000000 0.000000 0.500000
O O14 0.663910 0.199938 0.931585
O O15 0.682748 0.956902 0.918620
O O16 0.000000 0.000000 0.000000
O O17 0.500000 0.500000 0.000000
O O18 0.220849 0.353592 0.260959
#
# Coordination Sequence:
#
# PCOD8018614 Si02
#       8
#     2   2   2   2   2   2   2   2
#     4   9  21  39  68  95 138 177 232 284 346 418
#     4  11  23  45  69  98 138 187 231 289 347 427
#     4  11  24  44  72 106 137 181 234 293 349 422
#     4  10  22  40  68  93 140 182 222 279 361 409
#     4  12  29  44  71 103 144 192 238 296 359 413
#     4  11  24  45  69 100 140 187 234 291 350 423
#     4  10  22  42  72 102 137 184 235 283 361 425
#     4  12  25  43  72 105 142 178 240 294 353 418
#
# _framework density 22.016783
#
# number of rings (size 3 to 8) (size 9 to 14) (size 15 to 20)
#    0.000    1.250    1.250    4.500   12.250    0.000 
#    0.000    0.625    0.000    0.000    0.000    0.000 
#    0.000    0.000    0.000    0.000    0.000    0.000 
#
# Total GULP energy -198325.421072 kJ/mol
# GULP energy per Si atom -12395.338817 kJ/mol
# Density = 2.196667 g / cm^3
# Si number density = 22.016783 Si / 1000 Ang^3
#
#
#
# Elastic Constant Matrix: (Units=GPa)
#
#
# Indices 1 2 3 4 5 6 
#
# 1 69.2008 31.7382 22.7769 -12.6398 -18.7696 2.1315
# 2 31.7382 139.3725 36.2000 -23.7064 -0.8666 20.1912
# 3 22.7769 36.2000 101.3087 -21.6727 -10.8257 5.0008
# 4 -12.6398 -23.7064 -21.6727 42.0727 1.3071 2.7412
# 5 -18.7696 -0.8666 -10.8257 1.3071 31.9473 -0.1683
# 6 2.1315 20.1912 5.0008 2.7412 -0.1683 42.3397
#
#
#
# Elastic Compliance Matrix: (Units=1/GPa)
#
#
# Indices 1 2 3 4 5 6 
#
# 1 0.020172 -0.003800 -0.001432 0.002781 0.011154 0.000830
# 2 -0.003800 0.009820 -0.001921 0.003784 -0.002796 -0.004521
# 3 -0.001432 -0.001921 0.012262 0.004758 0.003063 -0.000756
# 4 0.002781 0.003784 0.004758 0.029408 0.002123 -0.004402
# 5 0.011154 -0.002796 0.003063 0.002123 0.038732 0.000426
# 6 0.000830 -0.004521 -0.000756 -0.004402 0.000426 0.026109
#
#
# Mechanical properties :
#
#
# Convention : Reuss Voigt Hill
#
# Bulk Modulus (GPa) = 35.77815 54.59024 45.18420
# Shear Modulus (GPa) = 31.22575 37.88306 34.55440
#
# Velocity S-wave (km/s) = 3.77008 4.15257 3.96594
# Velocity P-wave (km/s) = 5.93608 6.91667 6.44505
#
# Compressibility (1/GPa) = 0.02795002
#
# Stress axis : x y z
#
# Youngs Moduli (GPa) = 49.57268 101.82867 81.55576
#
# Poissons Ratio (x) = 0.38691 0.11676
# Poissons Ratio (y) = 0.18836 0.15666
# Poissons Ratio (z) = 0.07097 0.19560
#
# Static dielectric constant tensor:
#      x y z
#    x 3.951580 0.322040 -0.210890 
#    y 0.322040 4.209090 -0.408490 
#    z -0.210890 -0.408490 4.255820 
# 
# 
# High freq. dielectric constant tensor:
#      x y z
#    x 1.855520 0.022720 -0.002940 
#    y 0.022720 1.866920 -0.015150 
#    z -0.002940 -0.015150 1.878940 
# 
# From -- ./inp_files/393219.got.cif
#   From: 2010.06.25/outbox.cif.g09.slc.cpg/sg2_197_cif.got.tgz:393219.got - 2010.06.27 13:26:56.
