data_PCOD8018709
_publ_section_title
;
Structure prediction by ZEFSAII (Michael W. Deem and Ramdas Pophale) SiO2 
 PCOD8018709
Probable space group: P -1
;
_chemical_formula_sum "Si O2"
_cell_formula_units_Z 16
_cell_length_a 22.740373
_cell_length_b 9.141476
_cell_length_c 20.016507
_cell_angle_alpha 30.443560
_cell_angle_beta 20.461742
_cell_angle_gamma 41.695789
_cell_volume 691.887398
_symmetry_space_group_name_H-M "P -1"
_symmetry_group_IT_number 2
_symmetry_cell_setting 'triclinic'
loop_
_space_group_symop_operation_xyz
x,y,z
-x,-y,-z
loop_
_atom_site_type_symbol
_atom_site_label
_atom_site_fract_x
_atom_site_fract_y
_atom_site_fract_z
Si Si1 0.238786 0.810429 0.380825
Si Si2 0.944278 0.821266 0.491556
Si Si3 0.433571 0.124603 0.920353
Si Si4 0.936603 0.613940 0.369642
Si Si5 0.821132 0.709930 0.161392
Si Si6 0.679289 0.451967 0.810166
Si Si7 0.123900 0.462487 0.975401
Si Si8 0.548081 0.291632 0.381703
O O1 0.350316 0.740959 0.350804
O O2 0.086118 0.496527 0.640351
O O3 0.167014 0.075585 0.375016
O O4 0.355703 0.918383 0.147966
O O5 0.818923 0.558801 0.680154
O O6 0.055363 0.658770 0.480886
O O7 0.065319 0.121603 0.203688
O O8 0.363016 0.409263 0.877278
O O9 0.380598 0.916472 0.992261
O O10 0.761334 0.655581 0.575114
O O11 0.103800 0.922853 0.072384
O O12 0.623320 0.647024 0.426618
O O13 0.957312 0.591828 0.107474
O O14 0.808899 0.544327 0.168681
O O15 0.500000 0.500000 0.000000
O O16 0.297416 0.706029 0.731354
O O17 0.500000 0.000000 0.500000
#
# Coordination Sequence:
#
# PCOD8018709 Si02
#       8
#     2   2   2   2   2   2   2   2
#     4  10  22  40  69  97 141 175 218 294 348 410
#     4  12  23  43  72 103 132 178 229 288 351 411
#     4  10  23  44  64 105 138 175 236 280 346 418
#     4  11  25  41  67 102 138 178 230 287 348 409
#     4  11  27  49  71 102 145 188 239 293 350 424
#     4  11  22  41  69 102 132 180 227 288 346 415
#     4  11  26  50  73 101 143 187 237 291 359 423
#     4  12  29  47  72 103 142 196 237 287 352 429
#
# _framework density 23.125150999999999
#
# number of rings (size 3 to 8) (size 9 to 14) (size 15 to 20)
#    0.000    1.000    2.500    3.375    7.000    0.500 
#    2.250    0.000    0.000    0.000    0.000    0.000 
#    0.000    0.000    0.000    0.000    0.000    0.000 
#
# Total GULP energy -198260.727025 kJ/mol
# GULP energy per Si atom -12391.295439 kJ/mol
# Density = 2.307252 g / cm^3
# Si number density = 23.125151 Si / 1000 Ang^3
#
#
#
# Elastic Constant Matrix: (Units=GPa)
#
#
# Indices 1 2 3 4 5 6 
#
# 1 119.5372 51.7911 47.9501 -2.7825 -47.8511 12.3629
# 2 51.7911 109.1467 30.4918 -3.0217 -20.5873 9.1115
# 3 47.9501 30.4918 63.4238 -1.3630 -28.8106 -4.0691
# 4 -2.7825 -3.0217 -1.3630 43.9147 1.1711 -6.9190
# 5 -47.8511 -20.5873 -28.8106 1.1711 42.3004 -11.9998
# 6 12.3629 9.1115 -4.0691 -6.9190 -11.9998 45.1651
#
#
#
# Elastic Compliance Matrix: (Units=1/GPa)
#
#
# Indices 1 2 3 4 5 6 
#
# 1 0.018375 -0.004444 -0.004916 0.000220 0.015120 -0.000525
# 2 -0.004444 0.012028 -0.003545 0.000166 -0.002183 -0.002084
# 3 -0.004916 -0.003545 0.028319 0.001301 0.014417 0.008642
# 4 0.000220 0.000166 0.001301 0.023433 0.001721 0.004071
# 5 0.015120 -0.002183 0.014417 0.001721 0.052829 0.011901
# 6 -0.000525 -0.002084 0.008642 0.004071 0.011901 0.027269
#
#
# Mechanical properties :
#
#
# Convention : Reuss Voigt Hill
#
# Bulk Modulus (GPa) = 30.38360 61.39708 45.89034
# Shear Modulus (GPa) = 25.12137 37.06769 31.09453
#
# Velocity S-wave (km/s) = 3.29952 4.00799 3.67088
# Velocity P-wave (km/s) = 5.26147 6.93009 6.15261
#
# Compressibility (1/GPa) = 0.03291249
#
# Stress axis : x y z
#
# Youngs Moduli (GPa) = 54.42183 83.14181 35.31143
#
# Poissons Ratio (x) = 0.36947 0.17360
# Poissons Ratio (y) = 0.24184 0.12517
# Poissons Ratio (z) = 0.26755 0.29471
#
# Static dielectric constant tensor:
#      x y z
#    x 4.457780 0.005240 -0.108250 
#    y 0.005240 4.211270 0.090810 
#    z -0.108250 0.090810 4.144770 
# 
# 
# High freq. dielectric constant tensor:
#      x y z
#    x 1.918450 0.012380 -0.018590 
#    y 0.012380 1.917990 0.004130 
#    z -0.018590 0.004130 1.918020 
# 
# From -- ./inp_files/601915.got.cif
#   From: 2010.06.25/outbox.cif.g09.slc.cpg/sg2_301_cif.got.tgz:601915.got - 2010.06.27 13:26:56.
