data_PCOD8018475
_publ_section_title
;
Structure prediction by ZEFSAII (Michael W. Deem and Ramdas Pophale) SiO2 
 PCOD8018475
Probable space group: P -1
;
_chemical_formula_sum "Si O2"
_cell_formula_units_Z 16
_cell_length_a 8.897414
_cell_length_b 21.057248
_cell_length_c 13.014264
_cell_angle_alpha 38.295494
_cell_angle_beta 48.275722
_cell_angle_gamma 28.568965
_cell_volume 720.290077
_symmetry_space_group_name_H-M "P -1"
_symmetry_group_IT_number 2
_symmetry_cell_setting 'triclinic'
loop_
_space_group_symop_operation_xyz
x,y,z
-x,-y,-z
loop_
_atom_site_type_symbol
_atom_site_label
_atom_site_fract_x
_atom_site_fract_y
_atom_site_fract_z
Si Si1 0.085762 0.260396 0.419775
Si Si2 0.705958 0.938111 0.610244
Si Si3 0.188807 0.904229 0.346636
Si Si4 0.122066 0.473594 0.700861
Si Si5 0.722345 0.438323 0.880860
Si Si6 0.270998 0.097181 0.132145
Si Si7 0.451388 0.423826 0.430685
Si Si8 0.730143 0.096095 0.916356
O O1 0.336062 0.111697 0.574089
O O2 0.013778 0.406720 0.294227
O O3 0.753648 0.333127 0.478101
O O4 0.250358 0.176012 0.341063
O O5 0.846466 0.842689 0.773875
O O6 0.886071 0.971956 0.452669
O O7 0.493749 0.712070 0.465000
O O8 0.097874 0.951224 0.209212
O O9 0.310051 0.962053 0.266161
O O10 0.168932 0.529850 0.507930
O O11 0.444023 0.288921 0.821602
O O12 0.851716 0.500624 0.760821
O O13 0.579160 0.489701 0.764482
O O14 0.500000 0.500000 0.000000
O O15 0.001451 0.246647 0.991203
O O16 0.594143 0.033462 0.051224
O O17 0.000000 0.000000 0.000000
#
# Coordination Sequence:
#
# PCOD8018475 Si02
#       8
#     2   2   2   2   2   2   2   2
#     4  10  22  40  66  97 124 166 225 268 322 375
#     4  10  23  40  69  94 129 166 226 271 313 392
#     4  10  22  42  66  96 124 173 221 257 323 391
#     4  10  23  42  67  93 126 177 219 258 326 391
#     4  11  24  42  61  97 138 166 209 272 324 388
#     4  11  24  42  66  95 130 172 214 263 332 382
#     4  10  22  43  66  94 129 166 222 267 313 391
#     4  10  24  43  65  96 137 166 215 273 324 385
#
# _framework density 22.213270999999999
#
# number of rings (size 3 to 8) (size 9 to 14) (size 15 to 20)
#    0.000    1.750    0.000    3.000   10.500    1.000 
#    2.250    5.625    0.000    0.000    0.000    0.000 
#    0.000    0.000    0.000    0.000    0.000    0.000 
#
# Total GULP energy -198273.599538 kJ/mol
# GULP energy per Si atom -12392.099971 kJ/mol
# Density = 2.216271 g / cm^3
# Si number density = 22.213271 Si / 1000 Ang^3
#
#
#
# Elastic Constant Matrix: (Units=GPa)
#
#
# Indices 1 2 3 4 5 6 
#
# 1 77.5509 37.8495 35.5498 -9.9939 1.2967 -5.9702
# 2 37.8495 80.3343 31.9243 1.8145 -0.4104 -2.9570
# 3 35.5498 31.9243 116.0011 17.5287 15.7276 -7.1646
# 4 -9.9939 1.8145 17.5287 34.1349 3.7647 -12.7850
# 5 1.2967 -0.4104 15.7276 3.7647 36.1728 -2.6708
# 6 -5.9702 -2.9570 -7.1646 -12.7850 -2.6708 38.4557
#
#
#
# Elastic Compliance Matrix: (Units=1/GPa)
#
#
# Indices 1 2 3 4 5 6 
#
# 1 0.021316 -0.007732 -0.005954 0.011687 0.000931 0.005556
# 2 -0.007732 0.016992 -0.002197 -0.002614 0.001619 -0.001060
# 3 -0.005954 -0.002197 0.012836 -0.008383 -0.004654 -0.001812
# 4 0.011687 -0.002614 -0.008383 0.042486 -0.000180 0.014164
# 5 0.000931 0.001619 -0.004654 -0.000180 0.029776 0.001410
# 6 0.005556 -0.001060 -0.001812 0.014164 0.001410 0.031254
#
#
# Mechanical properties :
#
#
# Convention : Reuss Voigt Hill
#
# Bulk Modulus (GPa) = 51.60230 53.83706 52.71968
# Shear Modulus (GPa) = 25.92235 32.99020 29.45628
#
# Velocity S-wave (km/s) = 3.41981 3.85795 3.64547
# Velocity P-wave (km/s) = 6.23492 6.64335 6.44238
#
# Compressibility (1/GPa) = 0.01937898
#
# Stress axis : x y z
#
# Youngs Moduli (GPa) = 46.91365 58.85101 77.90881
#
# Poissons Ratio (x) = 0.45502 0.46385
# Poissons Ratio (y) = 0.36272 0.17115
# Poissons Ratio (z) = 0.27931 0.12928
#
# Static dielectric constant tensor:
#      x y z
#    x 3.990530 0.008490 0.012260 
#    y 0.008490 3.981320 -0.011090 
#    z 0.012260 -0.011090 4.131260 
# 
# 
# High freq. dielectric constant tensor:
#      x y z
#    x 1.876490 -0.004190 0.003090 
#    y -0.004190 1.869600 0.004690 
#    z 0.003090 0.004690 1.871880 
# 
# From -- ./inp_files/404827.got.cif
#   From: 2010.06.25/outbox.cif.g09.slc.cpg/sg2_203_cif.got.tgz:404827.got - 2010.06.27 13:26:56.
