data_PCOD8018079
_publ_section_title
;
Structure prediction by ZEFSAII (Michael W. Deem and Ramdas Pophale) SiO2 
 PCOD8018079
Probable space group: P -1
;
_chemical_formula_sum "Si O2"
_cell_formula_units_Z 16
_cell_length_a 10.551645
_cell_length_b 13.927179
_cell_length_c 12.569377
_cell_angle_alpha 131.499538
_cell_angle_beta 34.560353
_cell_angle_gamma 122.727305
_cell_volume 784.727101
_symmetry_space_group_name_H-M "P -1"
_symmetry_group_IT_number 2
_symmetry_cell_setting 'triclinic'
loop_
_space_group_symop_operation_xyz
x,y,z
-x,-y,-z
loop_
_atom_site_type_symbol
_atom_site_label
_atom_site_fract_x
_atom_site_fract_y
_atom_site_fract_z
Si Si1 0.373523 0.937329 0.287360
Si Si2 0.184937 0.667990 0.522295
Si Si3 0.005294 0.752586 0.386081
Si Si4 0.149937 0.116618 0.020118
Si Si5 0.248267 0.017785 0.210664
Si Si6 0.316878 0.287315 0.843765
Si Si7 0.889732 0.837369 0.293775
Si Si8 0.942897 0.493875 0.710352
O O1 0.255343 0.798762 0.286553
O O2 0.221617 0.980770 0.324726
O O3 0.316710 0.057860 0.492326
O O4 0.642062 0.926212 0.078108
O O5 0.434517 0.720174 0.381997
O O6 0.145016 0.584412 0.596244
O O7 0.005617 0.784768 0.735001
O O8 0.152531 0.581468 0.378714
O O9 0.833776 0.836011 0.638511
O O10 0.941088 0.763330 0.314135
O O11 0.970725 0.604816 0.332557
O O12 0.279887 0.174700 0.871967
O O13 0.000000 0.000000 0.000000
O O14 0.104810 0.918952 0.168056
O O15 0.500000 0.000000 0.000000
O O16 0.151396 0.269064 0.845136
O O17 0.258395 0.422751 0.038110
#
# Coordination Sequence:
#
# PCOD8018079 Si02
#       8
#     2   2   2   2   2   2   2   2
#     4   9  19  36  57  85 118 147 191 238 293 353
#     4  10  23  41  60  87 119 154 201 248 284 342
#     4   9  19  38  60  85 112 154 199 237 288 355
#     4  11  24  36  60  95 118 152 195 236 301 360
#     4   9  19  34  58  89 114 146 188 241 295 345
#     4  11  23  41  59  82 125 160 187 248 296 335
#     4   9  20  38  58  84 121 153 187 240 303 350
#     4  10  22  40  62  83 115 155 213 236 282 346
#
# _framework density 20.389251999999999
#
# number of rings (size 3 to 8) (size 9 to 14) (size 15 to 20)
#    0.000    2.250    0.000    3.375    3.500    5.500 
#    4.500    0.625    0.000    0.000    0.000    0.000 
#    0.000    0.000    0.000    0.000    0.000    0.000 
#
# Total GULP energy -198239.183355 kJ/mol
# GULP energy per Si atom -12389.948960 kJ/mol
# Density = 2.034285 g / cm^3
# Si number density = 20.389252 Si / 1000 Ang^3
#
#
#
# Elastic Constant Matrix: (Units=GPa)
#
#
# Indices 1 2 3 4 5 6 
#
# 1 71.0215 22.1577 37.8111 4.3603 -6.4325 16.6224
# 2 22.1577 93.2442 56.5059 2.8603 -14.8880 2.8606
# 3 37.8111 56.5059 135.5715 -7.7353 -18.4269 18.5607
# 4 4.3603 2.8603 -7.7353 33.6311 6.3054 -4.9379
# 5 -6.4325 -14.8880 -18.4269 6.3054 32.6774 0.4197
# 6 16.6224 2.8606 18.5607 -4.9379 0.4197 33.5711
#
#
#
# Elastic Compliance Matrix: (Units=1/GPa)
#
#
# Indices 1 2 3 4 5 6 
#
# 1 0.018756 -0.001669 -0.003441 -0.004620 0.001985 -0.007947
# 2 -0.001669 0.015307 -0.005867 -0.002819 0.003851 0.002303
# 3 -0.003441 -0.005867 0.011872 0.002540 0.002906 -0.004023
# 4 -0.004620 -0.002819 0.002540 0.033424 -0.007289 0.006131
# 5 0.001985 0.003851 0.002906 -0.007289 0.035850 -0.004438
# 6 -0.007947 0.002303 -0.004023 0.006131 -0.004438 0.036707
#
#
# Mechanical properties :
#
#
# Convention : Reuss Voigt Hill
#
# Bulk Modulus (GPa) = 41.70106 59.19851 50.44979
# Shear Modulus (GPa) = 27.49273 32.20008 29.84640
#
# Velocity S-wave (km/s) = 3.67603 3.97831 3.83015
# Velocity P-wave (km/s) = 6.20600 7.08518 6.66012
#
# Compressibility (1/GPa) = 0.02398020
#
# Stress axis : x y z
#
# Youngs Moduli (GPa) = 53.31489 65.32747 84.23161
#
# Poissons Ratio (x) = 0.10905 0.28987
# Poissons Ratio (y) = 0.08900 0.49421
# Poissons Ratio (z) = 0.18348 0.38329
#
# Static dielectric constant tensor:
#      x y z
#    x 3.214950 0.080660 -0.060440 
#    y 0.080660 3.736890 0.053820 
#    z -0.060440 0.053820 3.560160 
# 
# 
# High freq. dielectric constant tensor:
#      x y z
#    x 1.787500 -0.001120 0.001430 
#    y -0.001120 1.796610 -0.002650 
#    z 0.001430 -0.002650 1.798680 
# 
# From -- ./inp_files/522480.got.cif
#   From: 2010.06.25/outbox.cif.g09.slc.cpg/sg2_262_cif.got.tgz:522480.got - 2010.06.27 13:26:56.
