data_PCOD8018868
_publ_section_title
;
Structure prediction by ZEFSAII (Michael W. Deem and Ramdas Pophale) SiO2 
 PCOD8018868
Probable space group: P -1
;
_chemical_formula_sum "Si O2"
_cell_formula_units_Z 16
_cell_length_a 19.535226
_cell_length_b 27.590900
_cell_length_c 9.553916
_cell_angle_alpha 28.726885
_cell_angle_beta 40.567428
_cell_angle_gamma 20.910863
_cell_volume 828.495387
_symmetry_space_group_name_H-M "P -1"
_symmetry_group_IT_number 2
_symmetry_cell_setting 'triclinic'
loop_
_space_group_symop_operation_xyz
x,y,z
-x,-y,-z
loop_
_atom_site_type_symbol
_atom_site_label
_atom_site_fract_x
_atom_site_fract_y
_atom_site_fract_z
Si Si1 0.332784 0.905037 0.477867
Si Si2 0.833731 0.756046 0.227216
Si Si3 0.412658 0.794058 0.125175
Si Si4 0.151752 0.166444 0.704015
Si Si5 0.908518 0.965372 0.217677
Si Si6 0.835142 0.048857 0.646758
Si Si7 0.224610 0.421517 0.287429
Si Si8 0.859496 0.408775 0.302093
O O1 0.560435 0.700925 0.702227
O O2 0.154031 0.028236 0.552694
O O3 0.294262 0.860411 0.523209
O O4 0.314496 0.035767 0.127909
O O5 0.827486 0.764282 0.386129
O O6 0.741996 0.725793 0.395845
O O7 0.063847 0.581984 0.252082
O O8 0.647928 0.583002 0.270518
O O9 0.328703 0.786724 0.394213
O O10 0.367567 0.947465 0.857966
O O11 0.296399 0.864636 0.984607
O O12 0.020543 0.318828 0.393478
O O13 0.051918 0.148951 0.980357
O O14 0.083044 0.752964 0.415466
O O15 0.000000 0.000000 0.000000
O O16 0.000000 0.000000 0.500000
O O17 0.139726 0.524401 0.007306
#
# Coordination Sequence:
#
# PCOD8018868 Si02
#       8
#     2   2   2   2   2   2   2   2
#     4  11  21  39  62  87 121 157 196 247 296 351
#     4  10  22  41  61  89 119 156 199 249 303 346
#     4   9  20  38  56  83 117 153 195 238 290 348
#     4   8  21  37  60  80 119 156 190 247 289 348
#     4  11  22  38  60  84 122 159 195 241 299 352
#     4   9  19  38  60  82 116 157 195 239 290 351
#     4  11  23  38  63  91 117 155 202 248 300 357
#     4  11  21  39  59  85 120 152 197 247 288 355
#
# _framework density 19.312117000000001
#
# number of rings (size 3 to 8) (size 9 to 14) (size 15 to 20)
#    0.750    1.250    2.500    1.125    1.750    1.000 
#    0.000    1.250    0.000    0.000    0.000    0.000 
#    0.000    0.000    0.000    0.000    0.000    0.000 
#
# Total GULP energy -198302.043154 kJ/mol
# GULP energy per Si atom -12393.877697 kJ/mol
# Density = 1.926816 g / cm^3
# Si number density = 19.312117 Si / 1000 Ang^3
#
#
#
# Elastic Constant Matrix: (Units=GPa)
#
#
# Indices 1 2 3 4 5 6 
#
# 1 76.4827 23.0977 37.4703 5.7119 14.8382 8.1359
# 2 23.0977 97.4059 23.8843 -5.7615 8.2957 2.7624
# 3 37.4703 23.8843 51.2044 -3.0445 16.7378 1.8060
# 4 5.7119 -5.7615 -3.0445 26.6996 2.7349 5.3620
# 5 14.8382 8.2957 16.7378 2.7349 31.9502 5.0865
# 6 8.1359 2.7624 1.8060 5.3620 5.0865 26.9930
#
#
#
# Elastic Compliance Matrix: (Units=1/GPa)
#
#
# Indices 1 2 3 4 5 6 
#
# 1 0.022146 -0.001646 -0.015453 -0.005956 -0.000587 -0.004179
# 2 -0.001646 0.011856 -0.004044 0.002663 -0.000276 -0.000924
# 3 -0.015453 -0.004044 0.037074 0.007228 -0.012369 0.003486
# 4 -0.005956 0.002663 0.007228 0.041864 -0.004265 -0.006473
# 5 -0.000587 -0.000276 -0.012369 -0.004265 0.039370 -0.005539
# 6 -0.004179 -0.000924 0.003486 -0.006473 -0.005539 0.040497
#
#
# Mechanical properties :
#
#
# Convention : Reuss Voigt Hill
#
# Bulk Modulus (GPa) = 34.73547 43.77750 39.25649
# Shear Modulus (GPa) = 20.43416 26.50461 23.46939
#
# Velocity S-wave (km/s) = 3.25637 3.70866 3.48985
# Velocity P-wave (km/s) = 5.67134 6.40753 6.05064
#
# Compressibility (1/GPa) = 0.02878901
#
# Stress axis : x y z
#
# Youngs Moduli (GPa) = 45.15536 84.34875 26.97306
#
# Poissons Ratio (x) = 0.13884 0.41681
# Poissons Ratio (y) = 0.07433 0.10909
# Poissons Ratio (z) = 0.69778 0.34113
#
# Static dielectric constant tensor:
#      x y z
#    x 3.453510 0.314780 0.172670 
#    y 0.314780 3.452420 0.044570 
#    z 0.172670 0.044570 3.406970 
# 
# 
# High freq. dielectric constant tensor:
#      x y z
#    x 1.749970 0.021650 0.015350 
#    y 0.021650 1.748620 0.003050 
#    z 0.015350 0.003050 1.740150 
# 
# From -- ./inp_files/350159.got.cif
#   From: 2010.06.25/outbox.cif.g09.slc.cpg/sg2_176_cif.got.tgz:350159.got - 2010.06.27 13:26:56.
