data_PCOD8018603
_publ_section_title
;
Structure prediction by ZEFSAII (Michael W. Deem and Ramdas Pophale) SiO2 
 PCOD8018603
Probable space group: P -1
;
_chemical_formula_sum "Si O2"
_cell_formula_units_Z 12
_cell_length_a 12.330128
_cell_length_b 9.639413
_cell_length_c 8.768680
_cell_angle_alpha 56.330485
_cell_angle_beta 128.827703
_cell_angle_gamma 125.331553
_cell_volume 631.486662
_symmetry_space_group_name_H-M "P -1"
_symmetry_group_IT_number 2
_symmetry_cell_setting 'triclinic'
loop_
_space_group_symop_operation_xyz
x,y,z
-x,-y,-z
loop_
_atom_site_type_symbol
_atom_site_label
_atom_site_fract_x
_atom_site_fract_y
_atom_site_fract_z
Si Si1 0.081571 0.602692 0.223016
Si Si2 0.976175 0.129441 0.776118
Si Si3 0.478429 0.340712 0.694530
Si Si4 0.800883 0.696616 0.377204
Si Si5 0.208300 0.680882 0.968485
Si Si6 0.790255 0.974269 0.416481
O O1 0.093578 0.737286 0.289236
O O2 0.152723 0.462523 0.425513
O O3 0.910066 0.504880 0.082797
O O4 0.175543 0.712738 0.095940
O O5 0.861373 0.011380 0.622905
O O6 0.135218 0.244120 0.770963
O O7 0.000000 0.000000 0.000000
O O8 0.500000 0.500000 0.500000
O O9 0.379329 0.363801 0.738073
O O10 0.384173 0.153009 0.642457
O O11 0.631366 0.335573 0.897483
O O12 0.871984 0.866616 0.451000
O O13 0.197881 0.841190 0.762132
#
# Coordination Sequence:
#
# PCOD8018603 Si02
#       6
#     2   2   2   2   2   2
#     4  11  24  37  70  91 127 161 208 263 310 365
#     4  12  25  40  62  98 128 158 213 260 313 362
#     4  10  22  40  68  90 124 164 216 249 307 376
#     4  10  22  42  66  92 121 168 207 256 311 368
#     4  11  21  41  66  95 121 168 210 252 311 374
#     4  10  23  39  67  90 124 166 208 257 306 371
#
# _framework density 19.002776000000001
#
# number of rings (size 3 to 8) (size 9 to 14) (size 15 to 20)
#    1.000    0.333    3.333    2.500    7.000    0.000 
#    0.000    1.667    0.000    0.000    0.000    0.000 
#    0.000    0.000    0.000    0.000    0.000    0.000 
#
# Total GULP energy -148764.903937 kJ/mol
# GULP energy per Si atom -12397.075328 kJ/mol
# Density = 1.895952 g / cm^3
# Si number density = 19.002776 Si / 1000 Ang^3
#
#
#
# Elastic Constant Matrix: (Units=GPa)
#
#
# Indices 1 2 3 4 5 6 
#
# 1 117.9167 30.8158 51.6740 10.7933 8.4638 2.0183
# 2 30.8158 56.9049 34.5436 -5.2355 1.9197 -8.1742
# 3 51.6740 34.5436 133.4337 -12.1649 -0.9462 -2.2342
# 4 10.7933 -5.2355 -12.1649 23.7332 -0.1204 -4.5425
# 5 8.4638 1.9197 -0.9462 -0.1204 34.8359 -5.4181
# 6 2.0183 -8.1742 -2.2342 -4.5425 -5.4181 39.5450
#
#
#
# Elastic Compliance Matrix: (Units=1/GPa)
#
#
# Indices 1 2 3 4 5 6 
#
# 1 0.013352 -0.005756 -0.004731 -0.010523 -0.003691 -0.003853
# 2 -0.005756 0.024190 -0.003244 0.007463 0.000952 0.006098
# 3 -0.004731 -0.003244 0.010862 0.007256 0.001846 0.001271
# 4 -0.010523 0.007463 0.007256 0.054076 0.003967 0.009245
# 5 -0.003691 0.000952 0.001846 0.003967 0.030409 0.005112
# 6 -0.003853 0.006098 0.001271 0.009245 0.005112 0.028579
#
#
# Mechanical properties :
#
#
# Convention : Reuss Voigt Hill
#
# Bulk Modulus (GPa) = 47.74906 60.25802 54.00354
# Shear Modulus (GPa) = 25.52190 32.37093 28.94642
#
# Velocity S-wave (km/s) = 3.66876 4.13181 3.90715
# Velocity P-wave (km/s) = 6.56722 7.38521 6.98819
#
# Compressibility (1/GPa) = 0.02094282
#
# Stress axis : x y z
#
# Youngs Moduli (GPa) = 74.89542 41.33934 92.06332
#
# Poissons Ratio (x) = 0.23795 0.43552
# Poissons Ratio (y) = 0.43109 0.29866
# Poissons Ratio (z) = 0.35430 0.13411
#
# Static dielectric constant tensor:
#      x y z
#    x 4.673790 -0.331640 0.025120 
#    y -0.331640 3.753000 -0.085600 
#    z 0.025120 -0.085600 3.404590 
# 
# 
# High freq. dielectric constant tensor:
#      x y z
#    x 1.743890 0.007840 -0.000080 
#    y 0.007840 1.735360 -0.021770 
#    z -0.000080 -0.021770 1.737540 
# 
# From -- ./inp_files/165666.got.cif
#   From: 2010.06.25/outbox.cif.g09.slc.cpg/sg2_83_cif.got.tgz:165666.got - 2010.06.27 13:26:56.
