data_PCOD8018712
_publ_section_title
;
Structure prediction by ZEFSAII (Michael W. Deem and Ramdas Pophale) SiO2 
 PCOD8018712
Probable space group: P -1
;
_chemical_formula_sum "Si O2"
_cell_formula_units_Z 14
_cell_length_a 9.391629
_cell_length_b 12.318068
_cell_length_c 12.199849
_cell_angle_alpha 54.636079
_cell_angle_beta 125.271055
_cell_angle_gamma 145.097588
_cell_volume 642.377882
_symmetry_space_group_name_H-M "P -1"
_symmetry_group_IT_number 2
_symmetry_cell_setting 'triclinic'
loop_
_space_group_symop_operation_xyz
x,y,z
-x,-y,-z
loop_
_atom_site_type_symbol
_atom_site_label
_atom_site_fract_x
_atom_site_fract_y
_atom_site_fract_z
Si Si1 0.444431 0.246188 0.582508
Si Si2 0.129029 0.332841 0.380166
Si Si3 0.311287 0.989558 0.488293
Si Si4 0.394286 0.319333 0.993170
Si Si5 0.770405 0.466670 0.897395
Si Si6 0.635361 0.940927 0.137338
Si Si7 0.977237 0.023214 0.817035
O O1 0.232027 0.242267 0.498905
O O2 0.713114 0.462695 0.607330
O O3 0.343088 0.063481 0.719041
O O4 0.464171 0.193200 0.500216
O O5 0.123826 0.349733 0.234400
O O6 0.846469 0.185396 0.391466
O O7 0.101283 0.934645 0.345968
O O8 0.500000 0.000000 0.500000
O O9 0.500000 0.500000 0.000000
O O10 0.657112 0.424724 0.991345
O O11 0.175203 0.222838 0.860291
O O12 0.277427 0.146575 0.126147
O O13 0.552548 0.286173 0.831161
O O14 0.000000 0.500000 0.000000
O O15 0.892878 0.046635 0.122009
O O16 0.500000 0.000000 0.000000
#
# Coordination Sequence:
#
# PCOD8018712 Si02
#       7
#     2   2   2   2   2   2   2
#     4  10  23  43  69  98 126 182 225 275 339 391
#     4  10  23  45  69  94 133 171 234 278 324 408
#     4  12  27  41  68  99 138 180 219 278 343 400
#     4  10  24  42  67  90 130 179 209 271 337 385
#     4  10  24  40  63 101 127 167 228 274 326 398
#     4  10  22  40  69  98 131 171 221 281 332 394
#     4  10  24  45  61 101 133 170 230 269 329 408
#
# _framework density 21.794025999999999
#
# number of rings (size 3 to 8) (size 9 to 14) (size 15 to 20)
#    0.000    1.714    1.429    0.429   10.000    2.857 
#    2.571    0.000    0.000    0.000    0.000    0.000 
#    0.000    0.000    0.000    0.000    0.000    0.000 
#
# Total GULP energy -173435.143997 kJ/mol
# GULP energy per Si atom -12388.224571 kJ/mol
# Density = 2.174442 g / cm^3
# Si number density = 21.794026 Si / 1000 Ang^3
#
#
#
# Elastic Constant Matrix: (Units=GPa)
#
#
# Indices 1 2 3 4 5 6 
#
# 1 170.9100 63.1314 58.9955 -5.8492 -14.3529 13.3140
# 2 63.1314 90.7268 26.7470 -8.6260 -17.1387 -3.0461
# 3 58.9955 26.7470 126.5638 -12.4688 -1.2348 4.2832
# 4 -5.8492 -8.6260 -12.4688 31.8842 -0.1329 -11.9851
# 5 -14.3529 -17.1387 -1.2348 -0.1329 36.1269 -1.2848
# 6 13.3140 -3.0461 4.2832 -11.9851 -1.2848 41.9941
#
#
#
# Elastic Compliance Matrix: (Units=1/GPa)
#
#
# Indices 1 2 3 4 5 6 
#
# 1 0.009388 -0.005801 -0.003266 -0.002537 0.000723 -0.003766
# 2 -0.005801 0.016968 -0.000477 0.005158 0.005917 0.004772
# 3 -0.003266 -0.000477 0.009822 0.003467 -0.001142 0.000953
# 4 -0.002537 0.005158 0.003467 0.038077 0.002116 0.011757
# 5 0.000723 0.005917 -0.001142 0.002116 0.030810 0.001863
# 6 -0.003766 0.004772 0.000953 0.011757 0.001863 0.028668
#
#
# Mechanical properties :
#
#
# Convention : Reuss Voigt Hill
#
# Bulk Modulus (GPa) = 58.51273 76.21648 67.36461
# Shear Modulus (GPa) = 31.54194 37.95616 34.74905
#
# Velocity S-wave (km/s) = 3.80843 4.17776 3.99736
# Velocity P-wave (km/s) = 6.80038 7.63667 7.23063
#
# Compressibility (1/GPa) = 0.01709030
#
# Stress axis : x y z
#
# Youngs Moduli (GPa) = 106.51383 58.93473 101.80802
#
# Poissons Ratio (x) = 0.34189 0.33248
# Poissons Ratio (y) = 0.61791 0.04860
# Poissons Ratio (z) = 0.34784 0.02813
#
# Static dielectric constant tensor:
#      x y z
#    x 3.667090 -0.069030 -0.248290 
#    y -0.069030 4.170530 0.473600 
#    z -0.248290 0.473600 4.670930 
# 
# 
# High freq. dielectric constant tensor:
#      x y z
#    x 1.846040 0.006520 -0.024720 
#    y 0.006520 1.867890 0.008200 
#    z -0.024720 0.008200 1.861120 
# 
# From -- ./inp_files/256155.got.cif
#   From: 2010.06.25/outbox.cif.g09.slc.cpg/sg2_129_cif.got.tgz:256155.got - 2010.06.27 13:26:56.
