data_PCOD8018644
_publ_section_title
;
Structure prediction by ZEFSAII (Michael W. Deem and Ramdas Pophale) SiO2 
 PCOD8018644
Probable space group: P -1
;
_chemical_formula_sum "Si O2"
_cell_formula_units_Z 16
_cell_length_a 18.859083
_cell_length_b 12.230503
_cell_length_c 22.588439
_cell_angle_alpha 152.683010
_cell_angle_beta 161.122270
_cell_angle_gamma 26.119517
_cell_volume 713.931219
_symmetry_space_group_name_H-M "P -1"
_symmetry_group_IT_number 2
_symmetry_cell_setting 'triclinic'
loop_
_space_group_symop_operation_xyz
x,y,z
-x,-y,-z
loop_
_atom_site_type_symbol
_atom_site_label
_atom_site_fract_x
_atom_site_fract_y
_atom_site_fract_z
Si Si1 0.521978 0.920018 0.325557
Si Si2 0.887893 0.769295 0.073481
Si Si3 0.013623 0.181866 0.411975
Si Si4 0.113083 0.509173 0.746357
Si Si5 0.611947 0.762948 0.518745
Si Si6 0.286224 0.498951 0.102079
Si Si7 0.545690 0.555161 0.916957
Si Si8 0.176960 0.001757 0.989333
O O1 0.407542 0.746883 0.186733
O O2 0.808097 0.767859 0.470507
O O3 0.470241 0.166900 0.444795
O O4 0.400050 0.998495 0.202880
O O5 0.762378 0.968215 0.016730
O O6 0.072187 0.871268 0.302942
O O7 0.713213 0.739044 0.971439
O O8 0.000000 0.500000 0.000000
O O9 0.062908 0.288448 0.564316
O O10 0.735367 0.292885 0.231494
O O11 0.894741 0.654939 0.687354
O O12 0.148416 0.726774 0.837481
O O13 0.344391 0.364866 0.899727
O O14 0.526943 0.537370 0.325132
O O15 0.500000 0.000000 0.500000
O O16 0.313393 0.407780 0.011314
O O17 0.058357 0.763432 0.060555
#
# Coordination Sequence:
#
# PCOD8018644 Si02
#       8
#     2   2   2   2   2   2   2   2
#     4  11  23  38  67 105 131 170 221 275 333 387
#     4  10  25  44  66  91 131 186 219 266 327 392
#     4  12  26  43  69  98 136 176 219 270 338 397
#     4  11  24  41  68 109 131 166 221 278 341 383
#     4  12  20  39  69 101 133 172 221 273 325 394
#     4  11  21  43  66  95 135 179 222 264 327 392
#     4  11  24  40  68  99 142 168 210 284 339 387
#     4  10  22  40  68  98 138 168 222 279 322 390
#
# _framework density 22.411121999999999
#
# number of rings (size 3 to 8) (size 9 to 14) (size 15 to 20)
#    0.000    1.000    3.750    2.625    5.250    3.500 
#    0.000    7.500    0.000    0.000    0.000    0.000 
#    0.000    0.000    0.000    0.000    0.000    0.000 
#
# Total GULP energy -198273.440766 kJ/mol
# GULP energy per Si atom -12392.090048 kJ/mol
# Density = 2.236011 g / cm^3
# Si number density = 22.411122 Si / 1000 Ang^3
#
#
#
# Elastic Constant Matrix: (Units=GPa)
#
#
# Indices 1 2 3 4 5 6 
#
# 1 166.3166 52.4376 70.6345 1.8940 -1.6225 16.5593
# 2 52.4376 61.6554 56.7152 0.1676 -8.2544 -9.3762
# 3 70.6345 56.7152 148.4029 -1.9540 -17.3315 4.2937
# 4 1.8940 0.1676 -1.9540 37.3556 -9.9416 2.0311
# 5 -1.6225 -8.2544 -17.3315 -9.9416 40.4288 5.9914
# 6 16.5593 -9.3762 4.2937 2.0311 5.9914 33.3927
#
#
#
# Elastic Compliance Matrix: (Units=1/GPa)
#
#
# Indices 1 2 3 4 5 6 
#
# 1 0.009920 -0.008225 -0.001506 -0.000447 -0.001026 -0.006824
# 2 -0.008225 0.034418 -0.009680 -0.001045 0.000061 0.015040
# 3 -0.001506 -0.009680 0.011797 0.002087 0.004180 -0.004365
# 4 -0.000447 -0.001045 0.002087 0.029344 0.008418 -0.003635
# 5 -0.001026 0.000061 0.004180 0.008418 0.029428 -0.005804
# 6 -0.006824 0.015040 -0.004365 -0.003635 -0.005804 0.039377
#
#
# Mechanical properties :
#
#
# Convention : Reuss Voigt Hill
#
# Bulk Modulus (GPa) = 57.76713 81.77217 69.76965
# Shear Modulus (GPa) = 25.14094 35.34124 30.24109
#
# Velocity S-wave (km/s) = 3.35297 3.97539 3.67737
# Velocity P-wave (km/s) = 6.38921 7.59198 7.01641
#
# Compressibility (1/GPa) = 0.01731088
#
# Stress axis : x y z
#
# Youngs Moduli (GPa) = 100.80383 29.05498 84.76796
#
# Poissons Ratio (x) = 0.23898 0.12770
# Poissons Ratio (y) = 0.82913 0.82057
# Poissons Ratio (z) = 0.15186 0.28126
#
# Static dielectric constant tensor:
#      x y z
#    x 4.301820 0.030840 0.076670 
#    y 0.030840 4.092340 0.264690 
#    z 0.076670 0.264690 4.433070 
# 
# 
# High freq. dielectric constant tensor:
#      x y z
#    x 1.892480 -0.023180 -0.004750 
#    y -0.023180 1.857650 0.008040 
#    z -0.004750 0.008040 1.891680 
# 
# From -- ./inp_files/346509.got.cif
#   From: 2010.06.25/outbox.cif.g09.slc.cpg/sg2_174_cif.got.tgz:346509.got - 2010.06.27 13:26:56.
