data_PCOD8018359
_publ_section_title
;
Structure prediction by ZEFSAII (Michael W. Deem and Ramdas Pophale) SiO2 
 PCOD8018359
Probable space group: P -1
;
_chemical_formula_sum "Si O2"
_cell_formula_units_Z 14
_cell_length_a 14.169069
_cell_length_b 23.680911
_cell_length_c 23.319134
_cell_angle_alpha 11.945949
_cell_angle_beta 156.526860
_cell_angle_gamma 158.350909
_cell_volume 594.274188
_symmetry_space_group_name_H-M "P -1"
_symmetry_group_IT_number 2
_symmetry_cell_setting 'triclinic'
loop_
_space_group_symop_operation_xyz
x,y,z
-x,-y,-z
loop_
_atom_site_type_symbol
_atom_site_label
_atom_site_fract_x
_atom_site_fract_y
_atom_site_fract_z
Si Si1 0.605678 0.555376 0.854269
Si Si2 0.474405 0.864130 0.287374
Si Si3 0.910251 0.535387 0.284138
Si Si4 0.711753 0.475141 0.866389
Si Si5 0.106403 0.798945 0.588946
Si Si6 0.991188 0.931952 0.264358
Si Si7 0.542921 0.513819 0.576961
O O1 0.704671 0.375209 0.134128
O O2 0.315341 0.503387 0.758918
O O3 0.610744 0.415686 0.933968
O O4 0.782391 0.904433 0.605639
O O5 0.668610 0.760409 0.535260
O O6 0.500191 0.792566 0.305410
O O7 0.177756 0.688974 0.315269
O O8 0.547731 0.209113 0.996915
O O9 0.871349 0.215655 0.555723
O O10 0.907668 0.726965 0.035856
O O11 0.000000 0.500000 0.000000
O O12 0.065830 0.898382 0.404140
O O13 0.841128 0.566571 0.701053
O O14 0.679861 0.787481 0.223666
O O15 0.500000 0.500000 0.500000
#
# Coordination Sequence:
#
# PCOD8018359 Si02
#       7
#     2   2   2   2   2   2   2
#     4  12  26  41  62  92 128 168 216 260 300 376
#     4  11  23  42  66  89 126 166 201 259 313 365
#     4  11  24  42  62  93 127 167 215 251 310 379
#     4  12  25  43  66  93 123 162 211 260 315 366
#     4  11  23  40  64  94 129 167 206 263 321 361
#     4  10  22  40  65  94 128 166 207 259 315 381
#     4   9  20  40  66  96 124 157 206 256 315 378
#
# _framework density 23.558147999999999
#
# number of rings (size 3 to 8) (size 9 to 14) (size 15 to 20)
#    0.000    1.143    0.000    6.429    0.000    6.857 
#    0.000   12.143    0.000    0.000    0.000    0.000 
#    0.000    0.000    0.000    0.000    0.000    0.000 
#
# Total GULP energy -173585.141153 kJ/mol
# GULP energy per Si atom -12398.938654 kJ/mol
# Density = 2.350453 g / cm^3
# Si number density = 23.558148 Si / 1000 Ang^3
#
#
#
# Elastic Constant Matrix: (Units=GPa)
#
#
# Indices 1 2 3 4 5 6 
#
# 1 120.3188 55.3345 6.7082 12.2473 17.7628 8.6576
# 2 55.3345 112.2088 21.7200 13.5201 21.4045 7.3755
# 3 6.7082 21.7200 82.7353 13.2209 3.5843 1.3730
# 4 12.2473 13.5201 13.2209 40.8559 -0.1880 9.6083
# 5 17.7628 21.4045 3.5843 -0.1880 33.5308 1.8352
# 6 8.6576 7.3755 1.3730 9.6083 1.8352 36.8979
#
#
#
# Elastic Compliance Matrix: (Units=1/GPa)
#
#
# Indices 1 2 3 4 5 6 
#
# 1 0.011169 -0.004829 0.000786 -0.001763 -0.002869 -0.001083
# 2 -0.004829 0.013104 -0.002485 -0.001967 -0.005519 -0.000607
# 3 0.000786 -0.002485 0.013302 -0.003920 -0.000321 0.000854
# 4 -0.001763 -0.001967 -0.003920 0.028496 0.003131 -0.006624
# 5 -0.002869 -0.005519 -0.000321 0.003131 0.034960 -0.000766
# 6 -0.001083 -0.000607 0.000854 -0.006624 -0.000766 0.029208
#
#
# Mechanical properties :
#
#
# Convention : Reuss Voigt Hill
#
# Bulk Modulus (GPa) = 40.78545 53.64315 47.21430
# Shear Modulus (GPa) = 33.01003 37.69025 35.35014
#
# Velocity S-wave (km/s) = 3.74734 4.00419 3.87789
# Velocity P-wave (km/s) = 6.00614 6.64816 6.33529
#
# Compressibility (1/GPa) = 0.02451855
#
# Stress axis : x y z
#
# Youngs Moduli (GPa) = 89.53081 76.31109 75.17941
#
# Poissons Ratio (x) = 0.36854 -0.05911
# Poissons Ratio (y) = 0.43238 0.18683
# Poissons Ratio (z) = -0.07039 0.18964
#
# Static dielectric constant tensor:
#      x y z
#    x 4.132150 -0.030510 0.255360 
#    y -0.030510 4.625270 0.035490 
#    z 0.255360 0.035490 4.207410 
# 
# 
# High freq. dielectric constant tensor:
#      x y z
#    x 1.927050 -0.004090 0.011740 
#    y -0.004090 1.941910 0.007650 
#    z 0.011740 0.007650 1.938780 
# 
# From -- ./inp_files/525944.got.cif
#   From: 2010.06.25/outbox.cif.g09.slc.cpg/sg2_263_cif.got.tgz:525944.got - 2010.06.27 13:26:56.
