data_PCOD8018522
_publ_section_title
;
Structure prediction by ZEFSAII (Michael W. Deem and Ramdas Pophale) SiO2 
 PCOD8018522
Probable space group: P -1
;
_chemical_formula_sum "Si O2"
_cell_formula_units_Z 16
_cell_length_a 13.349390
_cell_length_b 9.202896
_cell_length_c 19.207083
_cell_angle_alpha 119.524056
_cell_angle_beta 21.883688
_cell_angle_gamma 123.313885
_cell_volume 733.895256
_symmetry_space_group_name_H-M "P -1"
_symmetry_group_IT_number 2
_symmetry_cell_setting 'triclinic'
loop_
_space_group_symop_operation_xyz
x,y,z
-x,-y,-z
loop_
_atom_site_type_symbol
_atom_site_label
_atom_site_fract_x
_atom_site_fract_y
_atom_site_fract_z
Si Si1 0.357186 0.719444 0.427329
Si Si2 0.276152 0.628371 0.610344
Si Si3 0.856660 0.042167 0.173350
Si Si4 0.908654 0.666473 0.240394
Si Si5 0.263613 0.077582 0.302291
Si Si6 0.600034 0.438578 0.149640
Si Si7 0.810586 0.740562 0.734349
Si Si8 0.784612 0.970485 0.925904
O O1 0.202280 0.658923 0.586196
O O2 0.575757 0.614649 0.240722
O O3 0.101816 0.687834 0.529514
O O4 0.538573 0.920471 0.358317
O O5 0.172709 0.761176 0.759230
O O6 0.610015 0.661218 0.401095
O O7 0.131133 0.428702 0.680695
O O8 0.000000 0.000000 0.000000
O O9 0.033600 0.008666 0.116855
O O10 0.073706 0.556189 0.061821
O O11 0.100521 0.865665 0.162473
O O12 0.428500 0.273788 0.268227
O O13 0.160876 0.088999 0.292038
O O14 0.466528 0.954537 0.148270
O O15 0.000000 0.000000 0.500000
O O16 0.455411 0.413921 0.158993
O O17 0.774983 0.794089 0.849509
#
# Coordination Sequence:
#
# PCOD8018522 Si02
#       8
#     2   2   2   2   2   2   2   2
#     4  12  22  42  66  93 134 165 216 265 323 386
#     4  11  23  43  65  99 125 171 215 268 325 379
#     4  12  26  42  68  97 129 169 215 272 326 386
#     4  10  22  43  64  94 132 166 219 263 322 383
#     4   9  22  40  64  97 125 170 219 261 317 377
#     4   9  23  41  62  91 128 171 204 265 315 371
#     4  10  22  40  67  88 131 169 215 259 317 379
#     4  11  21  45  68  92 129 174 214 263 325 377
#
# _framework density 21.801475
#
# number of rings (size 3 to 8) (size 9 to 14) (size 15 to 20)
#    0.750    0.750    2.500    2.625    1.750    1.500 
#    9.000    0.625    0.000    0.000    0.000    0.000 
#    0.000    0.000    0.000    0.000    0.000    0.000 
#
# Total GULP energy -198256.726483 kJ/mol
# GULP energy per Si atom -12391.045405 kJ/mol
# Density = 2.175185 g / cm^3
# Si number density = 21.801475 Si / 1000 Ang^3
#
#
#
# Elastic Constant Matrix: (Units=GPa)
#
#
# Indices 1 2 3 4 5 6 
#
# 1 82.2443 21.2260 31.1373 5.1727 4.8936 -4.9172
# 2 21.2260 61.9789 28.6064 6.4482 8.8382 -6.8146
# 3 31.1373 28.6064 136.8625 11.4120 -14.0794 -5.0056
# 4 5.1727 6.4482 11.4120 42.3620 -6.9334 7.3524
# 5 4.8936 8.8382 -14.0794 -6.9334 30.4778 10.3670
# 6 -4.9172 -6.8146 -5.0056 7.3524 10.3670 22.8622
#
#
#
# Elastic Compliance Matrix: (Units=1/GPa)
#
#
# Indices 1 2 3 4 5 6 
#
# 1 0.014631 -0.001971 -0.003091 -0.002457 -0.005526 0.005178
# 2 -0.001971 0.023702 -0.004963 -0.007163 -0.015550 0.014909
# 3 -0.003091 -0.004963 0.009674 0.000435 0.007756 -0.003683
# 4 -0.002457 -0.007163 0.000435 0.031076 0.016571 -0.020076
# 5 -0.005526 -0.015550 0.007756 0.016571 0.057671 -0.035606
# 6 0.005178 0.014909 -0.003683 -0.020076 -0.035606 0.071094
#
#
# Mechanical properties :
#
#
# Convention : Reuss Voigt Hill
#
# Bulk Modulus (GPa) = 35.76873 49.22500 42.49686
# Shear Modulus (GPa) = 21.07786 32.48148 26.77967
#
# Velocity S-wave (km/s) = 3.11273 3.86408 3.50857
# Velocity P-wave (km/s) = 5.41857 6.52195 5.99570
#
# Compressibility (1/GPa) = 0.02795738
#
# Stress axis : x y z
#
# Youngs Moduli (GPa) = 68.34950 42.19040 103.37024
#
# Poissons Ratio (x) = 0.08316 0.31949
# Poissons Ratio (y) = 0.13472 0.51300
# Poissons Ratio (z) = 0.21125 0.20938
#
# Static dielectric constant tensor:
#      x y z
#    x 3.742410 -0.170180 -0.142050 
#    y -0.170180 3.884070 0.174130 
#    z -0.142050 0.174130 3.976980 
# 
# 
# High freq. dielectric constant tensor:
#      x y z
#    x 1.838950 -0.011700 -0.014670 
#    y -0.011700 1.842560 0.012640 
#    z -0.014670 0.012640 1.870060 
# 
# From -- ./inp_files/597411.got.cif
#   From: 2010.06.25/outbox.cif.g09.slc.cpg/sg2_299_cif.got.tgz:597411.got - 2010.06.27 13:26:56.
