data_PCOD8018573
_publ_section_title
;
Structure prediction by ZEFSAII (Michael W. Deem and Ramdas Pophale) SiO2 
 PCOD8018573
Probable space group: P -1
;
_chemical_formula_sum "Si O2"
_cell_formula_units_Z 12
_cell_length_a 12.598271
_cell_length_b 7.529285
_cell_length_c 9.702865
_cell_angle_alpha 131.621038
_cell_angle_beta 124.063896
_cell_angle_gamma 48.414310
_cell_volume 502.779391
_symmetry_space_group_name_H-M "P -1"
_symmetry_group_IT_number 2
_symmetry_cell_setting 'triclinic'
loop_
_space_group_symop_operation_xyz
x,y,z
-x,-y,-z
loop_
_atom_site_type_symbol
_atom_site_label
_atom_site_fract_x
_atom_site_fract_y
_atom_site_fract_z
Si Si1 0.752543 0.582410 0.580237
Si Si2 0.553819 0.226965 0.482201
Si Si3 0.851060 0.899054 0.630396
Si Si4 0.160654 0.812913 0.792607
Si Si5 0.743610 0.684536 0.218508
Si Si6 0.170002 0.338378 0.038553
O O1 0.769959 0.539766 0.735949
O O2 0.579868 0.740512 0.501335
O O3 0.820234 0.294389 0.405711
O O4 0.834324 0.747522 0.674234
O O5 0.500000 0.500000 0.500000
O O6 0.595029 0.964190 0.278446
O O7 0.871497 0.712973 0.412213
O O8 0.697868 0.175644 0.647521
O O9 0.988037 0.952702 0.777351
O O10 0.258459 0.576082 0.848924
O O11 0.219399 0.027831 0.950089
O O12 0.771187 0.631782 0.050572
O O13 0.000000 0.500000 0.000000
#
# Coordination Sequence:
#
# PCOD8018573 Si02
#       6
#     2   2   2   2   2   2
#     4  11  23  43  69  93 131 174 221 260 329 392
#     4  10  22  40  67  97 128 178 217 262 328 391
#     4   9  21  40  68  93 128 173 216 265 323 384
#     4  11  23  45  69  96 133 172 214 275 326 378
#     4   9  22  42  63  97 134 167 219 271 320 386
#     4  12  26  39  67 104 130 167 222 271 325 388
#
# _framework density 23.867327
#
# number of rings (size 3 to 8) (size 9 to 14) (size 15 to 20)
#    1.000    0.667    0.000    5.500    2.333    4.667 
#    0.000    0.833    0.000    0.000    0.000    0.000 
#    0.000    0.000    0.000    0.000    0.000    0.000 
#
# Total GULP energy -148711.494579 kJ/mol
# GULP energy per Si atom -12392.624548 kJ/mol
# Density = 2.381300 g / cm^3
# Si number density = 23.867327 Si / 1000 Ang^3
#
#
#
# Elastic Constant Matrix: (Units=GPa)
#
#
# Indices 1 2 3 4 5 6 
#
# 1 108.2458 25.6090 30.5418 -11.8132 -21.0672 -0.1417
# 2 25.6090 102.4698 33.4924 12.1407 -15.8883 6.7833
# 3 30.5418 33.4924 61.4094 6.5572 -10.4257 17.6418
# 4 -11.8132 12.1407 6.5572 36.0954 6.2646 -3.7044
# 5 -21.0672 -15.8883 -10.4257 6.2646 26.8231 -2.6205
# 6 -0.1417 6.7833 17.6418 -3.7044 -2.6205 46.2528
#
#
#
# Elastic Compliance Matrix: (Units=1/GPa)
#
#
# Indices 1 2 3 4 5 6 
#
# 1 0.013063 -0.001018 -0.006374 0.005023 0.006337 0.003382
# 2 -0.001018 0.013236 -0.005124 -0.004933 0.006198 -0.000034
# 3 -0.006374 -0.005124 0.026180 -0.006581 0.002731 -0.009626
# 4 0.005023 -0.004933 -0.006581 0.034331 -0.009017 0.005488
# 5 0.006337 0.006198 0.002731 -0.009017 0.049110 0.000129
# 6 0.003382 -0.000034 -0.009626 0.005488 0.000129 0.025754
#
#
# Mechanical properties :
#
#
# Convention : Reuss Voigt Hill
#
# Bulk Modulus (GPa) = 36.43162 50.15683 43.29422
# Shear Modulus (GPa) = 25.52904 33.99973 29.76438
#
# Velocity S-wave (km/s) = 3.27406 3.77839 3.53523
# Velocity P-wave (km/s) = 5.43967 6.33210 5.90277
#
# Compressibility (1/GPa) = 0.02744869
#
# Stress axis : x y z
#
# Youngs Moduli (GPa) = 76.54993 75.55236 38.19640
#
# Poissons Ratio (x) = 0.07690 0.24346
# Poissons Ratio (y) = 0.07791 0.19571
# Poissons Ratio (z) = 0.48792 0.38712
#
# Static dielectric constant tensor:
#      x y z
#    x 4.204490 -0.151640 0.128540 
#    y -0.151640 4.218890 0.233210 
#    z 0.128540 0.233210 3.849600 
# 
# 
# High freq. dielectric constant tensor:
#      x y z
#    x 1.945540 0.002690 -0.007990 
#    y 0.002690 1.946720 0.018790 
#    z -0.007990 0.018790 1.921710 
# 
# From -- ./inp_files/514778.got.cif
#   From: 2010.06.25/outbox.cif.g09.slc.cpg/sg2_258_cif.got.tgz:514778.got - 2010.06.27 13:26:56.
