data_PCOD8018881
_publ_section_title
;
Structure prediction by ZEFSAII (Michael W. Deem and Ramdas Pophale) SiO2 
 PCOD8018881
Probable space group: P -1
;
_chemical_formula_sum "Si O2"
_cell_formula_units_Z 16
_cell_length_a 15.051597
_cell_length_b 8.287650
_cell_length_c 12.729133
_cell_angle_alpha 80.869660
_cell_angle_beta 27.434377
_cell_angle_gamma 88.307198
_cell_volume 700.358471
_symmetry_space_group_name_H-M "P -1"
_symmetry_group_IT_number 2
_symmetry_cell_setting 'triclinic'
loop_
_space_group_symop_operation_xyz
x,y,z
-x,-y,-z
loop_
_atom_site_type_symbol
_atom_site_label
_atom_site_fract_x
_atom_site_fract_y
_atom_site_fract_z
Si Si1 0.822519 0.027131 0.112861
Si Si2 0.934309 0.150352 0.494147
Si Si3 0.659087 0.653595 0.960707
Si Si4 0.937567 0.727161 0.315513
Si Si5 0.554488 0.263646 0.445209
Si Si6 0.359140 0.142580 0.242587
Si Si7 0.765149 0.326779 0.833067
Si Si8 0.391980 0.493736 0.446414
O O1 0.718209 0.161487 0.261597
O O2 0.657793 0.854362 0.284710
O O3 0.925303 0.096898 0.888380
O O4 0.000000 0.000000 0.000000
O O5 0.879722 0.286974 0.614772
O O6 0.128672 0.254189 0.217244
O O7 0.747081 0.058481 0.627741
O O8 0.000000 0.000000 0.500000
O O9 0.597510 0.780115 0.928550
O O10 0.679730 0.490302 0.889307
O O11 0.497779 0.603952 0.226387
O O12 0.776810 0.760419 0.561792
O O13 0.826837 0.610017 0.349564
O O14 0.087082 0.636707 0.227156
O O15 0.521654 0.366331 0.364331
O O16 0.640873 0.387828 0.436775
O O17 0.573232 0.168430 0.071652
#
# Coordination Sequence:
#
# PCOD8018881 Si02
#       8
#     2   2   2   2   2   2   2   2
#     4  11  24  47  74  99 132 178 226 285 347 406
#     4  10  22  41  61  94 135 183 225 270 322 392
#     4  11  23  42  69  99 138 181 225 274 335 406
#     4  12  25  42  70 101 139 177 225 277 344 404
#     4  10  25  49  72 100 137 173 231 293 342 403
#     4  11  25  43  65 101 143 177 228 275 326 411
#     4  12  23  42  68  93 141 186 219 279 332 394
#     4  11  24  46  70 105 137 178 231 287 341 407
#
# _framework density 22.845445000000002
#
# number of rings (size 3 to 8) (size 9 to 14) (size 15 to 20)
#    0.000    1.000    5.000    1.875    1.750    0.500 
#    2.250    2.500    0.000    0.000    0.000    0.000 
#    0.000    0.000    0.000    0.000    0.000    0.000 
#
# Total GULP energy -198373.012692 kJ/mol
# GULP energy per Si atom -12398.313293 kJ/mol
# Density = 2.279345 g / cm^3
# Si number density = 22.845445 Si / 1000 Ang^3
#
#
#
# Elastic Constant Matrix: (Units=GPa)
#
#
# Indices 1 2 3 4 5 6 
#
# 1 111.6088 31.9918 37.7047 0.3573 -21.8498 17.3991
# 2 31.9918 59.3289 2.0347 -2.0784 -7.0767 12.3589
# 3 37.7047 2.0347 111.2145 -17.4596 -7.5878 -2.3028
# 4 0.3573 -2.0784 -17.4596 35.2045 -0.6509 -9.9180
# 5 -21.8498 -7.0767 -7.5878 -0.6509 38.7665 -7.5621
# 6 17.3991 12.3589 -2.3028 -9.9180 -7.5621 32.7166
#
#
#
# Elastic Compliance Matrix: (Units=1/GPa)
#
#
# Indices 1 2 3 4 5 6 
#
# 1 0.014324 -0.005872 -0.005304 -0.004764 0.004687 -0.006133
# 2 -0.005872 0.020910 0.001654 0.000875 -0.000012 -0.004397
# 3 -0.005304 0.001654 0.012161 0.007784 0.000921 0.005624
# 4 -0.004764 0.000875 0.007784 0.036456 0.002412 0.014360
# 5 0.004687 -0.000012 0.000921 0.002412 0.029663 0.005164
# 6 -0.006133 -0.004397 0.005624 0.014360 0.005164 0.041431
#
#
# Mechanical properties :
#
#
# Convention : Reuss Voigt Hill
#
# Bulk Modulus (GPa) = 35.27280 47.29052 41.28166
# Shear Modulus (GPa) = 27.25697 35.36558 31.31127
#
# Velocity S-wave (km/s) = 3.45788 3.93878 3.70614
# Velocity P-wave (km/s) = 5.60498 6.43665 6.03516
#
# Compressibility (1/GPa) = 0.02835046
#
# Stress axis : x y z
#
# Youngs Moduli (GPa) = 69.81387 47.82387 82.23122
#
# Poissons Ratio (x) = 0.28083 0.43614
# Poissons Ratio (y) = 0.40995 -0.13599
# Poissons Ratio (z) = 0.37028 -0.07909
#
# Static dielectric constant tensor:
#      x y z
#    x 4.243760 0.237480 -0.382150 
#    y 0.237480 4.338110 -0.517070 
#    z -0.382150 -0.517070 4.513360 
# 
# 
# High freq. dielectric constant tensor:
#      x y z
#    x 1.888590 0.009560 -0.023560 
#    y 0.009560 1.901380 -0.011720 
#    z -0.023560 -0.011720 1.913420 
# 
# From -- ./inp_files/447320.got.cif
#   From: 2010.06.25/outbox.cif.g09.slc.cpg/sg2_224_cif.got.tgz:447320.got - 2010.06.27 13:26:56.
