data_PCOD8018205
_publ_section_title
;
Structure prediction by ZEFSAII (Michael W. Deem and Ramdas Pophale) SiO2 
 PCOD8018205
Probable space group: P -1
;
_chemical_formula_sum "Si O2"
_cell_formula_units_Z 14
_cell_length_a 28.872312
_cell_length_b 6.640153
_cell_length_c 16.746516
_cell_angle_alpha 136.923908
_cell_angle_beta 162.926779
_cell_angle_gamma 43.900298
_cell_volume 639.781112
_symmetry_space_group_name_H-M "P -1"
_symmetry_group_IT_number 2
_symmetry_cell_setting 'triclinic'
loop_
_space_group_symop_operation_xyz
x,y,z
-x,-y,-z
loop_
_atom_site_type_symbol
_atom_site_label
_atom_site_fract_x
_atom_site_fract_y
_atom_site_fract_z
Si Si1 0.077437 0.295133 0.635909
Si Si2 0.800448 0.522868 0.875013
Si Si3 0.818921 0.469345 0.709883
Si Si4 0.355470 0.087865 0.727751
Si Si5 0.374744 0.277008 0.214080
Si Si6 0.111139 0.635071 0.496968
Si Si7 0.375089 0.048769 0.567034
O O1 0.000000 0.500000 0.500000
O O2 0.942960 0.308573 0.485289
O O3 0.128568 0.965577 0.588996
O O4 0.234959 0.419801 0.966503
O O5 0.772905 0.606848 0.761375
O O6 0.707450 0.784439 0.853261
O O7 0.735926 0.214151 0.703081
O O8 0.987085 0.487245 0.193159
O O9 0.718700 0.643619 0.525851
O O10 0.781615 0.129088 0.548006
O O11 0.000000 0.500000 0.000000
O O12 0.276860 0.423960 0.709489
O O13 0.425483 0.065685 0.747173
O O14 0.500000 0.000000 0.000000
O O15 0.500000 0.500000 0.500000
O O16 0.467206 0.990886 0.240438
#
# Coordination Sequence:
#
# PCOD8018205 Si02
#       7
#     2   2   2   2   2   2   2
#     4  10  23  40  65  91 122 169 218 268 317 391
#     4   9  20  41  63  93 128 167 211 277 323 378
#     4  11  23  40  66  96 124 177 224 259 327 397
#     4  11  26  42  62  95 137 175 212 272 328 384
#     4   9  20  40  64  92 128 165 213 271 327 383
#     4  10  22  41  61  90 128 164 211 264 323 382
#     4  10  22  40  63  95 131 167 220 268 318 398
#
# _framework density 21.882484000000002
#
# number of rings (size 3 to 8) (size 9 to 14) (size 15 to 20)
#    0.000    2.000    0.000    1.714    4.000    9.143 
#    0.000    0.000    0.000    0.000    0.000    0.000 
#    0.000    0.000    0.000    0.000    0.000    0.000 
#
# Total GULP energy -173540.454235 kJ/mol
# GULP energy per Si atom -12395.746731 kJ/mol
# Density = 2.183268 g / cm^3
# Si number density = 21.882484 Si / 1000 Ang^3
#
#
#
# Elastic Constant Matrix: (Units=GPa)
#
#
# Indices 1 2 3 4 5 6 
#
# 1 118.2091 59.2978 52.2871 -11.1682 -9.6030 -3.8946
# 2 59.2978 131.5825 50.3242 -18.4036 -7.1414 -4.8467
# 3 52.2871 50.3242 114.8433 -19.1523 -14.3493 -5.2374
# 4 -11.1682 -18.4036 -19.1523 33.6589 -0.2050 -0.4588
# 5 -9.6030 -7.1414 -14.3493 -0.2050 35.6774 -7.8225
# 6 -3.8946 -4.8467 -5.2374 -0.4588 -7.8225 35.9744
#
#
#
# Elastic Compliance Matrix: (Units=1/GPa)
#
#
# Indices 1 2 3 4 5 6 
#
# 1 0.012192 -0.004052 -0.003655 -0.000237 0.001104 0.000479
# 2 -0.004052 0.010798 -0.002257 0.003289 0.000359 0.000808
# 3 -0.003655 -0.002257 0.012800 0.004891 0.004210 0.002142
# 4 -0.000237 0.003289 0.004891 0.034264 0.003258 0.002275
# 5 0.001104 0.000359 0.004210 0.003258 0.031807 0.007739
# 6 0.000479 0.000808 0.002142 0.002275 0.007739 0.029982
#
#
# Mechanical properties :
#
#
# Convention : Reuss Voigt Hill
#
# Bulk Modulus (GPa) = 63.04108 76.49479 69.76794
# Shear Modulus (GPa) = 31.83549 34.57720 33.20635
#
# Velocity S-wave (km/s) = 3.81837 3.97940 3.89972
# Velocity P-wave (km/s) = 6.95064 7.49314 7.22698
#
# Compressibility (1/GPa) = 0.01586267
#
# Stress axis : x y z
#
# Youngs Moduli (GPa) = 82.02071 92.60850 78.12521
#
# Poissons Ratio (x) = 0.37525 0.28555
# Poissons Ratio (y) = 0.33235 0.17631
# Poissons Ratio (z) = 0.29978 0.20899
#
# Static dielectric constant tensor:
#      x y z
#    x 4.388830 -0.248010 0.163910 
#    y -0.248010 3.966440 0.285410 
#    z 0.163910 0.285410 4.904770 
# 
# 
# High freq. dielectric constant tensor:
#      x y z
#    x 1.868950 -0.011690 -0.004040 
#    y -0.011690 1.838570 0.001990 
#    z -0.004040 0.001990 1.870480 
# 
# From -- ./inp_files/70078.got.cif
#   From: 2010.06.25/outbox.cif.g09.slc.cpg/sg2_36_cif.got.tgz:70078.got - 2010.06.27 13:26:56.
