data_PCOD8018687
_publ_section_title
;
Structure prediction by ZEFSAII (Michael W. Deem and Ramdas Pophale) SiO2 
 PCOD8018687
Probable space group: P -1
;
_chemical_formula_sum "Si O2"
_cell_formula_units_Z 16
_cell_length_a 8.825604
_cell_length_b 19.003787
_cell_length_c 11.886155
_cell_angle_alpha 48.399463
_cell_angle_beta 116.161477
_cell_angle_gamma 144.584833
_cell_volume 840.484162
_symmetry_space_group_name_H-M "P -1"
_symmetry_group_IT_number 2
_symmetry_cell_setting 'triclinic'
loop_
_space_group_symop_operation_xyz
x,y,z
-x,-y,-z
loop_
_atom_site_type_symbol
_atom_site_label
_atom_site_fract_x
_atom_site_fract_y
_atom_site_fract_z
Si Si1 0.792355 0.806888 0.354136
Si Si2 0.887728 0.848370 0.098872
Si Si3 0.547383 0.213447 0.390628
Si Si4 0.288128 0.661376 0.456624
Si Si5 0.173820 0.145083 0.171993
Si Si6 0.813584 0.165406 0.429742
Si Si7 0.184736 0.909155 0.715085
Si Si8 0.632887 0.085758 0.836527
O O1 0.712118 0.752781 0.254494
O O2 0.508670 0.686280 0.451575
O O3 0.993053 0.812539 0.453286
O O4 0.940636 0.969364 0.255787
O O5 0.104035 0.859748 0.153707
O O6 0.733232 0.775946 0.004702
O O7 0.000000 0.000000 0.000000
O O8 0.674379 0.332467 0.403274
O O9 0.438583 0.222822 0.237677
O O10 0.801613 0.263126 0.376671
O O11 0.289458 0.046958 0.535670
O O12 0.319760 0.781711 0.294599
O O13 0.000000 0.500000 0.500000
O O14 0.045856 0.168207 0.187626
O O15 0.924564 0.210235 0.289676
O O16 0.500000 0.000000 0.500000
O O17 0.434128 0.968714 0.795729
O O18 0.500000 0.000000 0.000000
#
# Coordination Sequence:
#
# PCOD8018687 Si02
#       8
#     2   2   2   2   2   2   2   2
#     4  11  18  34  52  81 117 150 191 240 295 341
#     4  10  21  30  50  86 121 152 182 232 301 354
#     4  10  19  32  52  80 116 146 191 239 294 339
#     4  11  24  40  61  83 115 161 203 240 286 350
#     4  11  17  30  51  85 117 145 182 241 296 346
#     4  10  18  28  51  82 115 144 179 248 304 341
#     4  10  17  27  49  80 114 143 178 238 299 334
#     4  11  19  36  56  87 120 151 195 240 293 346
#
# _framework density 19.036645
#
# number of rings (size 3 to 8) (size 9 to 14) (size 15 to 20)
#    0.000    1.500    6.250    4.125    1.750    0.000 
#    0.000    2.500    0.000    1.500    0.000    0.000 
#    0.000    0.000    0.000    0.000    0.000    0.000 
#
# Total GULP energy -198226.838772 kJ/mol
# GULP energy per Si atom -12389.177423 kJ/mol
# Density = 1.899332 g / cm^3
# Si number density = 19.036645 Si / 1000 Ang^3
#
#
#
# Elastic Constant Matrix: (Units=GPa)
#
#
# Indices 1 2 3 4 5 6 
#
# 1 144.8673 44.7851 51.8075 24.4972 -25.5111 8.5664
# 2 44.7851 79.6454 51.7133 27.8094 -14.4650 7.3610
# 3 51.8075 51.7133 92.7859 46.4222 -16.1660 -4.8148
# 4 24.4972 27.8094 46.4222 35.5838 -8.0469 -1.8075
# 5 -25.5111 -14.4650 -16.1660 -8.0469 36.3017 18.3897
# 6 8.5664 7.3610 -4.8148 -1.8075 18.3897 25.6561
#
#
#
# Elastic Compliance Matrix: (Units=1/GPa)
#
#
# Indices 1 2 3 4 5 6 
#
# 1 0.012063 0.000721 -0.006464 0.001981 0.014153 -0.015453
# 2 0.000721 0.025370 -0.011470 -0.002923 0.015488 -0.020980
# 3 -0.006464 -0.011470 0.040287 -0.040186 -0.008222 0.016072
# 4 0.001981 -0.002923 -0.040186 0.081745 0.001985 -0.003028
# 5 0.014153 0.015488 -0.008222 0.001985 0.071909 -0.062115
# 6 -0.015453 -0.020980 0.016072 -0.003028 -0.062115 0.097481
#
#
# Mechanical properties :
#
#
# Convention : Reuss Voigt Hill
#
# Bulk Modulus (GPa) = 23.09824 68.21225 45.65524
# Shear Modulus (GPa) = 13.23757 30.77452 22.00605
#
# Velocity S-wave (km/s) = 2.63985 4.02505 3.40366
# Velocity P-wave (km/s) = 4.63160 7.58362 6.28343
#
# Compressibility (1/GPa) = 0.04329335
#
# Stress axis : x y z
#
# Youngs Moduli (GPa) = 82.89964 39.41629 24.82196
#
# Poissons Ratio (x) = -0.02843 0.16045
# Poissons Ratio (y) = -0.05979 0.28471
# Poissons Ratio (z) = 0.53588 0.45212
#
# Static dielectric constant tensor:
#      x y z
#    x 3.821640 -0.130780 -0.362750 
#    y -0.130780 3.182490 0.638980 
#    z -0.362750 0.638980 3.635840 
# 
# 
# High freq. dielectric constant tensor:
#      x y z
#    x 1.766230 0.005070 -0.018820 
#    y 0.005070 1.695310 0.062350 
#    z -0.018820 0.062350 1.715130 
# 
# From -- ./inp_files/223804.got.cif
#   From: 2010.06.25/outbox.cif.g09.slc.cpg/sg2_112_cif.got.tgz:223804.got - 2010.06.27 13:26:56.
