data_PCOD8018609
_publ_section_title
;
Structure prediction by ZEFSAII (Michael W. Deem and Ramdas Pophale) SiO2 
 PCOD8018609
Probable space group: P -1
;
_chemical_formula_sum "Si O2"
_cell_formula_units_Z 14
_cell_length_a 9.762872
_cell_length_b 4.957360
_cell_length_c 13.377364
_cell_angle_alpha 98.732981
_cell_angle_beta 90.705095
_cell_angle_gamma 95.379989
_cell_volume 636.881801
_symmetry_space_group_name_H-M "P -1"
_symmetry_group_IT_number 2
_symmetry_cell_setting 'triclinic'
loop_
_space_group_symop_operation_xyz
x,y,z
-x,-y,-z
loop_
_atom_site_type_symbol
_atom_site_label
_atom_site_fract_x
_atom_site_fract_y
_atom_site_fract_z
Si Si1 0.980993 0.304868 0.269790
Si Si2 0.502699 0.192829 0.366066
Si Si3 0.945408 0.133817 0.606173
Si Si4 0.350534 0.681785 0.426893
Si Si5 0.649566 0.578283 0.050622
Si Si6 0.685476 0.136684 0.184208
Si Si7 0.076302 0.288006 0.049919
O O1 0.830760 0.152478 0.242133
O O2 0.960735 0.596263 0.339101
O O3 0.065293 0.349884 0.170464
O O4 0.065763 0.104983 0.325293
O O5 0.371698 0.370740 0.378625
O O6 0.618470 0.293504 0.453788
O O7 0.568506 0.233705 0.260205
O O8 0.454974 0.877984 0.371762
O O9 0.801699 0.249743 0.590426
O O10 0.000000 0.000000 0.500000
O O11 0.698480 0.317441 0.094298
O O12 0.640404 0.822314 0.141925
O O13 0.500000 0.500000 0.000000
O O14 0.761161 0.677865 0.972360
O O15 0.000000 0.500000 0.000000
O O16 0.000000 0.000000 0.000000
#
# Coordination Sequence:
#
# PCOD8018609 Si02
#       7
#     2   2   2   2   2   2   2
#     4  12  25  42  73  99 132 194 232 277 356 423
#     4  10  22  40  68  91 131 181 221 273 344 420
#     4  12  26  43  66 103 143 173 232 296 338 406
#     4  10  22  42  62  96 135 177 220 280 346 402
#     4  12  26  44  70 103 140 174 228 303 359 406
#     4  12  24  44  69  99 133 177 238 277 351 430
#     4  12  23  47  71  99 140 184 236 296 343 432
#
# _framework density 21.982102000000001
#
# number of rings (size 3 to 8) (size 9 to 14) (size 15 to 20)
#    0.000    0.571    2.857    5.143    0.000    6.857 
#    0.000    0.000    0.000    0.000    0.000    0.000 
#    0.000    0.000    0.000    0.000    0.000    0.000 
#
# Total GULP energy -173653.775103 kJ/mol
# GULP energy per Si atom -12403.841079 kJ/mol
# Density = 2.193207 g / cm^3
# Si number density = 21.982102 Si / 1000 Ang^3
#
#
#
# Elastic Constant Matrix: (Units=GPa)
#
#
# Indices 1 2 3 4 5 6 
#
# 1 131.0478 32.1271 61.4201 4.8419 1.1279 1.6597
# 2 32.1271 127.1232 48.2829 6.3865 7.7226 -9.0311
# 3 61.4201 48.2829 127.3035 2.1604 -4.8541 -4.4758
# 4 4.8419 6.3865 2.1604 40.6202 -2.5120 10.4823
# 5 1.1279 7.7226 -4.8541 -2.5120 30.8416 -6.3230
# 6 1.6597 -9.0311 -4.4758 10.4823 -6.3230 39.3915
#
#
#
# Elastic Compliance Matrix: (Units=1/GPa)
#
#
# Indices 1 2 3 4 5 6 
#
# 1 0.010033 -0.000756 -0.004630 -0.000607 -0.001192 -0.001152
# 2 -0.000756 0.009719 -0.003322 -0.001935 -0.002683 0.001967
# 3 -0.004630 -0.003322 0.011500 0.000359 0.003073 0.001138
# 4 -0.000607 -0.001935 0.000359 0.026949 0.001252 -0.007348
# 5 -0.001192 -0.002683 0.003073 0.001252 0.034756 0.005030
# 6 -0.001152 0.001967 0.001138 -0.007348 0.005030 0.028778
#
#
# Mechanical properties :
#
#
# Convention : Reuss Voigt Hill
#
# Bulk Modulus (GPa) = 72.26872 74.34830 73.30851
# Shear Modulus (GPa) = 34.77962 38.41362 36.59662
#
# Velocity S-wave (km/s) = 3.98198 4.18484 4.08467
# Velocity P-wave (km/s) = 7.35453 7.56612 7.46107
#
# Compressibility (1/GPa) = 0.01383725
#
# Stress axis : x y z
#
# Youngs Moduli (GPa) = 99.66823 102.89111 86.95799
#
# Poissons Ratio (x) = 0.07781 0.40258
# Poissons Ratio (y) = 0.07537 0.28884
# Poissons Ratio (z) = 0.46142 0.34177
#
# Static dielectric constant tensor:
#      x y z
#    x 3.867380 -0.040730 -0.002660 
#    y -0.040730 4.250480 -0.038000 
#    z -0.002660 -0.038000 4.158610 
# 
# 
# High freq. dielectric constant tensor:
#      x y z
#    x 1.865850 -0.006020 -0.000190 
#    y -0.006020 1.884760 -0.002150 
#    z -0.000190 -0.002150 1.867960 
# 
# From -- ./inp_files/373065.got.cif
#   From: 2010.06.25/outbox.cif.g09.slc.cpg/sg2_187_cif.got.tgz:373065.got - 2010.06.27 13:26:56.
