data_PCOD8018465
_publ_section_title
;
Structure prediction by ZEFSAII (Michael W. Deem and Ramdas Pophale) SiO2 
 PCOD8018465
Probable space group: P -1
;
_chemical_formula_sum "Si O2"
_cell_formula_units_Z 14
_cell_length_a 12.300199
_cell_length_b 10.662924
_cell_length_c 12.597338
_cell_angle_alpha 53.542788
_cell_angle_beta 80.481238
_cell_angle_gamma 37.070620
_cell_volume 617.611003
_symmetry_space_group_name_H-M "P -1"
_symmetry_group_IT_number 2
_symmetry_cell_setting 'triclinic'
loop_
_space_group_symop_operation_xyz
x,y,z
-x,-y,-z
loop_
_atom_site_type_symbol
_atom_site_label
_atom_site_fract_x
_atom_site_fract_y
_atom_site_fract_z
Si Si1 0.886646 0.606961 0.851521
Si Si2 0.461401 0.757465 0.907065
Si Si3 0.933720 0.324427 0.661246
Si Si4 0.609080 0.816966 0.294976
Si Si5 0.034098 0.720320 0.651311
Si Si6 0.829228 0.355895 0.878875
Si Si7 0.842931 0.161361 0.286221
O O1 0.977453 0.612993 0.743765
O O2 0.936336 0.365579 0.927986
O O3 0.612971 0.991544 0.714454
O O4 0.000000 0.500000 0.000000
O O5 0.599516 0.575562 0.863576
O O6 0.479333 0.908498 0.874933
O O7 0.586374 0.488243 0.107903
O O8 0.191741 0.055439 0.787461
O O9 0.801355 0.610061 0.461027
O O10 0.768673 0.507028 0.698433
O O11 0.966897 0.122476 0.691325
O O12 0.719849 0.580198 0.300651
O O13 0.069331 0.779125 0.720587
O O14 0.836532 0.044219 0.443125
O O15 0.000000 0.000000 0.000000
#
# Coordination Sequence:
#
# PCOD8018465 Si02
#       7
#     2   2   2   2   2   2   2
#     4  11  25  44  70 102 131 174 225 272 330 402
#     4  11  22  41  65  97 129 171 223 275 324 402
#     4  11  23  41  62  98 133 175 217 273 336 386
#     4  10  24  42  66  98 131 170 224 277 327 396
#     4  10  22  45  65  93 136 178 213 278 334 386
#     4  11  24  41  68 100 133 172 220 276 332 387
#     4  10  22  40  66  95 134 172 226 269 323 399
#
# _framework density 22.667988999999999
#
# number of rings (size 3 to 8) (size 9 to 14) (size 15 to 20)
#    0.000    1.429    1.429    3.429    0.000    9.143 
#    0.000    6.429    0.000    0.000    0.000    0.000 
#    0.000    0.000    0.000    0.000    0.000    0.000 
#
# Total GULP energy -173479.810714 kJ/mol
# GULP energy per Si atom -12391.415051 kJ/mol
# Density = 2.261640 g / cm^3
# Si number density = 22.667989 Si / 1000 Ang^3
#
#
#
# Elastic Constant Matrix: (Units=GPa)
#
#
# Indices 1 2 3 4 5 6 
#
# 1 86.4788 38.6526 35.2515 2.7614 -3.4280 8.5146
# 2 38.6526 106.4307 48.7683 6.0289 9.7465 7.9691
# 3 35.2515 48.7683 123.3942 3.6743 1.8671 -8.8547
# 4 2.7614 6.0289 3.6743 35.6884 2.7937 2.4698
# 5 -3.4280 9.7465 1.8671 2.7937 33.4963 -4.2433
# 6 8.5146 7.9691 -8.8547 2.4698 -4.2433 38.5993
#
#
#
# Elastic Compliance Matrix: (Units=1/GPa)
#
#
# Indices 1 2 3 4 5 6 
#
# 1 0.014967 -0.004129 -0.002880 -0.000169 0.002551 -0.002819
# 2 -0.004129 0.013595 -0.004336 -0.000950 -0.004478 -0.003322
# 3 -0.002880 -0.004336 0.010942 -0.000533 0.000931 0.004177
# 4 -0.000169 -0.000950 -0.000533 0.028569 -0.002344 -0.001975
# 5 0.002551 -0.004478 0.000931 -0.002344 0.032101 0.004254
# 6 -0.002819 -0.003322 0.004177 -0.001975 0.004254 0.028767
#
#
# Mechanical properties :
#
#
# Convention : Reuss Voigt Hill
#
# Bulk Modulus (GPa) = 59.47201 62.40538 60.93870
# Shear Modulus (GPa) = 31.79985 34.46558 33.13271
#
# Velocity S-wave (km/s) = 3.74953 3.90353 3.82730
# Velocity P-wave (km/s) = 6.71106 6.92146 6.81708
#
# Compressibility (1/GPa) = 0.01681463
#
# Stress axis : x y z
#
# Youngs Moduli (GPa) = 66.81415 73.55839 91.39206
#
# Poissons Ratio (x) = 0.30372 0.26318
# Poissons Ratio (y) = 0.27588 0.39625
# Poissons Ratio (z) = 0.19241 0.31892
#
# Static dielectric constant tensor:
#      x y z
#    x 4.002060 0.161370 -0.157930 
#    y 0.161370 4.342290 0.061190 
#    z -0.157930 0.061190 4.333630 
# 
# 
# High freq. dielectric constant tensor:
#      x y z
#    x 1.880980 0.018730 -0.013030 
#    y 0.018730 1.900970 0.004420 
#    z -0.013030 0.004420 1.899610 
# 
# From -- ./inp_files/452191.got.cif
#   From: 2010.06.25/outbox.cif.g09.slc.cpg/sg2_227_cif.got.tgz:452191.got - 2010.06.27 13:26:56.
