data_PCOD8018105
_publ_section_title
;
Structure prediction by ZEFSAII (Michael W. Deem and Ramdas Pophale) SiO2 
 PCOD8018105
Probable space group: P -1
;
_chemical_formula_sum "Si O2"
_cell_formula_units_Z 16
_cell_length_a 4.981202
_cell_length_b 20.780777
_cell_length_c 8.441897
_cell_angle_alpha 89.438340
_cell_angle_beta 88.194315
_cell_angle_gamma 61.165634
_cell_volume 765.111715
_symmetry_space_group_name_H-M "P -1"
_symmetry_group_IT_number 2
_symmetry_cell_setting 'triclinic'
loop_
_space_group_symop_operation_xyz
x,y,z
-x,-y,-z
loop_
_atom_site_type_symbol
_atom_site_label
_atom_site_fract_x
_atom_site_fract_y
_atom_site_fract_z
Si Si1 0.717038 0.575428 0.692442
Si Si2 0.552752 0.088047 0.417807
Si Si3 0.870783 0.594415 0.343215
Si Si4 0.069390 0.817232 0.084509
Si Si5 0.618714 0.807714 0.871413
Si Si6 0.072202 0.641702 0.845364
Si Si7 0.067417 0.079211 0.624763
Si Si8 0.238044 0.658442 0.185953
O O1 0.757943 0.606387 0.524556
O O2 0.356185 0.607154 0.721043
O O3 0.870111 0.488143 0.693142
O O4 0.861997 0.603163 0.826017
O O5 0.531496 0.143095 0.280089
O O6 0.219891 0.110269 0.494955
O O7 0.747264 0.092998 0.559655
O O8 0.707508 0.006533 0.343927
O O9 0.590267 0.613946 0.230277
O O10 0.018047 0.647597 0.314317
O O11 0.129375 0.744517 0.179475
O O12 0.999626 0.881496 0.206728
O O13 0.364397 0.799201 0.974899
O O14 0.774401 0.844497 0.975988
O O15 0.876593 0.728016 0.812136
O O16 0.798984 0.373784 0.979065
#
# Coordination Sequence:
#
# PCOD8018105 Si02
#       8
#     2   2   2   2   2   2   2   2
#     4  11  24  41  61  87 118 153 197 246 296 354
#     4  10  22  40  62  91 124 157 198 244 290 347
#     4  11  24  41  61  87 118 153 197 246 296 354
#     4  11  23  40  61  88 122 157 198 245 292 349
#     4  11  23  40  61  88 122 157 198 245 292 349
#     4  11  23  40  60  87 120 154 197 245 294 350
#     4  10  22  40  62  91 124 157 198 244 290 347
#     4  11  23  40  60  87 120 154 197 245 294 350
#
# _framework density 20.911978999999999
#
# number of rings (size 3 to 8) (size 9 to 14) (size 15 to 20)
#    0.000    1.250    0.000    6.750    0.000    9.000 
#    0.000    0.000    0.000    0.000    0.000    0.000 
#    0.000    0.000    0.000    0.000    0.000    0.000 
#
# Total GULP energy -198524.496446 kJ/mol
# GULP energy per Si atom -12407.781028 kJ/mol
# Density = 2.086438 g / cm^3
# Si number density = 20.911979 Si / 1000 Ang^3
#
#
#
# Elastic Constant Matrix: (Units=GPa)
#
#
# Indices 1 2 3 4 5 6 
#
# 1 91.6720 10.5741 0.5054 -8.7821 -3.5622 0.7064
# 2 10.5741 31.8077 17.4770 -9.0426 1.6418 -9.2870
# 3 0.5054 17.4770 37.2794 -7.7143 0.7505 -8.9111
# 4 -8.7821 -9.0426 -7.7143 24.5299 5.2469 8.2097
# 5 -3.5622 1.6418 0.7505 5.2469 29.0066 5.7959
# 6 0.7064 -9.2870 -8.9111 8.2097 5.7959 23.9254
#
#
#
# Elastic Compliance Matrix: (Units=1/GPa)
#
#
# Indices 1 2 3 4 5 6 
#
# 1 0.011943 -0.005141 0.002232 0.003808 0.001655 -0.003225
# 2 -0.005141 0.049258 -0.018526 0.008173 -0.006652 0.011179
# 3 0.002232 -0.018526 0.037762 0.004266 -0.001570 0.005724
# 4 0.003808 0.008173 0.004266 0.051839 -0.007206 -0.011393
# 5 0.001655 -0.006652 -0.001570 -0.007206 0.038406 -0.010047
# 6 -0.003225 0.011179 0.005724 -0.011393 -0.010047 0.054707
#
#
# Mechanical properties :
#
#
# Convention : Reuss Voigt Hill
#
# Bulk Modulus (GPa) = 17.82737 24.20802 21.01769
# Shear Modulus (GPa) = 16.36758 24.30586 20.33672
#
# Velocity S-wave (km/s) = 2.80069 3.41294 3.12186
# Velocity P-wave (km/s) = 4.35913 5.20886 4.80282
#
# Compressibility (1/GPa) = 0.05609353
#
# Stress axis : x y z
#
# Youngs Moduli (GPa) = 83.73008 20.30124 26.48179
#
# Poissons Ratio (x) = 0.10438 -0.05911
# Poissons Ratio (y) = 0.43049 0.49059
# Poissons Ratio (z) = -0.18690 0.37609
#
# Static dielectric constant tensor:
#      x y z
#    x 4.010780 0.023810 0.019360 
#    y 0.023810 3.679520 -0.034550 
#    z 0.019360 -0.034550 3.748570 
# 
# 
# High freq. dielectric constant tensor:
#      x y z
#    x 1.842260 0.000670 -0.000380 
#    y 0.000670 1.815120 -0.000170 
#    z -0.000380 -0.000170 1.820420 
# 
# From -- ./inp_files/141369.got.cif
#   From: 2010.06.25/outbox.cif.g09.slc.cpg/sg2_71_cif.got.tgz:141369.got - 2010.06.27 13:26:56.
