data_PCOD8018968
_publ_section_title
;
Structure prediction by ZEFSAII (Michael W. Deem and Ramdas Pophale) SiO2 
 PCOD8018968
Probable space group: P -1
;
_chemical_formula_sum "Si O2"
_cell_formula_units_Z 14
_cell_length_a 7.432733
_cell_length_b 5.086792
_cell_length_c 20.735911
_cell_angle_alpha 123.600196
_cell_angle_beta 115.582494
_cell_angle_gamma 72.631037
_cell_volume 587.136088
_symmetry_space_group_name_H-M "P -1"
_symmetry_group_IT_number 2
_symmetry_cell_setting 'triclinic'
loop_
_space_group_symop_operation_xyz
x,y,z
-x,-y,-z
loop_
_atom_site_type_symbol
_atom_site_label
_atom_site_fract_x
_atom_site_fract_y
_atom_site_fract_z
Si Si1 0.443582 0.537562 0.280040
Si Si2 0.890886 0.896012 0.103767
Si Si3 0.193092 0.139488 0.274694
Si Si4 0.260028 0.241170 0.542000
Si Si5 0.495036 0.278251 0.116004
Si Si6 0.823190 0.429133 0.549823
Si Si7 0.757080 0.268175 0.955888
O O1 0.285426 0.300409 0.248499
O O2 0.610421 0.563777 0.363442
O O3 0.542358 0.388781 0.210454
O O4 0.345280 0.884319 0.297342
O O5 0.041721 0.903228 0.067528
O O6 0.703354 0.152724 0.098065
O O7 0.813699 0.545152 0.050850
O O8 0.999658 0.970860 0.197717
O O9 0.130940 0.406210 0.353524
O O10 0.300701 0.344902 0.489186
O O11 0.030919 0.310703 0.534159
O O12 0.312077 0.864134 0.499454
O O13 0.389091 0.574573 0.101100
O O14 0.349790 0.991946 0.055378
#
# Coordination Sequence:
#
# PCOD8018968 Si02
#       7
#     2   2   2   2   2   2   2
#     4  12  24  41  63  93 135 164 223 270 320 397
#     4  11  25  45  72  97 139 178 221 283 339 387
#     4  12  25  42  62  96 130 171 217 272 326 394
#     4  10  22  41  63  92 122 168 214 270 318 395
#     4  12  24  46  68 100 137 178 223 280 336 396
#     4  10  22  41  64  89 125 165 219 261 331 386
#     4  11  26  45  69 103 132 175 232 276 330 414
#
# _framework density 23.844555
#
# number of rings (size 3 to 8) (size 9 to 14) (size 15 to 20)
#    0.000    0.857    2.857    3.429    0.000    9.143 
#    0.000    5.714    0.000    0.000    0.000    0.000 
#    0.000    0.000    0.000    0.000    0.000    0.000 
#
# Total GULP energy -173675.273873 kJ/mol
# GULP energy per Si atom -12405.376705 kJ/mol
# Density = 2.379028 g / cm^3
# Si number density = 23.844555 Si / 1000 Ang^3
#
#
#
# Elastic Constant Matrix: (Units=GPa)
#
#
# Indices 1 2 3 4 5 6 
#
# 1 77.9632 69.3341 0.7959 -28.1471 27.4435 -21.2519
# 2 69.3341 109.9812 -22.8432 -21.4069 22.6575 6.2142
# 3 0.7959 -22.8432 211.2187 52.5112 -46.2263 6.5199
# 4 -28.1471 -21.4069 52.5112 71.2935 -52.5507 3.1088
# 5 27.4435 22.6575 -46.2263 -52.5507 102.5614 -3.5319
# 6 -21.2519 6.2142 6.5199 3.1088 -3.5319 33.3896
#
#
#
# Elastic Compliance Matrix: (Units=1/GPa)
#
#
# Indices 1 2 3 4 5 6 
#
# 1 0.123922 -0.080500 -0.021296 0.032636 -0.004999 0.094447
# 2 -0.080500 0.062202 0.014249 -0.019217 0.002185 -0.063576
# 3 -0.021296 0.014249 0.009520 -0.009301 0.001489 -0.017042
# 4 0.032636 -0.019217 -0.009301 0.033996 0.009566 0.024011
# 5 -0.004999 0.002185 0.001489 0.009566 0.016072 -0.003070
# 6 0.094447 -0.063576 -0.017042 0.024011 -0.003070 0.102663
#
#
# Mechanical properties :
#
#
# Convention : Reuss Voigt Hill
#
# Bulk Modulus (GPa) = 48.66493 54.85963 51.76228
# Shear Modulus (GPa) = 9.42826 64.90732 37.16779
#
# Velocity S-wave (km/s) = 1.99064 5.22304 3.95239
# Velocity P-wave (km/s) = 5.07317 7.70913 6.52563
#
# Compressibility (1/GPa) = 0.02054868
#
# Stress axis : x y z
#
# Youngs Moduli (GPa) = 8.06960 16.07657 105.04377
#
# Poissons Ratio (x) = 1.29417 2.23703
# Poissons Ratio (y) = 0.64960 -1.49673
# Poissons Ratio (z) = 0.17185 -0.22907
#
# Static dielectric constant tensor:
#      x y z
#    x 4.224630 0.029380 0.035150 
#    y 0.029380 4.367620 0.085300 
#    z 0.035150 0.085300 4.379010 
# 
# 
# High freq. dielectric constant tensor:
#      x y z
#    x 1.942980 -0.002740 -0.000290 
#    y -0.002740 1.949920 0.004550 
#    z -0.000290 0.004550 1.963580 
# 
# From -- ./inp_files/585946.got.cif
#   From: 2010.06.25/outbox.cif.g09.slc.cpg/sg2_293_cif.got.tgz:585946.got - 2010.06.27 13:26:56.
