data_PCOD8018354
_publ_section_title
;
Structure prediction by ZEFSAII (Michael W. Deem and Ramdas Pophale) SiO2 
 PCOD8018354
Probable space group: P -1
;
_chemical_formula_sum "Si O2"
_cell_formula_units_Z 14
_cell_length_a 9.025051
_cell_length_b 17.040972
_cell_length_c 22.934881
_cell_angle_alpha 158.599277
_cell_angle_beta 150.319640
_cell_angle_gamma 33.799598
_cell_volume 632.523579
_symmetry_space_group_name_H-M "P -1"
_symmetry_group_IT_number 2
_symmetry_cell_setting 'triclinic'
loop_
_space_group_symop_operation_xyz
x,y,z
-x,-y,-z
loop_
_atom_site_type_symbol
_atom_site_label
_atom_site_fract_x
_atom_site_fract_y
_atom_site_fract_z
Si Si1 0.781734 0.707599 0.046582
Si Si2 0.901234 0.249887 0.144624
Si Si3 0.714315 0.611314 0.531490
Si Si4 0.872868 0.474750 0.684803
Si Si5 0.760831 0.811239 0.979811
Si Si6 0.919624 0.807560 0.633498
Si Si7 0.161903 0.100536 0.458757
O O1 0.453535 0.700417 0.958582
O O2 0.705671 0.708748 0.952695
O O3 0.930407 0.922874 0.263536
O O4 0.000000 0.500000 0.000000
O O5 0.987206 0.320410 0.287795
O O6 0.110906 0.357123 0.244925
O O7 0.000000 0.000000 0.000000
O O8 0.434164 0.639017 0.498990
O O9 0.653697 0.749917 0.546440
O O10 0.780345 0.356443 0.358903
O O11 0.872940 0.604958 0.835235
O O12 0.126833 0.268446 0.617633
O O13 0.500000 0.000000 0.000000
O O14 0.051788 0.940282 0.174148
O O15 0.882746 0.757780 0.517872
O O16 0.500000 0.000000 0.500000
#
# Coordination Sequence:
#
# PCOD8018354 Si02
#       7
#     2   2   2   2   2   2   2
#     4  11  26  46  70  97 140 185 224 280 353 411
#     4  12  24  39  64 101 140 178 228 283 340 408
#     4  11  22  37  66 100 131 170 223 278 337 392
#     4  12  24  39  69 101 134 174 231 284 334 397
#     4  11  22  43  68 101 136 176 224 283 342 406
#     4  10  22  40  65  93 135 172 215 275 342 396
#     4  11  25  47  68  94 134 182 227 277 336 412
#
# _framework density 22.133561
#
# number of rings (size 3 to 8) (size 9 to 14) (size 15 to 20)
#    0.000    0.857    2.857    4.714    4.000    0.000 
#    0.000   10.714    0.000    0.000    0.000    0.000 
#    0.000    0.000    0.000    0.000    0.000    0.000 
#
# Total GULP energy -173444.996895 kJ/mol
# GULP energy per Si atom -12388.928350 kJ/mol
# Density = 2.208318 g / cm^3
# Si number density = 22.133561 Si / 1000 Ang^3
#
#
#
# Elastic Constant Matrix: (Units=GPa)
#
#
# Indices 1 2 3 4 5 6 
#
# 1 136.9125 52.5000 45.8125 9.1840 14.5527 -5.7148
# 2 52.5000 112.4271 34.0069 15.5581 -1.2983 -10.7827
# 3 45.8125 34.0069 102.2669 16.6463 -12.8703 -16.6552
# 4 9.1840 15.5581 16.6463 31.2737 -6.3022 3.1650
# 5 14.5527 -1.2983 -12.8703 -6.3022 47.5421 4.7330
# 6 -5.7148 -10.7827 -16.6552 3.1650 4.7330 42.2931
#
#
#
# Elastic Compliance Matrix: (Units=1/GPa)
#
#
# Indices 1 2 3 4 5 6 
#
# 1 0.010590 -0.003831 -0.004171 0.000206 -0.004377 -0.000714
# 2 -0.003831 0.011843 -0.001080 -0.004351 0.000392 0.002358
# 3 -0.004171 -0.001080 0.014151 -0.005463 0.003885 0.004708
# 4 0.000206 -0.004351 -0.005463 0.038478 0.004094 -0.006571
# 5 -0.004377 0.000392 0.003885 0.004094 0.024175 -0.001973
# 6 -0.000714 0.002358 0.004708 -0.006571 -0.001973 0.026716
#
#
# Mechanical properties :
#
#
# Convention : Reuss Voigt Hill
#
# Bulk Modulus (GPa) = 54.28946 68.47169 61.38058
# Shear Modulus (GPa) = 33.27601 38.84090 36.05846
#
# Velocity S-wave (km/s) = 3.88160 4.19363 4.04063
# Velocity P-wave (km/s) = 6.68360 7.37913 7.03996
#
# Compressibility (1/GPa) = 0.01841978
#
# Stress axis : x y z
#
# Youngs Moduli (GPa) = 94.42625 84.43541 70.66690
#
# Poissons Ratio (x) = 0.32350 0.29474
# Poissons Ratio (y) = 0.36178 0.07634
# Poissons Ratio (z) = 0.39383 0.09122
#
# Static dielectric constant tensor:
#      x y z
#    x 4.056740 -0.386160 0.234370 
#    y -0.386160 3.285940 -0.114310 
#    z 0.234370 -0.114310 4.540920 
# 
# 
# High freq. dielectric constant tensor:
#      x y z
#    x 1.884220 -0.001410 0.011550 
#    y -0.001410 1.833630 0.014930 
#    z 0.011550 0.014930 1.892480 
# 
# From -- ./inp_files/159125.got.cif
#   From: 2010.06.25/outbox.cif.g09.slc.cpg/sg2_80_cif.got.tgz:159125.got - 2010.06.27 13:26:56.
