data_PCOD8018723
_publ_section_title
;
Structure prediction by ZEFSAII (Michael W. Deem and Ramdas Pophale) SiO2 
 PCOD8018723
Probable space group: P -1
;
_chemical_formula_sum "Si O2"
_cell_formula_units_Z 16
_cell_length_a 10.553107
_cell_length_b 12.515799
_cell_length_c 8.186366
_cell_angle_alpha 59.846866
_cell_angle_beta 109.381379
_cell_angle_gamma 129.102359
_cell_volume 725.358164
_symmetry_space_group_name_H-M "P -1"
_symmetry_group_IT_number 2
_symmetry_cell_setting 'triclinic'
loop_
_space_group_symop_operation_xyz
x,y,z
-x,-y,-z
loop_
_atom_site_type_symbol
_atom_site_label
_atom_site_fract_x
_atom_site_fract_y
_atom_site_fract_z
Si Si1 0.094029 0.423361 0.563482
Si Si2 0.478668 0.661640 0.008693
Si Si3 0.770196 0.652146 0.021296
Si Si4 0.664271 0.935817 0.348327
Si Si5 0.442478 0.610819 0.401278
Si Si6 0.863490 0.102046 0.630767
Si Si7 0.985081 0.047600 0.274583
Si Si8 0.461996 0.037327 0.280584
O O1 0.120735 0.360859 0.788882
O O2 0.263236 0.532612 0.459197
O O3 0.000000 0.500000 0.500000
O O4 0.974635 0.279775 0.507719
O O5 0.654965 0.692837 0.027806
O O6 0.449280 0.671524 0.178595
O O7 0.336355 0.502459 0.001420
O O8 0.462943 0.786751 0.823106
O O9 0.888191 0.776205 0.842463
O O10 0.564662 0.754431 0.457381
O O11 0.756772 0.007647 0.501738
O O12 0.798777 0.998075 0.212673
O O13 0.543170 0.987967 0.219273
O O14 0.500000 0.500000 0.500000
O O15 0.734901 0.060500 0.754703
O O16 0.980572 0.046604 0.765639
O O17 0.000000 0.000000 0.500000
O O18 0.500000 0.000000 0.500000
#
# Coordination Sequence:
#
# PCOD8018723 Si02
#       8
#     2   2   2   2   2   2   2   2
#     4  12  28  45  72 109 150 184 232 301 367 418
#     4  11  26  44  74 106 141 191 244 290 352 433
#     4  11  26  45  72 107 144 187 243 291 358 429
#     4  10  24  39  70  99 140 185 234 283 356 415
#     4  12  26  45  73 105 146 190 241 290 356 427
#     4  10  22  41  71  97 138 187 233 277 359 418
#     4  10  22  40  70 100 137 180 232 289 352 411
#     4  10  22  42  72  98 138 187 235 283 353 420
#
# _framework density 22.058067000000001
#
# number of rings (size 3 to 8) (size 9 to 14) (size 15 to 20)
#    0.000    1.250    2.500    1.500   14.000    3.000 
#    0.000    1.250    0.000    0.000    0.000    0.000 
#    0.000    0.000    0.000    0.000    0.000    0.000 
#
# Total GULP energy -198334.919652 kJ/mol
# GULP energy per Si atom -12395.932478 kJ/mol
# Density = 2.200786 g / cm^3
# Si number density = 22.058067 Si / 1000 Ang^3
#
#
#
# Elastic Constant Matrix: (Units=GPa)
#
#
# Indices 1 2 3 4 5 6 
#
# 1 243.5560 72.9409 55.0472 -37.2064 0.6816 1.0642
# 2 72.9409 156.8348 46.9271 -36.8675 -0.4401 5.1425
# 3 55.0472 46.9271 132.8094 -24.3211 -2.5674 1.4115
# 4 -37.2064 -36.8675 -24.3211 44.1803 -0.7965 -2.7633
# 5 0.6816 -0.4401 -2.5674 -0.7965 38.1062 -19.7525
# 6 1.0642 5.1425 1.4115 -2.7633 -19.7525 30.3191
#
#
#
# Elastic Compliance Matrix: (Units=1/GPa)
#
#
# Indices 1 2 3 4 5 6 
#
# 1 0.005199 -0.001489 -0.001171 0.002518 0.000071 0.000400
# 2 -0.001489 0.008775 -0.001540 0.005136 -0.000503 -0.001224
# 3 -0.001171 -0.001540 0.009085 0.002805 0.001123 0.000867
# 4 0.002518 0.005136 0.002805 0.030847 0.002628 0.003433
# 5 0.000071 -0.000503 0.001123 0.002628 0.040021 0.026343
# 6 0.000400 -0.001224 0.000867 0.003433 0.026343 0.050611
#
#
# Mechanical properties :
#
#
# Convention : Reuss Voigt Hill
#
# Bulk Modulus (GPa) = 68.20868 98.11450 83.16159
# Shear Modulus (GPa) = 31.68099 46.40680 39.04389
#
# Velocity S-wave (km/s) = 3.79391 4.59175 4.21176
# Velocity P-wave (km/s) = 7.08386 8.52578 7.83805
#
# Compressibility (1/GPa) = 0.01466089
#
# Stress axis : x y z
#
# Youngs Moduli (GPa) = 192.34670 113.95705 110.07102
#
# Poissons Ratio (x) = 0.16965 0.12885
# Poissons Ratio (y) = 0.28635 0.16949
# Poissons Ratio (z) = 0.22517 0.17547
#
# Static dielectric constant tensor:
#      x y z
#    x 7.474550 -0.156170 0.158320 
#    y -0.156170 3.965520 -0.241130 
#    z 0.158320 -0.241130 3.777370 
# 
# 
# High freq. dielectric constant tensor:
#      x y z
#    x 1.898600 -0.000150 -0.001700 
#    y -0.000150 1.868510 -0.020340 
#    z -0.001700 -0.020340 1.849180 
# 
# From -- ./inp_files/261676.got.cif
#   From: 2010.06.25/outbox.cif.g09.slc.cpg/sg2_131_cif.got.tgz:261676.got - 2010.06.27 13:26:56.
