data_PCOD8018067
_publ_section_title
;
Structure prediction by ZEFSAII (Michael W. Deem and Ramdas Pophale) SiO2 
 PCOD8018067
Probable space group: P -1
;
_chemical_formula_sum "Si O2"
_cell_formula_units_Z 16
_cell_length_a 16.604753
_cell_length_b 8.241597
_cell_length_c 18.683974
_cell_angle_alpha 34.062828
_cell_angle_beta 32.027234
_cell_angle_gamma 43.469141
_cell_volume 757.123535
_symmetry_space_group_name_H-M "P -1"
_symmetry_group_IT_number 2
_symmetry_cell_setting 'triclinic'
loop_
_space_group_symop_operation_xyz
x,y,z
-x,-y,-z
loop_
_atom_site_type_symbol
_atom_site_label
_atom_site_fract_x
_atom_site_fract_y
_atom_site_fract_z
Si Si1 0.184029 0.597772 0.763925
Si Si2 0.640265 0.765514 0.967567
Si Si3 0.373302 0.713651 0.438442
Si Si4 0.540869 0.742742 0.755247
Si Si5 0.847521 0.464250 0.671842
Si Si6 0.437918 0.855520 0.532471
Si Si7 0.159756 0.207618 0.056242
Si Si8 0.834194 0.932665 0.631796
O O1 0.301765 0.587132 0.611622
O O2 0.252678 0.848580 0.670675
O O3 0.013931 0.676013 0.835756
O O4 0.194470 0.310862 0.911314
O O5 0.725315 0.681467 0.010111
O O6 0.756729 0.903012 0.777440
O O7 0.586755 0.487484 0.065390
O O8 0.500000 0.000000 0.000000
O O9 0.495928 0.477858 0.400873
O O10 0.239760 0.781897 0.457193
O O11 0.456021 0.020089 0.269476
O O12 0.707210 0.570497 0.687329
O O13 0.497514 0.943968 0.648259
O O14 0.000000 0.500000 0.500000
O O15 0.838558 0.645201 0.685392
O O16 0.828985 0.136855 0.827911
O O17 0.500000 0.000000 0.500000
O O18 0.000000 0.000000 0.500000
#
# Coordination Sequence:
#
# PCOD8018067 Si02
#       8
#     2   2   2   2   2   2   2   2
#     4  10  22  42  64  94 133 177 217 267 332 408
#     4  12  25  43  67 100 136 171 225 289 328 395
#     4  10  23  42  66  92 134 171 220 274 326 406
#     4  10  22  40  61  94 127 174 219 270 335 390
#     4  11  22  40  66  94 132 177 224 273 337 403
#     4  11  23  38  65  96 127 171 220 273 329 392
#     4  11  23  41  67  93 134 175 219 275 335 391
#     4  11  26  42  67  97 135 176 221 276 344 399
#
# _framework density 21.132614
#
# number of rings (size 3 to 8) (size 9 to 14) (size 15 to 20)
#    0.000    1.250    1.250    6.000    3.500    5.000 
#    0.000    0.000    0.000    7.500    0.000    0.000 
#    0.000    0.000    0.000    0.000    0.000    0.000 
#
# Total GULP energy -198217.391104 kJ/mol
# GULP energy per Si atom -12388.586944 kJ/mol
# Density = 2.108452 g / cm^3
# Si number density = 21.132614 Si / 1000 Ang^3
#
#
#
# Elastic Constant Matrix: (Units=GPa)
#
#
# Indices 1 2 3 4 5 6 
#
# 1 128.2786 50.3252 32.0004 -5.8026 -22.5230 -22.8982
# 2 50.3252 101.6646 44.9998 -8.6848 -3.8163 -7.9117
# 3 32.0004 44.9998 105.8073 -9.0800 -17.6764 -3.6989
# 4 -5.8026 -8.6848 -9.0800 33.9667 -7.7564 1.3521
# 5 -22.5230 -3.8163 -17.6764 -7.7564 35.5364 1.8276
# 6 -22.8982 -7.9117 -3.6989 1.3521 1.8276 24.7688
#
#
#
# Elastic Compliance Matrix: (Units=1/GPa)
#
#
# Indices 1 2 3 4 5 6 
#
# 1 0.013021 -0.005263 0.000132 0.002300 0.007758 0.009678
# 2 -0.005263 0.014624 -0.005327 0.000467 -0.004277 -0.000700
# 3 0.000132 -0.005327 0.013138 0.003758 0.006884 -0.000331
# 4 0.002300 0.000467 0.003758 0.033381 0.010651 0.000229
# 5 0.007758 -0.004277 0.006884 0.010651 0.038170 0.003436
# 6 0.009678 -0.000700 -0.000331 0.000229 0.003436 0.048782
#
#
# Mechanical properties :
#
#
# Convention : Reuss Voigt Hill
#
# Bulk Modulus (GPa) = 50.33419 65.60014 57.96717
# Shear Modulus (GPa) = 26.50361 32.74940 29.62650
#
# Velocity S-wave (km/s) = 3.54525 3.94090 3.74830
# Velocity P-wave (km/s) = 6.37404 7.19841 6.79873
#
# Compressibility (1/GPa) = 0.01986721
#
# Stress axis : x y z
#
# Youngs Moduli (GPa) = 76.79829 68.37926 76.11753
#
# Poissons Ratio (x) = 0.35989 -0.01005
# Poissons Ratio (y) = 0.40420 0.40546
# Poissons Ratio (z) = -0.01014 0.36424
#
# Static dielectric constant tensor:
#      x y z
#    x 4.031870 -0.245770 -0.219980 
#    y -0.245770 3.795760 -0.175130 
#    z -0.219980 -0.175130 3.957590 
# 
# 
# High freq. dielectric constant tensor:
#      x y z
#    x 1.848220 -0.018560 -0.004140 
#    y -0.018560 1.815040 -0.007630 
#    z -0.004140 -0.007630 1.836090 
# 
# From -- ./inp_files/599320.got.cif
#   From: 2010.06.25/outbox.cif.g09.slc.cpg/sg2_300_cif.got.tgz:599320.got - 2010.06.27 13:26:56.
