data_PCOD8018259
_publ_section_title
;
Structure prediction by ZEFSAII (Michael W. Deem and Ramdas Pophale) SiO2 
 PCOD8018259
Probable space group: P -1
;
_chemical_formula_sum "Si O2"
_cell_formula_units_Z 16
_cell_length_a 8.384699
_cell_length_b 15.697906
_cell_length_c 11.969127
_cell_angle_alpha 127.671648
_cell_angle_beta 138.972157
_cell_angle_gamma 75.860394
_cell_volume 743.918913
_symmetry_space_group_name_H-M "P -1"
_symmetry_group_IT_number 2
_symmetry_cell_setting 'triclinic'
loop_
_space_group_symop_operation_xyz
x,y,z
-x,-y,-z
loop_
_atom_site_type_symbol
_atom_site_label
_atom_site_fract_x
_atom_site_fract_y
_atom_site_fract_z
Si Si1 0.039953 0.274300 0.485212
Si Si2 0.230145 0.722943 0.873535
Si Si3 0.309615 0.539713 0.309981
Si Si4 0.151404 0.862669 0.286057
Si Si5 0.011963 0.690636 0.276387
Si Si6 0.619013 0.865560 0.382599
Si Si7 0.185283 0.320172 0.194126
Si Si8 0.580402 0.474864 0.200780
O O1 0.873625 0.264220 0.503497
O O2 0.196607 0.191495 0.513208
O O3 0.256393 0.409974 0.693995
O O4 0.822255 0.226090 0.231247
O O5 0.238821 0.598168 0.748466
O O6 0.969910 0.703526 0.791271
O O7 0.490525 0.809634 0.149777
O O8 0.114000 0.414343 0.159843
O O9 0.497970 0.627296 0.575197
O O10 0.510730 0.518987 0.315361
O O11 0.130196 0.602340 0.214441
O O12 0.400363 0.849069 0.348625
O O13 0.086649 0.802195 0.324565
O O14 0.199884 0.997268 0.435594
O O15 0.897260 0.798305 0.018600
O O16 0.696929 0.616347 0.072280
#
# Coordination Sequence:
#
# PCOD8018259 Si02
#       8
#     2   2   2   2   2   2   2   2
#     4  12  25  41  66  97 133 175 212 260 328 393
#     4  11  24  43  65  97 131 173 212 266 325 382
#     4  11  23  37  62 102 128 168 214 264 328 384
#     4  10  23  45  69  89 127 174 218 273 317 372
#     4  12  25  39  64  98 131 173 213 264 323 389
#     4  10  24  48  67  92 128 174 223 267 317 378
#     4  10  22  40  64  92 133 167 211 275 316 383
#     4  12  23  41  64  98 137 169 208 266 328 390
#
# _framework density 21.507721
#
# number of rings (size 3 to 8) (size 9 to 14) (size 15 to 20)
#    0.000    1.000    3.750    2.625    7.000    0.500 
#    2.250    2.500    0.000    0.000    0.000    0.000 
#    0.000    0.000    0.000    0.000    0.000    0.000 
#
# Total GULP energy -198352.819565 kJ/mol
# GULP energy per Si atom -12397.051223 kJ/mol
# Density = 2.145877 g / cm^3
# Si number density = 21.507721 Si / 1000 Ang^3
#
#
#
# Elastic Constant Matrix: (Units=GPa)
#
#
# Indices 1 2 3 4 5 6 
#
# 1 73.9547 36.0654 32.7571 0.8325 -29.0170 17.5453
# 2 36.0654 128.5778 56.9072 0.1138 -18.3915 -2.5038
# 3 32.7571 56.9072 105.9648 5.6951 -14.8846 3.5746
# 4 0.8325 0.1138 5.6951 33.1803 4.7887 -5.1315
# 5 -29.0170 -18.3915 -14.8846 4.7887 24.2433 -4.1021
# 6 17.5453 -2.5038 3.5746 -5.1315 -4.1021 30.6920
#
#
#
# Elastic Compliance Matrix: (Units=1/GPa)
#
#
# Indices 1 2 3 4 5 6 
#
# 1 0.034417 -0.003686 -0.002680 -0.008041 0.035590 -0.016251
# 2 -0.003686 0.011283 -0.004906 0.001293 0.001561 0.004024
# 3 -0.002680 -0.004906 0.013285 -0.002526 0.001621 -0.000621
# 4 -0.008041 0.001293 -0.002526 0.034348 -0.015513 0.008666
# 5 0.035590 0.001561 0.001621 -0.015513 0.087170 -0.011350
# 6 -0.016251 0.004024 -0.000621 0.008666 -0.011350 0.042204
#
#
# Mechanical properties :
#
#
# Convention : Reuss Voigt Hill
#
# Bulk Modulus (GPa) = 27.44224 62.21740 44.82982
# Shear Modulus (GPa) = 19.42523 29.80764 24.61643
#
# Velocity S-wave (km/s) = 3.00855 3.72681 3.38677
# Velocity P-wave (km/s) = 4.98552 6.89272 6.01519
#
# Compressibility (1/GPa) = 0.03644018
#
# Stress axis : x y z
#
# Youngs Moduli (GPa) = 29.05576 88.62768 75.27488
#
# Poissons Ratio (x) = 0.32669 0.20174
# Poissons Ratio (y) = 0.10710 0.36929
# Poissons Ratio (z) = 0.07787 0.43480
#
# Static dielectric constant tensor:
#      x y z
#    x 3.824320 0.042810 -0.112090 
#    y 0.042810 3.756240 0.013870 
#    z -0.112090 0.013870 4.009270 
# 
# 
# High freq. dielectric constant tensor:
#      x y z
#    x 1.848380 0.001110 -0.012810 
#    y 0.001110 1.832210 -0.006880 
#    z -0.012810 -0.006880 1.847480 
# 
# From -- ./inp_files/260968.got.cif
#   From: 2010.06.25/outbox.cif.g09.slc.cpg/sg2_131_cif.got.tgz:260968.got - 2010.06.27 13:26:56.
