data_PCOD8018300
_publ_section_title
;
Structure prediction by ZEFSAII (Michael W. Deem and Ramdas Pophale) SiO2 
 PCOD8018300
Probable space group: P -1
;
_chemical_formula_sum "Si O2"
_cell_formula_units_Z 16
_cell_length_a 9.602372
_cell_length_b 15.576137
_cell_length_c 9.454334
_cell_angle_alpha 37.281266
_cell_angle_beta 97.706822
_cell_angle_gamma 114.702624
_cell_volume 725.815041
_symmetry_space_group_name_H-M "P -1"
_symmetry_group_IT_number 2
_symmetry_cell_setting 'triclinic'
loop_
_space_group_symop_operation_xyz
x,y,z
-x,-y,-z
loop_
_atom_site_type_symbol
_atom_site_label
_atom_site_fract_x
_atom_site_fract_y
_atom_site_fract_z
Si Si1 0.214602 0.741395 0.270799
Si Si2 0.136231 0.392339 0.723308
Si Si3 0.731631 0.065963 0.700567
Si Si4 0.841069 0.011734 0.509970
Si Si5 0.693022 0.653969 0.963419
Si Si6 0.618691 0.675096 0.620449
Si Si7 0.181795 0.157060 0.840339
Si Si8 0.393483 0.013959 0.717521
O O1 0.250680 0.592283 0.462731
O O2 0.197090 0.779798 0.382094
O O3 0.050264 0.676901 0.244876
O O4 0.352625 0.907619 0.995412
O O5 0.148213 0.342111 0.953042
O O6 0.201849 0.303457 0.748725
O O7 0.861250 0.112901 0.525320
O O8 0.556905 0.024077 0.665216
O O9 0.707172 0.907874 0.992066
O O10 0.765396 0.070294 0.298088
O O11 0.698630 0.823878 0.776853
O O12 0.000000 0.000000 0.500000
O O13 0.533232 0.502047 0.215509
O O14 0.698341 0.638281 0.815568
O O15 0.758396 0.760231 0.411861
O O16 0.554176 0.798517 0.485085
O O17 0.000000 0.000000 0.000000
#
# Coordination Sequence:
#
# PCOD8018300 Si02
#       8
#     2   2   2   2   2   2   2   2
#     4  11  24  41  66  96 139 182 223 281 355 402
#     4  11  23  41  63  98 138 177 229 289 332 413
#     4  12  24  41  70 100 133 179 230 282 343 410
#     4  11  25  43  72 100 138 183 234 287 340 415
#     4  10  22  40  64  97 131 177 224 279 346 393
#     4  10  23  41  67  97 137 180 222 287 343 417
#     4  12  24  42  69 103 136 177 241 283 338 413
#     4  11  23  42  66 101 138 181 226 279 353 411
#
# _framework density 22.044184000000001
#
# number of rings (size 3 to 8) (size 9 to 14) (size 15 to 20)
#    0.000    1.000    3.750    2.250    5.250    1.500 
#    0.000    2.500    0.000    6.000    0.000    0.000 
#    0.000    0.000    0.000    0.000    0.000    0.000 
#
# Total GULP energy -198288.734339 kJ/mol
# GULP energy per Si atom -12393.045896 kJ/mol
# Density = 2.199401 g / cm^3
# Si number density = 22.044184 Si / 1000 Ang^3
#
#
#
# Elastic Constant Matrix: (Units=GPa)
#
#
# Indices 1 2 3 4 5 6 
#
# 1 114.3963 50.8611 46.4760 12.5646 10.3704 -7.8224
# 2 50.8611 124.3937 49.6368 0.3996 7.4627 -14.6644
# 3 46.4760 49.6368 108.9380 -0.5886 6.7795 -7.1480
# 4 12.5646 0.3996 -0.5886 39.8556 0.9707 6.3101
# 5 10.3704 7.4627 6.7795 0.9707 42.0678 3.9352
# 6 -7.8224 -14.6644 -7.1480 6.3101 3.9352 31.0801
#
#
#
# Elastic Compliance Matrix: (Units=1/GPa)
#
#
# Indices 1 2 3 4 5 6 
#
# 1 0.012428 -0.003306 -0.003574 -0.004182 -0.001977 0.001846
# 2 -0.003306 0.011251 -0.003406 0.000308 -0.000991 0.003756
# 3 -0.003574 -0.003406 0.012305 0.001337 -0.000540 0.000120
# 4 -0.004182 0.000308 0.001337 0.027398 0.000713 -0.006252
# 5 -0.001977 -0.000991 -0.000540 0.000713 0.024915 -0.004389
# 6 0.001846 0.003756 0.000120 -0.006252 -0.004389 0.036264
#
#
# Mechanical properties :
#
#
# Convention : Reuss Voigt Hill
#
# Bulk Modulus (GPa) = 64.88647 71.29731 68.09189
# Shear Modulus (GPa) = 33.27290 35.98431 34.62861
#
# Velocity S-wave (km/s) = 3.88928 4.04465 3.96772
# Velocity P-wave (km/s) = 7.04750 7.36379 7.20738
#
# Compressibility (1/GPa) = 0.01541153
#
# Stress axis : x y z
#
# Youngs Moduli (GPa) = 80.46231 88.88081 81.26570
#
# Poissons Ratio (x) = 0.29380 0.29048
# Poissons Ratio (y) = 0.26597 0.27683
# Poissons Ratio (z) = 0.28761 0.30277
#
# Static dielectric constant tensor:
#      x y z
#    x 3.816580 0.104150 0.308900 
#    y 0.104150 4.252160 -0.005890 
#    z 0.308900 -0.005890 4.348730 
# 
# 
# High freq. dielectric constant tensor:
#      x y z
#    x 1.848610 0.014190 0.020910 
#    y 0.014190 1.873780 0.007100 
#    z 0.020910 0.007100 1.875070 
# 
# From -- ./inp_files/205335.got.cif
#   From: 2010.06.25/outbox.cif.g09.slc.cpg/sg2_103_cif.got.tgz:205335.got - 2010.06.27 13:26:56.
