data_PCOD8018222
_publ_section_title
;
Structure prediction by ZEFSAII (Michael W. Deem and Ramdas Pophale) SiO2 
 PCOD8018222
Probable space group: P -1
;
_chemical_formula_sum "Si O2"
_cell_formula_units_Z 16
_cell_length_a 11.160509
_cell_length_b 11.961597
_cell_length_c 6.459682
_cell_angle_alpha 118.046357
_cell_angle_beta 110.411620
_cell_angle_gamma 69.547522
_cell_volume 695.137661
_symmetry_space_group_name_H-M "P -1"
_symmetry_group_IT_number 2
_symmetry_cell_setting 'triclinic'
loop_
_space_group_symop_operation_xyz
x,y,z
-x,-y,-z
loop_
_atom_site_type_symbol
_atom_site_label
_atom_site_fract_x
_atom_site_fract_y
_atom_site_fract_z
Si Si1 0.387113 0.280600 0.800290
Si Si2 0.795669 0.596423 0.537243
Si Si3 0.379821 0.015163 0.784736
Si Si4 0.884547 0.173021 0.040253
Si Si5 0.053289 0.583938 0.845379
Si Si6 0.096882 0.006689 0.753776
Si Si7 0.640876 0.229351 0.686275
Si Si8 0.267656 0.529168 0.228563
O O1 0.316149 0.295396 0.543551
O O2 0.377804 0.139641 0.750081
O O3 0.537425 0.284914 0.851922
O O4 0.334748 0.398967 0.028880
O O5 0.895398 0.547999 0.365168
O O6 0.725863 0.500512 0.546992
O O7 0.895070 0.639642 0.802829
O O8 0.233602 0.043023 0.815165
O O9 0.411741 0.876188 0.570496
O O10 0.500000 0.000000 0.000000
O O11 0.771101 0.144276 0.798236
O O12 0.025776 0.107714 0.970881
O O13 0.872340 0.325855 0.165783
O O14 0.870258 0.133182 0.234538
O O15 0.112972 0.571253 0.103004
O O16 0.000000 0.000000 0.500000
O O17 0.663839 0.350893 0.668713
#
# Coordination Sequence:
#
# PCOD8018222 Si02
#       8
#     2   2   2   2   2   2   2   2
#     4  11  26  44  68 100 141 178 230 282 348 412
#     4  10  22  40  64 100 137 180 221 282 345 408
#     4  12  28  47  72 103 140 188 232 289 353 420
#     4  10  23  41  69  96 138 177 231 296 338 408
#     4   9  21  38  64  98 136 175 220 284 342 409
#     4  11  24  43  67 103 134 183 232 282 347 412
#     4  11  24  48  69  98 139 185 232 289 348 409
#     4  10  23  44  69 101 132 181 230 281 340 417
#
# _framework density 23.017022999999998
#
# number of rings (size 3 to 8) (size 9 to 14) (size 15 to 20)
#    0.000    1.500    1.250    1.875    7.000    0.500 
#    4.500    0.000    0.000    0.000    0.000    0.000 
#    0.000    0.000    0.000    0.000    0.000    0.000 
#
# Total GULP energy -198227.301802 kJ/mol
# GULP energy per Si atom -12389.206363 kJ/mol
# Density = 2.296464 g / cm^3
# Si number density = 23.017023 Si / 1000 Ang^3
#
#
#
# Elastic Constant Matrix: (Units=GPa)
#
#
# Indices 1 2 3 4 5 6 
#
# 1 123.2245 32.5186 30.5862 -23.8917 9.6348 -4.6550
# 2 32.5186 139.7010 56.0882 -32.1442 12.7702 16.4132
# 3 30.5862 56.0882 84.0280 -19.6162 11.7908 10.0282
# 4 -23.8917 -32.1442 -19.6162 47.1169 2.1700 -8.5252
# 5 9.6348 12.7702 11.7908 2.1700 33.7690 -0.7942
# 6 -4.6550 16.4132 10.0282 -8.5252 -0.7942 33.5128
#
#
#
# Elastic Compliance Matrix: (Units=1/GPa)
#
#
# Indices 1 2 3 4 5 6 
#
# 1 0.009995 -0.000594 -0.002343 0.004405 -0.002011 0.003454
# 2 -0.000594 0.011093 -0.005429 0.004619 -0.002492 -0.002775
# 3 -0.002343 -0.005429 0.017701 0.002195 -0.003658 -0.002492
# 4 0.004405 0.004619 0.002195 0.028653 -0.005497 0.004852
# 5 -0.002011 -0.002492 -0.003658 -0.005497 0.032793 0.001415
# 6 0.003454 -0.002775 -0.002492 0.004852 0.001415 0.033691
#
#
# Mechanical properties :
#
#
# Convention : Reuss Voigt Hill
#
# Bulk Modulus (GPa) = 45.33975 65.03773 55.18874
# Shear Modulus (GPa) = 31.64331 38.06379 34.85355
#
# Velocity S-wave (km/s) = 3.71182 4.07101 3.89556
# Velocity P-wave (km/s) = 6.17343 7.10037 6.65306
#
# Compressibility (1/GPa) = 0.02205570
#
# Stress axis : x y z
#
# Youngs Moduli (GPa) = 100.04518 90.14977 56.49495
#
# Poissons Ratio (x) = 0.05357 0.13239
# Poissons Ratio (y) = 0.05945 0.30671
# Poissons Ratio (z) = 0.23445 0.48942
#
# Static dielectric constant tensor:
#      x y z
#    x 4.333880 -0.085250 0.170370 
#    y -0.085250 4.352240 -0.260100 
#    z 0.170370 -0.260100 3.959660 
# 
# 
# High freq. dielectric constant tensor:
#      x y z
#    x 1.921430 0.000360 0.005070 
#    y 0.000360 1.916550 -0.016060 
#    z 0.005070 -0.016060 1.896510 
# 
# From -- ./inp_files/71975.got.cif
#   From: 2010.06.25/outbox.cif.g09.slc.cpg/sg2_36_cif.got.tgz:71975.got - 2010.06.27 13:26:56.
