data_PCOD8018332
_publ_section_title
;
Structure prediction by ZEFSAII (Michael W. Deem and Ramdas Pophale) SiO2 
 PCOD8018332
Probable space group: P -1
;
_chemical_formula_sum "Si O2"
_cell_formula_units_Z 16
_cell_length_a 9.068784
_cell_length_b 12.385336
_cell_length_c 15.145707
_cell_angle_alpha 125.420474
_cell_angle_beta 111.889781
_cell_angle_gamma 34.985961
_cell_volume 775.702183
_symmetry_space_group_name_H-M "P -1"
_symmetry_group_IT_number 2
_symmetry_cell_setting 'triclinic'
loop_
_space_group_symop_operation_xyz
x,y,z
-x,-y,-z
loop_
_atom_site_type_symbol
_atom_site_label
_atom_site_fract_x
_atom_site_fract_y
_atom_site_fract_z
Si Si1 0.504097 0.491640 0.894461
Si Si2 0.757536 0.815812 0.528726
Si Si3 0.580974 0.095254 0.053179
Si Si4 0.871689 0.020035 0.725761
Si Si5 0.253541 0.982848 0.760733
Si Si6 0.891872 0.449701 0.894754
Si Si7 0.197644 0.330675 0.342679
Si Si8 0.055926 0.146232 0.146421
O O1 0.717379 0.462919 0.915091
O O2 0.224281 0.704555 0.887612
O O3 0.603066 0.282969 0.782373
O O4 0.500000 0.500000 0.000000
O O5 0.858792 0.894525 0.609037
O O6 0.701516 0.774719 0.587241
O O7 0.978548 0.590304 0.416843
O O8 0.500000 0.000000 0.500000
O O9 0.779197 0.991398 0.127859
O O10 0.307539 0.358745 0.131771
O O11 0.500000 0.000000 0.000000
O O12 0.715126 0.038620 0.961538
O O13 0.097317 0.951878 0.690653
O O14 0.919791 0.960789 0.812435
O O15 0.554539 0.771115 0.699902
O O16 0.133809 0.198636 0.792587
O O17 0.000000 0.500000 0.000000
O O18 0.076706 0.286535 0.242908
#
# Coordination Sequence:
#
# PCOD8018332 Si02
#       8
#     2   2   2   2   2   2   2   2
#     4  11  23  35  57  87 120 166 203 242 292 354
#     4  10  22  43  66  89 115 155 203 256 312 367
#     4  12  22  36  60  88 123 168 200 242 293 354
#     4  10  23  40  62  88 124 160 201 254 308 355
#     4  11  23  40  58  92 125 157 203 247 299 365
#     4  11  22  36  52  79 120 159 199 241 286 344
#     4  10  22  40  65  90 118 155 204 255 306 362
#     4  11  21  40  59  88 124 163 206 248 292 363
#
# _framework density 20.626470999999999
#
# number of rings (size 3 to 8) (size 9 to 14) (size 15 to 20)
#    0.000    1.250    2.500    3.750    0.000    4.000 
#    0.000    0.625    0.000    0.000    0.000    0.000 
#    0.000    0.000    0.000    0.000    0.000    0.000 
#
# Total GULP energy -198295.420044 kJ/mol
# GULP energy per Si atom -12393.463753 kJ/mol
# Density = 2.057952 g / cm^3
# Si number density = 20.626471 Si / 1000 Ang^3
#
#
#
# Elastic Constant Matrix: (Units=GPa)
#
#
# Indices 1 2 3 4 5 6 
#
# 1 96.2328 36.1928 40.2384 16.7534 8.0875 -4.2635
# 2 36.1928 139.6493 43.5286 14.4298 7.8227 -6.9684
# 3 40.2384 43.5286 91.8448 16.2775 6.7740 -4.7436
# 4 16.7534 14.4298 16.2775 33.8660 0.3343 4.6496
# 5 8.0875 7.8227 6.7740 0.3343 29.2988 5.5883
# 6 -4.2635 -6.9684 -4.7436 4.6496 5.5883 30.7765
#
#
#
# Elastic Compliance Matrix: (Units=1/GPa)
#
#
# Indices 1 2 3 4 5 6 
#
# 1 0.013838 -0.001552 -0.004234 -0.004408 -0.002773 0.002083
# 2 -0.001552 0.008865 -0.002984 -0.001820 -0.001589 0.001896
# 3 -0.004234 -0.002984 0.015141 -0.004173 -0.001877 0.002043
# 4 -0.004408 -0.001820 -0.004173 0.035512 0.003733 -0.007709
# 5 -0.002773 -0.001589 -0.001877 0.003733 0.037309 -0.008372
# 6 0.002083 0.001896 0.002043 -0.007709 -0.008372 0.036210
#
#
# Mechanical properties :
#
#
# Convention : Reuss Voigt Hill
#
# Bulk Modulus (GPa) = 49.25026 63.07183 56.16105
# Shear Modulus (GPa) = 29.20881 32.63941 30.92411
#
# Velocity S-wave (km/s) = 3.76717 3.98226 3.87621
# Velocity P-wave (km/s) = 6.54608 7.19646 6.87896
#
# Compressibility (1/GPa) = 0.02030446
#
# Stress axis : x y z
#
# Youngs Moduli (GPa) = 72.26359 112.80674 66.04796
#
# Poissons Ratio (x) = 0.17508 0.27963
# Poissons Ratio (y) = 0.11215 0.19707
# Poissons Ratio (z) = 0.30595 0.33658
#
# Static dielectric constant tensor:
#      x y z
#    x 3.674580 0.229040 0.237190 
#    y 0.229040 3.803420 0.032850 
#    z 0.237190 0.032850 3.489210 
# 
# 
# High freq. dielectric constant tensor:
#      x y z
#    x 1.819250 0.000250 0.015100 
#    y 0.000250 1.822420 0.013530 
#    z 0.015100 0.013530 1.788720 
# 
# From -- ./inp_files/500855.got.cif
#   From: 2010.06.25/outbox.cif.g09.slc.cpg/sg2_251_cif.got.tgz:500855.got - 2010.06.27 13:26:56.
