data_PCOD8018030
_publ_section_title
;
Structure prediction by ZEFSAII (Michael W. Deem and Ramdas Pophale) SiO2 
 PCOD8018030
Probable space group: P -1
;
_chemical_formula_sum "Si O2"
_cell_formula_units_Z 16
_cell_length_a 8.900364
_cell_length_b 7.903168
_cell_length_c 17.529901
_cell_angle_alpha 101.817564
_cell_angle_beta 49.103514
_cell_angle_gamma 71.881622
_cell_volume 728.799089
_symmetry_space_group_name_H-M "P -1"
_symmetry_group_IT_number 2
_symmetry_cell_setting 'triclinic'
loop_
_space_group_symop_operation_xyz
x,y,z
-x,-y,-z
loop_
_atom_site_type_symbol
_atom_site_label
_atom_site_fract_x
_atom_site_fract_y
_atom_site_fract_z
Si Si1 0.088712 0.143668 0.003394
Si Si2 0.057768 0.383148 0.390913
Si Si3 0.448836 0.267260 0.142573
Si Si4 0.727250 0.095279 0.683263
Si Si5 0.278433 0.516588 0.951145
Si Si6 0.246133 0.972057 0.508133
Si Si7 0.696535 0.680967 0.423368
Si Si8 0.906163 0.592784 0.855260
O O1 0.385030 0.970043 0.895064
O O2 0.001513 0.274799 0.124999
O O3 0.986095 0.330352 0.991565
O O4 0.000000 0.000000 0.000000
O O5 0.238482 0.423096 0.289690
O O6 0.000000 0.500000 0.500000
O O7 0.811386 0.483994 0.428352
O O8 0.198194 0.132394 0.334429
O O9 0.598783 0.358026 0.075068
O O10 0.320189 0.245451 0.111030
O O11 0.469400 0.286720 0.825418
O O12 0.954902 0.098442 0.634695
O O13 0.691699 0.124506 0.606790
O O14 0.204530 0.487247 0.055509
O O15 0.314885 0.135871 0.508416
O O16 0.420900 0.775532 0.492766
O O17 0.867187 0.611659 0.284731
#
# Coordination Sequence:
#
# PCOD8018030 Si02
#       8
#     2   2   2   2   2   2   2   2
#     4  10  22  40  60  94 127 165 205 255 310 374
#     4  11  22  40  63  91 125 167 211 254 317 370
#     4  10  23  40  64  90 130 164 205 263 314 372
#     4  11  22  38  66  90 125 170 209 258 307 377
#     4  11  23  40  65  95 125 164 215 253 316 374
#     4  10  22  40  63  91 126 163 217 253 314 366
#     4  10  22  42  62  92 127 165 204 269 308 368
#     4  11  21  39  65  91 130 163 210 253 318 373
#
# _framework density 21.953921999999999
#
# number of rings (size 3 to 8) (size 9 to 14) (size 15 to 20)
#    0.000    1.500    1.250    4.125    1.750    2.500 
#    0.000    2.500    2.750    0.000    0.000    0.000 
#    0.000    0.000    0.000    0.000    0.000    0.000 
#
# Total GULP energy -198241.387256 kJ/mol
# GULP energy per Si atom -12390.086703 kJ/mol
# Density = 2.190395 g / cm^3
# Si number density = 21.953922 Si / 1000 Ang^3
#
#
#
# Elastic Constant Matrix: (Units=GPa)
#
#
# Indices 1 2 3 4 5 6 
#
# 1 122.4121 54.3406 37.0496 2.3660 9.0318 -29.9456
# 2 54.3406 115.1826 36.8275 12.3989 -4.7518 -29.7533
# 3 37.0496 36.8275 94.9258 -3.3048 11.4308 -19.8934
# 4 2.3660 12.3989 -3.3048 34.3733 -4.4083 -2.7778
# 5 9.0318 -4.7518 11.4308 -4.4083 24.6712 6.7794
# 6 -29.9456 -29.7533 -19.8934 -2.7778 6.7794 48.4332
#
#
#
# Elastic Compliance Matrix: (Units=1/GPa)
#
#
# Indices 1 2 3 4 5 6 
#
# 1 0.012172 -0.004258 -0.001254 0.000220 -0.006102 0.005262
# 2 -0.004258 0.013233 -0.003411 -0.004021 0.004063 0.003297
# 3 -0.001254 -0.003411 0.014193 0.002048 -0.007544 0.004133
# 4 0.000220 -0.004021 0.002048 0.031197 0.003837 -0.000241
# 5 -0.006102 0.004063 -0.007544 0.003837 0.050827 -0.011269
# 6 0.005262 0.003297 0.004133 -0.000241 -0.011269 0.029186
#
#
# Mechanical properties :
#
#
# Convention : Reuss Voigt Hill
#
# Bulk Modulus (GPa) = 45.96942 65.43956 55.70449
# Shear Modulus (GPa) = 28.42476 35.11572 31.77024
#
# Velocity S-wave (km/s) = 3.60216 4.00374 3.80825
# Velocity P-wave (km/s) = 6.18751 7.15860 6.69070
#
# Compressibility (1/GPa) = 0.02175359
#
# Stress axis : x y z
#
# Youngs Moduli (GPa) = 82.15714 75.56850 70.45859
#
# Poissons Ratio (x) = 0.32175 0.08833
# Poissons Ratio (y) = 0.34981 0.24030
# Poissons Ratio (z) = 0.10300 0.25773
#
# Static dielectric constant tensor:
#      x y z
#    x 4.304700 -0.427330 -0.073110 
#    y -0.427330 4.433860 0.354960 
#    z -0.073110 0.354960 3.943890 
# 
# 
# High freq. dielectric constant tensor:
#      x y z
#    x 1.874010 -0.023950 0.004010 
#    y -0.023950 1.870660 0.017550 
#    z 0.004010 0.017550 1.853690 
# 
# From -- ./inp_files/221666.got.cif
#   From: 2010.06.25/outbox.cif.g09.slc.cpg/sg2_111_cif.got.tgz:221666.got - 2010.06.27 13:26:56.
