data_PCOD8018528
_publ_section_title
;
Structure prediction by ZEFSAII (Michael W. Deem and Ramdas Pophale) SiO2 
 PCOD8018528
Probable space group: P -1
;
_chemical_formula_sum "Si O2"
_cell_formula_units_Z 14
_cell_length_a 4.937073
_cell_length_b 16.412487
_cell_length_c 9.814915
_cell_angle_alpha 107.143236
_cell_angle_beta 69.600745
_cell_angle_gamma 70.694040
_cell_volume 623.375198
_symmetry_space_group_name_H-M "P -1"
_symmetry_group_IT_number 2
_symmetry_cell_setting 'triclinic'
loop_
_space_group_symop_operation_xyz
x,y,z
-x,-y,-z
loop_
_atom_site_type_symbol
_atom_site_label
_atom_site_fract_x
_atom_site_fract_y
_atom_site_fract_z
Si Si1 0.957396 0.844494 0.071538
Si Si2 0.136474 0.585174 0.139033
Si Si3 0.855732 0.535698 0.691645
Si Si4 0.107287 0.203357 0.649843
Si Si5 0.300197 0.962391 0.106753
Si Si6 0.122950 0.908795 0.533626
Si Si7 0.898648 0.362287 0.122087
O O1 0.160607 0.900211 0.015166
O O2 0.088439 0.741792 0.921269
O O3 0.022154 0.831630 0.215065
O O4 0.563964 0.900377 0.146095
O O5 0.966435 0.544264 0.256599
O O6 0.114079 0.679869 0.263699
O O7 0.500000 0.500000 0.000000
O O8 0.955024 0.622107 0.040847
O O9 0.481995 0.558043 0.758084
O O10 0.000000 0.500000 0.500000
O O11 0.898510 0.627298 0.780786
O O12 0.492640 0.166858 0.578629
O O13 0.055020 0.154490 0.501457
O O14 0.981980 0.051917 0.275245
O O15 0.500000 0.000000 0.000000
O O16 0.000000 0.000000 0.500000
#
# Coordination Sequence:
#
# PCOD8018528 Si02
#       7
#     2   2   2   2   2   2   2
#     4  11  21  41  65  90 122 164 221 258 309 387
#     4   9  22  42  68  96 131 166 221 265 316 387
#     4  11  22  41  62  93 132 163 201 262 332 380
#     4  11  22  39  68  99 119 169 218 269 316 372
#     4  12  25  41  61  90 130 169 209 259 326 383
#     4  12  22  41  66  91 131 162 215 268 321 373
#     4  10  22  40  67  90 119 170 215 259 311 383
#
# _framework density 22.458383000000001
#
# number of rings (size 3 to 8) (size 9 to 14) (size 15 to 20)
#    0.000    1.143    2.857    3.429    0.000    8.000 
#    7.714    0.000    0.000    0.000    0.000    0.000 
#    0.000    0.000    0.000    0.000    0.000    0.000 
#
# Total GULP energy -173519.993987 kJ/mol
# GULP energy per Si atom -12394.285285 kJ/mol
# Density = 2.240727 g / cm^3
# Si number density = 22.458383 Si / 1000 Ang^3
#
#
#
# Elastic Constant Matrix: (Units=GPa)
#
#
# Indices 1 2 3 4 5 6 
#
# 1 107.2837 28.2236 35.5072 7.9979 11.7210 11.6437
# 2 28.2236 85.2584 58.8528 23.1142 -2.3196 11.6995
# 3 35.5072 58.8528 140.7709 4.8936 10.4169 23.7456
# 4 7.9979 23.1142 4.8936 31.1234 4.3172 -5.0483
# 5 11.7210 -2.3196 10.4169 4.3172 42.2706 5.7357
# 6 11.6437 11.6995 23.7456 -5.0483 5.7357 26.8332
#
#
#
# Elastic Compliance Matrix: (Units=1/GPa)
#
#
# Indices 1 2 3 4 5 6 
#
# 1 0.010906 -0.002266 -0.001193 -0.000976 -0.002436 -0.002352
# 2 -0.002266 0.024305 -0.008241 -0.018293 0.006842 -0.007225
# 3 -0.001193 -0.008241 0.011736 0.004172 -0.002776 -0.004897
# 4 -0.000976 -0.018293 0.004172 0.049122 -0.008930 0.015858
# 5 -0.002436 0.006842 -0.002776 -0.008930 0.027250 -0.006975
# 6 -0.002352 -0.007225 -0.004897 0.015858 -0.006975 0.050246
#
#
# Mechanical properties :
#
#
# Convention : Reuss Voigt Hill
#
# Bulk Modulus (GPa) = 42.46723 64.27557 53.37140
# Shear Modulus (GPa) = 24.41227 34.09407 29.25317
#
# Velocity S-wave (km/s) = 3.30055 3.90051 3.61300
# Velocity P-wave (km/s) = 5.78577 6.99766 6.42037
#
# Compressibility (1/GPa) = 0.02354757
#
# Stress axis : x y z
#
# Youngs Moduli (GPa) = 91.69224 41.14336 85.20452
#
# Poissons Ratio (x) = 0.09323 0.10161
# Poissons Ratio (y) = 0.20778 0.70221
# Poissons Ratio (z) = 0.10935 0.33908
#
# Static dielectric constant tensor:
#      x y z
#    x 4.060380 -0.045720 0.040830 
#    y -0.045720 4.283480 0.104330 
#    z 0.040830 0.104330 4.146330 
# 
# 
# High freq. dielectric constant tensor:
#      x y z
#    x 1.884310 0.006650 0.007400 
#    y 0.006650 1.877090 0.016010 
#    z 0.007400 0.016010 1.879620 
# 
# From -- ./inp_files/137923.got.cif
#   From: 2010.06.25/outbox.cif.g09.slc.cpg/sg2_69_cif.got.tgz:137923.got - 2010.06.27 13:26:56.
