data_PCOD8018145
_publ_section_title
;
Structure prediction by ZEFSAII (Michael W. Deem and Ramdas Pophale) SiO2 
 PCOD8018145
Probable space group: P -1
;
_chemical_formula_sum "Si O2"
_cell_formula_units_Z 14
_cell_length_a 8.390680
_cell_length_b 19.169877
_cell_length_c 7.908291
_cell_angle_alpha 143.577080
_cell_angle_beta 114.916267
_cell_angle_gamma 54.365919
_cell_volume 610.858667
_symmetry_space_group_name_H-M "P -1"
_symmetry_group_IT_number 2
_symmetry_cell_setting 'triclinic'
loop_
_space_group_symop_operation_xyz
x,y,z
-x,-y,-z
loop_
_atom_site_type_symbol
_atom_site_label
_atom_site_fract_x
_atom_site_fract_y
_atom_site_fract_z
Si Si1 0.617814 0.867628 0.014646
Si Si2 0.612220 0.655902 0.026849
Si Si3 0.337860 0.770825 0.837041
Si Si4 0.309056 0.581060 0.184565
Si Si5 0.904057 0.750345 0.187162
Si Si6 0.987378 0.987693 0.672002
Si Si7 0.580971 0.126064 0.387770
O O1 0.439162 0.864761 0.030824
O O2 0.601873 0.838176 0.752466
O O3 0.825818 0.760035 0.977091
O O4 0.596907 0.014133 0.309952
O O5 0.482683 0.657665 0.809995
O O6 0.723479 0.508457 0.861480
O O7 0.765974 0.715291 0.180296
O O8 0.456621 0.744955 0.272775
O O9 0.318978 0.701976 0.522688
O O10 0.127921 0.866904 0.014098
O O11 0.125884 0.635807 0.079843
O O12 0.500000 0.500000 0.000000
O O13 0.892755 0.892559 0.502954
O O14 0.211897 0.924702 0.719357
O O15 0.000000 0.000000 0.500000
#
# Coordination Sequence:
#
# PCOD8018145 Si02
#       7
#     2   2   2   2   2   2   2
#     4  10  22  40  63 101 130 178 210 278 333 393
#     4  11  23  45  67  96 136 179 220 268 326 398
#     4  11  24  43  69  97 135 172 222 269 340 385
#     4  12  27  46  69  95 133 179 227 272 321 394
#     4  11  24  44  67  97 135 174 222 273 335 389
#     4  12  22  40  70 104 132 167 215 279 335 387
#     4  11  22  40  69 101 139 167 222 268 337 392
#
# _framework density 22.918558000000001
#
# number of rings (size 3 to 8) (size 9 to 14) (size 15 to 20)
#    0.000    0.857    2.857    4.286    0.000    6.857 
#    0.000    7.857    0.000    0.000    0.000    0.000 
#    0.000    0.000    0.000    0.000    0.000    0.000 
#
# Total GULP energy -173570.336036 kJ/mol
# GULP energy per Si atom -12397.881145 kJ/mol
# Density = 2.286639 g / cm^3
# Si number density = 22.918558 Si / 1000 Ang^3
#
#
#
# Elastic Constant Matrix: (Units=GPa)
#
#
# Indices 1 2 3 4 5 6 
#
# 1 101.6042 53.6783 48.6544 7.9633 3.3842 -14.7397
# 2 53.6783 183.0014 38.4502 -0.2114 1.2335 -20.0681
# 3 48.6544 38.4502 93.1002 0.9872 -7.7009 -10.4693
# 4 7.9633 -0.2114 0.9872 31.4030 7.0132 8.4700
# 5 3.3842 1.2335 -7.7009 7.0132 42.4673 7.2787
# 6 -14.7397 -20.0681 -10.4693 8.4700 7.2787 39.0291
#
#
#
# Elastic Compliance Matrix: (Units=1/GPa)
#
#
# Indices 1 2 3 4 5 6 
#
# 1 0.015447 -0.002678 -0.006661 -0.004291 -0.002345 0.004039
# 2 -0.002678 0.006745 -0.001196 0.000312 -0.000625 0.002185
# 3 -0.006661 -0.001196 0.014997 0.000445 0.003177 0.000203
# 4 -0.004291 0.000312 0.000445 0.036106 -0.004108 -0.008410
# 5 -0.002345 -0.000625 0.003177 -0.004108 0.025738 -0.004263
# 6 0.004039 0.002185 0.000203 -0.008410 -0.004263 0.030946
#
#
# Mechanical properties :
#
#
# Convention : Reuss Voigt Hill
#
# Bulk Modulus (GPa) = 62.03382 73.25241 67.64311
# Shear Modulus (GPa) = 31.96518 38.37475 35.16997
#
# Velocity S-wave (km/s) = 3.73866 4.09638 3.92160
# Velocity P-wave (km/s) = 6.76481 7.37599 7.07700
#
# Compressibility (1/GPa) = 0.01612024
#
# Stress axis : x y z
#
# Youngs Moduli (GPa) = 64.73878 148.25154 66.68053
#
# Poissons Ratio (x) = 0.39696 0.44415
# Poissons Ratio (y) = 0.17335 0.07974
# Poissons Ratio (z) = 0.43122 0.17728
#
# Static dielectric constant tensor:
#      x y z
#    x 4.116420 -0.039500 0.326300 
#    y -0.039500 4.620740 0.018900 
#    z 0.326300 0.018900 3.755660 
# 
# 
# High freq. dielectric constant tensor:
#      x y z
#    x 1.902030 0.005870 0.022900 
#    y 0.005870 1.933680 -0.000240 
#    z 0.022900 -0.000240 1.874300 
# 
# From -- ./inp_files/224393.got.cif
#   From: 2010.06.25/outbox.cif.g09.slc.cpg/sg2_113_cif.got.tgz:224393.got - 2010.06.27 13:26:56.
