data_PCOD8018440
_publ_section_title
;
Structure prediction by ZEFSAII (Michael W. Deem and Ramdas Pophale) SiO2 
 PCOD8018440
Probable space group: P -1
;
_chemical_formula_sum "Si O2"
_cell_formula_units_Z 16
_cell_length_a 17.154643
_cell_length_b 6.444057
_cell_length_c 8.495422
_cell_angle_alpha 79.489801
_cell_angle_beta 67.669683
_cell_angle_gamma 54.892825
_cell_volume 709.858385
_symmetry_space_group_name_H-M "P -1"
_symmetry_group_IT_number 2
_symmetry_cell_setting 'triclinic'
loop_
_space_group_symop_operation_xyz
x,y,z
-x,-y,-z
loop_
_atom_site_type_symbol
_atom_site_label
_atom_site_fract_x
_atom_site_fract_y
_atom_site_fract_z
Si Si1 0.558109 0.211185 0.960293
Si Si2 0.164680 0.416575 0.859658
Si Si3 0.268424 0.775729 0.296048
Si Si4 0.905319 0.678256 0.651074
Si Si5 0.059232 0.173459 0.075019
Si Si6 0.813340 0.401401 0.869981
Si Si7 0.340020 0.341129 0.537703
Si Si8 0.515285 0.924065 0.260618
O O1 0.669968 0.105511 0.825576
O O2 0.494011 0.195085 0.873467
O O3 0.500000 0.500000 0.000000
O O4 0.561935 0.080230 0.140974
O O5 0.234202 0.372542 0.660570
O O6 0.055988 0.687697 0.915361
O O7 0.140316 0.197238 0.903810
O O8 0.225928 0.427219 0.963844
O O9 0.268450 0.615026 0.168207
O O10 0.315586 0.597346 0.436955
O O11 0.159714 0.025482 0.393789
O O12 0.948354 0.664425 0.791319
O O13 0.846036 0.540389 0.708013
O O14 0.000000 0.500000 0.500000
O O15 0.096884 0.885907 0.116094
O O16 0.407601 0.294094 0.646924
O O17 0.405537 0.104069 0.402738
#
# Coordination Sequence:
#
# PCOD8018440 Si02
#       8
#     2   2   2   2   2   2   2   2
#     4  11  24  47  75  96 134 182 226 277 339 420
#     4  10  22  40  66  92 138 173 224 276 340 400
#     4  11  26  42  67 103 132 179 230 270 348 411
#     4  10  24  40  66  96 134 177 227 287 332 399
#     4   9  21  42  62  96 127 180 227 273 332 407
#     4  10  23  41  65  93 133 179 227 269 334 414
#     4  11  25  45  65 105 138 174 220 292 342 395
#     4  10  26  47  70  98 140 173 225 286 341 405
#
# _framework density 22.539707
#
# number of rings (size 3 to 8) (size 9 to 14) (size 15 to 20)
#    0.000    1.750    1.250    0.375   12.250    1.500 
#    2.250    0.000    0.000    0.000    0.000    0.000 
#    0.000    0.000    0.000    0.000    0.000    0.000 
#
# Total GULP energy -198260.865400 kJ/mol
# GULP energy per Si atom -12391.304088 kJ/mol
# Density = 2.248841 g / cm^3
# Si number density = 22.539707 Si / 1000 Ang^3
#
#
#
# Elastic Constant Matrix: (Units=GPa)
#
#
# Indices 1 2 3 4 5 6 
#
# 1 78.2912 34.3455 42.0275 -12.4879 -2.8387 -1.1260
# 2 34.3455 110.9087 44.4932 -12.4347 1.5030 -8.5604
# 3 42.0275 44.4932 130.9873 -10.9373 -20.6775 -9.9891
# 4 -12.4879 -12.4347 -10.9373 34.8898 -6.9354 1.9484
# 5 -2.8387 1.5030 -20.6775 -6.9354 38.3259 -3.7044
# 6 -1.1260 -8.5604 -9.9891 1.9484 -3.7044 32.4599
#
#
#
# Elastic Compliance Matrix: (Units=1/GPa)
#
#
# Indices 1 2 3 4 5 6 
#
# 1 0.017038 -0.003303 -0.004253 0.003606 -0.000430 -0.001854
# 2 -0.003303 0.011528 -0.002875 0.001571 -0.001795 0.001741
# 3 -0.004253 -0.002875 0.011464 0.002196 0.006695 0.003254
# 4 0.003606 0.001571 0.002196 0.032648 0.007307 0.000089
# 5 -0.000430 -0.001795 0.006695 0.007307 0.031522 0.004731
# 6 -0.001854 0.001741 0.003254 0.000089 0.004731 0.032738
#
#
# Mechanical properties :
#
#
# Convention : Reuss Voigt Hill
#
# Bulk Modulus (GPa) = 52.17338 62.43552 57.30445
# Shear Modulus (GPa) = 30.45282 34.42317 32.43799
#
# Velocity S-wave (km/s) = 3.67968 3.91221 3.79773
# Velocity P-wave (km/s) = 6.42269 6.94029 6.68650
#
# Compressibility (1/GPa) = 0.01916686
#
# Stress axis : x y z
#
# Youngs Moduli (GPa) = 58.69337 86.74800 87.23087
#
# Poissons Ratio (x) = 0.28653 0.37097
# Poissons Ratio (y) = 0.19387 0.25082
# Poissons Ratio (z) = 0.24961 0.24943
#
# Static dielectric constant tensor:
#      x y z
#    x -2.350520 -0.504670 5.785330 
#    y -0.504670 3.899610 0.397380 
#    z 5.785330 0.397380 -1.339740 
# 
# 
# High freq. dielectric constant tensor:
#      x y z
#    x 1.887540 -0.004530 0.000360 
#    y -0.004530 1.891430 -0.006870 
#    z 0.000360 -0.006870 1.886320 
# 
# From -- ./inp_files/323541.got.cif
#   From: 2010.06.25/outbox.cif.g09.slc.cpg/sg2_162_cif.got.tgz:323541.got - 2010.06.27 13:26:56.
