data_PCOD8018945
_publ_section_title
;
Structure prediction by ZEFSAII (Michael W. Deem and Ramdas Pophale) SiO2 
 PCOD8018945
Probable space group: P -1
;
_chemical_formula_sum "Si O2"
_cell_formula_units_Z 16
_cell_length_a 8.615035
_cell_length_b 19.186067
_cell_length_c 8.766015
_cell_angle_alpha 125.010627
_cell_angle_beta 145.544260
_cell_angle_gamma 58.338872
_cell_volume 667.206519
_symmetry_space_group_name_H-M "P -1"
_symmetry_group_IT_number 2
_symmetry_cell_setting 'triclinic'
loop_
_space_group_symop_operation_xyz
x,y,z
-x,-y,-z
loop_
_atom_site_type_symbol
_atom_site_label
_atom_site_fract_x
_atom_site_fract_y
_atom_site_fract_z
Si Si1 0.060536 0.769482 0.127702
Si Si2 0.579627 0.521821 0.419570
Si Si3 0.362707 0.317651 0.505910
Si Si4 0.835053 0.573987 0.225978
Si Si5 0.310914 0.998006 0.199569
Si Si6 0.381546 0.090645 0.086463
Si Si7 0.869660 0.727733 0.234874
Si Si8 0.665577 0.174268 0.177620
O O1 0.384634 0.754236 0.333147
O O2 0.008860 0.714673 0.166866
O O3 0.894527 0.733377 0.806791
O O4 0.932889 0.870649 0.172038
O O5 0.500000 0.500000 0.500000
O O6 0.554307 0.624064 0.496392
O O7 0.892438 0.487186 0.588333
O O8 0.387765 0.481861 0.092718
O O9 0.289960 0.377333 0.666626
O O10 0.921847 0.638635 0.249826
O O11 0.371523 0.079092 0.246377
O O12 0.500000 0.000000 0.500000
O O13 0.377626 0.912494 0.050221
O O14 0.000000 0.000000 0.000000
O O15 0.575812 0.161694 0.268930
O O16 0.500000 0.000000 0.000000
O O17 0.025897 0.798968 0.543251
O O18 0.543009 0.754739 0.987704
#
# Coordination Sequence:
#
# PCOD8018945 Si02
#       8
#     2   2   2   2   2   2   2   2
#     4  11  23  42  66  94 128 172 219 272 323 392
#     4  12  24  44  69  95 129 177 224 269 319 392
#     4  12  25  42  64  98 134 170 216 272 335 392
#     4  12  25  42  66  97 134 174 215 273 333 388
#     4  11  24  40  62  93 127 164 208 263 324 387
#     4   9  22  44  68  94 128 173 221 265 323 389
#     4  11  22  41  63  91 123 164 217 263 317 381
#     4  10  22  41  63  88 124 168 211 265 317 383
#
# _framework density 23.980581000000001
#
# number of rings (size 3 to 8) (size 9 to 14) (size 15 to 20)
#    0.000    1.000    0.000    7.125    0.000    6.000 
#    0.000   10.625    0.000    0.000    0.000    0.000 
#    0.000    0.000    0.000    0.000    0.000    0.000 
#
# Total GULP energy -198360.188333 kJ/mol
# GULP energy per Si atom -12397.511771 kJ/mol
# Density = 2.392600 g / cm^3
# Si number density = 23.980581 Si / 1000 Ang^3
#
#
#
# Elastic Constant Matrix: (Units=GPa)
#
#
# Indices 1 2 3 4 5 6 
#
# 1 80.0430 19.7402 32.8113 -22.1596 -2.2493 -7.3499
# 2 19.7402 112.8122 40.4190 -23.4886 11.0970 -3.4296
# 3 32.8113 40.4190 168.0907 -14.0593 0.7304 -8.6668
# 4 -22.1596 -23.4886 -14.0593 41.3004 -3.5324 3.5652
# 5 -2.2493 11.0970 0.7304 -3.5324 38.9963 -1.9028
# 6 -7.3499 -3.4296 -8.6668 3.5652 -1.9028 46.4775
#
#
#
# Elastic Compliance Matrix: (Units=1/GPa)
#
#
# Indices 1 2 3 4 5 6 
#
# 1 0.015804 -0.000545 -0.002261 0.007426 0.001857 0.001544
# 2 -0.000545 0.011028 -0.002120 0.005043 -0.002681 -0.000164
# 3 -0.002261 -0.002120 0.006932 -0.000097 0.000373 0.000801
# 4 0.007426 0.005043 -0.000097 0.031254 0.001787 -0.000796
# 5 0.001857 -0.002681 0.000373 0.001787 0.026723 0.001122
# 6 0.001544 -0.000164 0.000801 -0.000796 0.001122 0.022004
#
#
# Mechanical properties :
#
#
# Convention : Reuss Voigt Hill
#
# Bulk Modulus (GPa) = 41.82184 60.76520 51.29352
# Shear Modulus (GPa) = 38.00277 43.21984 40.61131
#
# Velocity S-wave (km/s) = 3.98519 4.24994 4.11969
# Velocity P-wave (km/s) = 6.21718 7.03399 6.63816
#
# Compressibility (1/GPa) = 0.02391095
#
# Stress axis : x y z
#
# Youngs Moduli (GPa) = 63.27368 90.67792 144.25689
#
# Poissons Ratio (x) = 0.04941 0.32622
# Poissons Ratio (y) = 0.03448 0.30589
# Poissons Ratio (z) = 0.14308 0.19228
#
# Static dielectric constant tensor:
#      x y z
#    x 4.820320 -0.076040 -0.044570 
#    y -0.076040 4.620300 -0.248070 
#    z -0.044570 -0.248070 4.362970 
# 
# 
# High freq. dielectric constant tensor:
#      x y z
#    x 1.948980 -0.001110 -0.001640 
#    y -0.001110 1.962480 -0.011700 
#    z -0.001640 -0.011700 1.958850 
# 
# From -- ./inp_files/223958.got.cif
#   From: 2010.06.25/outbox.cif.g09.slc.cpg/sg2_112_cif.got.tgz:223958.got - 2010.06.27 13:26:56.
