data_PCOD8018571
_publ_section_title
;
Structure prediction by ZEFSAII (Michael W. Deem and Ramdas Pophale) SiO2 
 PCOD8018571
Probable space group: P -1
;
_chemical_formula_sum "Si O2"
_cell_formula_units_Z 12
_cell_length_a 9.074672
_cell_length_b 15.387083
_cell_length_c 18.692050
_cell_angle_alpha 20.671425
_cell_angle_beta 143.908532
_cell_angle_gamma 138.239152
_cell_volume 542.107297
_symmetry_space_group_name_H-M "P -1"
_symmetry_group_IT_number 2
_symmetry_cell_setting 'triclinic'
loop_
_space_group_symop_operation_xyz
x,y,z
-x,-y,-z
loop_
_atom_site_type_symbol
_atom_site_label
_atom_site_fract_x
_atom_site_fract_y
_atom_site_fract_z
Si Si1 0.876113 0.076550 0.102654
Si Si2 0.370107 0.918313 0.847826
Si Si3 0.773818 0.301755 0.188003
Si Si4 0.733146 0.636582 0.295242
Si Si5 0.702122 0.595810 0.625889
Si Si6 0.417021 0.148688 0.283579
O O1 0.810540 0.128750 0.119806
O O2 0.173504 0.026144 0.248858
O O3 0.732276 0.844880 0.196177
O O4 0.791725 0.329736 0.832294
O O5 0.255527 0.803654 0.821000
O O6 0.388190 0.212956 0.618669
O O7 0.643878 0.782477 0.075524
O O8 0.635478 0.135640 0.320051
O O9 0.069002 0.291262 0.327971
O O10 0.650437 0.574457 0.931746
O O11 0.534203 0.434152 0.391593
O O12 0.000000 0.500000 0.500000
O O13 0.500000 0.000000 0.500000
#
# Coordination Sequence:
#
# PCOD8018571 Si02
#       6
#     2   2   2   2   2   2
#     4  10  24  43  64  95 131 170 221 262 322 386
#     4  11  23  42  70  96 129 175 213 269 322 385
#     4  10  23  40  65 106 125 165 224 258 327 383
#     4  11  27  44  62  98 132 171 222 267 322 386
#     4  10  22  43  67  92 131 168 215 268 316 392
#     4  10  22  40  67  96 138 167 203 275 323 381
#
# _framework density 22.135836999999999
#
# number of rings (size 3 to 8) (size 9 to 14) (size 15 to 20)
#    0.000    1.667    0.000    3.500    4.667   10.667 
#    0.000    0.000    0.000    0.000    0.000    0.000 
#    0.000    0.000    0.000    0.000    0.000    0.000 
#
# Total GULP energy -148789.798409 kJ/mol
# GULP energy per Si atom -12399.149867 kJ/mol
# Density = 2.208545 g / cm^3
# Si number density = 22.135837 Si / 1000 Ang^3
#
#
#
# Elastic Constant Matrix: (Units=GPa)
#
#
# Indices 1 2 3 4 5 6 
#
# 1 104.3406 66.0718 43.5107 7.9833 -0.9532 17.1864
# 2 66.0718 115.6651 51.5481 7.4607 -3.3490 17.7725
# 3 43.5107 51.5481 151.7702 23.1663 -8.5649 21.2619
# 4 7.9833 7.4607 23.1663 26.6448 8.6525 10.9282
# 5 -0.9532 -3.3490 -8.5649 8.6525 33.3544 2.1628
# 6 17.1864 17.7725 21.2619 10.9282 2.1628 42.9045
#
#
#
# Elastic Compliance Matrix: (Units=1/GPa)
#
#
# Indices 1 2 3 4 5 6 
#
# 1 0.015573 -0.007907 -0.001495 -0.000074 -0.000573 -0.002174
# 2 -0.007907 0.014531 -0.002560 0.001179 0.000393 -0.001903
# 3 -0.001495 -0.002560 0.009526 -0.008007 0.004304 -0.001239
# 4 -0.000074 0.001179 -0.008007 0.052842 -0.015051 -0.009191
# 5 -0.000573 0.000393 0.004304 -0.015051 0.035014 0.000002
# 6 -0.002174 -0.001903 -0.001239 -0.009191 0.000002 0.027922
#
#
# Mechanical properties :
#
#
# Convention : Reuss Voigt Hill
#
# Bulk Modulus (GPa) = 63.67258 77.11522 70.39390
# Shear Modulus (GPa) = 27.09049 34.62377 30.85713
#
# Velocity S-wave (km/s) = 3.50212 3.95922 3.73767
# Velocity P-wave (km/s) = 6.72161 7.47084 7.10611
#
# Compressibility (1/GPa) = 0.01570535
#
# Stress axis : x y z
#
# Youngs Moduli (GPa) = 64.21267 68.81802 104.98108
#
# Poissons Ratio (x) = 0.54416 0.15699
# Poissons Ratio (y) = 0.50775 0.26870
# Poissons Ratio (z) = 0.09603 0.17614
#
# Static dielectric constant tensor:
#      x y z
#    x 3.788270 0.285710 -0.001340 
#    y 0.285710 4.040830 -0.031820 
#    z -0.001340 -0.031820 4.482580 
# 
# 
# High freq. dielectric constant tensor:
#      x y z
#    x 1.851300 0.017270 0.005290 
#    y 0.017270 1.874170 -0.000770 
#    z 0.005290 -0.000770 1.895770 
# 
# From -- ./inp_files/170098.got.cif
#   From: 2010.06.25/outbox.cif.g09.slc.cpg/sg2_86_cif.got.tgz:170098.got - 2010.06.27 13:26:56.
