data_PCOD8018797
_publ_section_title
;
Structure prediction by ZEFSAII (Michael W. Deem and Ramdas Pophale) SiO2 
 PCOD8018797
Probable space group: P -1
;
_chemical_formula_sum "Si O2"
_cell_formula_units_Z 16
_cell_length_a 8.421245
_cell_length_b 20.821192
_cell_length_c 9.512217
_cell_angle_alpha 126.198255
_cell_angle_beta 97.653704
_cell_angle_gamma 126.772407
_cell_volume 709.453981
_symmetry_space_group_name_H-M "P -1"
_symmetry_group_IT_number 2
_symmetry_cell_setting 'triclinic'
loop_
_space_group_symop_operation_xyz
x,y,z
-x,-y,-z
loop_
_atom_site_type_symbol
_atom_site_label
_atom_site_fract_x
_atom_site_fract_y
_atom_site_fract_z
Si Si1 0.398874 0.646802 0.613796
Si Si2 0.155039 0.817842 0.313021
Si Si3 0.696916 0.128735 0.895458
Si Si4 0.145595 0.136779 0.619166
Si Si5 0.754657 0.956749 0.090882
Si Si6 0.816244 0.618681 0.259667
Si Si7 0.074093 0.208762 0.277875
Si Si8 0.757571 0.438158 0.198534
O O1 0.579353 0.663160 0.555198
O O2 0.363328 0.598039 0.704410
O O3 0.070323 0.521683 0.346794
O O4 0.620808 0.815607 0.856393
O O5 0.140202 0.769137 0.094639
O O6 0.977749 0.828475 0.301306
O O7 0.029801 0.700072 0.255058
O O8 0.496297 0.973201 0.607223
O O9 0.500745 0.111284 0.929754
O O10 0.950178 0.204514 0.126342
O O11 0.505156 0.285258 0.881118
O O12 0.000000 0.000000 0.500000
O O13 0.070372 0.089639 0.385621
O O14 0.840299 0.037788 0.060692
O O15 0.929055 0.743045 0.517219
O O16 0.828834 0.551254 0.280016
O O17 0.500000 0.500000 0.000000
#
# Coordination Sequence:
#
# PCOD8018797 Si02
#       8
#     2   2   2   2   2   2   2   2
#     4  11  26  44  66 103 142 178 233 279 346 418
#     4  10  22  43  66 107 131 176 230 285 339 406
#     4  10  22  40  72 101 133 173 234 281 341 400
#     4  11  20  41  72  93 136 183 222 281 349 409
#     4  11  22  43  69 102 135 176 230 288 340 406
#     4  12  24  45  71  95 144 178 231 287 343 409
#     4  12  24  43  71 102 133 184 231 283 343 410
#     4  11  24  45  67  97 140 186 223 283 347 410
#
# _framework density 22.552555000000002
#
# number of rings (size 3 to 8) (size 9 to 14) (size 15 to 20)
#    0.000    1.000    5.000    2.250    1.750    0.500 
#    4.500    2.500    0.000    0.000    0.000    0.000 
#    0.000    0.000    0.000    0.000    0.000    0.000 
#
# Total GULP energy -198315.380491 kJ/mol
# GULP energy per Si atom -12394.711281 kJ/mol
# Density = 2.250122 g / cm^3
# Si number density = 22.552555 Si / 1000 Ang^3
#
#
#
# Elastic Constant Matrix: (Units=GPa)
#
#
# Indices 1 2 3 4 5 6 
#
# 1 53.2081 40.4779 34.1528 -3.3521 18.3217 3.2363
# 2 40.4779 164.5470 38.6330 2.0498 0.5792 0.0294
# 3 34.1528 38.6330 118.9288 -2.6049 31.8427 2.6436
# 4 -3.3521 2.0498 -2.6049 31.5136 -2.3534 -3.8965
# 5 18.3217 0.5792 31.8427 -2.3534 22.9110 5.0321
# 6 3.2363 0.0294 2.6436 -3.8965 5.0321 39.9219
#
#
#
# Elastic Compliance Matrix: (Units=1/GPa)
#
#
# Indices 1 2 3 4 5 6 
#
# 1 0.034882 -0.008587 0.000325 0.002312 -0.028094 0.000924
# 2 -0.008587 0.009004 -0.003591 -0.001004 0.011668 -0.000641
# 3 0.000325 -0.003591 0.015272 0.000118 -0.021760 0.001719
# 4 0.002312 -0.001004 0.000118 0.032463 0.000714 0.002884
# 5 -0.028094 0.011668 -0.021760 0.000714 0.098019 -0.008576
# 6 0.000924 -0.000641 0.001719 0.002884 -0.008576 0.026223
#
#
# Mechanical properties :
#
#
# Convention : Reuss Voigt Hill
#
# Bulk Modulus (GPa) = 28.20725 62.57903 45.39314
# Shear Modulus (GPa) = 19.88966 33.76397 26.82681
#
# Velocity S-wave (km/s) = 2.97294 3.87347 3.45269
# Velocity P-wave (km/s) = 4.93143 6.91472 6.00551
#
# Compressibility (1/GPa) = 0.03545188
#
# Stress axis : x y z
#
# Youngs Moduli (GPa) = 28.66834 111.05865 65.47863
#
# Poissons Ratio (x) = 0.95366 -0.02126
# Poissons Ratio (y) = 0.24618 0.23511
# Poissons Ratio (z) = -0.00931 0.39878
#
# Static dielectric constant tensor:
#      x y z
#    x 3.660400 -0.331760 0.336330 
#    y -0.331760 3.193500 0.291420 
#    z 0.336330 0.291420 4.148180 
# 
# 
# High freq. dielectric constant tensor:
#      x y z
#    x 1.862690 -0.002880 0.014210 
#    y -0.002880 1.909970 -0.002580 
#    z 0.014210 -0.002580 1.896580 
# 
# From -- ./inp_files/223858.got.cif
#   From: 2010.06.25/outbox.cif.g09.slc.cpg/sg2_112_cif.got.tgz:223858.got - 2010.06.27 13:26:56.
