data_PCOD8018857
_publ_section_title
;
Structure prediction by ZEFSAII (Michael W. Deem and Ramdas Pophale) SiO2 
 PCOD8018857
Probable space group: P -1
;
_chemical_formula_sum "Si O2"
_cell_formula_units_Z 16
_cell_length_a 8.039223
_cell_length_b 15.771338
_cell_length_c 8.063672
_cell_angle_alpha 88.082389
_cell_angle_beta 127.614110
_cell_angle_gamma 68.064812
_cell_volume 702.076563
_symmetry_space_group_name_H-M "P -1"
_symmetry_group_IT_number 2
_symmetry_cell_setting 'triclinic'
loop_
_space_group_symop_operation_xyz
x,y,z
-x,-y,-z
loop_
_atom_site_type_symbol
_atom_site_label
_atom_site_fract_x
_atom_site_fract_y
_atom_site_fract_z
Si Si1 0.211113 0.964867 0.260111
Si Si2 0.352791 0.654213 0.385434
Si Si3 0.004724 0.311670 0.098215
Si Si4 0.774045 0.474270 0.485887
Si Si5 0.459987 0.289220 0.215174
Si Si6 0.090351 0.892742 0.500170
Si Si7 0.225750 0.484679 0.871057
Si Si8 0.244701 0.128793 0.480098
O O1 0.161686 0.893847 0.352498
O O2 0.472017 0.905328 0.331355
O O3 0.199815 0.057597 0.338633
O O4 0.000000 0.000000 0.000000
O O5 0.605706 0.563614 0.493831
O O6 0.206137 0.623615 0.423881
O O7 0.419367 0.722986 0.527918
O O8 0.193696 0.704180 0.121014
O O9 0.212240 0.288602 0.090507
O O10 0.102979 0.238997 0.317192
O O11 0.892720 0.424047 0.081387
O O12 0.664404 0.491059 0.228096
O O13 0.038950 0.459760 0.667810
O O14 0.662358 0.190451 0.251312
O O15 0.419290 0.387350 0.091819
O O16 0.872910 0.869275 0.410382
O O17 0.000000 0.000000 0.500000
#
# Coordination Sequence:
#
# PCOD8018857 Si02
#       8
#     2   2   2   2   2   2   2   2
#     4  10  22  46  74  98 131 172 223 285 336 395
#     4  11  24  38  64  94 127 178 229 264 329 401
#     4  12  24  42  65  98 137 178 216 278 335 396
#     4  10  22  41  60  94 132 176 229 266 321 401
#     4  12  24  44  67  94 135 180 219 281 334 392
#     4  10  24  47  69  99 134 173 224 279 336 402
#     4  11  23  41  64  93 139 178 215 278 330 390
#     4  10  24  43  68 101 134 173 223 273 341 403
#
# _framework density 22.789538
#
# number of rings (size 3 to 8) (size 9 to 14) (size 15 to 20)
#    0.000    1.250    3.750    1.875    5.250    1.500 
#    0.000    3.750    0.000    0.000    0.000    0.000 
#    0.000    0.000    0.000    0.000    0.000    0.000 
#
# Total GULP energy -198270.330166 kJ/mol
# GULP energy per Si atom -12391.895635 kJ/mol
# Density = 2.273767 g / cm^3
# Si number density = 22.789538 Si / 1000 Ang^3
#
#
#
# Elastic Constant Matrix: (Units=GPa)
#
#
# Indices 1 2 3 4 5 6 
#
# 1 144.2257 15.1765 37.9478 -25.1791 -5.1980 3.1885
# 2 15.1765 68.7130 41.9078 -30.4637 1.6495 -12.6881
# 3 37.9478 41.9078 129.8145 -16.9152 4.4640 1.8898
# 4 -25.1791 -30.4637 -16.9152 45.4128 1.7549 0.4092
# 5 -5.1980 1.6495 4.4640 1.7549 27.0225 -5.7737
# 6 3.1885 -12.6881 1.8898 0.4092 -5.7737 24.2332
#
#
#
# Elastic Compliance Matrix: (Units=1/GPa)
#
#
# Indices 1 2 3 4 5 6 
#
# 1 0.008281 0.001843 -0.002446 0.004849 0.001650 0.000377
# 2 0.001843 0.030066 -0.008228 0.017893 0.002213 0.016366
# 3 -0.002446 -0.008228 0.010902 -0.002659 -0.002761 -0.005449
# 4 0.004849 0.017893 -0.002659 0.035657 -0.000269 0.008272
# 5 0.001650 0.002213 -0.002761 -0.000269 0.039944 0.010678
# 6 0.000377 0.016366 -0.005449 0.008272 0.010678 0.052615
#
#
# Mechanical properties :
#
#
# Convention : Reuss Voigt Hill
#
# Bulk Modulus (GPa) = 31.65813 59.20193 45.43003
# Shear Modulus (GPa) = 24.31243 35.84844 30.08043
#
# Velocity S-wave (km/s) = 3.26977 3.97044 3.63702
# Velocity P-wave (km/s) = 5.30819 6.85954 6.13311
#
# Compressibility (1/GPa) = 0.03158746
#
# Stress axis : x y z
#
# Youngs Moduli (GPa) = 120.75885 33.26001 91.72392
#
# Poissons Ratio (x) = -0.06129 0.22435
# Poissons Ratio (y) = -0.22253 0.75468
# Poissons Ratio (z) = 0.29537 0.27366
#
# Static dielectric constant tensor:
#      x y z
#    x 4.812190 0.113370 -0.054400 
#    y 0.113370 4.003510 -0.240240 
#    z -0.054400 -0.240240 4.150690 
# 
# 
# High freq. dielectric constant tensor:
#      x y z
#    x 1.915680 0.005820 0.005700 
#    y 0.005820 1.887490 -0.019290 
#    z 0.005700 -0.019290 1.892560 
# 
# From -- ./inp_files/217557.got.cif
#   From: 2010.06.25/outbox.cif.g09.slc.cpg/sg2_109_cif.got.tgz:217557.got - 2010.06.27 13:26:56.
