data_PCOD8018516
_publ_section_title
;
Structure prediction by ZEFSAII (Michael W. Deem and Ramdas Pophale) SiO2 
 PCOD8018516
Probable space group: P -1
;
_chemical_formula_sum "Si O2"
_cell_formula_units_Z 16
_cell_length_a 9.444298
_cell_length_b 19.588209
_cell_length_c 11.366196
_cell_angle_alpha 45.077918
_cell_angle_beta 108.578218
_cell_angle_gamma 143.570969
_cell_volume 711.556880
_symmetry_space_group_name_H-M "P -1"
_symmetry_group_IT_number 2
_symmetry_cell_setting 'triclinic'
loop_
_space_group_symop_operation_xyz
x,y,z
-x,-y,-z
loop_
_atom_site_type_symbol
_atom_site_label
_atom_site_fract_x
_atom_site_fract_y
_atom_site_fract_z
Si Si1 0.497545 0.348066 0.357082
Si Si2 0.205922 0.375587 0.234226
Si Si3 0.069665 0.556429 0.315165
Si Si4 0.263777 0.015218 0.065715
Si Si5 0.976999 0.999323 0.185969
Si Si6 0.124051 0.745789 0.473448
Si Si7 0.398994 0.241792 0.206949
Si Si8 0.376962 0.017352 0.522479
O O1 0.484339 0.457615 0.220729
O O2 0.318778 0.211503 0.359958
O O3 0.832847 0.496920 0.265721
O O4 0.331730 0.217815 0.588065
O O5 0.051674 0.304428 0.404819
O O6 0.976207 0.196162 0.300495
O O7 0.303722 0.531924 0.016020
O O8 0.385810 0.781566 0.106655
O O9 0.000000 0.500000 0.500000
O O10 0.068811 0.450898 0.383595
O O11 0.088656 0.951176 0.981525
O O12 0.172290 0.026531 0.141096
O O13 0.171325 0.852485 0.256144
O O14 0.149235 0.138146 0.175467
O O15 0.451281 0.888659 0.421941
O O16 0.451747 0.157749 0.302607
O O17 0.500000 0.000000 0.500000
#
# Coordination Sequence:
#
# PCOD8018516 Si02
#       8
#     2   2   2   2   2   2   2   2
#     4  12  24  48  69 108 149 183 236 306 356 423
#     4  11  25  44  71 109 141 192 246 285 361 438
#     4  12  27  47  70 107 145 185 240 300 357 419
#     4  11  25  48  74 101 144 193 242 288 354 432
#     4  11  23  47  75 102 142 194 240 293 352 431
#     4  11  24  45  73 102 143 195 237 292 355 435
#     4  12  24  43  72 107 145 187 237 302 365 409
#     4  10  22  40  67 103 145 184 234 293 353 432
#
# _framework density 22.485903
#
# number of rings (size 3 to 8) (size 9 to 14) (size 15 to 20)
#    0.000    0.750    5.000    2.250    1.750    3.500 
#    2.250    2.500    0.000    0.000    0.000    0.000 
#    0.000    0.000    0.000    0.000    0.000    0.000 
#
# Total GULP energy -198414.621692 kJ/mol
# GULP energy per Si atom -12400.913856 kJ/mol
# Density = 2.243472 g / cm^3
# Si number density = 22.485903 Si / 1000 Ang^3
#
#
#
# Elastic Constant Matrix: (Units=GPa)
#
#
# Indices 1 2 3 4 5 6 
#
# 1 105.3325 41.4111 44.3867 -5.4528 14.8357 16.5497
# 2 41.4111 99.7947 21.9830 15.6844 9.2142 9.8083
# 3 44.3867 21.9830 127.4115 -0.6345 24.3520 9.5203
# 4 -5.4528 15.6844 -0.6345 35.5795 -3.7840 -0.0166
# 5 14.8357 9.2142 24.3520 -3.7840 48.5650 2.5603
# 6 16.5497 9.8083 9.5203 -0.0166 2.5603 30.6649
#
#
#
# Elastic Compliance Matrix: (Units=1/GPa)
#
#
# Indices 1 2 3 4 5 6 
#
# 1 0.014109 -0.005205 -0.003445 0.004286 -0.001008 -0.004794
# 2 -0.005205 0.013573 -0.000203 -0.006929 -0.001351 -0.001360
# 3 -0.003445 -0.000203 0.009882 -0.000675 -0.003874 -0.000821
# 4 0.004286 -0.006929 -0.000675 0.032109 0.002851 -0.000108
# 5 -0.001008 -0.001351 -0.003874 0.002851 0.023308 0.000235
# 6 -0.004794 -0.001360 -0.000821 -0.000108 0.000235 0.035868
#
#
# Mechanical properties :
#
#
# Convention : Reuss Voigt Hill
#
# Bulk Modulus (GPa) = 50.35867 60.90004 55.62936
# Shear Modulus (GPa) = 32.64290 37.94573 35.29431
#
# Velocity S-wave (km/s) = 3.81426 4.11242 3.96614
# Velocity P-wave (km/s) = 6.46857 7.04924 6.76514
#
# Compressibility (1/GPa) = 0.01985755
#
# Stress axis : x y z
#
# Youngs Moduli (GPa) = 70.87756 73.67736 101.19392
#
# Poissons Ratio (x) = 0.38350 0.34859
# Poissons Ratio (y) = 0.36893 0.02054
# Poissons Ratio (z) = 0.24416 0.01496
#
# Static dielectric constant tensor:
#      x y z
#    x 4.102050 0.074800 0.093280 
#    y 0.074800 4.721770 -0.131900 
#    z 0.093280 -0.131900 4.106420 
# 
# 
# High freq. dielectric constant tensor:
#      x y z
#    x 1.889750 0.005550 0.008230 
#    y 0.005550 1.887800 0.006260 
#    z 0.008230 0.006260 1.887110 
# 
# From -- ./inp_files/405419.got.cif
#   From: 2010.06.25/outbox.cif.g09.slc.cpg/sg2_203_cif.got.tgz:405419.got - 2010.06.27 13:26:56.
