data_PCOD8018623
_publ_section_title
;
Structure prediction by ZEFSAII (Michael W. Deem and Ramdas Pophale) SiO2 
 PCOD8018623
Probable space group: P -1
;
_chemical_formula_sum "Si O2"
_cell_formula_units_Z 10
_cell_length_a 15.060172
_cell_length_b 11.828313
_cell_length_c 9.839133
_cell_angle_alpha 61.241591
_cell_angle_beta 121.172079
_cell_angle_gamma 162.487815
_cell_volume 450.724011
_symmetry_space_group_name_H-M "P -1"
_symmetry_group_IT_number 2
_symmetry_cell_setting 'triclinic'
loop_
_space_group_symop_operation_xyz
x,y,z
-x,-y,-z
loop_
_atom_site_type_symbol
_atom_site_label
_atom_site_fract_x
_atom_site_fract_y
_atom_site_fract_z
Si Si1 0.714623 0.137224 0.637245
Si Si2 0.177331 0.827254 0.012602
Si Si3 0.692726 0.478324 0.832161
Si Si4 0.851697 0.893230 0.573775
Si Si5 0.764425 0.069501 0.447651
O O1 0.688817 0.990181 0.594181
O O2 0.052536 0.590022 0.649122
O O3 0.500000 0.000000 0.500000
O O4 0.638072 0.995083 0.808373
O O5 0.925579 0.638440 0.960991
O O6 0.421976 0.170847 0.903975
O O7 0.000000 0.500000 0.000000
O O8 0.881829 0.834090 0.764046
O O9 0.546125 0.286658 0.677589
O O10 0.500000 0.500000 0.500000
O O11 0.966772 0.174489 0.527036
O O12 0.000000 0.000000 0.500000
#
# Coordination Sequence:
#
# PCOD8018623 Si02
#       5
#     2   2   2   2   2
#     4  11  25  40  65  93 133 170 214 262 325 385
#     4  12  24  40  65  94 132 166 211 269 319 376
#     4  11  23  42  66  97 124 165 219 264 319 373
#     4  10  22  40  68  95 126 167 218 264 311 382
#     4  10  23  41  65  95 126 171 216 265 316 381
#
# _framework density 22.186527000000002
#
# number of rings (size 3 to 8) (size 9 to 14) (size 15 to 20)
#    0.000    1.200    2.000    4.200   11.200    0.000 
#    0.000    2.000    0.000    0.000    0.000    0.000 
#    0.000    0.000    0.000    0.000    0.000    0.000 
#
# Total GULP energy -123959.108359 kJ/mol
# GULP energy per Si atom -12395.910836 kJ/mol
# Density = 2.213603 g / cm^3
# Si number density = 22.186527 Si / 1000 Ang^3
#
#
#
# Elastic Constant Matrix: (Units=GPa)
#
#
# Indices 1 2 3 4 5 6 
#
# 1 146.8761 19.7533 51.9628 2.7233 -3.9512 8.1730
# 2 19.7533 43.0936 28.3079 -8.1477 -6.5032 15.8398
# 3 51.9628 28.3079 150.2620 -3.2354 -8.0583 -3.7645
# 4 2.7233 -8.1477 -3.2354 38.6842 8.1151 0.2297
# 5 -3.9512 -6.5032 -8.0583 8.1151 45.0434 0.8721
# 6 8.1730 15.8398 -3.7645 0.2297 0.8721 36.3844
#
#
#
# Elastic Compliance Matrix: (Units=1/GPa)
#
#
# Indices 1 2 3 4 5 6 
#
# 1 0.008026 -0.001755 -0.002490 -0.001186 0.000244 -0.001295
# 2 -0.001755 0.035604 -0.006196 0.006569 0.003002 -0.015860
# 3 -0.002490 -0.006196 0.008802 -0.000518 0.000474 0.004159
# 4 -0.001186 0.006569 -0.000518 0.028187 -0.004274 -0.002722
# 5 0.000244 0.003002 0.000474 -0.004274 0.023546 -0.001850
# 6 -0.001295 -0.015860 0.004159 -0.002722 -0.001850 0.035172
#
#
# Mechanical properties :
#
#
# Convention : Reuss Voigt Hill
#
# Bulk Modulus (GPa) = 31.69433 60.03110 45.86272
# Shear Modulus (GPa) = 29.28522 40.03625 34.66073
#
# Velocity S-wave (km/s) = 3.63706 4.25258 3.95681
# Velocity P-wave (km/s) = 5.65279 7.15743 6.44914
#
# Compressibility (1/GPa) = 0.03155138
#
# Stress axis : x y z
#
# Youngs Moduli (GPa) = 124.59592 28.08647 113.61416
#
# Poissons Ratio (x) = 0.04929 0.28287
# Poissons Ratio (y) = 0.21866 0.70390
# Poissons Ratio (z) = 0.31021 0.17401
#
# Static dielectric constant tensor:
#      x y z
#    x 5.008810 -0.635630 0.582050 
#    y -0.635630 4.340840 -0.559060 
#    z 0.582050 -0.559060 4.516390 
# 
# 
# High freq. dielectric constant tensor:
#      x y z
#    x 1.881080 0.009340 0.009870 
#    y 0.009340 1.862520 -0.017420 
#    z 0.009870 -0.017420 1.872340 
# 
# From -- ./inp_files/18089.got.cif
#   From: 2010.06.25/outbox.cif.g09.slc.cpg/sg2_10_cif.got.tgz:18089.got - 2010.06.27 13:26:56.
