data_PCOD8018137
_publ_section_title
;
Structure prediction by ZEFSAII (Michael W. Deem and Ramdas Pophale) SiO2 
 PCOD8018137
Probable space group: P -1
;
_chemical_formula_sum "Si O2"
_cell_formula_units_Z 16
_cell_length_a 9.596329
_cell_length_b 25.008301
_cell_length_c 21.117552
_cell_angle_alpha 15.976411
_cell_angle_beta 31.898655
_cell_angle_gamma 32.560812
_cell_volume 724.638129
_symmetry_space_group_name_H-M "P -1"
_symmetry_group_IT_number 2
_symmetry_cell_setting 'triclinic'
loop_
_space_group_symop_operation_xyz
x,y,z
-x,-y,-z
loop_
_atom_site_type_symbol
_atom_site_label
_atom_site_fract_x
_atom_site_fract_y
_atom_site_fract_z
Si Si1 0.105434 0.195385 0.119588
Si Si2 0.653109 0.150110 0.016142
Si Si3 0.401154 0.252023 0.192634
Si Si4 0.957176 0.381247 0.387745
Si Si5 0.531764 0.184448 0.361316
Si Si6 0.634373 0.491271 0.728556
Si Si7 0.020275 0.746481 0.341661
Si Si8 0.169251 0.775151 0.515958
O O1 0.815598 0.225189 0.232938
O O2 0.144334 0.008467 0.270346
O O3 0.331155 0.166520 0.120124
O O4 0.132864 0.386009 0.851192
O O5 0.736268 0.304347 0.857607
O O6 0.750637 0.192849 0.859456
O O7 0.783063 0.931255 0.236529
O O8 0.547527 0.231924 0.226560
O O9 0.080614 0.303447 0.266772
O O10 0.490097 0.043898 0.358445
O O11 0.487567 0.427519 0.919757
O O12 0.282587 0.325967 0.328419
O O13 0.841797 0.324817 0.563558
O O14 0.834848 0.262919 0.514387
O O15 0.898246 0.571500 0.555655
O O16 0.440716 0.660779 0.571908
#
# Coordination Sequence:
#
# PCOD8018137 Si02
#       8
#     2   2   2   2   2   2   2   2
#     4  11  21  40  64  92 130 165 200 257 312 365
#     4  11  25  45  64  90 128 163 211 269 307 362
#     4   9  19  35  62  93 129 164 203 247 309 380
#     4  11  22  41  66  94 124 168 209 251 311 375
#     4   9  19  37  61  96 131 162 197 256 311 374
#     4  12  21  42  65  91 122 171 208 253 316 368
#     4  11  26  44  67  91 122 164 219 261 309 367
#     4  10  22  40  62  95 133 160 200 260 309 369
#
# _framework density 22.079986999999999
#
# number of rings (size 3 to 8) (size 9 to 14) (size 15 to 20)
#    0.000    1.500    2.500    3.375    0.000    2.500 
#    2.250    2.500    0.000    0.000    0.000    0.000 
#    0.000    0.000    0.000    0.000    0.000    0.000 
#
# Total GULP energy -198478.511199 kJ/mol
# GULP energy per Si atom -12404.906950 kJ/mol
# Density = 2.202973 g / cm^3
# Si number density = 22.079987 Si / 1000 Ang^3
#
#
#
# Elastic Constant Matrix: (Units=GPa)
#
#
# Indices 1 2 3 4 5 6 
#
# 1 71.2059 9.7494 19.2195 -4.5769 -3.2087 2.4362
# 2 9.7494 36.1206 1.3084 -12.4077 -1.6548 3.8703
# 3 19.2195 1.3084 75.2769 -17.7128 -0.2264 12.7395
# 4 -4.5769 -12.4077 -17.7128 26.8814 5.1579 -2.8494
# 5 -3.2087 -1.6548 -0.2264 5.1579 31.4155 -1.4379
# 6 2.4362 3.8703 12.7395 -2.8494 -1.4379 29.7636
#
#
#
# Elastic Compliance Matrix: (Units=1/GPa)
#
#
# Indices 1 2 3 4 5 6 
#
# 1 0.015936 -0.005274 -0.004943 -0.003206 0.001899 0.001282
# 2 -0.005274 0.036115 0.006223 0.019724 -0.002065 -0.005140
# 3 -0.004943 0.006223 0.019038 0.014323 -0.002726 -0.007314
# 4 -0.003206 0.019724 0.014323 0.056485 -0.008617 -0.003442
# 5 0.001899 -0.002065 -0.002726 -0.008617 0.033406 0.002069
# 6 0.001282 -0.005140 -0.007314 -0.003442 0.002069 0.037062
#
#
# Mechanical properties :
#
#
# Convention : Reuss Voigt Hill
#
# Bulk Modulus (GPa) = 15.84744 27.01757 21.43250
# Shear Modulus (GPa) = 22.02040 27.76717 24.89378
#
# Velocity S-wave (km/s) = 3.16143 3.55007 3.36137
# Velocity P-wave (km/s) = 4.52980 5.39136 4.97925
#
# Compressibility (1/GPa) = 0.06310168
#
# Stress axis : x y z
#
# Youngs Moduli (GPa) = 62.75254 27.68970 52.52672
#
# Poissons Ratio (x) = 0.14603 0.25962
# Poissons Ratio (y) = 0.33096 -0.32690
# Poissons Ratio (z) = 0.31016 -0.17233
#
# Static dielectric constant tensor:
#      x y z
#    x 3.960700 -0.069580 -0.012310 
#    y -0.069580 3.837810 -0.195260 
#    z -0.012310 -0.195260 3.945260 
# 
# 
# High freq. dielectric constant tensor:
#      x y z
#    x 1.867010 -0.003650 0.000120 
#    y -0.003650 1.856510 -0.018300 
#    z 0.000120 -0.018300 1.871540 
# 
# From -- ./inp_files/245895.got.cif
#   From: 2010.06.25/outbox.cif.g09.slc.cpg/sg2_123_cif.got.tgz:245895.got - 2010.06.27 13:26:56.
