data_PCOD8018344
_publ_section_title
;
Structure prediction by ZEFSAII (Michael W. Deem and Ramdas Pophale) SiO2 
 PCOD8018344
Probable space group: P -1
;
_chemical_formula_sum "Si O2"
_cell_formula_units_Z 16
_cell_length_a 9.493459
_cell_length_b 20.176624
_cell_length_c 4.960246
_cell_angle_alpha 102.273233
_cell_angle_beta 121.021026
_cell_angle_gamma 103.956371
_cell_volume 722.469482
_symmetry_space_group_name_H-M "P -1"
_symmetry_group_IT_number 2
_symmetry_cell_setting 'triclinic'
loop_
_space_group_symop_operation_xyz
x,y,z
-x,-y,-z
loop_
_atom_site_type_symbol
_atom_site_label
_atom_site_fract_x
_atom_site_fract_y
_atom_site_fract_z
Si Si1 0.993266 0.930802 0.263316
Si Si2 0.795950 0.854407 0.507022
Si Si3 0.399193 0.950155 0.609099
Si Si4 0.922412 0.331988 0.256878
Si Si5 0.746743 0.699961 0.385671
Si Si6 0.486904 0.322143 0.387909
Si Si7 0.116914 0.587131 0.208369
Si Si8 0.429836 0.802295 0.356541
O O1 0.863466 0.863621 0.271826
O O2 0.189109 0.933120 0.407765
O O3 0.900365 0.924639 0.872273
O O4 0.000000 0.000000 0.500000
O O5 0.843110 0.788492 0.615502
O O6 0.581927 0.834305 0.299142
O O7 0.413311 0.870993 0.554110
O O8 0.500000 0.000000 0.500000
O O9 0.500000 0.000000 0.000000
O O10 0.875931 0.385067 0.455768
O O11 0.101892 0.328962 0.552058
O O12 0.961350 0.368931 0.031341
O O13 0.759721 0.249283 0.017958
O O14 0.637718 0.659458 0.508098
O O15 0.602191 0.686316 0.996945
O O16 0.677148 0.394281 0.650786
O O17 0.514902 0.247299 0.421629
O O18 0.000000 0.500000 0.000000
#
# Coordination Sequence:
#
# PCOD8018344 Si02
#       8
#     2   2   2   2   2   2   2   2
#     4  12  24  40  58  85 120 162 205 255 321 380
#     4  11  22  38  62  85 117 159 201 260 311 369
#     4  12  26  42  62  91 127 167 212 268 319 378
#     4  11  24  41  68  96 127 167 213 265 310 375
#     4  11  22  41  63  96 126 160 213 261 313 369
#     4  10  22  40  65  91 127 169 209 260 314 380
#     4  11  23  43  66  96 131 171 211 256 315 379
#     4  10  23  43  66  94 125 169 218 261 319 382
#
# _framework density 22.146262
#
# number of rings (size 3 to 8) (size 9 to 14) (size 15 to 20)
#    0.000    1.000    0.000    8.250    0.000    7.000 
#    0.000    3.750    0.000    0.000    0.000    0.000 
#    0.000    0.000    0.000    0.000    0.000    0.000 
#
# Total GULP energy -198385.445257 kJ/mol
# GULP energy per Si atom -12399.090329 kJ/mol
# Density = 2.209586 g / cm^3
# Si number density = 22.146262 Si / 1000 Ang^3
#
#
#
# Elastic Constant Matrix: (Units=GPa)
#
#
# Indices 1 2 3 4 5 6 
#
# 1 130.0516 45.7626 26.2618 16.3845 8.8351 4.2327
# 2 45.7626 70.9659 41.6110 19.5614 14.2979 5.8625
# 3 26.2618 41.6110 106.8103 17.3012 -4.6429 -0.8765
# 4 16.3845 19.5614 17.3012 35.8108 4.1732 4.4139
# 5 8.8351 14.2979 -4.6429 4.1732 44.1532 -7.2856
# 6 4.2327 5.8625 -0.8765 4.4139 -7.2856 27.2225
#
#
#
# Elastic Compliance Matrix: (Units=1/GPa)
#
#
# Indices 1 2 3 4 5 6 
#
# 1 0.009996 -0.006242 0.000189 -0.001281 0.000170 0.000050
# 2 -0.006242 0.027086 -0.008489 -0.005990 -0.008930 -0.006555
# 3 0.000189 -0.008489 0.013363 -0.002998 0.005072 0.004072
# 4 -0.001281 -0.005990 -0.002998 0.034056 -0.002113 -0.004695
# 5 0.000170 -0.008930 0.005072 -0.002113 0.027866 0.009860
# 6 0.000050 -0.006555 0.004072 -0.004695 0.009860 0.041670
#
#
# Mechanical properties :
#
#
# Convention : Reuss Voigt Hill
#
# Bulk Modulus (GPa) = 46.81528 59.45539 53.13534
# Shear Modulus (GPa) = 26.28271 34.38347 30.33309
#
# Velocity S-wave (km/s) = 3.44870 3.94453 3.70492
# Velocity P-wave (km/s) = 6.08630 6.90295 6.50745
#
# Compressibility (1/GPa) = 0.02136055
#
# Stress axis : x y z
#
# Youngs Moduli (GPa) = 100.04309 36.91979 74.83627
#
# Poissons Ratio (x) = 0.23046 -0.01418
# Poissons Ratio (y) = 0.62448 0.63529
# Poissons Ratio (z) = -0.01895 0.31341
#
# Static dielectric constant tensor:
#      x y z
#    x 4.202040 0.205640 0.093770 
#    y 0.205640 3.900240 0.105640 
#    z 0.093770 0.105640 3.956110 
# 
# 
# High freq. dielectric constant tensor:
#      x y z
#    x 1.887780 0.014200 -0.000270 
#    y 0.014200 1.853660 -0.000080 
#    z -0.000270 -0.000080 1.881970 
# 
# From -- ./inp_files/53584.got.cif
#   From: 2010.06.25/outbox.cif.g09.slc.cpg/sg2_27_cif.got.tgz:53584.got - 2010.06.27 13:26:56.
