data_PCOD8018240
_publ_section_title
;
Structure prediction by ZEFSAII (Michael W. Deem and Ramdas Pophale) SiO2 
 PCOD8018240
Probable space group: P -1
;
_chemical_formula_sum "Si O2"
_cell_formula_units_Z 8
_cell_length_a 5.000974
_cell_length_b 13.094120
_cell_length_c 10.068217
_cell_angle_alpha 32.040769
_cell_angle_beta 75.553636
_cell_angle_gamma 86.952591
_cell_volume 322.232453
_symmetry_space_group_name_H-M "P -1"
_symmetry_group_IT_number 2
_symmetry_cell_setting 'triclinic'
loop_
_space_group_symop_operation_xyz
x,y,z
-x,-y,-z
loop_
_atom_site_type_symbol
_atom_site_label
_atom_site_fract_x
_atom_site_fract_y
_atom_site_fract_z
Si Si1 0.250020 0.692415 0.073371
Si Si2 0.718598 0.758543 0.429048
Si Si3 0.238641 0.134727 0.986292
Si Si4 0.315093 0.643739 0.833201
O O1 0.246567 0.462486 0.339720
O O2 0.496021 0.836059 0.978183
O O3 0.935722 0.704219 0.141974
O O4 0.309320 0.773395 0.824248
O O5 0.634342 0.828302 0.219475
O O6 0.464589 0.776553 0.541001
O O7 0.022133 0.908632 0.278820
O O8 0.500000 0.500000 0.000000
O O9 0.000000 0.500000 0.000000
#
# Coordination Sequence:
#
# PCOD8018240 Si02
#       4
#     2   2   2   2
#     4  11  23  42  64  92 127 165 208 253 309 371
#     4  10  24  43  64  93 131 160 207 262 306 368
#     4  11  25  40  66  96 122 167 208 252 315 368
#     4  10  22  40  64  90 123 166 204 253 312 362
#
# _framework density 24.826795000000001
#
# number of rings (size 3 to 8) (size 9 to 14) (size 15 to 20)
#    0.000    1.500    0.000    4.500    0.000   16.000 
#    0.000    0.000    0.000    0.000    0.000    0.000 
#    0.000    0.000    0.000    0.000    0.000    0.000 
#
# Total GULP energy -99209.029661 kJ/mol
# GULP energy per Si atom -12401.128708 kJ/mol
# Density = 2.477029 g / cm^3
# Si number density = 24.826795 Si / 1000 Ang^3
#
#
#
# Elastic Constant Matrix: (Units=GPa)
#
#
# Indices 1 2 3 4 5 6 
#
# 1 97.8468 24.5089 16.9928 30.3826 -18.8152 23.0313
# 2 24.5089 157.8909 63.8336 40.8617 -20.1157 23.7863
# 3 16.9928 63.8336 130.9939 30.0938 -35.7426 3.2857
# 4 30.3826 40.8617 30.0938 54.1607 -15.8409 0.9165
# 5 -18.8152 -20.1157 -35.7426 -15.8409 25.7384 0.8676
# 6 23.0313 23.7863 3.2857 0.9165 0.8676 32.1943
#
#
#
# Elastic Compliance Matrix: (Units=1/GPa)
#
#
# Indices 1 2 3 4 5 6 
#
# 1 0.018321 0.002589 0.002701 -0.009406 0.013897 -0.015402
# 2 0.002589 0.010670 -0.003205 -0.007053 0.001753 -0.009255
# 3 0.002701 -0.003205 0.014253 -0.001638 0.018303 -0.001465
# 4 -0.009406 -0.007053 -0.001638 0.030958 0.004015 0.011118
# 5 0.013897 0.001753 0.018303 0.004015 0.078787 -0.015342
# 6 -0.015402 -0.009255 -0.001465 0.011118 -0.015342 0.049164
#
#
# Mechanical properties :
#
#
# Convention : Reuss Voigt Hill
#
# Bulk Modulus (GPa) = 21.09073 66.37803 43.73438
# Shear Modulus (GPa) = 23.38790 41.17844 32.28317
#
# Velocity S-wave (km/s) = 3.07260 4.07705 3.60993
# Velocity P-wave (km/s) = 4.59363 6.99697 5.91857
#
# Compressibility (1/GPa) = 0.04741420
#
# Stress axis : x y z
#
# Youngs Moduli (GPa) = 54.58264 93.72068 70.16311
#
# Poissons Ratio (x) = -0.24268 -0.18949
# Poissons Ratio (y) = -0.14134 0.22485
# Poissons Ratio (z) = -0.14741 0.30035
#
# Static dielectric constant tensor:
#      x y z
#    x 4.295870 -0.411750 -0.513320 
#    y -0.411750 6.825530 2.265800 
#    z -0.513320 2.265800 6.407740 
# 
# 
# High freq. dielectric constant tensor:
#      x y z
#    x 1.990270 -0.002820 -0.005970 
#    y -0.002820 2.011680 0.011390 
#    z -0.005970 0.011390 1.986080 
# 
# From -- ./inp_files/463.got.cif
#   From: 2010.06.25/outbox.cif.g09.slc.cpg/sg2_1_cif.got.tgz:463.got - 2010.06.27 13:26:56.
