data_PCOD8018564
_publ_section_title
;
Structure prediction by ZEFSAII (Michael W. Deem and Ramdas Pophale) SiO2 
 PCOD8018564
Probable space group: P -1
;
_chemical_formula_sum "Si O2"
_cell_formula_units_Z 16
_cell_length_a 11.872984
_cell_length_b 17.625838
_cell_length_c 8.661924
_cell_angle_alpha 48.421663
_cell_angle_beta 33.954647
_cell_angle_gamma 49.734623
_cell_volume 737.166947
_symmetry_space_group_name_H-M "P -1"
_symmetry_group_IT_number 2
_symmetry_cell_setting 'triclinic'
loop_
_space_group_symop_operation_xyz
x,y,z
-x,-y,-z
loop_
_atom_site_type_symbol
_atom_site_label
_atom_site_fract_x
_atom_site_fract_y
_atom_site_fract_z
Si Si1 0.925857 0.898476 0.280228
Si Si2 0.406298 0.519430 0.325175
Si Si3 0.325868 0.165405 0.623961
Si Si4 0.650255 0.260876 0.965711
Si Si5 0.522046 0.963088 0.851475
Si Si6 0.229183 0.583340 0.769170
Si Si7 0.769242 0.664171 0.248947
Si Si8 0.463650 0.747590 0.222494
O O1 0.824032 0.842454 0.336525
O O2 0.760696 0.927664 0.568674
O O3 0.123259 0.810941 0.232100
O O4 0.000000 0.000000 0.000000
O O5 0.340635 0.621468 0.150590
O O6 0.277612 0.533085 0.613490
O O7 0.647814 0.492824 0.135613
O O8 0.356952 0.418720 0.430197
O O9 0.211196 0.247274 0.769867
O O10 0.395305 0.049982 0.766252
O O11 0.535940 0.201201 0.295483
O O12 0.505965 0.290415 0.937527
O O13 0.397823 0.871973 0.114256
O O14 0.500000 0.000000 0.000000
O O15 0.286782 0.696808 0.565398
O O16 0.991922 0.595163 0.053848
O O17 0.671425 0.717384 0.128931
#
# Coordination Sequence:
#
# PCOD8018564 Si02
#       8
#     2   2   2   2   2   2   2   2
#     4  12  26  46  72  96 135 184 221 271 342 407
#     4   9  21  39  65  94 132 176 216 280 323 395
#     4  12  26  44  66  97 138 177 216 282 335 398
#     4  11  24  44  69  96 132 180 226 261 341 400
#     4  12  24  44  69 100 133 171 223 282 331 391
#     4   9  20  39  64  97 133 172 217 274 339 388
#     4  11  23  41  67 100 135 169 224 277 333 395
#     4  10  22  40  67  95 132 169 216 280 323 393
#
# _framework density 21.704716000000001
#
# number of rings (size 3 to 8) (size 9 to 14) (size 15 to 20)
#    0.000    1.250    3.750    2.250    3.500    4.500 
#    0.000    3.125    0.000    0.000    0.000    0.000 
#    0.000    0.000    0.000    0.000    0.000    0.000 
#
# Total GULP energy -198294.458814 kJ/mol
# GULP energy per Si atom -12393.403676 kJ/mol
# Density = 2.165531 g / cm^3
# Si number density = 21.704716 Si / 1000 Ang^3
#
#
#
# Elastic Constant Matrix: (Units=GPa)
#
#
# Indices 1 2 3 4 5 6 
#
# 1 82.5458 42.2525 39.3227 13.6232 -2.8353 -6.7715
# 2 42.2525 117.5824 27.9944 -29.6992 -6.1374 -12.8248
# 3 39.3227 27.9944 51.5358 -4.6728 -3.9535 -2.9105
# 4 13.6232 -29.6992 -4.6728 44.3898 -1.0251 0.4253
# 5 -2.8353 -6.1374 -3.9535 -1.0251 24.6304 -3.2410
# 6 -6.7715 -12.8248 -2.9105 0.4253 -3.2410 26.1773
#
#
#
# Elastic Compliance Matrix: (Units=1/GPa)
#
#
# Indices 1 2 3 4 5 6 
#
# 1 0.029446 -0.011000 -0.018390 -0.018404 -0.003055 0.000104
# 2 -0.011000 0.016744 0.001310 0.014765 0.004497 0.005821
# 3 -0.018390 0.001310 0.033962 0.010190 0.004085 0.000001
# 4 -0.018404 0.014765 0.010190 0.039215 0.005305 0.003625
# 5 -0.003055 0.004497 0.004085 0.005305 0.043183 0.007127
# 6 0.000104 0.005821 0.000001 0.003625 0.007127 0.041903
#
#
# Mechanical properties :
#
#
# Convention : Reuss Voigt Hill
#
# Bulk Modulus (GPa) = 41.67994 52.31146 46.99570
# Shear Modulus (GPa) = 18.61422 28.51247 23.56335
#
# Velocity S-wave (km/s) = 2.93168 3.62837 3.29847
# Velocity P-wave (km/s) = 5.54117 6.45811 6.01713
#
# Compressibility (1/GPa) = 0.02399236
#
# Stress axis : x y z
#
# Youngs Moduli (GPa) = 33.95994 59.72179 29.44464
#
# Poissons Ratio (x) = 0.65691 0.54150
# Poissons Ratio (y) = 0.37354 -0.03856
# Poissons Ratio (z) = 0.62454 -0.07822
#
# Static dielectric constant tensor:
#      x y z
#    x 3.876840 -0.020940 -0.044560 
#    y -0.020940 3.907350 -0.117200 
#    z -0.044560 -0.117200 3.680420 
# 
# 
# High freq. dielectric constant tensor:
#      x y z
#    x 1.844950 0.000160 -0.006820 
#    y 0.000160 1.872300 -0.022610 
#    z -0.006820 -0.022610 1.837600 
# 
# From -- ./inp_files/38786.got.cif
#   From: 2010.06.25/outbox.cif.g09.slc.cpg/sg2_20_cif.got.tgz:38786.got - 2010.06.27 13:26:56.
