data_PCOD8018173
_publ_section_title
;
Structure prediction by ZEFSAII (Michael W. Deem and Ramdas Pophale) SiO2 
 PCOD8018173
Probable space group: P -1
;
_chemical_formula_sum "Si O2"
_cell_formula_units_Z 16
_cell_length_a 5.163849
_cell_length_b 20.480871
_cell_length_c 8.919772
_cell_angle_alpha 59.533898
_cell_angle_beta 103.160214
_cell_angle_gamma 124.638805
_cell_volume 666.543874
_symmetry_space_group_name_H-M "P -1"
_symmetry_group_IT_number 2
_symmetry_cell_setting 'triclinic'
loop_
_space_group_symop_operation_xyz
x,y,z
-x,-y,-z
loop_
_atom_site_type_symbol
_atom_site_label
_atom_site_fract_x
_atom_site_fract_y
_atom_site_fract_z
Si Si1 0.430119 0.611753 0.824067
Si Si2 0.690272 0.270236 0.834036
Si Si3 0.265247 0.237154 0.553750
Si Si4 0.471265 0.857742 0.471867
Si Si5 0.317108 0.983780 0.188991
Si Si6 0.852364 0.144079 0.925547
Si Si7 0.305835 0.126088 0.186501
Si Si8 0.983252 0.594730 0.034736
O O1 0.504083 0.676173 0.618438
O O2 0.744139 0.621386 0.915801
O O3 0.278080 0.637294 0.909346
O O4 0.179028 0.511703 0.849277
O O5 0.395607 0.263354 0.714593
O O6 0.879259 0.239209 0.787608
O O7 0.596135 0.197047 0.038852
O O8 0.901309 0.367592 0.824957
O O9 0.319109 0.159154 0.595787
O O10 0.907957 0.212452 0.514350
O O11 0.543974 0.958094 0.334083
O O12 0.587371 0.852140 0.656022
O O13 0.049747 0.889519 0.175391
O O14 0.182525 0.022280 0.248864
O O15 0.489055 0.061838 0.995452
O O16 0.035872 0.146719 0.095394
#
# Coordination Sequence:
#
# PCOD8018173 Si02
#       8
#     2   2   2   2   2   2   2   2
#     4  10  22  45  67 103 131 170 207 267 320 383
#     4  11  24  40  64  98 128 177 216 265 322 392
#     4  12  26  43  66  95 139 168 215 267 327 380
#     4  12  27  42  66  96 130 174 218 277 320 383
#     4  10  22  41  60  93 124 174 218 275 327 380
#     4  10  22  40  63  91 128 170 221 270 327 381
#     4  11  24  39  66  89 129 173 226 271 324 384
#     4  10  23  42  74  97 133 167 216 257 322 391
#
# _framework density 24.004422999999999
#
# number of rings (size 3 to 8) (size 9 to 14) (size 15 to 20)
#    0.000    1.250    1.250    3.750    8.750    1.000 
#    0.000    0.000    0.000    6.000    0.000    0.000 
#    0.000    0.000    0.000    0.000    0.000    0.000 
#
# Total GULP energy -198282.503041 kJ/mol
# GULP energy per Si atom -12392.656440 kJ/mol
# Density = 2.394979 g / cm^3
# Si number density = 24.004423 Si / 1000 Ang^3
#
#
#
# Elastic Constant Matrix: (Units=GPa)
#
#
# Indices 1 2 3 4 5 6 
#
# 1 99.4642 29.9209 7.5648 18.9025 9.4228 -12.2000
# 2 29.9209 123.5777 30.7972 31.2491 6.2089 -8.9236
# 3 7.5648 30.7972 112.5008 34.0199 10.5906 -1.5506
# 4 18.9025 31.2491 34.0199 45.5429 7.8666 3.1205
# 5 9.4228 6.2089 10.5906 7.8666 35.6188 4.7099
# 6 -12.2000 -8.9236 -1.5506 3.1205 4.7099 22.2725
#
#
#
# Elastic Compliance Matrix: (Units=1/GPa)
#
#
# Indices 1 2 3 4 5 6 
#
# 1 0.012691 -0.001326 0.001614 -0.005517 -0.003450 0.008035
# 2 -0.001326 0.010551 -0.000782 -0.006332 -0.000443 0.004427
# 3 0.001614 -0.000782 0.011935 -0.008866 -0.002295 0.003129
# 4 -0.005517 -0.006332 -0.008866 0.036199 -0.001345 -0.010964
# 5 -0.003450 -0.000443 -0.002295 -0.001345 0.031186 -0.008633
# 6 0.008035 0.004427 0.003129 -0.010964 -0.008633 0.054653
#
#
# Mechanical properties :
#
#
# Convention : Reuss Voigt Hill
#
# Bulk Modulus (GPa) = 29.24961 52.45650 40.85306
# Shear Modulus (GPa) = 29.48125 38.50417 33.99271
#
# Velocity S-wave (km/s) = 3.50831 4.00940 3.76720
# Velocity P-wave (km/s) = 5.35000 6.58286 5.99819
#
# Compressibility (1/GPa) = 0.03418849
#
# Stress axis : x y z
#
# Youngs Moduli (GPa) = 78.79571 94.77643 83.78976
#
# Poissons Ratio (x) = 0.12569 -0.13521
# Poissons Ratio (y) = 0.10450 0.06549
# Poissons Ratio (z) = -0.12715 0.07408
#
# Static dielectric constant tensor:
#      x y z
#    x 4.420800 -0.183010 -0.107840 
#    y -0.183010 4.393500 0.016560 
#    z -0.107840 0.016560 4.411370 
# 
# 
# High freq. dielectric constant tensor:
#      x y z
#    x 1.965750 -0.006670 0.000840 
#    y -0.006670 1.946100 0.005770 
#    z 0.000840 0.005770 1.950840 
# 
# From -- ./inp_files/51148.got.cif
#   From: 2010.06.25/outbox.cif.g09.slc.cpg/sg2_26_cif.got.tgz:51148.got - 2010.06.27 13:26:56.
