data_PCOD8018236
_publ_section_title
;
Structure prediction by ZEFSAII (Michael W. Deem and Ramdas Pophale) SiO2 
 PCOD8018236
Probable space group: P -1
;
_chemical_formula_sum "Si O2"
_cell_formula_units_Z 14
_cell_length_a 17.385024
_cell_length_b 4.922639
_cell_length_c 8.704596
_cell_angle_alpha 107.153156
_cell_angle_beta 68.514431
_cell_angle_gamma 128.039666
_cell_volume 543.492326
_symmetry_space_group_name_H-M "P -1"
_symmetry_group_IT_number 2
_symmetry_cell_setting 'triclinic'
loop_
_space_group_symop_operation_xyz
x,y,z
-x,-y,-z
loop_
_atom_site_type_symbol
_atom_site_label
_atom_site_fract_x
_atom_site_fract_y
_atom_site_fract_z
Si Si1 0.022439 0.556365 0.812220
Si Si2 0.611695 0.767571 0.510262
Si Si3 0.822433 0.094644 0.707042
Si Si4 0.858045 0.760137 0.334930
Si Si5 0.294305 0.578232 0.135836
Si Si6 0.440093 0.748262 0.295879
Si Si7 0.670647 0.366383 0.234125
O O1 0.068720 0.349139 0.685178
O O2 0.925334 0.421591 0.754509
O O3 0.095394 0.965275 0.793497
O O4 0.000000 0.500000 0.000000
O O5 0.500000 0.500000 0.500000
O O6 0.611687 0.637993 0.663984
O O7 0.677275 0.715619 0.332974
O O8 0.628194 0.138047 0.552513
O O9 0.753070 0.225325 0.726174
O O10 0.837007 0.928043 0.519918
O O11 0.774126 0.822086 0.835494
O O12 0.757391 0.401802 0.283761
O O13 0.408612 0.729878 0.137803
O O14 0.298789 0.618486 0.958971
O O15 0.559770 0.008387 0.283175
#
# Coordination Sequence:
#
# PCOD8018236 Si02
#       7
#     2   2   2   2   2   2   2
#     4  12  25  46  70  99 129 164 212 272 326 380
#     4  10  22  40  64  89 125 172 217 262 315 376
#     4  12  26  46  67  95 131 170 217 265 320 388
#     4  12  25  43  70  97 128 172 213 260 325 388
#     4  12  25  42  65  96 131 173 215 266 320 376
#     4  11  23  42  64  93 132 174 215 263 319 384
#     4  11  24  41  64  97 131 169 217 268 318 380
#
# _framework density 25.759336000000001
#
# number of rings (size 3 to 8) (size 9 to 14) (size 15 to 20)
#    0.000    0.571    0.000    9.429    0.000    6.857 
#    0.000    5.000    0.000    0.000    0.000    0.000 
#    0.000    0.000    0.000    0.000    0.000    0.000 
#
# Total GULP energy -173507.010215 kJ/mol
# GULP energy per Si atom -12393.357872 kJ/mol
# Density = 2.570071 g / cm^3
# Si number density = 25.759336 Si / 1000 Ang^3
#
#
#
# Elastic Constant Matrix: (Units=GPa)
#
#
# Indices 1 2 3 4 5 6 
#
# 1 127.7658 42.5787 18.6953 -4.6227 10.4173 11.8773
# 2 42.5787 98.2659 5.2927 -8.9920 -0.2231 11.9067
# 3 18.6953 5.2927 90.7891 2.0391 7.0232 21.4789
# 4 -4.6227 -8.9920 2.0391 29.8844 9.0738 11.3222
# 5 10.4173 -0.2231 7.0232 9.0738 34.0328 9.5431
# 6 11.8773 11.9067 21.4789 11.3222 9.5431 46.5395
#
#
#
# Elastic Compliance Matrix: (Units=1/GPa)
#
#
# Indices 1 2 3 4 5 6 
#
# 1 0.009692 -0.003919 -0.001438 0.001530 -0.002942 -0.000576
# 2 -0.003919 0.012699 0.000808 0.004312 0.001057 -0.003887
# 3 -0.001438 0.000808 0.012699 0.001688 -0.000967 -0.005913
# 4 0.001530 0.004312 0.001688 0.041590 -0.008915 -0.010563
# 5 -0.002942 0.001057 -0.000967 -0.008915 0.033952 -0.003866
# 6 -0.000576 -0.003887 -0.005913 -0.010563 -0.003866 0.028720
#
#
# Mechanical properties :
#
#
# Convention : Reuss Voigt Hill
#
# Bulk Modulus (GPa) = 38.47294 49.99491 44.23392
# Shear Modulus (GPa) = 31.82403 38.77493 35.29948
#
# Velocity S-wave (km/s) = 3.51869 3.88400 3.70585
# Velocity P-wave (km/s) = 5.61037 6.29003 5.95990
#
# Compressibility (1/GPa) = 0.02599230
#
# Stress axis : x y z
#
# Youngs Moduli (GPa) = 103.17770 78.74622 78.74426
#
# Poissons Ratio (x) = 0.30861 0.11322
# Poissons Ratio (y) = 0.40435 -0.06361
# Poissons Ratio (z) = 0.14835 -0.06361
#
# Static dielectric constant tensor:
#      x y z
#    x 4.449680 0.777290 0.402370 
#    y 0.777290 4.058520 -0.304760 
#    z 0.402370 -0.304760 4.019180 
# 
# 
# High freq. dielectric constant tensor:
#      x y z
#    x 2.052700 0.006750 0.011620 
#    y 0.006750 2.034740 0.001740 
#    z 0.011620 0.001740 2.023200 
# 
# From -- ./inp_files/322739.got.cif
#   From: 2010.06.25/outbox.cif.g09.slc.cpg/sg2_162_cif.got.tgz:322739.got - 2010.06.27 13:26:56.
