data_PCOD8018299
_publ_section_title
;
Structure prediction by ZEFSAII (Michael W. Deem and Ramdas Pophale) SiO2 
 PCOD8018299
Probable space group: P -1
;
_chemical_formula_sum "Si O2"
_cell_formula_units_Z 16
_cell_length_a 5.290857
_cell_length_b 11.548614
_cell_length_c 13.119562
_cell_angle_alpha 84.257762
_cell_angle_beta 74.918024
_cell_angle_gamma 117.174901
_cell_volume 665.848492
_symmetry_space_group_name_H-M "P -1"
_symmetry_group_IT_number 2
_symmetry_cell_setting 'triclinic'
loop_
_space_group_symop_operation_xyz
x,y,z
-x,-y,-z
loop_
_atom_site_type_symbol
_atom_site_label
_atom_site_fract_x
_atom_site_fract_y
_atom_site_fract_z
Si Si1 0.221696 0.744481 0.209295
Si Si2 0.826953 0.607972 0.875782
Si Si3 0.266230 0.503669 0.820862
Si Si4 0.849142 0.727691 0.660522
Si Si5 0.114429 0.032329 0.643274
Si Si6 0.196491 0.809238 0.425204
Si Si7 0.155161 0.972441 0.124173
Si Si8 0.730835 0.788184 0.019910
O O1 0.207029 0.723876 0.334719
O O2 0.334014 0.902278 0.160157
O O3 0.890255 0.641878 0.205418
O O4 0.456043 0.707134 0.135805
O O5 0.468543 0.504055 0.896110
O O6 0.987266 0.701461 0.751276
O O7 0.839911 0.696084 0.962344
O O8 0.009073 0.532005 0.889701
O O9 0.487421 0.620023 0.707283
O O10 0.005304 0.706724 0.545630
O O11 0.914709 0.879584 0.640545
O O12 0.466929 0.091788 0.575784
O O13 0.974718 0.110714 0.593008
O O14 0.097735 0.045103 0.766149
O O15 0.360886 0.131933 0.061711
O O16 0.021948 0.897259 0.039414
#
# Coordination Sequence:
#
# PCOD8018299 Si02
#       8
#     2   2   2   2   2   2   2   2
#     4  11  25  43  65  96 136 169 223 264 325 391
#     4  10  25  43  66  96 127 177 220 263 323 381
#     4  10  26  44  66  95 133 178 219 265 316 391
#     4  10  24  43  67  95 134 170 219 264 327 382
#     4  11  22  41  64 100 131 166 214 273 325 387
#     4  11  25  39  69  98 130 170 214 272 330 379
#     4  10  22  40  64  97 131 170 213 267 338 379
#     4  11  22  41  68  94 131 170 214 276 325 390
#
# _framework density 24.029491
#
# number of rings (size 3 to 8) (size 9 to 14) (size 15 to 20)
#    0.750    0.750    2.500    1.125    7.000    1.500 
#    2.250    0.625    0.000    0.000    0.000    0.000 
#    0.000    0.000    0.000    0.000    0.000    0.000 
#
# Total GULP energy -198307.296209 kJ/mol
# GULP energy per Si atom -12394.206013 kJ/mol
# Density = 2.397480 g / cm^3
# Si number density = 24.029491 Si / 1000 Ang^3
#
#
#
# Elastic Constant Matrix: (Units=GPa)
#
#
# Indices 1 2 3 4 5 6 
#
# 1 111.2264 18.5061 31.2160 -2.2226 -18.8249 -5.9405
# 2 18.5061 81.3556 32.3513 -1.6648 -12.1024 -4.8308
# 3 31.2160 32.3513 122.3680 20.8988 -11.0825 -19.3283
# 4 -2.2226 -1.6648 20.8988 25.2332 -0.7847 -4.8318
# 5 -18.8249 -12.1024 -11.0825 -0.7847 26.6822 2.0284
# 6 -5.9405 -4.8308 -19.3283 -4.8318 2.0284 22.8491
#
#
#
# Elastic Compliance Matrix: (Units=1/GPa)
#
#
# Indices 1 2 3 4 5 6 
#
# 1 0.010996 -0.000387 -0.002577 0.003422 0.006556 0.000739
# 2 -0.000387 0.014853 -0.004155 0.004549 0.004867 0.000054
# 3 -0.002577 -0.004155 0.012783 -0.009696 0.000779 0.007145
# 4 0.003422 0.004549 -0.009696 0.049055 0.001598 0.003881
# 5 0.006556 0.004867 0.000779 0.001598 0.044700 -0.000238
# 6 0.000739 0.000054 0.007145 0.003881 -0.000238 0.050855
#
#
# Mechanical properties :
#
#
# Convention : Reuss Voigt Hill
#
# Bulk Modulus (GPa) = 40.99607 53.23298 47.11452
# Shear Modulus (GPa) = 24.31773 30.47801 27.39787
#
# Velocity S-wave (km/s) = 3.18464 3.56527 3.38031
# Velocity P-wave (km/s) = 5.53356 6.25695 5.90634
#
# Compressibility (1/GPa) = 0.02439258
#
# Stress axis : x y z
#
# Youngs Moduli (GPa) = 90.94414 67.32828 78.22874
#
# Poissons Ratio (x) = 0.02608 0.20156
# Poissons Ratio (y) = 0.03523 0.32507
# Poissons Ratio (z) = 0.23432 0.27978
#
# Static dielectric constant tensor:
#      x y z
#    x 3.946680 -0.073330 0.030090 
#    y -0.073330 4.217140 -0.031410 
#    z 0.030090 -0.031410 4.723060 
# 
# 
# High freq. dielectric constant tensor:
#      x y z
#    x 1.938370 -0.006050 -0.002640 
#    y -0.006050 1.943180 0.002800 
#    z -0.002640 0.002800 1.968230 
# 
# From -- ./inp_files/482181.got.cif
#   From: 2010.06.25/outbox.cif.g09.slc.cpg/sg2_242_cif.got.tgz:482181.got - 2010.06.27 13:26:56.
