data_PCOD8018918
_publ_section_title
;
Structure prediction by ZEFSAII (Michael W. Deem and Ramdas Pophale) SiO2 
 PCOD8018918
Probable space group: P -1
;
_chemical_formula_sum "Si O2"
_cell_formula_units_Z 16
_cell_length_a 14.386579
_cell_length_b 11.308497
_cell_length_c 7.875380
_cell_angle_alpha 138.185006
_cell_angle_beta 112.956699
_cell_angle_gamma 82.504084
_cell_volume 759.322789
_symmetry_space_group_name_H-M "P -1"
_symmetry_group_IT_number 2
_symmetry_cell_setting 'triclinic'
loop_
_space_group_symop_operation_xyz
x,y,z
-x,-y,-z
loop_
_atom_site_type_symbol
_atom_site_label
_atom_site_fract_x
_atom_site_fract_y
_atom_site_fract_z
Si Si1 0.907928 0.660705 0.798026
Si Si2 0.182477 0.494381 0.095535
Si Si3 0.247906 0.648095 0.795850
Si Si4 0.139746 0.789498 0.156587
Si Si5 0.714598 0.723713 0.585435
Si Si6 0.365793 0.771233 0.697631
Si Si7 0.256166 0.191237 0.673586
Si Si8 0.601243 0.824662 0.937408
O O1 0.892034 0.636888 0.963323
O O2 0.868462 0.456863 0.469060
O O3 0.835574 0.787803 0.807831
O O4 0.028740 0.754839 0.944509
O O5 0.127385 0.647563 0.152277
O O6 0.294304 0.593236 0.363326
O O7 0.198764 0.356920 0.810424
O O8 0.314584 0.496703 0.706398
O O9 0.312098 0.796848 0.866834
O O10 0.232572 0.754569 0.067853
O O11 0.175160 0.000081 0.466566
O O12 0.702640 0.823576 0.505242
O O13 0.640098 0.768375 0.724313
O O14 0.478029 0.731791 0.761073
O O15 0.375378 0.954968 0.793089
O O16 0.347161 0.243164 0.934635
#
# Coordination Sequence:
#
# PCOD8018918 Si02
#       8
#     2   2   2   2   2   2   2   2
#     4   9  21  39  66  89 129 178 205 258 325 365
#     4  11  21  43  61  94 131 162 220 261 310 384
#     4   9  20  40  62  88 129 164 210 260 309 376
#     4  12  22  39  65  95 130 171 210 267 310 370
#     4  10  22  41  62  94 131 162 216 260 302 392
#     4  10  22  42  69  87 126 175 200 267 334 366
#     4  12  24  39  66  96 130 166 215 261 312 380
#     4  11  22  44  65  96 128 163 215 264 321 381
#
# _framework density 21.07141
#
# number of rings (size 3 to 8) (size 9 to 14) (size 15 to 20)
#    0.750    0.750    3.750    1.500    0.000    3.000 
#    2.250    3.125    0.000    0.000    0.000    0.000 
#    0.000    0.000    0.000    0.000    0.000    0.000 
#
# Total GULP energy -198333.613273 kJ/mol
# GULP energy per Si atom -12395.850830 kJ/mol
# Density = 2.102345 g / cm^3
# Si number density = 21.071410 Si / 1000 Ang^3
#
#
#
# Elastic Constant Matrix: (Units=GPa)
#
#
# Indices 1 2 3 4 5 6 
#
# 1 84.3901 18.9771 38.6601 -4.3385 -0.3971 1.9195
# 2 18.9771 81.2826 21.0649 -11.6362 -1.0242 7.8682
# 3 38.6601 21.0649 64.7998 7.0428 -3.9278 -2.4450
# 4 -4.3385 -11.6362 7.0428 26.8013 4.7439 -8.7646
# 5 -0.3971 -1.0242 -3.9278 4.7439 28.2597 -7.9063
# 6 1.9195 7.8682 -2.4450 -8.7646 -7.9063 27.1694
#
#
#
# Elastic Compliance Matrix: (Units=1/GPa)
#
#
# Indices 1 2 3 4 5 6 
#
# 1 0.017265 -0.000297 -0.011013 0.005671 -0.002540 -0.001035
# 2 -0.000297 0.015243 -0.005860 0.007489 -0.002421 -0.003209
# 3 -0.011013 -0.005860 0.025584 -0.011143 0.005868 0.002890
# 4 0.005671 0.007489 -0.011143 0.048938 -0.006527 0.010315
# 5 -0.002540 -0.002421 0.005868 -0.006527 0.040256 0.011018
# 6 -0.001035 -0.003209 0.002890 0.010315 0.011018 0.044603
#
#
# Mechanical properties :
#
#
# Convention : Reuss Voigt Hill
#
# Bulk Modulus (GPa) = 42.10251 43.09738 42.59995
# Shear Modulus (GPa) = 21.35425 26.56410 23.95918
#
# Velocity S-wave (km/s) = 3.18688 3.55444 3.37567
# Velocity P-wave (km/s) = 5.79361 6.11088 5.95436
#
# Compressibility (1/GPa) = 0.02375155
#
# Stress axis : x y z
#
# Youngs Moduli (GPa) = 57.92078 65.60433 39.08751
#
# Poissons Ratio (x) = 0.01946 0.43049
# Poissons Ratio (y) = 0.01718 0.22905
# Poissons Ratio (z) = 0.63791 0.38444
#
# Static dielectric constant tensor:
#      x y z
#    x 3.595060 0.033750 -0.035010 
#    y 0.033750 3.775110 0.036610 
#    z -0.035010 0.036610 3.544660 
# 
# 
# High freq. dielectric constant tensor:
#      x y z
#    x 1.812070 0.005550 -0.008480 
#    y 0.005550 1.826220 0.003340 
#    z -0.008480 0.003340 1.810630 
# 
# From -- ./inp_files/306046.got.cif
#   From: 2010.06.25/outbox.cif.g09.slc.cpg/sg2_154_cif.got.tgz:306046.got - 2010.06.27 13:26:56.
