data_PCOD8018698
_publ_section_title
;
Structure prediction by ZEFSAII (Michael W. Deem and Ramdas Pophale) SiO2 
 PCOD8018698
Probable space group: P -1
;
_chemical_formula_sum "Si O2"
_cell_formula_units_Z 12
_cell_length_a 12.154698
_cell_length_b 14.711629
_cell_length_c 9.049122
_cell_angle_alpha 104.323670
_cell_angle_beta 100.891884
_cell_angle_gamma 19.225866
_cell_volume 511.193091
_symmetry_space_group_name_H-M "P -1"
_symmetry_group_IT_number 2
_symmetry_cell_setting 'triclinic'
loop_
_space_group_symop_operation_xyz
x,y,z
-x,-y,-z
loop_
_atom_site_type_symbol
_atom_site_label
_atom_site_fract_x
_atom_site_fract_y
_atom_site_fract_z
Si Si1 0.716888 0.725057 0.304070
Si Si2 0.553943 0.868280 0.662755
Si Si3 0.886685 0.957839 0.338834
Si Si4 0.341521 0.535641 0.048862
Si Si5 0.815682 0.217917 0.372041
Si Si6 0.800296 0.000092 0.879902
O O1 0.615149 0.806234 0.480786
O O2 0.474181 0.847301 0.205807
O O3 0.104362 0.385279 0.258600
O O4 0.685496 0.851892 0.269760
O O5 0.385828 0.907991 0.702159
O O6 0.798447 0.121100 0.289301
O O7 0.880913 0.994544 0.523305
O O8 0.249071 0.632478 0.236613
O O9 0.602570 0.245049 0.992640
O O10 0.500000 0.500000 0.000000
O O11 0.986145 0.796891 0.977555
O O12 0.500000 0.500000 0.500000
O O13 0.896835 0.208573 0.238084
#
# Coordination Sequence:
#
# PCOD8018698 Si02
#       6
#     2   2   2   2   2   2
#     4  10  22  42  66  97 128 177 220 275 333 381
#     4  10  22  40  69  95 131 169 227 279 322 389
#     4  11  25  43  64 106 130 175 224 281 333 391
#     4  12  26  44  68  98 144 181 214 268 345 411
#     4  11  25  40  71  98 135 168 227 288 329 393
#     4  12  25  46  68  99 137 181 222 270 339 407
#
# _framework density 23.474495999999998
#
# number of rings (size 3 to 8) (size 9 to 14) (size 15 to 20)
#    0.000    1.000    3.333    2.500    7.000    1.333 
#    0.000    5.000    0.000    0.000    0.000    0.000 
#    0.000    0.000    0.000    0.000    0.000    0.000 
#
# Total GULP energy -148763.146929 kJ/mol
# GULP energy per Si atom -12396.928911 kJ/mol
# Density = 2.342107 g / cm^3
# Si number density = 23.474496 Si / 1000 Ang^3
#
#
#
# Elastic Constant Matrix: (Units=GPa)
#
#
# Indices 1 2 3 4 5 6 
#
# 1 109.2271 14.9958 31.0817 7.1007 12.5516 -15.9946
# 2 14.9958 102.7634 36.9182 11.7828 6.4126 7.1462
# 3 31.0817 36.9182 91.8660 2.5241 0.6466 10.2781
# 4 7.1007 11.7828 2.5241 39.5988 -0.3856 1.2895
# 5 12.5516 6.4126 0.6466 -0.3856 23.1517 3.1341
# 6 -15.9946 7.1462 10.2781 1.2895 3.1341 27.1640
#
#
#
# Elastic Compliance Matrix: (Units=1/GPa)
#
#
# Indices 1 2 3 4 5 6 
#
# 1 0.013629 0.000158 -0.005808 -0.002575 -0.008846 0.011324
# 2 0.000158 0.012027 -0.004687 -0.003315 -0.003237 -0.000767
# 3 -0.005808 -0.004687 0.015632 0.001777 0.005230 -0.008789
# 4 -0.002575 -0.003315 0.001777 0.026714 0.003108 -0.002943
# 5 -0.008846 -0.003237 0.005230 0.003108 0.050457 -0.012305
# 6 0.011324 -0.000767 -0.008789 -0.002943 -0.012305 0.048568
#
#
# Mechanical properties :
#
#
# Convention : Reuss Voigt Hill
#
# Bulk Modulus (GPa) = 48.51449 52.20533 50.35991
# Shear Modulus (GPa) = 25.69720 32.70695 29.20208
#
# Velocity S-wave (km/s) = 3.31219 3.73674 3.53085
# Velocity P-wave (km/s) = 5.94468 6.39571 6.17432
#
# Compressibility (1/GPa) = 0.02061240
#
# Stress axis : x y z
#
# Youngs Moduli (GPa) = 73.37554 83.14362 63.97147
#
# Poissons Ratio (x) = -0.01312 0.37157
# Poissons Ratio (y) = -0.01158 0.29984
# Poissons Ratio (z) = 0.42619 0.38971
#
# Static dielectric constant tensor:
#      x y z
#    x 4.175460 0.260260 0.068000 
#    y 0.260260 5.208470 -0.209350 
#    z 0.068000 -0.209350 4.753910 
# 
# 
# High freq. dielectric constant tensor:
#      x y z
#    x 1.919670 0.000000 0.008240 
#    y 0.000000 1.940500 -0.012700 
#    z 0.008240 -0.012700 1.935860 
# 
# From -- ./inp_files/22686.got.cif
#   From: 2010.06.25/outbox.cif.g09.slc.cpg/sg2_12_cif.got.tgz:22686.got - 2010.06.27 13:26:56.
