data_PCOD8018202
_publ_section_title
;
Structure prediction by ZEFSAII (Michael W. Deem and Ramdas Pophale) SiO2 
 PCOD8018202
Probable space group: P -1
;
_chemical_formula_sum "Si O2"
_cell_formula_units_Z 16
_cell_length_a 15.487213
_cell_length_b 5.087226
_cell_length_c 15.411309
_cell_angle_alpha 76.551730
_cell_angle_beta 140.941935
_cell_angle_gamma 113.166011
_cell_volume 697.800583
_symmetry_space_group_name_H-M "P -1"
_symmetry_group_IT_number 2
_symmetry_cell_setting 'triclinic'
loop_
_space_group_symop_operation_xyz
x,y,z
-x,-y,-z
loop_
_atom_site_type_symbol
_atom_site_label
_atom_site_fract_x
_atom_site_fract_y
_atom_site_fract_z
Si Si1 0.824062 0.362655 0.384580
Si Si2 0.807768 0.685243 0.070125
Si Si3 0.251249 0.234349 0.177676
Si Si4 0.202102 0.647144 0.244659
Si Si5 0.775567 0.745914 0.465335
Si Si6 0.599611 0.327325 0.062391
Si Si7 0.443480 0.588652 0.539210
Si Si8 0.022809 0.717879 0.777074
O O1 0.756333 0.504046 0.395945
O O2 0.741742 0.381566 0.229719
O O3 0.000000 0.500000 0.500000
O O4 0.776216 0.029345 0.395990
O O5 0.656100 0.457567 0.002021
O O6 0.931799 0.548456 0.199050
O O7 0.840990 0.993063 0.118884
O O8 0.799006 0.726141 0.958910
O O9 0.248064 0.510947 0.206351
O O10 0.415889 0.220191 0.310617
O O11 0.152322 0.918833 0.161542
O O12 0.333999 0.754856 0.410945
O O13 0.068543 0.384994 0.198471
O O14 0.650512 0.664042 0.448859
O O15 0.932889 0.803033 0.625833
O O16 0.500000 0.500000 0.000000
O O17 0.500000 0.000000 0.000000
O O18 0.500000 0.500000 0.500000
#
# Coordination Sequence:
#
# PCOD8018202 Si02
#       8
#     2   2   2   2   2   2   2   2
#     4  12  26  46  76 105 137 181 243 294 344 417
#     4  12  26  43  66  95 132 183 215 282 333 421
#     4  11  23  38  63  92 134 173 227 257 336 404
#     4  10  22  40  63  95 127 177 215 285 321 384
#     4  11  24  43  74 102 131 181 230 288 341 409
#     4  12  28  49  71 100 145 179 226 290 361 409
#     4   9  22  42  65  96 137 173 225 282 336 399
#     4  11  23  43  67  97 139 169 229 271 342 388
#
# _framework density 22.929189999999998
#
# number of rings (size 3 to 8) (size 9 to 14) (size 15 to 20)
#    0.000    1.000    0.000    6.000    3.500   10.000 
#    0.000    0.000    0.000    0.000    0.000    0.000 
#    0.000    0.000    0.000    0.000    0.000    0.000 
#
# Total GULP energy -198344.985838 kJ/mol
# GULP energy per Si atom -12396.561615 kJ/mol
# Density = 2.287700 g / cm^3
# Si number density = 22.929190 Si / 1000 Ang^3
#
#
#
# Elastic Constant Matrix: (Units=GPa)
#
#
# Indices 1 2 3 4 5 6 
#
# 1 81.3411 22.9343 14.5518 -4.3811 5.8629 0.9461
# 2 22.9343 105.3408 33.9603 -8.7891 6.5388 -12.7625
# 3 14.5518 33.9603 84.0642 -2.1064 -0.3571 -0.8901
# 4 -4.3811 -8.7891 -2.1064 38.2727 -3.5071 -0.3251
# 5 5.8629 6.5388 -0.3571 -3.5071 26.3115 2.3030
# 6 0.9461 -12.7625 -0.8901 -0.3251 2.3030 37.2918
#
#
#
# Elastic Compliance Matrix: (Units=1/GPa)
#
#
# Indices 1 2 3 4 5 6 
#
# 1 0.013428 -0.002420 -0.001350 0.000694 -0.002224 -0.001058
# 2 -0.002420 0.012333 -0.004476 0.002100 -0.002688 0.004360
# 3 -0.001350 -0.004476 0.013924 -0.000273 0.001677 -0.001271
# 4 0.000694 0.002100 -0.000273 0.026942 0.002845 0.000754
# 5 -0.002224 -0.002688 0.001677 0.002845 0.039857 -0.003260
# 6 -0.001058 0.004360 -0.001271 0.000754 -0.003260 0.028512
#
#
# Mechanical properties :
#
#
# Convention : Reuss Voigt Hill
#
# Bulk Modulus (GPa) = 43.11696 45.95988 44.53842
# Shear Modulus (GPa) = 31.40307 33.66185 32.53246
#
# Velocity S-wave (km/s) = 3.70478 3.83571 3.77081
# Velocity P-wave (km/s) = 6.09473 6.30116 6.19881
#
# Compressibility (1/GPa) = 0.02319273
#
# Stress axis : x y z
#
# Youngs Moduli (GPa) = 74.47220 81.08190 71.81644
#
# Poissons Ratio (x) = 0.19626 0.09694
# Poissons Ratio (y) = 0.18026 0.32145
# Poissons Ratio (z) = 0.10052 0.36293
#
# Static dielectric constant tensor:
#      x y z
#    x 4.513170 0.218460 0.091090 
#    y 0.218460 4.119210 -0.116020 
#    z 0.091090 -0.116020 4.432270 
# 
# 
# High freq. dielectric constant tensor:
#      x y z
#    x 1.906440 0.010060 0.000550 
#    y 0.010060 1.913410 -0.010050 
#    z 0.000550 -0.010050 1.912810 
# 
# From -- ./inp_files/525631.got.cif
#   From: 2010.06.25/outbox.cif.g09.slc.cpg/sg2_263_cif.got.tgz:525631.got - 2010.06.27 13:26:56.
