data_PCOD8018277
_publ_section_title
;
Structure prediction by ZEFSAII (Michael W. Deem and Ramdas Pophale) SiO2 
 PCOD8018277
Probable space group: P -1
;
_chemical_formula_sum "Si O2"
_cell_formula_units_Z 14
_cell_length_a 10.914083
_cell_length_b 17.647159
_cell_length_c 10.992643
_cell_angle_alpha 151.504141
_cell_angle_beta 65.926083
_cell_angle_gamma 133.027059
_cell_volume 616.789278
_symmetry_space_group_name_H-M "P -1"
_symmetry_group_IT_number 2
_symmetry_cell_setting 'triclinic'
loop_
_space_group_symop_operation_xyz
x,y,z
-x,-y,-z
loop_
_atom_site_type_symbol
_atom_site_label
_atom_site_fract_x
_atom_site_fract_y
_atom_site_fract_z
Si Si1 0.527601 0.899251 0.174796
Si Si2 0.270840 0.817708 0.752382
Si Si3 0.712152 0.909559 0.688838
Si Si4 0.807404 0.242785 0.757366
Si Si5 0.578310 0.594972 0.816528
Si Si6 0.806286 0.915199 0.404989
Si Si7 0.896521 0.644146 0.741018
O O1 0.299381 0.755531 0.086733
O O2 0.595157 0.013392 0.176241
O O3 0.662567 0.109558 0.512967
O O4 0.539458 0.719875 0.933366
O O5 0.244179 0.605272 0.479633
O O6 0.040397 0.683303 0.639416
O O7 0.366975 0.991145 0.079198
O O8 0.627519 0.685006 0.482079
O O9 0.660466 0.844262 0.475257
O O10 0.956224 0.126282 0.904999
O O11 0.882931 0.137469 0.618091
O O12 0.000000 0.500000 0.000000
O O13 0.740899 0.632161 0.727474
O O14 0.668220 0.694326 0.056574
O O15 0.000000 0.000000 0.500000
#
# Coordination Sequence:
#
# PCOD8018277 Si02
#       7
#     2   2   2   2   2   2   2
#     4  10  24  44  60  96 129 163 215 252 321 381
#     4   9  21  44  63  89 136 164 211 264 303 387
#     4  10  22  40  64  95 128 161 216 257 317 374
#     4  10  25  42  65  90 127 170 206 261 317 377
#     4  11  23  39  66  94 130 167 208 266 311 377
#     4  11  22  41  66  94 124 166 211 263 319 366
#     4   9  21  41  62  96 124 168 212 257 311 364
#
# _framework density 22.69819
#
# number of rings (size 3 to 8) (size 9 to 14) (size 15 to 20)
#    0.857    1.143    1.429    0.429    6.000    1.714 
#    2.571    0.000    0.000    0.000    0.000    0.000 
#    0.000    0.000    0.000    0.000    0.000    0.000 
#
# Total GULP energy -173490.898782 kJ/mol
# GULP energy per Si atom -12392.207056 kJ/mol
# Density = 2.264653 g / cm^3
# Si number density = 22.698190 Si / 1000 Ang^3
#
#
#
# Elastic Constant Matrix: (Units=GPa)
#
#
# Indices 1 2 3 4 5 6 
#
# 1 84.3409 28.7271 43.9877 2.3258 -11.7477 4.1090
# 2 28.7271 134.1654 45.9885 14.1041 -4.1916 3.6523
# 3 43.9877 45.9885 117.0413 36.1200 -18.2413 3.4058
# 4 2.3258 14.1041 36.1200 38.5598 1.3052 -3.4532
# 5 -11.7477 -4.1916 -18.2413 1.3052 24.6639 -3.4842
# 6 4.1090 3.6523 3.4058 -3.4532 -3.4842 22.9222
#
#
#
# Elastic Compliance Matrix: (Units=1/GPa)
#
#
# Indices 1 2 3 4 5 6 
#
# 1 0.016185 -0.001630 -0.007024 0.006101 0.001858 -0.000396
# 2 -0.001630 0.008834 -0.002951 -0.000403 -0.001574 -0.000977
# 3 -0.007024 -0.002951 0.019494 -0.017323 0.011194 -0.002075
# 4 0.006101 -0.000403 -0.017323 0.042886 -0.011357 0.006279
# 5 0.001858 -0.001574 0.011194 -0.011357 0.050642 0.004241
# 6 -0.000396 -0.000977 -0.002075 0.006279 0.004241 0.045751
#
#
# Mechanical properties :
#
#
# Convention : Reuss Voigt Hill
#
# Bulk Modulus (GPa) = 46.94272 63.66159 55.30216
# Shear Modulus (GPa) = 23.35306 31.68547 27.51926
#
# Velocity S-wave (km/s) = 3.21105 3.74029 3.48573
# Velocity P-wave (km/s) = 5.87145 6.83819 6.37318
#
# Compressibility (1/GPa) = 0.02130256
#
# Stress axis : x y z
#
# Youngs Moduli (GPa) = 61.78468 113.20108 51.29704
#
# Poissons Ratio (x) = 0.18457 0.36031
# Poissons Ratio (y) = 0.10074 0.15137
# Poissons Ratio (z) = 0.43398 0.33405
#
# Static dielectric constant tensor:
#      x y z
#    x 5.297520 0.712560 -0.376350 
#    y 0.712560 4.148570 -0.146620 
#    z -0.376350 -0.146620 4.237630 
# 
# 
# High freq. dielectric constant tensor:
#      x y z
#    x 1.887580 0.023310 -0.011890 
#    y 0.023310 1.889630 0.007120 
#    z -0.011890 0.007120 1.905260 
# 
# From -- ./inp_files/437091.got.cif
#   From: 2010.06.25/outbox.cif.g09.slc.cpg/sg2_219_cif.got.tgz:437091.got - 2010.06.27 13:26:56.
