data_PCOD8018252
_publ_section_title
;
Structure prediction by ZEFSAII (Michael W. Deem and Ramdas Pophale) SiO2 
 PCOD8018252
Probable space group: P -1
;
_chemical_formula_sum "Si O2"
_cell_formula_units_Z 16
_cell_length_a 5.135739
_cell_length_b 16.498906
_cell_length_c 11.925094
_cell_angle_alpha 134.193966
_cell_angle_beta 81.020401
_cell_angle_gamma 102.626008
_cell_volume 706.955287
_symmetry_space_group_name_H-M "P -1"
_symmetry_group_IT_number 2
_symmetry_cell_setting 'triclinic'
loop_
_space_group_symop_operation_xyz
x,y,z
-x,-y,-z
loop_
_atom_site_type_symbol
_atom_site_label
_atom_site_fract_x
_atom_site_fract_y
_atom_site_fract_z
Si Si1 0.876521 0.554613 0.303119
Si Si2 0.904213 0.014907 0.396543
Si Si3 0.332365 0.227116 0.820537
Si Si4 0.799381 0.965569 0.822828
Si Si5 0.096411 0.380460 0.395726
Si Si6 0.331530 0.405346 0.179502
Si Si7 0.879101 0.253476 0.698770
Si Si8 0.236600 0.857267 0.821645
O O1 0.805279 0.622882 0.485502
O O2 0.604322 0.485612 0.206253
O O3 0.081930 0.468358 0.230609
O O4 0.999061 0.643232 0.287714
O O5 0.669946 0.908247 0.283000
O O6 0.807444 0.138556 0.516926
O O7 0.000000 0.000000 0.500000
O O8 0.146889 0.010752 0.289295
O O9 0.605808 0.282108 0.796373
O O10 0.084111 0.240943 0.771944
O O11 0.302703 0.289050 0.999473
O O12 0.533702 0.873585 0.766924
O O13 0.049570 0.915019 0.806813
O O14 0.762802 0.084385 0.999767
O O15 0.329339 0.371646 0.279959
O O16 0.000000 0.500000 0.500000
O O17 0.855658 0.277629 0.290119
#
# Coordination Sequence:
#
# PCOD8018252 Si02
#       8
#     2   2   2   2   2   2   2   2
#     4  11  24  41  64  91 122 160 203 251 301 357
#     4  10  23  41  63  91 125 161 201 248 303 362
#     4  11  24  42  64  90 122 161 203 250 302 358
#     4  10  22  40  64  92 122 159 202 250 301 356
#     4  10  23  41  63  91 125 161 201 248 303 362
#     4  11  24  42  64  90 122 161 203 250 302 358
#     4  11  24  41  64  91 122 160 203 251 301 357
#     4  10  22  40  64  92 122 159 202 250 301 356
#
# _framework density 22.632266999999999
#
# number of rings (size 3 to 8) (size 9 to 14) (size 15 to 20)
#    0.000    1.500    0.000    3.750    0.000   15.000 
#    0.000    7.500    0.000    0.000    0.000    0.000 
#    0.000    0.000    0.000    0.000    0.000    0.000 
#
# Total GULP energy -198420.786671 kJ/mol
# GULP energy per Si atom -12401.299167 kJ/mol
# Density = 2.258076 g / cm^3
# Si number density = 22.632267 Si / 1000 Ang^3
#
#
#
# Elastic Constant Matrix: (Units=GPa)
#
#
# Indices 1 2 3 4 5 6 
#
# 1 71.6526 16.6496 47.4750 -6.7817 1.4969 20.1248
# 2 16.6496 114.3904 68.7648 -3.3514 2.0176 32.1903
# 3 47.4750 68.7648 151.7304 1.3659 -2.2566 18.8493
# 4 -6.7817 -3.3514 1.3659 35.6178 9.4758 -1.3702
# 5 1.4969 2.0176 -2.2566 9.4758 17.9169 1.0720
# 6 20.1248 32.1903 18.8493 -1.3702 1.0720 24.7418
#
#
#
# Elastic Compliance Matrix: (Units=1/GPa)
#
#
# Indices 1 2 3 4 5 6 
#
# 1 0.025895 0.009298 -0.009321 0.006922 -0.006526 -0.025392
# 2 0.009298 0.020647 -0.009010 0.004319 -0.004899 -0.027109
# 3 -0.009321 -0.009010 0.012545 -0.004067 0.004968 0.009307
# 4 0.006922 0.004319 -0.004067 0.035011 -0.019773 -0.005356
# 5 -0.006526 -0.004899 0.004968 -0.019773 0.067761 0.003867
# 6 -0.025392 -0.027109 0.009307 -0.005356 0.003867 0.088788
#
#
# Mechanical properties :
#
#
# Convention : Reuss Voigt Hill
#
# Bulk Modulus (GPa) = 24.37868 67.06135 45.72002
# Shear Modulus (GPa) = 17.70622 29.31425 23.51024
#
# Velocity S-wave (km/s) = 2.80008 3.60285 3.22653
# Velocity P-wave (km/s) = 4.60966 6.85584 5.84172
#
# Compressibility (1/GPa) = 0.04101945
#
# Stress axis : x y z
#
# Youngs Moduli (GPa) = 38.61768 48.43336 79.71362
#
# Poissons Ratio (x) = -0.45032 0.74300
# Poissons Ratio (y) = -0.35905 0.71825
# Poissons Ratio (z) = 0.35995 0.43640
#
# Static dielectric constant tensor:
#      x y z
#    x 3.664920 0.185600 0.037320 
#    y 0.185600 4.281800 -0.002320 
#    z 0.037320 -0.002320 4.665920 
# 
# 
# High freq. dielectric constant tensor:
#      x y z
#    x 1.874200 0.015680 -0.000770 
#    y 0.015680 1.902790 -0.000070 
#    z -0.000770 -0.000070 1.912490 
# 
# From -- ./inp_files/369075.got.cif
#   From: 2010.06.25/outbox.cif.g09.slc.cpg/sg2_185_cif.got.tgz:369075.got - 2010.06.27 13:26:56.
