data_PCOD8018920
_publ_section_title
;
Structure prediction by ZEFSAII (Michael W. Deem and Ramdas Pophale) SiO2 
 PCOD8018920
Probable space group: P -1
;
_chemical_formula_sum "Si O2"
_cell_formula_units_Z 14
_cell_length_a 20.842746
_cell_length_b 5.137230
_cell_length_c 22.208921
_cell_angle_alpha 64.632437
_cell_angle_beta 161.751850
_cell_angle_gamma 122.189418
_cell_volume 602.619187
_symmetry_space_group_name_H-M "P -1"
_symmetry_group_IT_number 2
_symmetry_cell_setting 'triclinic'
loop_
_space_group_symop_operation_xyz
x,y,z
-x,-y,-z
loop_
_atom_site_type_symbol
_atom_site_label
_atom_site_fract_x
_atom_site_fract_y
_atom_site_fract_z
Si Si1 0.405096 0.720943 0.595381
Si Si2 0.035106 0.700290 0.181086
Si Si3 0.547055 0.722654 0.097431
Si Si4 0.326325 0.001827 0.614541
Si Si5 0.920289 0.251533 0.007373
Si Si6 0.141137 0.133687 0.736669
Si Si7 0.680725 0.255434 0.995587
O O1 0.272856 0.732005 0.416166
O O2 0.403147 0.374758 0.630707
O O3 0.285402 0.784911 0.540872
O O4 0.658610 0.002937 0.788592
O O5 0.955563 0.441807 0.082237
O O6 0.070500 0.053066 0.157978
O O7 0.839106 0.583312 0.069572
O O8 0.803178 0.806618 0.291775
O O9 0.517551 0.710434 0.144565
O O10 0.361609 0.386566 0.942137
O O11 0.500000 0.000000 0.000000
O O12 0.526943 0.984636 0.836153
O O13 0.090082 0.845212 0.456887
O O14 0.000000 0.500000 0.000000
O O15 0.140466 0.811472 0.796895
#
# Coordination Sequence:
#
# PCOD8018920 Si02
#       7
#     2   2   2   2   2   2   2
#     4  12  25  45  68 107 137 176 234 280 340 410
#     4  12  25  44  75 101 139 187 224 280 345 401
#     4   9  21  40  61  92 136 176 226 284 345 397
#     4  12  25  39  70 100 135 177 234 289 327 404
#     4  12  27  48  72 106 143 176 224 283 345 417
#     4  10  22  41  62  94 133 181 227 285 344 396
#     4  11  22  39  67  95 129 180 228 281 335 396
#
# _framework density 23.231919000000001
#
# number of rings (size 3 to 8) (size 9 to 14) (size 15 to 20)
#    0.000    0.857    4.286    2.143    6.000    1.714 
#    0.000    6.429    0.000    0.000    0.000    0.000 
#    0.000    0.000    0.000    0.000    0.000    0.000 
#
# Total GULP energy -173509.092291 kJ/mol
# GULP energy per Si atom -12393.506592 kJ/mol
# Density = 2.317904 g / cm^3
# Si number density = 23.231919 Si / 1000 Ang^3
#
#
#
# Elastic Constant Matrix: (Units=GPa)
#
#
# Indices 1 2 3 4 5 6 
#
# 1 88.2412 17.9489 27.1791 5.9507 -11.2139 1.3434
# 2 17.9489 67.7588 6.6628 6.5673 -12.6635 -8.7839
# 3 27.1791 6.6628 85.2597 -5.9208 -8.2778 9.5341
# 4 5.9507 6.5673 -5.9208 22.8147 0.4014 5.4044
# 5 -11.2139 -12.6635 -8.2778 0.4014 32.3408 0.1106
# 6 1.3434 -8.7839 9.5341 5.4044 0.1106 24.9727
#
#
#
# Elastic Compliance Matrix: (Units=1/GPa)
#
#
# Indices 1 2 3 4 5 6 
#
# 1 0.013755 -0.002097 -0.004378 -0.004442 0.002879 0.001142
# 2 -0.002097 0.018492 -0.001683 -0.007414 0.006145 0.008837
# 3 -0.004378 -0.001683 0.014751 0.007218 0.001535 -0.007557
# 4 -0.004442 -0.007414 0.007218 0.052980 -0.003197 -0.016576
# 5 0.002879 0.006145 0.001535 -0.003197 0.034751 0.001958
# 6 0.001142 0.008837 -0.007557 -0.016576 0.001958 0.049554
#
#
# Mechanical properties :
#
#
# Convention : Reuss Voigt Hill
#
# Bulk Modulus (GPa) = 32.59097 38.31569 35.45333
# Shear Modulus (GPa) = 23.71619 28.65691 26.18655
#
# Velocity S-wave (km/s) = 3.19853 3.51595 3.36099
# Velocity P-wave (km/s) = 5.26306 5.74553 5.50958
#
# Compressibility (1/GPa) = 0.03068335
#
# Stress axis : x y z
#
# Youngs Moduli (GPa) = 72.69833 54.07842 67.79072
#
# Poissons Ratio (x) = 0.11338 0.29677
# Poissons Ratio (y) = 0.15242 0.11411
# Poissons Ratio (z) = 0.31826 0.09103
#
# Static dielectric constant tensor:
#      x y z
#    x 4.550840 0.043350 0.004030 
#    y 0.043350 3.970680 0.158660 
#    z 0.004030 0.158660 4.070160 
# 
# 
# High freq. dielectric constant tensor:
#      x y z
#    x 1.922170 -0.000060 -0.001420 
#    y -0.000060 1.921660 0.009020 
#    z -0.001420 0.009020 1.912830 
# 
# From -- ./inp_files/47689.got.cif
#   From: 2010.06.25/outbox.cif.g09.slc.cpg/sg2_24_cif.got.tgz:47689.got - 2010.06.27 13:26:56.
