data_PCOD8018800
_publ_section_title
;
Structure prediction by ZEFSAII (Michael W. Deem and Ramdas Pophale) SiO2 
 PCOD8018800
Probable space group: P -1
;
_chemical_formula_sum "Si O2"
_cell_formula_units_Z 14
_cell_length_a 9.015653
_cell_length_b 12.596086
_cell_length_c 17.965642
_cell_angle_alpha 40.966726
_cell_angle_beta 150.783738
_cell_angle_gamma 130.025396
_cell_volume 652.088573
_symmetry_space_group_name_H-M "P -1"
_symmetry_group_IT_number 2
_symmetry_cell_setting 'triclinic'
loop_
_space_group_symop_operation_xyz
x,y,z
-x,-y,-z
loop_
_atom_site_type_symbol
_atom_site_label
_atom_site_fract_x
_atom_site_fract_y
_atom_site_fract_z
Si Si1 0.840630 0.333912 0.034539
Si Si2 0.201245 0.537445 0.897805
Si Si3 0.926291 0.331171 0.460030
Si Si4 0.662650 0.664276 0.492289
Si Si5 0.826264 0.694175 0.259927
Si Si6 0.284448 0.217393 0.184336
Si Si7 0.152804 0.924992 0.180014
O O1 0.755451 0.331819 0.085931
O O2 0.080636 0.193909 0.182673
O O3 0.524585 0.310044 0.865806
O O4 0.000000 0.500000 0.000000
O O5 0.942181 0.625889 0.689483
O O6 0.500000 0.500000 0.000000
O O7 0.114800 0.364144 0.985351
O O8 0.914871 0.525797 0.346878
O O9 0.620255 0.260658 0.332135
O O10 0.208527 0.270695 0.563927
O O11 0.973448 0.276338 0.594654
O O12 0.500000 0.500000 0.500000
O O13 0.433227 0.801315 0.351310
O O14 0.887347 0.837795 0.153595
O O15 0.297169 0.059015 0.223819
O O16 0.000000 0.000000 0.000000
#
# Coordination Sequence:
#
# PCOD8018800 Si02
#       7
#     2   2   2   2   2   2   2
#     4  10  22  40  72 102 134 188 236 284 353 418
#     4  11  22  43  74 105 136 184 245 294 338 422
#     4  11  24  44  75 104 141 183 251 291 350 433
#     4  12  25  43  74 103 135 193 238 295 356 426
#     4  11  24  45  72 107 140 189 240 298 346 438
#     4  11  25  45  69 106 146 188 231 304 359 423
#     4  12  30  47  71 106 152 184 240 304 369 421
#
# _framework density 21.469474999999999
#
# number of rings (size 3 to 8) (size 9 to 14) (size 15 to 20)
#    0.000    0.857    5.714    0.857   10.000    1.714 
#    0.000    0.000    0.000    0.000    0.000    0.000 
#    0.000    0.000    0.000    0.000    0.000    0.000 
#
# Total GULP energy -173559.100488 kJ/mol
# GULP energy per Si atom -12397.078606 kJ/mol
# Density = 2.142061 g / cm^3
# Si number density = 21.469475 Si / 1000 Ang^3
#
#
#
# Elastic Constant Matrix: (Units=GPa)
#
#
# Indices 1 2 3 4 5 6 
#
# 1 153.0861 67.4700 60.2407 2.1292 16.3904 -12.1392
# 2 67.4700 128.3874 68.4619 7.4327 -3.7375 -21.3862
# 3 60.2407 68.4619 123.5815 10.4424 9.4639 -3.1562
# 4 2.1292 7.4327 10.4424 31.7151 -3.5980 3.6114
# 5 16.3904 -3.7375 9.4639 -3.5980 40.3003 -6.9534
# 6 -12.1392 -21.3862 -3.1562 3.6114 -6.9534 41.9277
#
#
#
# Elastic Compliance Matrix: (Units=1/GPa)
#
#
# Indices 1 2 3 4 5 6 
#
# 1 0.009542 -0.003999 -0.002208 0.000617 -0.003697 -0.000109
# 2 -0.003999 0.014621 -0.006294 -0.001238 0.005532 0.006850
# 3 -0.002208 -0.006294 0.013075 -0.002718 -0.003555 -0.003221
# 4 0.000617 -0.001238 -0.002718 0.033333 0.002718 -0.003078
# 5 -0.003697 0.005532 -0.003555 0.002718 0.028952 0.006051
# 6 -0.000109 0.006850 -0.003221 -0.003078 0.006051 0.028339
#
#
# Mechanical properties :
#
#
# Convention : Reuss Voigt Hill
#
# Bulk Modulus (GPa) = 81.73097 88.60003 85.16550
# Shear Modulus (GPa) = 31.85901 36.71413 34.28657
#
# Velocity S-wave (km/s) = 3.85635 4.13978 4.00057
# Velocity P-wave (km/s) = 7.61444 8.01298 7.81625
#
# Compressibility (1/GPa) = 0.01223526
#
# Stress axis : x y z
#
# Youngs Moduli (GPa) = 104.79945 68.39708 76.48379
#
# Poissons Ratio (x) = 0.27350 0.16887
# Poissons Ratio (y) = 0.41906 0.48142
# Poissons Ratio (z) = 0.23139 0.43052
#
# Static dielectric constant tensor:
#      x y z
#    x 5.524200 0.475140 2.736650 
#    y 0.475140 4.448230 2.022780 
#    z 2.736650 2.022780 10.856430 
# 
# 
# High freq. dielectric constant tensor:
#      x y z
#    x 1.866720 -0.011010 0.009040 
#    y -0.011010 1.837290 0.019190 
#    z 0.009040 0.019190 1.831850 
# 
# From -- ./inp_files/158589.got.cif
#   From: 2010.06.25/outbox.cif.g09.slc.cpg/sg2_80_cif.got.tgz:158589.got - 2010.06.27 13:26:56.
