data_PCOD8018207
_publ_section_title
;
Structure prediction by ZEFSAII (Michael W. Deem and Ramdas Pophale) SiO2 
 PCOD8018207
Probable space group: P -1
;
_chemical_formula_sum "Si O2"
_cell_formula_units_Z 16
_cell_length_a 8.798245
_cell_length_b 15.407617
_cell_length_c 15.649999
_cell_angle_alpha 26.761339
_cell_angle_beta 107.670909
_cell_angle_gamma 90.008947
_cell_volume 705.830337
_symmetry_space_group_name_H-M "P -1"
_symmetry_group_IT_number 2
_symmetry_cell_setting 'triclinic'
loop_
_space_group_symop_operation_xyz
x,y,z
-x,-y,-z
loop_
_atom_site_type_symbol
_atom_site_label
_atom_site_fract_x
_atom_site_fract_y
_atom_site_fract_z
Si Si1 0.879028 0.808691 0.630565
Si Si2 0.718913 0.163579 0.912913
Si Si3 0.090143 0.031931 0.193171
Si Si4 0.604294 0.228568 0.099581
Si Si5 0.245353 0.187299 0.647836
Si Si6 0.438776 0.719499 0.400726
Si Si7 0.871256 0.370418 0.337303
Si Si8 0.880163 0.373708 0.001544
O O1 0.796000 0.652237 0.759310
O O2 0.058943 0.682365 0.702305
O O3 0.689382 0.096024 0.323397
O O4 0.969556 0.808184 0.736689
O O5 0.528004 0.435429 0.679648
O O6 0.709632 0.165367 0.807651
O O7 0.934025 0.094234 0.036696
O O8 0.710206 0.949952 0.133323
O O9 0.312824 0.889713 0.312062
O O10 0.102196 0.863839 0.416467
O O11 0.006874 0.279386 0.015491
O O12 0.698642 0.007944 0.243371
O O13 0.362881 0.387583 0.913451
O O14 0.682105 0.384165 0.953029
O O15 0.366577 0.292700 0.571540
O O16 0.003127 0.411412 0.388078
#
# Coordination Sequence:
#
# PCOD8018207 Si02
#       8
#     2   2   2   2   2   2   2   2
#     4  10  24  44  64  95 129 168 212 266 313 372
#     4  10  22  44  62  94 132 164 208 269 312 380
#     4  11  23  41  66  95 129 170 210 262 319 380
#     4  11  22  41  67  92 129 170 209 264 314 375
#     4  10  22  40  63  96 125 165 212 261 311 379
#     4  11  24  39  68  93 128 167 213 257 326 373
#     4  10  23  40  64  94 126 167 216 255 321 373
#     4  11  23  45  65  92 135 163 214 265 312 379
#
# _framework density 22.668337000000001
#
# number of rings (size 3 to 8) (size 9 to 14) (size 15 to 20)
#    0.000    1.500    3.750    1.875    5.250    0.500 
#    0.000    1.250    0.000    8.250    0.000    0.000 
#    0.000    0.000    0.000    0.000    0.000    0.000 
#
# Total GULP energy -198383.524965 kJ/mol
# GULP energy per Si atom -12398.970310 kJ/mol
# Density = 2.261674 g / cm^3
# Si number density = 22.668337 Si / 1000 Ang^3
#
#
#
# Elastic Constant Matrix: (Units=GPa)
#
#
# Indices 1 2 3 4 5 6 
#
# 1 91.1610 34.1378 55.4854 1.4192 16.9100 0.1322
# 2 34.1378 76.2144 19.3746 9.5091 2.4517 1.4182
# 3 55.4854 19.3746 90.7540 17.5035 18.3401 -4.4272
# 4 1.4192 9.5091 17.5035 22.5145 -0.8366 -2.0530
# 5 16.9100 2.4517 18.3401 -0.8366 29.5603 0.8857
# 6 0.1322 1.4182 -4.4272 -2.0530 0.8857 28.2639
#
#
#
# Elastic Compliance Matrix: (Units=1/GPa)
#
#
# Indices 1 2 3 4 5 6 
#
# 1 0.023140 -0.008227 -0.014249 0.012889 -0.003323 -0.000887
# 2 -0.008227 0.017197 0.002757 -0.008937 0.001349 -0.001084
# 3 -0.014249 0.002757 0.024643 -0.019482 -0.007997 0.002624
# 4 0.012889 -0.008937 -0.019482 0.062945 0.007186 0.001683
# 5 -0.003323 0.001349 -0.007997 0.007186 0.040845 -0.002063
# 6 -0.000887 -0.001084 0.002624 0.001683 -0.002063 0.036037
#
#
# Mechanical properties :
#
#
# Convention : Reuss Voigt Hill
#
# Bulk Modulus (GPa) = 39.15130 52.90277 46.02703
# Shear Modulus (GPa) = 19.78162 26.00984 22.89573
#
# Velocity S-wave (km/s) = 2.95728 3.39102 3.18155
# Velocity P-wave (km/s) = 5.38233 6.22257 5.81764
#
# Compressibility (1/GPa) = 0.02554194
#
# Stress axis : x y z
#
# Youngs Moduli (GPa) = 43.21499 58.14946 40.57913
#
# Poissons Ratio (x) = 0.47842 0.57819
# Poissons Ratio (y) = 0.35555 -0.11187
# Poissons Ratio (z) = 0.61575 -0.16031
#
# Static dielectric constant tensor:
#      x y z
#    x 4.086800 0.056220 0.024190 
#    y 0.056220 3.916340 0.292870 
#    z 0.024190 0.292870 4.506570 
# 
# 
# High freq. dielectric constant tensor:
#      x y z
#    x 1.886500 0.008250 -0.009170 
#    y 0.008250 1.880470 0.021440 
#    z -0.009170 0.021440 1.906730 
# 
# From -- ./inp_files/505081.got.cif
#   From: 2010.06.25/outbox.cif.g09.slc.cpg/sg2_253_cif.got.tgz:505081.got - 2010.06.27 13:26:56.
