data_PCOD8018088
_publ_section_title
;
Structure prediction by ZEFSAII (Michael W. Deem and Ramdas Pophale) SiO2 
 PCOD8018088
Probable space group: P -1
;
_chemical_formula_sum "Si O2"
_cell_formula_units_Z 16
_cell_length_a 11.302211
_cell_length_b 11.285232
_cell_length_c 12.813051
_cell_angle_alpha 74.191252
_cell_angle_beta 108.272793
_cell_angle_gamma 44.606799
_cell_volume 729.021346
_symmetry_space_group_name_H-M "P -1"
_symmetry_group_IT_number 2
_symmetry_cell_setting 'triclinic'
loop_
_space_group_symop_operation_xyz
x,y,z
-x,-y,-z
loop_
_atom_site_type_symbol
_atom_site_label
_atom_site_fract_x
_atom_site_fract_y
_atom_site_fract_z
Si Si1 0.652946 0.607795 0.652925
Si Si2 0.284694 0.226347 0.684337
Si Si3 0.403996 0.604840 0.679585
Si Si4 0.171363 0.053400 0.272336
Si Si5 0.853632 0.874806 0.190496
Si Si6 0.608218 0.163306 0.843133
Si Si7 0.064991 0.964743 0.691658
Si Si8 0.223987 0.271553 0.194381
O O1 0.634164 0.501758 0.745101
O O2 0.384912 0.852284 0.466008
O O3 0.730263 0.660687 0.727073
O O4 0.850387 0.418339 0.658878
O O5 0.298373 0.104590 0.801417
O O6 0.360519 0.290228 0.741233
O O7 0.000000 0.500000 0.500000
O O8 0.499293 0.005045 0.710541
O O9 0.524790 0.371523 0.801068
O O10 0.216495 0.750537 0.493087
O O11 0.250363 0.792444 0.687716
O O12 0.245870 0.958935 0.196945
O O13 0.945519 0.154273 0.217602
O O14 0.097913 0.259746 0.216021
O O15 0.812367 0.036006 0.202822
O O16 0.784135 0.953280 0.031534
O O17 0.000000 0.500000 0.000000
#
# Coordination Sequence:
#
# PCOD8018088 Si02
#       8
#     2   2   2   2   2   2   2   2
#     4  11  22  39  65  91 124 169 216 259 313 384
#     4  11  24  44  68  93 128 170 215 259 312 384
#     4  10  22  40  62  89 121 161 211 262 313 378
#     4  10  22  40  62  89 123 168 213 255 310 380
#     4  12  24  39  63  93 128 165 207 262 324 377
#     4  11  24  40  60  90 126 162 205 262 320 373
#     4  10  22  40  63  89 120 162 212 262 314 379
#     4  11  24  42  65  96 132 163 207 270 327 376
#
# _framework density 21.947232
#
# number of rings (size 3 to 8) (size 9 to 14) (size 15 to 20)
#    0.000    1.250    0.000    6.750    0.000    9.500 
#    0.000    0.000    0.000    0.000    0.000    0.000 
#    0.000    0.000    0.000    0.000    0.000    0.000 
#
# Total GULP energy -198356.880109 kJ/mol
# GULP energy per Si atom -12397.305007 kJ/mol
# Density = 2.189728 g / cm^3
# Si number density = 21.947232 Si / 1000 Ang^3
#
#
#
# Elastic Constant Matrix: (Units=GPa)
#
#
# Indices 1 2 3 4 5 6 
#
# 1 141.2449 36.4519 14.9132 3.5832 -26.4675 13.5212
# 2 36.4519 75.2688 12.0178 11.4256 2.8041 17.3567
# 3 14.9132 12.0178 64.8804 9.5293 -8.9406 7.5492
# 4 3.5832 11.4256 9.5293 32.5993 1.4761 -3.5669
# 5 -26.4675 2.8041 -8.9406 1.4761 32.1321 -2.2841
# 6 13.5212 17.3567 7.5492 -3.5669 -2.2841 37.8984
#
#
#
# Elastic Compliance Matrix: (Units=1/GPa)
#
#
# Indices 1 2 3 4 5 6 
#
# 1 0.010081 -0.005053 -0.000142 0.000235 0.008644 -0.000711
# 2 -0.005053 0.018876 -0.001444 -0.006169 -0.006463 -0.007524
# 3 -0.000142 -0.001444 0.017487 -0.005136 0.004900 -0.002959
# 4 0.000235 -0.006169 -0.005136 0.035157 -0.001817 0.006964
# 5 0.008644 -0.006463 0.004900 -0.001817 0.040335 0.001160
# 6 -0.000711 -0.007524 -0.002959 0.006964 0.001160 0.031401
#
#
# Mechanical properties :
#
#
# Convention : Reuss Voigt Hill
#
# Bulk Modulus (GPa) = 30.15166 45.35111 37.75138
# Shear Modulus (GPa) = 28.14213 35.06005 31.60109
#
# Velocity S-wave (km/s) = 3.58476 4.00117 3.79867
# Velocity P-wave (km/s) = 5.55896 6.48494 6.03972
#
# Compressibility (1/GPa) = 0.03316567
#
# Stress axis : x y z
#
# Youngs Moduli (GPa) = 99.19822 52.97810 57.18542
#
# Poissons Ratio (x) = 0.26771 0.00811
# Poissons Ratio (y) = 0.50127 0.08257
# Poissons Ratio (z) = 0.01407 0.07650
#
# Static dielectric constant tensor:
#      x y z
#    x 8.626940 0.133910 0.707860 
#    y 0.133910 3.790410 0.028410 
#    z 0.707860 0.028410 4.111210 
# 
# 
# High freq. dielectric constant tensor:
#      x y z
#    x 1.888950 0.007610 -0.008620 
#    y 0.007610 1.856990 0.004530 
#    z -0.008620 0.004530 1.861270 
# 
# From -- ./inp_files/428014.got.cif
#   From: 2010.06.25/outbox.cif.g09.slc.cpg/sg2_215_cif.got.tgz:428014.got - 2010.06.27 13:26:56.
