data_PCOD8018500
_publ_section_title
;
Structure prediction by ZEFSAII (Michael W. Deem and Ramdas Pophale) SiO2 
 PCOD8018500
Probable space group: P -1
;
_chemical_formula_sum "Si O2"
_cell_formula_units_Z 16
_cell_length_a 9.551476
_cell_length_b 23.565502
_cell_length_c 11.102920
_cell_angle_alpha 158.527822
_cell_angle_beta 126.856032
_cell_angle_gamma 51.097748
_cell_volume 710.870016
_symmetry_space_group_name_H-M "P -1"
_symmetry_group_IT_number 2
_symmetry_cell_setting 'triclinic'
loop_
_space_group_symop_operation_xyz
x,y,z
-x,-y,-z
loop_
_atom_site_type_symbol
_atom_site_label
_atom_site_fract_x
_atom_site_fract_y
_atom_site_fract_z
Si Si1 0.824817 0.188821 0.300330
Si Si2 0.458821 0.649007 0.360831
Si Si3 0.121453 0.161804 0.991440
Si Si4 0.735793 0.277429 0.011799
Si Si5 0.562339 0.143250 0.458324
Si Si6 0.452839 0.842478 0.109032
Si Si7 0.734742 0.625818 0.666435
Si Si8 0.835739 0.864742 0.765967
O O1 0.717417 0.338834 0.621514
O O2 0.001331 0.239768 0.438840
O O3 0.703232 0.130904 0.020239
O O4 0.876788 0.040412 0.127241
O O5 0.436816 0.812471 0.594551
O O6 0.621782 0.642211 0.518552
O O7 0.500000 0.500000 0.000000
O O8 0.287645 0.017981 0.754751
O O9 0.102762 0.303945 0.162710
O O10 0.148953 0.207171 0.234027
O O11 0.918773 0.133394 0.823395
O O12 0.791759 0.445491 0.386972
O O13 0.621059 0.280809 0.837182
O O14 0.607054 0.258590 0.016193
O O15 0.365195 0.130605 0.377144
O O16 0.500000 0.000000 0.500000
O O17 0.636829 0.735457 0.940128
#
# Coordination Sequence:
#
# PCOD8018500 Si02
#       8
#     2   2   2   2   2   2   2   2
#     4  10  22  40  67 100 133 174 224 283 341 394
#     4  11  21  41  69  98 136 176 223 277 341 406
#     4  12  23  42  66 101 133 180 233 283 337 405
#     4  12  25  43  65  98 144 179 222 282 348 407
#     4  12  23  41  69 101 130 180 231 284 335 405
#     4  11  23  43  68 101 135 178 229 281 342 412
#     4  11  24  42  70  95 139 185 225 274 350 410
#     4  11  21  40  68  96 132 172 229 286 332 398
#
# _framework density 22.507631
#
# number of rings (size 3 to 8) (size 9 to 14) (size 15 to 20)
#    0.000    0.750    5.000    4.500    0.000    0.000 
#    0.000    1.875    2.750    0.000    0.000    0.000 
#    0.000    0.000    0.000    0.000    0.000    0.000 
#
# Total GULP energy -198276.298280 kJ/mol
# GULP energy per Si atom -12392.268642 kJ/mol
# Density = 2.245640 g / cm^3
# Si number density = 22.507631 Si / 1000 Ang^3
#
#
#
# Elastic Constant Matrix: (Units=GPa)
#
#
# Indices 1 2 3 4 5 6 
#
# 1 176.1942 44.3270 56.8592 -2.6487 -17.2441 -4.7637
# 2 44.3270 74.3615 20.8029 -2.0247 0.0514 1.0522
# 3 56.8592 20.8029 92.0976 -2.0670 -12.1012 -3.6913
# 4 -2.6487 -2.0247 -2.0670 28.6511 8.0596 9.7706
# 5 -17.2441 0.0514 -12.1012 8.0596 31.2456 5.7724
# 6 -4.7637 1.0522 -3.6913 9.7706 5.7724 41.7838
#
#
#
# Elastic Compliance Matrix: (Units=1/GPa)
#
#
# Indices 1 2 3 4 5 6 
#
# 1 0.008168 -0.003850 -0.003754 -0.000840 0.003193 0.000452
# 2 -0.003850 0.016289 -0.001710 0.001893 -0.003115 -0.001013
# 3 -0.003754 -0.001710 0.014019 -0.000595 0.003418 0.000521
# 4 -0.000840 0.001893 -0.000595 0.040455 -0.009594 -0.008331
# 5 0.003193 -0.003115 0.003418 -0.009594 0.037988 -0.002260
# 6 0.000452 -0.001013 0.000521 -0.008331 -0.002260 0.026316
#
#
# Mechanical properties :
#
#
# Convention : Reuss Voigt Hill
#
# Bulk Modulus (GPa) = 50.38424 65.18128 57.78276
# Shear Modulus (GPa) = 29.67734 35.04703 32.36219
#
# Velocity S-wave (km/s) = 3.63512 3.95031 3.79599
# Velocity P-wave (km/s) = 6.32873 7.05898 6.70380
#
# Compressibility (1/GPa) = 0.01984747
#
# Stress axis : x y z
#
# Youngs Moduli (GPa) = 122.43269 61.39027 71.33406
#
# Poissons Ratio (x) = 0.23636 0.26780
# Poissons Ratio (y) = 0.47137 0.12197
# Poissons Ratio (z) = 0.45963 0.10497
#
# Static dielectric constant tensor:
#      x y z
#    x 4.545230 0.047210 0.101740 
#    y 0.047210 4.060480 0.019620 
#    z 0.101740 0.019620 4.214680 
# 
# 
# High freq. dielectric constant tensor:
#      x y z
#    x 1.915150 0.003950 -0.007700 
#    y 0.003950 1.887650 0.001040 
#    z -0.007700 0.001040 1.852990 
# 
# From -- ./inp_files/407293.got.cif
#   From: 2010.06.25/outbox.cif.g09.slc.cpg/sg2_204_cif.got.tgz:407293.got - 2010.06.27 13:26:56.
