data_PCOD8018760
_publ_section_title
;
Structure prediction by ZEFSAII (Michael W. Deem and Ramdas Pophale) SiO2 
 PCOD8018760
Probable space group: P -1
;
_chemical_formula_sum "Si O2"
_cell_formula_units_Z 16
_cell_length_a 11.609803
_cell_length_b 13.453713
_cell_length_c 8.671701
_cell_angle_alpha 133.440796
_cell_angle_beta 128.423654
_cell_angle_gamma 52.142604
_cell_volume 727.955962
_symmetry_space_group_name_H-M "P -1"
_symmetry_group_IT_number 2
_symmetry_cell_setting 'triclinic'
loop_
_space_group_symop_operation_xyz
x,y,z
-x,-y,-z
loop_
_atom_site_type_symbol
_atom_site_label
_atom_site_fract_x
_atom_site_fract_y
_atom_site_fract_z
Si Si1 0.256430 0.195518 0.571094
Si Si2 0.666937 0.377840 0.118859
Si Si3 0.509421 0.786774 0.692239
Si Si4 0.381800 0.569574 0.210322
Si Si5 0.817458 0.043136 0.893728
Si Si6 0.801753 0.614748 0.578482
Si Si7 0.918018 0.519566 0.115867
Si Si8 0.535525 0.066790 0.870660
O O1 0.229552 0.264688 0.452007
O O2 0.143023 0.309169 0.715595
O O3 0.436007 0.152589 0.731954
O O4 0.217780 0.044997 0.375606
O O5 0.534282 0.423225 0.193020
O O6 0.781221 0.472635 0.332483
O O7 0.594233 0.390065 0.901893
O O8 0.767588 0.213288 0.034730
O O9 0.387192 0.703364 0.462890
O O10 0.681066 0.677094 0.682876
O O11 0.474981 0.934274 0.723434
O O12 0.495778 0.819874 0.896059
O O13 0.223467 0.541841 0.084609
O O14 0.719838 0.006566 0.917319
O O15 0.000000 0.000000 0.000000
O O16 0.972303 0.569059 0.748862
O O17 0.000000 0.500000 0.000000
#
# Coordination Sequence:
#
# PCOD8018760 Si02
#       8
#     2   2   2   2   2   2   2   2
#     4  12  24  44  69  99 133 182 229 272 326 406
#     4  10  22  41  67 101 130 171 231 283 316 391
#     4  10  23  44  70  98 132 182 222 283 331 403
#     4  10  22  40  70  97 129 171 233 276 331 388
#     4  12  26  39  66 102 138 172 224 279 335 393
#     4  11  23  43  71  99 133 177 227 273 338 391
#     4  12  26  43  68 102 141 175 215 279 346 403
#     4  11  24  44  68  98 139 177 229 269 347 398
#
# _framework density 21.979351999999999
#
# number of rings (size 3 to 8) (size 9 to 14) (size 15 to 20)
#    0.000    1.000    2.500    3.750    5.250    2.000 
#    0.000    3.125    0.000    5.250    0.000    0.000 
#    0.000    0.000    0.000    0.000    0.000    0.000 
#
# Total GULP energy -198265.057475 kJ/mol
# GULP energy per Si atom -12391.566092 kJ/mol
# Density = 2.192933 g / cm^3
# Si number density = 21.979352 Si / 1000 Ang^3
#
#
#
# Elastic Constant Matrix: (Units=GPa)
#
#
# Indices 1 2 3 4 5 6 
#
# 1 113.6356 50.4044 59.6516 -3.7817 0.0433 -27.4082
# 2 50.4044 114.7525 71.2714 3.7917 5.4703 -10.6869
# 3 59.6516 71.2714 162.0610 26.2922 -3.5853 -21.5307
# 4 -3.7817 3.7917 26.2922 42.9317 -5.1459 -1.0473
# 5 0.0433 5.4703 -3.5853 -5.1459 30.0273 -1.5259
# 6 -27.4082 -10.6869 -21.5307 -1.0473 -1.5259 30.6385
#
#
#
# Elastic Compliance Matrix: (Units=1/GPa)
#
#
# Indices 1 2 3 4 5 6 
#
# 1 0.014545 -0.003839 -0.002955 0.003847 0.001483 0.009802
# 2 -0.003839 0.013426 -0.005068 0.001165 -0.002969 -0.002420
# 3 -0.002955 -0.005068 0.010952 -0.006286 0.001317 0.003137
# 4 0.003847 0.001165 -0.006286 0.027852 0.003834 0.000573
# 5 0.001483 -0.002969 0.001317 0.003834 0.034813 0.003082
# 6 0.009802 -0.002420 0.003137 0.000573 0.003082 0.042940
#
#
# Mechanical properties :
#
#
# Convention : Reuss Voigt Hill
#
# Bulk Modulus (GPa) = 65.78397 83.67822 74.73110
# Shear Modulus (GPa) = 28.84885 34.66094 31.75490
#
# Velocity S-wave (km/s) = 3.62683 3.97543 3.80512
# Velocity P-wave (km/s) = 6.89445 7.69584 7.30614
#
# Compressibility (1/GPa) = 0.01520127
#
# Stress axis : x y z
#
# Youngs Moduli (GPa) = 68.75015 74.48458 91.30501
#
# Poissons Ratio (x) = 0.28593 0.26978
# Poissons Ratio (y) = 0.26392 0.46269
# Poissons Ratio (z) = 0.20314 0.37745
#
# Static dielectric constant tensor:
#      x y z
#    x 3.792850 0.051840 0.009400 
#    y 0.051840 3.819060 0.223730 
#    z 0.009400 0.223730 4.234950 
# 
# 
# High freq. dielectric constant tensor:
#      x y z
#    x 1.856780 -0.014840 -0.001090 
#    y -0.014840 1.862570 0.022580 
#    z -0.001090 0.022580 1.882510 
# 
# From -- ./inp_files/274770.got.cif
#   From: 2010.06.25/outbox.cif.g09.slc.cpg/sg2_138_cif.got.tgz:274770.got - 2010.06.27 13:26:56.
