data_PCOD8018926
_publ_section_title
;
Structure prediction by ZEFSAII (Michael W. Deem and Ramdas Pophale) SiO2 
 PCOD8018926
Probable space group: P -1
;
_chemical_formula_sum "Si O2"
_cell_formula_units_Z 16
_cell_length_a 11.280050
_cell_length_b 10.867472
_cell_length_c 11.308213
_cell_angle_alpha 35.324773
_cell_angle_beta 100.084037
_cell_angle_gamma 100.101416
_cell_volume 787.857529
_symmetry_space_group_name_H-M "P -1"
_symmetry_group_IT_number 2
_symmetry_cell_setting 'triclinic'
loop_
_space_group_symop_operation_xyz
x,y,z
-x,-y,-z
loop_
_atom_site_type_symbol
_atom_site_label
_atom_site_fract_x
_atom_site_fract_y
_atom_site_fract_z
Si Si1 0.800001 0.288254 0.956851
Si Si2 0.458920 0.800228 0.450217
Si Si3 0.600588 0.447250 0.152282
Si Si4 0.274111 0.114728 0.138185
Si Si5 0.693044 0.074579 0.327936
Si Si6 0.618974 0.103684 0.877269
Si Si7 0.976986 0.927802 0.753228
Si Si8 0.896774 0.760816 0.634990
O O1 0.708697 0.234300 0.876893
O O2 0.838682 0.536411 0.759770
O O3 0.916745 0.146506 0.084475
O O4 0.729688 0.243313 0.100569
O O5 0.454623 0.589143 0.696914
O O6 0.591390 0.910103 0.389559
O O7 0.426220 0.736040 0.358796
O O8 0.365181 0.976062 0.339321
O O9 0.652756 0.219933 0.313580
O O10 0.500000 0.500000 0.000000
O O11 0.703634 0.635607 0.024238
O O12 0.137405 0.046797 0.202504
O O13 0.303080 0.074889 0.035084
O O14 0.800320 0.938399 0.498174
O O15 0.500000 0.000000 0.000000
O O16 0.958666 0.750807 0.783299
O O17 0.011605 0.156148 0.517931
#
# Coordination Sequence:
#
# PCOD8018926 Si02
#       8
#     2   2   2   2   2   2   2   2
#     4  11  22  42  67  94 124 182 214 257 321 386
#     4  10  23  39  59  96 133 166 206 265 320 385
#     4  12  23  37  65 100 128 169 211 263 339 391
#     4  10  23  41  63  91 135 171 210 272 318 375
#     4  11  22  37  65  96 133 160 211 264 333 388
#     4  10  22  46  65  91 137 170 220 265 313 389
#     4  10  22  41  62  96 128 167 218 272 323 374
#     4  10  23  39  66  96 131 166 212 273 325 381
#
# _framework density 20.308239
#
# number of rings (size 3 to 8) (size 9 to 14) (size 15 to 20)
#    0.750    0.750    2.500    2.250    3.500    3.500 
#    4.500    1.875    0.000    0.000    0.000    0.000 
#    0.000    0.000    0.000    0.000    0.000    0.000 
#
# Total GULP energy -198307.133414 kJ/mol
# GULP energy per Si atom -12394.195838 kJ/mol
# Density = 2.026202 g / cm^3
# Si number density = 20.308239 Si / 1000 Ang^3
#
#
#
# Elastic Constant Matrix: (Units=GPa)
#
#
# Indices 1 2 3 4 5 6 
#
# 1 122.3867 35.4538 41.2489 7.4935 -27.4916 4.6589
# 2 35.4538 93.1037 40.3299 7.7605 -9.5975 19.7353
# 3 41.2489 40.3299 106.6442 13.4101 -18.3084 9.1148
# 4 7.4935 7.7605 13.4101 30.8710 4.5343 -2.5510
# 5 -27.4916 -9.5975 -18.3084 4.5343 26.4088 0.0580
# 6 4.6589 19.7353 9.1148 -2.5510 0.0580 36.0039
#
#
#
# Elastic Compliance Matrix: (Units=1/GPa)
#
#
# Indices 1 2 3 4 5 6 
#
# 1 0.012124 -0.002569 -0.001338 -0.003389 0.011342 -0.000081
# 2 -0.002569 0.015098 -0.003711 -0.002246 0.000642 -0.007164
# 3 -0.001338 -0.003711 0.013480 -0.005851 0.007612 -0.001632
# 4 -0.003389 -0.002246 -0.005851 0.039032 -0.015115 0.005941
# 5 0.011342 0.000642 0.007612 -0.015115 0.057790 -0.004910
# 6 -0.000081 -0.007164 -0.001632 0.005941 -0.004910 0.032554
#
#
# Mechanical properties :
#
#
# Convention : Reuss Voigt Hill
#
# Bulk Modulus (GPa) = 39.26677 61.79996 50.53337
# Shear Modulus (GPa) = 25.79928 32.33021 29.06475
#
# Velocity S-wave (km/s) = 3.56811 3.99428 3.78720
# Velocity P-wave (km/s) = 6.02931 7.19510 6.63785
#
# Compressibility (1/GPa) = 0.02546683
#
# Stress axis : x y z
#
# Youngs Moduli (GPa) = 82.47967 66.23182 74.18406
#
# Poissons Ratio (x) = 0.17012 0.09925
# Poissons Ratio (y) = 0.21185 0.27533
# Poissons Ratio (z) = 0.11035 0.24581
#
# Static dielectric constant tensor:
#      x y z
#    x 3.803100 0.046930 -0.068270 
#    y 0.046930 3.468480 0.138130 
#    z -0.068270 0.138130 3.666720 
# 
# 
# High freq. dielectric constant tensor:
#      x y z
#    x 1.802780 0.009080 -0.009980 
#    y 0.009080 1.771220 0.011050 
#    z -0.009980 0.011050 1.795010 
# 
# From -- ./inp_files/427262.got.cif
#   From: 2010.06.25/outbox.cif.g09.slc.cpg/sg2_214_cif.got.tgz:427262.got - 2010.06.27 13:26:56.
