data_PCOD8018302
_publ_section_title
;
Structure prediction by ZEFSAII (Michael W. Deem and Ramdas Pophale) SiO2 
 PCOD8018302
Probable space group: P -1
;
_chemical_formula_sum "Si O2"
_cell_formula_units_Z 16
_cell_length_a 10.937913
_cell_length_b 19.292733
_cell_length_c 13.926412
_cell_angle_alpha 31.760846
_cell_angle_beta 31.576529
_cell_angle_gamma 33.130018
_cell_volume 738.724754
_symmetry_space_group_name_H-M "P -1"
_symmetry_group_IT_number 2
_symmetry_cell_setting 'triclinic'
loop_
_space_group_symop_operation_xyz
x,y,z
-x,-y,-z
loop_
_atom_site_type_symbol
_atom_site_label
_atom_site_fract_x
_atom_site_fract_y
_atom_site_fract_z
Si Si1 0.527373 0.482335 0.729588
Si Si2 0.005969 0.480065 0.301557
Si Si3 0.809720 0.305526 0.144292
Si Si4 0.774507 0.190218 0.999838
Si Si5 0.349020 0.413027 0.743757
Si Si6 0.471853 0.196850 0.375094
Si Si7 0.627056 0.887789 0.961847
Si Si8 0.337872 0.008606 0.825383
O O1 0.743253 0.524828 0.485032
O O2 0.316342 0.619689 0.759809
O O3 0.374166 0.419750 0.833482
O O4 0.661716 0.362525 0.862270
O O5 0.938666 0.499121 0.208975
O O6 0.192229 0.318046 0.393318
O O7 0.138158 0.592974 0.091492
O O8 0.606499 0.256305 0.292453
O O9 0.068482 0.170053 0.160583
O O10 0.640935 0.142804 0.231101
O O11 0.726547 0.124703 0.008833
O O12 0.073911 0.135086 0.889391
O O13 0.500000 0.500000 0.500000
O O14 0.454384 0.248222 0.826664
O O15 0.444150 0.060367 0.600749
O O16 0.542317 0.968530 0.821607
O O17 0.500000 0.000000 0.000000
#
# Coordination Sequence:
#
# PCOD8018302 Si02
#       8
#     2   2   2   2   2   2   2   2
#     4  11  21  42  69 100 128 170 226 278 337 390
#     4  10  22  40  64  98 132 167 219 279 333 391
#     4  11  26  42  67  97 136 173 224 279 332 393
#     4  11  23  41  68  96 135 172 225 279 324 406
#     4   9  21  40  69 100 129 172 225 280 331 393
#     4  12  24  42  63 100 134 179 222 271 335 400
#     4  11  24  46  70  97 139 182 222 276 342 406
#     4  11  25  44  67  96 136 182 222 268 345 399
#
# _framework density 21.658946
#
# number of rings (size 3 to 8) (size 9 to 14) (size 15 to 20)
#    0.000    1.250    3.750    1.500    0.000    8.000 
#    0.000    5.000    0.000    0.000    0.000    0.000 
#    0.000    0.000    0.000    0.000    0.000    0.000 
#
# Total GULP energy -198337.859125 kJ/mol
# GULP energy per Si atom -12396.116195 kJ/mol
# Density = 2.160965 g / cm^3
# Si number density = 21.658946 Si / 1000 Ang^3
#
#
#
# Elastic Constant Matrix: (Units=GPa)
#
#
# Indices 1 2 3 4 5 6 
#
# 1 101.9922 53.9802 21.3126 -3.1812 8.0955 -0.7832
# 2 53.9802 108.1280 26.1519 8.5719 7.7453 2.7770
# 3 21.3126 26.1519 92.6016 9.0311 8.9948 -5.0172
# 4 -3.1812 8.5719 9.0311 34.1278 2.1970 6.1999
# 5 8.0955 7.7453 8.9948 2.1970 35.6686 -7.8663
# 6 -0.7832 2.7770 -5.0172 6.1999 -7.8663 37.9155
#
#
#
# Elastic Compliance Matrix: (Units=1/GPa)
#
#
# Indices 1 2 3 4 5 6 
#
# 1 0.013926 -0.006745 -0.001509 0.003556 -0.001608 -0.000333
# 2 -0.006745 0.013424 -0.001886 -0.003253 -0.000936 -0.001034
# 3 -0.001509 -0.001886 0.012255 -0.003141 -0.001730 0.001883
# 4 0.003556 -0.003253 -0.003141 0.032535 -0.002629 -0.005969
# 5 -0.001608 -0.000936 -0.001730 -0.002629 0.030657 0.006597
# 6 -0.000333 -0.001034 0.001883 -0.005969 0.006597 0.029037
#
#
# Mechanical properties :
#
#
# Convention : Reuss Voigt Hill
#
# Bulk Modulus (GPa) = 51.74992 56.17904 53.96448
# Shear Modulus (GPa) = 31.53453 34.96084 33.24769
#
# Velocity S-wave (km/s) = 3.81984 4.02201 3.92223
# Velocity P-wave (km/s) = 6.58786 6.89660 6.74400
#
# Compressibility (1/GPa) = 0.01932370
#
# Stress axis : x y z
#
# Youngs Moduli (GPa) = 71.80813 74.49606 81.59749
#
# Poissons Ratio (x) = 0.50251 0.12311
# Poissons Ratio (y) = 0.48438 0.15392
# Poissons Ratio (z) = 0.10834 0.14053
#
# Static dielectric constant tensor:
#      x y z
#    x 4.696700 -0.191550 -0.564960 
#    y -0.191550 3.773630 -0.046880 
#    z -0.564960 -0.046880 4.579540 
# 
# 
# High freq. dielectric constant tensor:
#      x y z
#    x 1.862630 -0.012740 -0.000810 
#    y -0.012740 1.842670 -0.003140 
#    z -0.000810 -0.003140 1.850220 
# 
# From -- ./inp_files/524035.got.cif
#   From: 2010.06.25/outbox.cif.g09.slc.cpg/sg2_263_cif.got.tgz:524035.got - 2010.06.27 13:26:56.
