data_PCOD8018844
_publ_section_title
;
Structure prediction by ZEFSAII (Michael W. Deem and Ramdas Pophale) SiO2 
 PCOD8018844
Probable space group: P -1
;
_chemical_formula_sum "Si O2"
_cell_formula_units_Z 16
_cell_length_a 9.455229
_cell_length_b 12.122726
_cell_length_c 18.746444
_cell_angle_alpha 150.175550
_cell_angle_beta 120.115375
_cell_angle_gamma 46.791111
_cell_volume 753.284704
_symmetry_space_group_name_H-M "P -1"
_symmetry_group_IT_number 2
_symmetry_cell_setting 'triclinic'
loop_
_space_group_symop_operation_xyz
x,y,z
-x,-y,-z
loop_
_atom_site_type_symbol
_atom_site_label
_atom_site_fract_x
_atom_site_fract_y
_atom_site_fract_z
Si Si1 0.801683 0.360184 0.872939
Si Si2 0.954124 0.307491 0.731113
Si Si3 0.041478 0.733707 0.997461
Si Si4 0.294297 0.796632 0.905892
Si Si5 0.418793 0.923287 0.615598
Si Si6 0.486254 0.029823 0.848416
Si Si7 0.582088 0.633181 0.201588
Si Si8 0.443543 0.438433 0.297088
O O1 0.894268 0.237741 0.751100
O O2 0.624719 0.333075 0.833077
O O3 0.970768 0.184590 0.877105
O O4 0.727651 0.675473 0.034980
O O5 0.798243 0.351217 0.655224
O O6 0.926428 0.592910 0.883277
O O7 0.181656 0.061376 0.636415
O O8 0.276539 0.532816 0.923868
O O9 0.927217 0.998056 0.066634
O O10 0.298874 0.542478 0.796020
O O11 0.463668 0.690971 0.829148
O O12 0.342490 0.935633 0.059566
O O13 0.524076 0.609657 0.444221
O O14 0.517463 0.936530 0.721299
O O15 0.459119 0.070739 0.645285
O O16 0.486554 0.806347 0.768837
#
# Coordination Sequence:
#
# PCOD8018844 Si02
#       8
#     2   2   2   2   2   2   2   2
#     4  11  21  37  68  93 122 157 205 258 304 355
#     4  11  21  39  61  94 118 162 205 255 299 359
#     4  11  21  36  64  96 122 152 208 257 306 354
#     4  11  23  37  66  91 125 156 204 259 302 355
#     4  11  26  40  64  87 128 168 203 241 305 376
#     4  11  21  39  63  91 121 158 203 259 303 348
#     4  10  22  41  59  92 124 165 197 250 307 367
#     4  12  23  41  61  94 126 161 202 254 308 354
#
# _framework density 21.240310000000001
#
# number of rings (size 3 to 8) (size 9 to 14) (size 15 to 20)
#    0.000    1.000    6.250    3.000    3.500    0.500 
#    0.000    0.000    0.000    0.750    0.000    0.000 
#    0.000    0.000    0.000    0.000    0.000    0.000 
#
# Total GULP energy -198342.471499 kJ/mol
# GULP energy per Si atom -12396.404469 kJ/mol
# Density = 2.119197 g / cm^3
# Si number density = 21.240310 Si / 1000 Ang^3
#
#
#
# Elastic Constant Matrix: (Units=GPa)
#
#
# Indices 1 2 3 4 5 6 
#
# 1 95.6714 30.7757 35.9965 3.6778 19.9700 21.6236
# 2 30.7757 118.6263 36.0240 -2.2849 17.4071 21.4766
# 3 35.9965 36.0240 86.7599 -0.9599 23.8425 7.3898
# 4 3.6778 -2.2849 -0.9599 22.5218 6.7840 4.9186
# 5 19.9700 17.4071 23.8425 6.7840 20.0988 10.8884
# 6 21.6236 21.4766 7.3898 4.9186 10.8884 33.2616
#
#
#
# Elastic Compliance Matrix: (Units=1/GPa)
#
#
# Indices 1 2 3 4 5 6 
#
# 1 0.014782 -0.000618 -0.003411 0.000856 -0.006985 -0.006293
# 2 -0.000618 0.011037 -0.002741 0.003465 -0.003977 -0.005326
# 3 -0.003411 -0.002741 0.020213 0.006989 -0.023997 0.006319
# 4 0.000856 0.003465 0.006989 0.054244 -0.028871 -0.002917
# 5 -0.006985 -0.003977 -0.023997 -0.028871 0.108548 -0.018824
# 6 -0.006293 -0.005326 0.006319 -0.002917 -0.018824 0.042785
#
#
# Mechanical properties :
#
#
# Convention : Reuss Voigt Hill
#
# Bulk Modulus (GPa) = 30.77792 56.29444 43.53618
# Shear Modulus (GPa) = 18.11707 28.39386 23.25547
#
# Velocity S-wave (km/s) = 2.92371 3.66018 3.31248
# Velocity P-wave (km/s) = 5.09109 6.66511 5.93055
#
# Compressibility (1/GPa) = 0.03249083
#
# Stress axis : x y z
#
# Youngs Moduli (GPa) = 67.64823 90.60155 49.47226
#
# Poissons Ratio (x) = 0.05602 0.16877
# Poissons Ratio (y) = 0.04183 0.13563
# Poissons Ratio (z) = 0.23077 0.24838
#
# Static dielectric constant tensor:
#      x y z
#    x 3.763520 0.258080 0.106390 
#    y 0.258080 4.064770 0.017060 
#    z 0.106390 0.017060 3.574530 
# 
# 
# High freq. dielectric constant tensor:
#      x y z
#    x 1.828500 0.014900 0.010070 
#    y 0.014900 1.848270 -0.002390 
#    z 0.010070 -0.002390 1.798920 
# 
# From -- ./inp_files/263195.got.cif
#   From: 2010.06.25/outbox.cif.g09.slc.cpg/sg2_132_cif.got.tgz:263195.got - 2010.06.27 13:26:56.
