data_PCOD8018730
_publ_section_title
;
Structure prediction by ZEFSAII (Michael W. Deem and Ramdas Pophale) SiO2 
 PCOD8018730
Probable space group: P -1
;
_chemical_formula_sum "Si O2"
_cell_formula_units_Z 16
_cell_length_a 5.859347
_cell_length_b 23.450057
_cell_length_c 12.325095
_cell_angle_alpha 28.799025
_cell_angle_beta 114.777698
_cell_angle_gamma 103.308379
_cell_volume 703.405131
_symmetry_space_group_name_H-M "P -1"
_symmetry_group_IT_number 2
_symmetry_cell_setting 'triclinic'
loop_
_space_group_symop_operation_xyz
x,y,z
-x,-y,-z
loop_
_atom_site_type_symbol
_atom_site_label
_atom_site_fract_x
_atom_site_fract_y
_atom_site_fract_z
Si Si1 0.705848 0.060735 0.997007
Si Si2 0.579360 0.555551 0.122856
Si Si3 0.572038 0.836876 0.005769
Si Si4 0.714876 0.071106 0.593398
Si Si5 0.702316 0.239727 0.114236
Si Si6 0.785928 0.734891 0.756158
Si Si7 0.882606 0.286278 0.587475
Si Si8 0.059210 0.627295 0.781085
O O1 0.585549 0.119405 0.988302
O O2 0.760854 0.171119 0.751787
O O3 0.500000 0.000000 0.000000
O O4 0.990798 0.956700 0.250228
O O5 0.669392 0.406260 0.399763
O O6 0.464348 0.623045 0.100803
O O7 0.810134 0.602144 0.039184
O O8 0.363546 0.601260 0.910144
O O9 0.859481 0.739509 0.244262
O O10 0.402463 0.773077 0.004724
O O11 0.623461 0.950639 0.763728
O O12 0.675978 0.130260 0.368345
O O13 0.509693 0.169642 0.466429
O O14 0.015057 0.219160 0.205272
O O15 0.879711 0.726334 0.664749
O O16 0.984505 0.314315 0.443893
O O17 0.000000 0.500000 0.000000
#
# Coordination Sequence:
#
# PCOD8018730 Si02
#       8
#     2   2   2   2   2   2   2   2
#     4  11  28  48  66  99 144 183 223 274 349 405
#     4  10  23  43  67 103 133 174 226 282 342 399
#     4  11  26  44  67  99 137 185 228 278 343 400
#     4  10  23  45  70  98 134 178 232 279 337 401
#     4  10  23  43  72 100 134 175 234 286 333 399
#     4  10  22  40  70 102 134 172 228 284 340 390
#     4  11  26  44  68 101 141 180 225 279 341 411
#     4  11  23  41  71 102 134 174 231 278 339 405
#
# _framework density 22.746493000000001
#
# number of rings (size 3 to 8) (size 9 to 14) (size 15 to 20)
#    0.000    1.500    1.250    1.500    1.750   16.500 
#    0.000    3.125    0.000    0.000    0.000    0.000 
#    0.000    0.000    0.000    0.000    0.000    0.000 
#
# Total GULP energy -198342.221559 kJ/mol
# GULP energy per Si atom -12396.388847 kJ/mol
# Density = 2.269472 g / cm^3
# Si number density = 22.746493 Si / 1000 Ang^3
#
#
#
# Elastic Constant Matrix: (Units=GPa)
#
#
# Indices 1 2 3 4 5 6 
#
# 1 118.0342 48.9138 48.7716 -0.4205 9.9115 1.3469
# 2 48.9138 140.7129 55.1377 6.7506 0.0631 6.2743
# 3 48.7716 55.1377 113.0352 -7.9718 12.2117 -10.7730
# 4 -0.4205 6.7506 -7.9718 23.9376 -5.0294 0.7806
# 5 9.9115 0.0631 12.2117 -5.0294 37.9105 -1.3834
# 6 1.3469 6.2743 -10.7730 0.7806 -1.3834 22.8278
#
#
#
# Elastic Compliance Matrix: (Units=1/GPa)
#
#
# Indices 1 2 3 4 5 6 
#
# 1 0.011133 -0.002298 -0.003709 -0.000725 -0.001876 -0.001864
# 2 -0.002298 0.010234 -0.004899 -0.004099 0.001444 -0.004762
# 3 -0.003709 -0.004899 0.014249 0.005251 -0.002625 0.007951
# 4 -0.000725 -0.004099 0.005251 0.045564 0.004636 0.002370
# 5 -0.001876 0.001444 -0.002625 0.004636 0.028328 0.000033
# 6 -0.001864 -0.004762 0.007951 0.002370 0.000033 0.048898
#
#
# Mechanical properties :
#
#
# Convention : Reuss Voigt Hill
#
# Bulk Modulus (GPa) = 72.44726 75.26983 73.85854
# Shear Modulus (GPa) = 27.05353 31.53246 29.29300
#
# Velocity S-wave (km/s) = 3.45244 3.72728 3.59249
# Velocity P-wave (km/s) = 6.91458 7.18931 7.05328
#
# Compressibility (1/GPa) = 0.01380315
#
# Stress axis : x y z
#
# Youngs Moduli (GPa) = 89.82178 97.71760 70.18241
#
# Poissons Ratio (x) = 0.22456 0.26029
# Poissons Ratio (y) = 0.20641 0.34384
# Poissons Ratio (z) = 0.33313 0.47874
#
# Static dielectric constant tensor:
#      x y z
#    x 4.367880 0.152640 0.057740 
#    y 0.152640 3.980200 -0.142440 
#    z 0.057740 -0.142440 4.069410 
# 
# 
# High freq. dielectric constant tensor:
#      x y z
#    x 1.915890 0.010980 0.000330 
#    y 0.010980 1.888490 -0.013630 
#    z 0.000330 -0.013630 1.897320 
# 
# From -- ./inp_files/371019.got.cif
#   From: 2010.06.25/outbox.cif.g09.slc.cpg/sg2_186_cif.got.tgz:371019.got - 2010.06.27 13:26:56.
