data_PCOD8018096
_publ_section_title
;
Structure prediction by ZEFSAII (Michael W. Deem and Ramdas Pophale) SiO2 
 PCOD8018096
Probable space group: P -1
;
_chemical_formula_sum "Si O2"
_cell_formula_units_Z 14
_cell_length_a 14.820137
_cell_length_b 6.613948
_cell_length_c 8.264275
_cell_angle_alpha 93.967888
_cell_angle_beta 93.103350
_cell_angle_gamma 49.605104
_cell_volume 615.414437
_symmetry_space_group_name_H-M "P -1"
_symmetry_group_IT_number 2
_symmetry_cell_setting 'triclinic'
loop_
_space_group_symop_operation_xyz
x,y,z
-x,-y,-z
loop_
_atom_site_type_symbol
_atom_site_label
_atom_site_fract_x
_atom_site_fract_y
_atom_site_fract_z
Si Si1 0.499220 0.791961 0.073540
Si Si2 0.340042 0.755995 0.864105
Si Si3 0.220004 0.038706 0.556250
Si Si4 0.990284 0.368928 0.756375
Si Si5 0.617338 0.886485 0.609931
Si Si6 0.189920 0.699367 0.313269
Si Si7 0.876867 0.906135 0.932618
O O1 0.631621 0.524474 0.120190
O O2 0.419802 0.914167 0.234806
O O3 0.457157 0.705527 0.921587
O O4 0.500000 0.000000 0.000000
O O5 0.316636 0.814249 0.676901
O O6 0.238438 0.000476 0.977767
O O7 0.183337 0.905965 0.434033
O O8 0.101107 0.278138 0.652898
O O9 0.281842 0.139661 0.481713
O O10 0.910672 0.319730 0.651111
O O11 0.912699 0.684579 0.792270
O O12 0.023193 0.220364 0.925142
O O13 0.680294 0.592660 0.672855
O O14 0.500000 0.000000 0.500000
O O15 0.157295 0.829399 0.137489
#
# Coordination Sequence:
#
# PCOD8018096 Si02
#       7
#     2   2   2   2   2   2   2
#     4  11  22  39  64  90 122 165 218 267 316 376
#     4  10  22  40  62  90 123 169 214 263 320 373
#     4  11  25  42  63  94 135 170 212 265 319 388
#     4  10  23  43  67  97 130 170 214 265 324 382
#     4  12  27  44  65  97 132 172 216 266 324 382
#     4  12  23  40  67  95 130 172 213 263 325 382
#     4  10  22  42  67  95 129 165 216 270 316 382
#
# _framework density 22.748898000000001
#
# number of rings (size 3 to 8) (size 9 to 14) (size 15 to 20)
#    0.000    1.143    0.000    6.000    0.000    8.000 
#    0.000    7.143    0.000    0.000    0.000    0.000 
#    0.000    0.000    0.000    0.000    0.000    0.000 
#
# Total GULP energy -173493.654032 kJ/mol
# GULP energy per Si atom -12392.403859 kJ/mol
# Density = 2.269712 g / cm^3
# Si number density = 22.748898 Si / 1000 Ang^3
#
#
#
# Elastic Constant Matrix: (Units=GPa)
#
#
# Indices 1 2 3 4 5 6 
#
# 1 107.5385 36.4945 45.4833 -8.2202 1.8037 6.3168
# 2 36.4945 162.5298 48.0944 -21.6758 -0.4891 -6.3731
# 3 45.4833 48.0944 89.4927 -5.2689 -0.2499 -0.7917
# 4 -8.2202 -21.6758 -5.2689 42.9493 -4.5563 1.2403
# 5 1.8037 -0.4891 -0.2499 -4.5563 32.8813 2.2910
# 6 6.3168 -6.3731 -0.7917 1.2403 2.2910 25.2629
#
#
#
# Elastic Compliance Matrix: (Units=1/GPa)
#
#
# Indices 1 2 3 4 5 6 
#
# 1 0.012370 -0.001082 -0.005667 0.001195 -0.000323 -0.003573
# 2 -0.001082 0.007964 -0.003512 0.003376 0.000482 0.001960
# 3 -0.005667 -0.003512 0.015898 -0.000919 0.000178 0.001058
# 4 0.001195 0.003376 -0.000919 0.025514 0.003586 -0.001054
# 5 -0.000323 0.000482 0.000178 0.003586 0.031130 -0.002791
# 6 -0.003573 0.001960 0.001058 -0.001054 -0.002791 0.041310
#
#
# Mechanical properties :
#
#
# Convention : Reuss Voigt Hill
#
# Bulk Modulus (GPa) = 63.66379 68.85615 66.25997
# Shear Modulus (GPa) = 31.26087 35.51794 33.38941
#
# Velocity S-wave (km/s) = 3.71100 3.95562 3.83526
# Velocity P-wave (km/s) = 6.81236 7.15515 6.98586
#
# Compressibility (1/GPa) = 0.01570751
#
# Stress axis : x y z
#
# Youngs Moduli (GPa) = 80.84139 125.57243 62.90196
#
# Poissons Ratio (x) = 0.13590 0.35649
# Poissons Ratio (y) = 0.08749 0.22093
# Poissons Ratio (z) = 0.45816 0.44104
#
# Static dielectric constant tensor:
#      x y z
#    x 3.859210 -0.298400 0.037600 
#    y -0.298400 3.561200 -0.759410 
#    z 0.037600 -0.759410 4.089700 
# 
# 
# High freq. dielectric constant tensor:
#      x y z
#    x 1.882050 -0.010190 0.010010 
#    y -0.010190 1.917750 -0.015080 
#    z 0.010010 -0.015080 1.906840 
# 
# From -- ./inp_files/28427.got.cif
#   From: 2010.06.25/outbox.cif.g09.slc.cpg/sg2_15_cif.got.tgz:28427.got - 2010.06.27 13:26:56.
