data_PCOD8018031
_publ_section_title
;
Structure prediction by ZEFSAII (Michael W. Deem and Ramdas Pophale) SiO2 
 PCOD8018031
Probable space group: P -1
;
_chemical_formula_sum "Si O2"
_cell_formula_units_Z 16
_cell_length_a 15.347275
_cell_length_b 5.254806
_cell_length_c 26.691287
_cell_angle_alpha 110.933437
_cell_angle_beta 20.528868
_cell_angle_gamma 106.803836
_cell_volume 698.202688
_symmetry_space_group_name_H-M "P -1"
_symmetry_group_IT_number 2
_symmetry_cell_setting 'triclinic'
loop_
_space_group_symop_operation_xyz
x,y,z
-x,-y,-z
loop_
_atom_site_type_symbol
_atom_site_label
_atom_site_fract_x
_atom_site_fract_y
_atom_site_fract_z
Si Si1 0.627105 0.589183 0.751296
Si Si2 0.498794 0.059087 0.669581
Si Si3 0.726797 0.466808 0.252489
Si Si4 0.172630 0.826139 0.188161
Si Si5 0.175698 0.383115 0.941159
Si Si6 0.332135 0.280063 0.596119
Si Si7 0.642177 0.604834 0.858281
Si Si8 0.041105 0.854600 0.519388
O O1 0.338119 0.614983 0.891253
O O2 0.649516 0.483232 0.789104
O O3 0.788585 0.427871 0.608213
O O4 0.765326 0.860740 0.693957
O O5 0.415343 0.306079 0.693003
O O6 0.359089 0.118795 0.803211
O O7 0.796775 0.012483 0.516313
O O8 0.444061 0.766585 0.658141
O O9 0.798148 0.606896 0.274577
O O10 0.990882 0.307533 0.078701
O O11 0.254821 0.651480 0.180869
O O12 0.886490 0.782737 0.327990
O O13 0.186675 0.149593 0.211884
O O14 0.355872 0.720794 0.035783
O O15 0.000000 0.500000 0.000000
O O16 0.500000 0.500000 0.500000
O O17 0.500000 0.000000 0.500000
O O18 0.000000 0.000000 0.500000
#
# Coordination Sequence:
#
# PCOD8018031 Si02
#       8
#     2   2   2   2   2   2   2   2
#     4  10  22  40  60  95 122 172 209 252 318 376
#     4  10  23  40  66  92 129 162 211 255 316 375
#     4  11  23  43  65  94 122 170 210 260 315 377
#     4  10  23  44  66  97 128 160 216 277 322 377
#     4   9  20  40  66  93 128 163 207 264 312 377
#     4  12  26  44  64  93 132 173 215 264 322 385
#     4  10  22  42  70  95 124 166 214 274 326 371
#     4  10  24  39  59  89 133 166 204 259 299 378
#
# _framework density 22.915980999999999
#
# number of rings (size 3 to 8) (size 9 to 14) (size 15 to 20)
#    0.000    1.750    0.000    2.625    8.750    3.000 
#    2.250    5.000    0.000    0.000    0.000    0.000 
#    0.000    0.000    0.000    0.000    0.000    0.000 
#
# Total GULP energy -198235.082785 kJ/mol
# GULP energy per Si atom -12389.692674 kJ/mol
# Density = 2.286382 g / cm^3
# Si number density = 22.915981 Si / 1000 Ang^3
#
#
#
# Elastic Constant Matrix: (Units=GPa)
#
#
# Indices 1 2 3 4 5 6 
#
# 1 106.8816 15.1030 38.0104 -17.2710 -15.0300 3.5206
# 2 15.1030 104.5598 22.9918 -22.4605 -12.6442 -7.0872
# 3 38.0104 22.9918 83.7767 -34.4381 -31.9666 3.9977
# 4 -17.2710 -22.4605 -34.4381 31.7448 7.9256 -0.4314
# 5 -15.0300 -12.6442 -31.9666 7.9256 44.1223 -2.5566
# 6 3.5206 -7.0872 3.9977 -0.4314 -2.5566 36.2059
#
#
#
# Elastic Compliance Matrix: (Units=1/GPa)
#
#
# Indices 1 2 3 4 5 6 
#
# 1 0.011210 -0.000470 -0.004498 0.000818 0.000240 -0.000659
# 2 -0.000470 0.011769 0.001883 0.009390 0.003033 0.002468
# 3 -0.004498 0.001883 0.032054 0.029429 0.016875 -0.001191
# 4 0.000818 0.009390 0.029429 0.067478 0.012180 0.000173
# 5 0.000240 0.003033 0.016875 0.012180 0.033725 0.001234
# 6 -0.000659 0.002468 -0.001191 0.000173 0.001234 0.028388
#
#
# Mechanical properties :
#
#
# Convention : Reuss Voigt Hill
#
# Bulk Modulus (GPa) = 20.46548 49.71429 35.08988
# Shear Modulus (GPa) = 24.14533 37.02211 30.58372
#
# Velocity S-wave (km/s) = 3.24951 4.02376 3.65718
# Velocity P-wave (km/s) = 4.79887 6.58246 5.76012
#
# Compressibility (1/GPa) = 0.04886277
#
# Stress axis : x y z
#
# Youngs Moduli (GPa) = 89.20833 84.96983 31.19768
#
# Poissons Ratio (x) = 0.03994 0.14032
# Poissons Ratio (y) = 0.04193 -0.05874
# Poissons Ratio (z) = 0.40123 -0.15999
#
# Static dielectric constant tensor:
#      x y z
#    x 4.297790 0.273640 0.116230 
#    y 0.273640 3.880940 -0.230950 
#    z 0.116230 -0.230950 4.790410 
# 
# 
# High freq. dielectric constant tensor:
#      x y z
#    x 1.913420 0.010020 0.002090 
#    y 0.010020 1.889940 -0.016030 
#    z 0.002090 -0.016030 1.915450 
# 
# From -- ./inp_files/619022.got.cif
#   From: 2010.06.25/outbox.cif.g09.slc.cpg/sg2_310_cif.got.tgz:619022.got - 2010.06.27 13:26:56.
