data_PCOD8018848
_publ_section_title
;
Structure prediction by ZEFSAII (Michael W. Deem and Ramdas Pophale) SiO2 
 PCOD8018848
Probable space group: P -1
;
_chemical_formula_sum "Si O2"
_cell_formula_units_Z 16
_cell_length_a 13.891914
_cell_length_b 17.238489
_cell_length_c 6.925880
_cell_angle_alpha 126.574054
_cell_angle_beta 100.085389
_cell_angle_gamma 43.518486
_cell_volume 812.144468
_symmetry_space_group_name_H-M "P -1"
_symmetry_group_IT_number 2
_symmetry_cell_setting 'triclinic'
loop_
_space_group_symop_operation_xyz
x,y,z
-x,-y,-z
loop_
_atom_site_type_symbol
_atom_site_label
_atom_site_fract_x
_atom_site_fract_y
_atom_site_fract_z
Si Si1 0.850769 0.395725 0.878699
Si Si2 0.102052 0.844240 0.578097
Si Si3 0.619966 0.087552 0.888415
Si Si4 0.767495 0.172414 0.015698
Si Si5 0.439010 0.954240 0.799040
Si Si6 0.670668 0.378234 0.971674
Si Si7 0.334472 0.276044 0.799368
Si Si8 0.806596 0.811228 0.269406
O O1 0.893399 0.276228 0.565449
O O2 0.736423 0.437699 0.067393
O O3 0.010792 0.313463 0.906527
O O4 0.760143 0.550848 0.967299
O O5 0.210109 0.785544 0.344484
O O6 0.182463 0.837298 0.769488
O O7 0.925482 0.016761 0.728911
O O8 0.642996 0.182173 0.992122
O O9 0.456984 0.177781 0.872682
O O10 0.759344 0.917691 0.587639
O O11 0.617306 0.077356 0.104092
O O12 0.677740 0.332907 0.124633
O O13 0.579413 0.801071 0.491638
O O14 0.292031 0.092400 0.815431
O O15 0.500000 0.000000 0.000000
O O16 0.500000 0.500000 0.000000
O O17 0.214749 0.281155 0.799916
#
# Coordination Sequence:
#
# PCOD8018848 Si02
#       8
#     2   2   2   2   2   2   2   2
#     4  10  23  43  57  92 127 163 197 249 311 359
#     4   9  23  40  61  88 122 158 211 250 289 364
#     4  11  21  38  65  93 118 159 206 249 299 358
#     4  11  21  40  67  88 118 167 205 249 302 351
#     4  11  21  40  64  92 121 155 211 249 294 362
#     4  10  22  41  60  87 131 154 202 254 302 358
#     4  11  22  40  63  87 128 161 196 250 310 356
#     4  11  21  40  66  88 123 162 199 253 300 366
#
# _framework density 19.70093
#
# number of rings (size 3 to 8) (size 9 to 14) (size 15 to 20)
#    0.750    0.750    3.750    2.250    0.000    5.500 
#    2.250    0.625    0.000    0.000    0.000    0.000 
#    0.000    0.000    0.000    0.000    0.000    0.000 
#
# Total GULP energy -198320.256259 kJ/mol
# GULP energy per Si atom -12395.016016 kJ/mol
# Density = 1.965609 g / cm^3
# Si number density = 19.700930 Si / 1000 Ang^3
#
#
#
# Elastic Constant Matrix: (Units=GPa)
#
#
# Indices 1 2 3 4 5 6 
#
# 1 137.0629 36.9808 12.7416 -3.8954 -4.1218 1.3299
# 2 36.9808 81.0835 18.6705 -0.7897 -5.9286 5.5819
# 3 12.7416 18.6705 49.3601 -8.6053 1.4770 -1.8996
# 4 -3.8954 -0.7897 -8.6053 23.9586 8.7076 -2.2386
# 5 -4.1218 -5.9286 1.4770 8.7076 28.2931 3.7204
# 6 1.3299 5.5819 -1.8996 -2.2386 3.7204 37.8460
#
#
#
# Elastic Compliance Matrix: (Units=1/GPa)
#
#
# Indices 1 2 3 4 5 6 
#
# 1 0.008374 -0.003683 -0.000587 0.001005 0.000135 0.000266
# 2 -0.003683 0.015963 -0.006119 -0.004357 0.004899 -0.003271
# 3 -0.000587 -0.006119 0.025057 0.011452 -0.006662 0.003513
# 4 0.001005 -0.004357 0.011452 0.053185 -0.018542 0.006151
# 5 0.000135 0.004899 -0.006662 -0.018542 0.043288 -0.006414
# 6 0.000266 -0.003271 0.003513 0.006151 -0.006414 0.028067
#
#
# Mechanical properties :
#
#
# Convention : Reuss Voigt Hill
#
# Bulk Modulus (GPa) = 34.94683 44.92136 39.93409
# Shear Modulus (GPa) = 24.47982 31.29379 27.88680
#
# Velocity S-wave (km/s) = 3.52884 3.98985 3.76640
# Velocity P-wave (km/s) = 5.86351 6.63900 6.26327
#
# Compressibility (1/GPa) = 0.02861490
#
# Stress axis : x y z
#
# Youngs Moduli (GPa) = 119.41452 62.64652 39.90977
#
# Poissons Ratio (x) = 0.23071 0.02344
# Poissons Ratio (y) = 0.43977 0.24422
# Poissons Ratio (z) = 0.07013 0.38335
#
# Static dielectric constant tensor:
#      x y z
#    x 3.686020 -0.016440 -0.079370 
#    y -0.016440 3.459690 0.058680 
#    z -0.079370 0.058680 3.530350 
# 
# 
# High freq. dielectric constant tensor:
#      x y z
#    x 1.781120 -0.003070 0.001020 
#    y -0.003070 1.765150 0.002810 
#    z 0.001020 0.002810 1.748840 
# 
# From -- ./inp_files/99443.got.cif
#   From: 2010.06.25/outbox.cif.g09.slc.cpg/sg2_50_cif.got.tgz:99443.got - 2010.06.27 13:26:56.
