data_PCOD8018701
_publ_section_title
;
Structure prediction by ZEFSAII (Michael W. Deem and Ramdas Pophale) SiO2 
 PCOD8018701
Probable space group: P -1
;
_chemical_formula_sum "Si O2"
_cell_formula_units_Z 16
_cell_length_a 9.716493
_cell_length_b 15.600539
_cell_length_c 9.029138
_cell_angle_alpha 109.675724
_cell_angle_beta 80.551974
_cell_angle_gamma 143.206741
_cell_volume 758.249664
_symmetry_space_group_name_H-M "P -1"
_symmetry_group_IT_number 2
_symmetry_cell_setting 'triclinic'
loop_
_space_group_symop_operation_xyz
x,y,z
-x,-y,-z
loop_
_atom_site_type_symbol
_atom_site_label
_atom_site_fract_x
_atom_site_fract_y
_atom_site_fract_z
Si Si1 0.805350 0.022079 0.292734
Si Si2 0.215685 0.187639 0.765794
Si Si3 0.318871 0.514084 0.295352
Si Si4 0.731252 0.251603 0.853647
Si Si5 0.792864 0.745325 0.868198
Si Si6 0.054568 0.554991 0.792176
Si Si7 0.979880 0.220023 0.646511
Si Si8 0.354840 0.549378 0.645670
O O1 0.848593 0.125252 0.462904
O O2 0.958667 0.119298 0.176922
O O3 0.868741 0.960325 0.327018
O O4 0.541870 0.882881 0.202307
O O5 0.480720 0.334112 0.748016
O O6 0.043771 0.163978 0.694677
O O7 0.203640 0.197713 0.948408
O O8 0.267205 0.389857 0.159484
O O9 0.400100 0.541378 0.465517
O O10 0.084185 0.451983 0.299246
O O11 0.809437 0.191134 0.760368
O O12 0.863687 0.396226 0.819386
O O13 0.791454 0.301214 0.043133
O O14 0.602545 0.691744 0.763275
O O15 0.223989 0.577797 0.683262
O O16 0.213689 0.398489 0.671974
#
# Coordination Sequence:
#
# PCOD8018701 Si02
#       8
#     2   2   2   2   2   2   2   2
#     4  12  24  45  63  95 136 170 207 263 330 378
#     4  12  25  41  67  98 127 168 223 261 313 387
#     4  12  22  42  66 100 127 165 220 261 317 379
#     4  10  22  42  67  96 127 171 213 261 323 376
#     4  12  25  42  68  95 133 168 211 271 322 373
#     4  10  22  40  69  96 128 164 219 267 309 382
#     4  11  23  42  67  95 131 170 214 261 320 384
#     4  11  23  41  66  99 130 168 211 268 323 370
#
# _framework density 21.101230000000001
#
# number of rings (size 3 to 8) (size 9 to 14) (size 15 to 20)
#    0.000    0.750    3.750    4.500    3.500    0.000 
#    0.000    3.750    0.000    0.000    0.000    0.000 
#    0.000    0.000    0.000    0.000    0.000    0.000 
#
# Total GULP energy -198514.426334 kJ/mol
# GULP energy per Si atom -12407.151646 kJ/mol
# Density = 2.105320 g / cm^3
# Si number density = 21.101230 Si / 1000 Ang^3
#
#
#
# Elastic Constant Matrix: (Units=GPa)
#
#
# Indices 1 2 3 4 5 6 
#
# 1 58.1130 -12.1001 28.1715 4.2536 11.3002 -7.3954
# 2 -12.1001 47.7387 33.0426 1.8042 -0.8745 0.5277
# 3 28.1715 33.0426 93.9144 3.6254 -4.5405 13.6319
# 4 4.2536 1.8042 3.6254 23.7807 2.9949 2.8455
# 5 11.3002 -0.8745 -4.5405 2.9949 35.7591 9.3508
# 6 -7.3954 0.5277 13.6319 2.8455 9.3508 28.4545
#
#
#
# Elastic Compliance Matrix: (Units=1/GPa)
#
#
# Indices 1 2 3 4 5 6 
#
# 1 0.058255 0.041682 -0.040031 -0.008684 -0.033635 0.045467
# 2 0.041682 0.058210 -0.039480 -0.007109 -0.026090 0.037953
# 3 -0.040031 -0.039480 0.043472 0.004876 0.027240 -0.039938
# 4 -0.008684 -0.007109 0.004876 0.044293 0.001975 -0.009540
# 5 -0.033635 -0.026090 0.027240 0.001975 0.051279 -0.038357
# 6 0.045467 0.037953 -0.039938 -0.009540 -0.038357 0.078949
#
#
# Mechanical properties :
#
#
# Convention : Reuss Voigt Hill
#
# Bulk Modulus (GPa) = 11.86511 33.11045 22.48778
# Shear Modulus (GPa) = 11.41012 27.64231 19.52621
#
# Velocity S-wave (km/s) = 2.32789 3.62330 3.04527
# Velocity P-wave (km/s) = 3.58616 5.76452 4.80053
#
# Compressibility (1/GPa) = 0.08428072
#
# Stress axis : x y z
#
# Youngs Moduli (GPa) = 17.16603 17.17923 23.00321
#
# Poissons Ratio (x) = -0.71607 0.92083
# Poissons Ratio (y) = -0.71552 0.90816
# Poissons Ratio (z) = 0.68717 0.67823
#
# Static dielectric constant tensor:
#      x y z
#    x 3.918880 -0.009680 -0.169830 
#    y -0.009680 3.678700 0.093410 
#    z -0.169830 0.093410 3.802090 
# 
# 
# High freq. dielectric constant tensor:
#      x y z
#    x 1.841890 0.002440 -0.008040 
#    y 0.002440 1.816480 0.005650 
#    z -0.008040 0.005650 1.835060 
# 
# From -- ./inp_files/182361.got.cif
#   From: 2010.06.25/outbox.cif.g09.slc.cpg/sg2_92_cif.got.tgz:182361.got - 2010.06.27 13:26:56.
