data_PCOD8018298
_publ_section_title
;
Structure prediction by ZEFSAII (Michael W. Deem and Ramdas Pophale) SiO2 
 PCOD8018298
Probable space group: P -1
;
_chemical_formula_sum "Si O2"
_cell_formula_units_Z 16
_cell_length_a 11.775544
_cell_length_b 10.771571
_cell_length_c 6.740449
_cell_angle_alpha 105.849966
_cell_angle_beta 64.286188
_cell_angle_gamma 110.682689
_cell_volume 713.330198
_symmetry_space_group_name_H-M "P -1"
_symmetry_group_IT_number 2
_symmetry_cell_setting 'triclinic'
loop_
_space_group_symop_operation_xyz
x,y,z
-x,-y,-z
loop_
_atom_site_type_symbol
_atom_site_label
_atom_site_fract_x
_atom_site_fract_y
_atom_site_fract_z
Si Si1 0.733068 0.366925 0.393011
Si Si2 0.631915 0.602244 0.518450
Si Si3 0.692141 0.799633 0.898306
Si Si4 0.027918 0.153393 0.111146
Si Si5 0.436772 0.198379 0.598034
Si Si6 0.846837 0.242805 0.581764
Si Si7 0.375008 0.995456 0.225430
Si Si8 0.054303 0.658517 0.044886
O O1 0.743842 0.523366 0.406410
O O2 0.584869 0.282745 0.492617
O O3 0.814269 0.361373 0.530164
O O4 0.797340 0.304266 0.137241
O O5 0.500000 0.500000 0.500000
O O6 0.621391 0.662882 0.772985
O O7 0.662623 0.723023 0.388501
O O8 0.713833 0.924623 0.787250
O O9 0.831083 0.793283 0.872200
O O10 0.595767 0.822045 0.155017
O O11 0.915113 0.154182 0.355309
O O12 0.026599 0.254271 0.973482
O O13 0.000000 0.000000 0.000000
O O14 0.417721 0.057998 0.438021
O O15 0.711275 0.154199 0.737587
O O16 0.945953 0.306173 0.708901
O O17 0.500000 0.000000 0.000000
O O18 0.000000 0.500000 0.000000
#
# Coordination Sequence:
#
# PCOD8018298 Si02
#       8
#     2   2   2   2   2   2   2   2
#     4  10  23  41  64  94 129 170 219 265 331 398
#     4   9  22  40  62  94 130 165 219 266 328 399
#     4  11  24  39  68  96 129 174 220 268 337 395
#     4  11  26  45  67  99 134 177 233 271 330 404
#     4  10  22  40  64  97 131 166 214 278 332 391
#     4  11  25  43  67  93 136 175 217 278 330 386
#     4  11  23  41  67  98 131 169 220 272 335 395
#     4  11  27  43  67  96 132 179 228 276 330 392
#
# _framework density 22.430004
#
# number of rings (size 3 to 8) (size 9 to 14) (size 15 to 20)
#    0.000    1.500    0.000    3.000    5.250   12.000 
#    0.000    0.000    0.000    0.000    0.000    0.000 
#    0.000    0.000    0.000    0.000    0.000    0.000 
#
# Total GULP energy -198384.950786 kJ/mol
# GULP energy per Si atom -12399.059424 kJ/mol
# Density = 2.237895 g / cm^3
# Si number density = 22.430004 Si / 1000 Ang^3
#
#
#
# Elastic Constant Matrix: (Units=GPa)
#
#
# Indices 1 2 3 4 5 6 
#
# 1 113.3044 34.0468 41.9951 5.1046 14.2666 -13.6163
# 2 34.0468 94.0285 30.9580 13.0006 17.8701 -10.5362
# 3 41.9951 30.9580 121.3224 15.6100 22.2843 -1.8045
# 4 5.1046 13.0006 15.6100 35.9923 5.6746 1.6527
# 5 14.2666 17.8701 22.2843 5.6746 42.0394 -2.5159
# 6 -13.6163 -10.5362 -1.8045 1.6527 -2.5159 39.5578
#
#
#
# Elastic Compliance Matrix: (Units=1/GPa)
#
#
# Indices 1 2 3 4 5 6 
#
# 1 0.011197 -0.002628 -0.003075 0.000714 -0.000974 0.002922
# 2 -0.002628 0.013472 -0.001409 -0.003452 -0.003470 0.002543
# 3 -0.003075 -0.001409 0.010724 -0.003076 -0.003690 -0.001050
# 4 0.000714 -0.003452 -0.003076 0.030585 -0.001403 -0.002181
# 5 -0.000974 -0.003470 -0.003690 -0.001403 0.027762 0.000396
# 6 0.002922 0.002543 -0.001050 -0.002181 0.000396 0.027031
#
#
# Mechanical properties :
#
#
# Convention : Reuss Voigt Hill
#
# Bulk Modulus (GPa) = 47.23550 60.29500 53.76525
# Shear Modulus (GPa) = 35.19875 38.29492 36.74683
#
# Velocity S-wave (km/s) = 3.96570 4.13644 4.05197
# Velocity P-wave (km/s) = 6.48643 7.05360 6.77595
#
# Compressibility (1/GPa) = 0.02117052
#
# Stress axis : x y z
#
# Youngs Moduli (GPa) = 89.31209 74.22692 93.24743
#
# Poissons Ratio (x) = 0.19508 0.28669
# Poissons Ratio (y) = 0.23472 0.13135
# Poissons Ratio (z) = 0.27459 0.10456
#
# Static dielectric constant tensor:
#      x y z
#    x 4.336770 -0.420060 0.161260 
#    y -0.420060 4.151940 0.019520 
#    z 0.161260 0.019520 4.300020 
# 
# 
# High freq. dielectric constant tensor:
#      x y z
#    x 1.895010 -0.016570 0.007480 
#    y -0.016570 1.882350 0.001570 
#    z 0.007480 0.001570 1.888780 
# 
# From -- ./inp_files/71115.got.cif
#   From: 2010.06.25/outbox.cif.g09.slc.cpg/sg2_36_cif.got.tgz:71115.got - 2010.06.27 13:26:56.
