data_PCOD8018750
_publ_section_title
;
Structure prediction by ZEFSAII (Michael W. Deem and Ramdas Pophale) SiO2 
 PCOD8018750
Probable space group: P -1
;
_chemical_formula_sum "Si O2"
_cell_formula_units_Z 12
_cell_length_a 12.987350
_cell_length_b 8.296474
_cell_length_c 9.078004
_cell_angle_alpha 69.819690
_cell_angle_beta 91.660568
_cell_angle_gamma 40.142967
_cell_volume 518.051361
_symmetry_space_group_name_H-M "P -1"
_symmetry_group_IT_number 2
_symmetry_cell_setting 'triclinic'
loop_
_space_group_symop_operation_xyz
x,y,z
-x,-y,-z
loop_
_atom_site_type_symbol
_atom_site_label
_atom_site_fract_x
_atom_site_fract_y
_atom_site_fract_z
Si Si1 0.337299 0.354309 0.397291
Si Si2 0.390078 0.553210 0.855846
Si Si3 0.275558 0.388543 0.063153
Si Si4 0.428948 0.806831 0.312905
Si Si5 0.936422 0.873534 0.711027
Si Si6 0.012368 0.799941 0.421448
O O1 0.277169 0.490503 0.186735
O O2 0.416625 0.400506 0.486685
O O3 0.159603 0.502671 0.415747
O O4 0.500000 0.000000 0.500000
O O5 0.491718 0.417302 0.746095
O O6 0.196358 0.917838 0.728045
O O7 0.500000 0.500000 0.000000
O O8 0.368506 0.382786 0.948241
O O9 0.382974 0.062228 0.176750
O O10 0.066514 0.644275 0.924945
O O11 0.252831 0.960457 0.324905
O O12 0.028135 0.690119 0.617234
O O13 0.909022 0.114307 0.612898
#
# Coordination Sequence:
#
# PCOD8018750 Si02
#       6
#     2   2   2   2   2   2
#     4  10  23  42  67  95 132 174 209 266 329 384
#     4  11  26  41  67 101 128 174 219 270 321 385
#     4  10  23  43  64  95 135 171 216 266 323 381
#     4  11  23  42  68  95 132 174 218 263 323 390
#     4  10  22  40  70  95 127 176 216 266 327 380
#     4  10  23  42  62  95 137 166 213 274 327 377
#
# _framework density 23.163726
#
# number of rings (size 3 to 8) (size 9 to 14) (size 15 to 20)
#    0.000    1.667    0.000    4.000    7.000    4.000 
#    0.000    3.333    0.000    0.000    0.000    0.000 
#    0.000    0.000    0.000    0.000    0.000    0.000 
#
# Total GULP energy -148728.588108 kJ/mol
# GULP energy per Si atom -12394.049009 kJ/mol
# Density = 2.311100 g / cm^3
# Si number density = 23.163726 Si / 1000 Ang^3
#
#
#
# Elastic Constant Matrix: (Units=GPa)
#
#
# Indices 1 2 3 4 5 6 
#
# 1 70.0103 30.3972 40.5974 -5.8516 18.0744 -15.5893
# 2 30.3972 150.9103 57.4407 7.4737 12.0548 -27.1317
# 3 40.5974 57.4407 160.5868 8.7816 27.7693 -14.5976
# 4 -5.8516 7.4737 8.7816 36.3970 2.4187 2.0564
# 5 18.0744 12.0548 27.7693 2.4187 43.9345 -2.1515
# 6 -15.5893 -27.1317 -14.5976 2.0564 -2.1515 34.3503
#
#
#
# Elastic Compliance Matrix: (Units=1/GPa)
#
#
# Indices 1 2 3 4 5 6 
#
# 1 0.019949 -0.001491 -0.003224 0.004338 -0.005710 0.005888
# 2 -0.001491 0.008836 -0.002173 -0.001835 -0.000068 0.005485
# 3 -0.003224 -0.002173 0.008536 -0.001929 -0.003349 0.000354
# 4 0.004338 -0.001835 -0.001929 0.029255 -0.001778 -0.002163
# 5 -0.005710 -0.000068 -0.003349 -0.001778 0.027233 -0.002256
# 6 0.005888 0.005485 0.000354 -0.002163 -0.002256 0.036255
#
#
# Mechanical properties :
#
#
# Convention : Reuss Voigt Hill
#
# Bulk Modulus (GPa) = 42.47278 70.93087 56.70182
# Shear Modulus (GPa) = 32.96210 39.80782 36.38496
#
# Velocity S-wave (km/s) = 3.77637 4.15003 3.96760
# Velocity P-wave (km/s) = 6.11476 7.32473 6.74692
#
# Compressibility (1/GPa) = 0.02354449
#
# Stress axis : x y z
#
# Youngs Moduli (GPa) = 50.12887 113.16913 117.14530
#
# Poissons Ratio (x) = 0.16873 0.37772
# Poissons Ratio (y) = 0.07474 0.25456
# Poissons Ratio (z) = 0.16164 0.24592
#
# Static dielectric constant tensor:
#      x y z
#    x 4.056410 -0.148860 0.258660 
#    y -0.148860 4.459430 0.322520 
#    z 0.258660 0.322520 4.703230 
# 
# 
# High freq. dielectric constant tensor:
#      x y z
#    x 1.899000 -0.022590 0.009910 
#    y -0.022590 1.921730 0.002870 
#    z 0.009910 0.002870 1.932020 
# 
# From -- ./inp_files/183415.got.cif
#   From: 2010.06.25/outbox.cif.g09.slc.cpg/sg2_92_cif.got.tgz:183415.got - 2010.06.27 13:26:56.
