data_PCOD8018924
_publ_section_title
;
Structure prediction by ZEFSAII (Michael W. Deem and Ramdas Pophale) SiO2 
 PCOD8018924
Probable space group: P -1
;
_chemical_formula_sum "Si O2"
_cell_formula_units_Z 16
_cell_length_a 13.790800
_cell_length_b 13.411785
_cell_length_c 7.741277
_cell_angle_alpha 130.768949
_cell_angle_beta 40.546203
_cell_angle_gamma 110.857384
_cell_volume 675.745154
_symmetry_space_group_name_H-M "P -1"
_symmetry_group_IT_number 2
_symmetry_cell_setting 'triclinic'
loop_
_space_group_symop_operation_xyz
x,y,z
-x,-y,-z
loop_
_atom_site_type_symbol
_atom_site_label
_atom_site_fract_x
_atom_site_fract_y
_atom_site_fract_z
Si Si1 0.443673 0.530685 0.347456
Si Si2 0.791465 0.758174 0.411301
Si Si3 0.850343 0.788174 0.754659
Si Si4 0.463953 0.705938 0.823489
Si Si5 0.136315 0.927151 0.004680
Si Si6 0.218428 0.948442 0.291054
Si Si7 0.712671 0.570545 0.823713
Si Si8 0.051246 0.687879 0.686409
O O1 0.394926 0.617969 0.682833
O O2 0.539786 0.370437 0.076468
O O3 0.288214 0.522637 0.450776
O O4 0.546257 0.602475 0.175116
O O5 0.877878 0.736477 0.458596
O O6 0.644031 0.698072 0.530179
O O7 0.719692 0.920197 0.668478
O O8 0.911258 0.699610 0.026947
O O9 0.790062 0.955515 0.040381
O O10 0.724401 0.721666 0.934504
O O11 0.001622 0.728333 0.601757
O O12 0.341629 0.855330 0.153076
O O13 0.953792 0.009993 0.351381
O O14 0.211562 0.877508 0.033731
O O15 0.156123 0.789565 0.710990
O O16 0.852908 0.473429 0.635909
#
# Coordination Sequence:
#
# PCOD8018924 Si02
#       8
#     2   2   2   2   2   2   2   2
#     4  10  24  39  63  85 128 158 211 254 304 372
#     4  10  22  41  62  96 125 157 208 258 302 372
#     4  11  22  39  62  89 129 162 201 257 303 361
#     4  11  20  40  64  91 117 170 204 250 313 366
#     4   9  20  39  60  96 125 157 206 254 304 374
#     4   9  19  36  66  90 124 161 201 256 308 366
#     4  11  23  44  59  91 125 165 203 263 306 361
#     4  11  23  40  65  92 128 164 204 254 313 363
#
# _framework density 23.677565000000001
#
# number of rings (size 3 to 8) (size 9 to 14) (size 15 to 20)
#    0.000    1.750    1.250    3.375    1.750    0.500 
#    4.500    0.000    0.000    7.500    0.000    0.000 
#    0.000    0.000    0.000    0.000    0.000    0.000 
#
# Total GULP energy -198236.859128 kJ/mol
# GULP energy per Si atom -12389.803695 kJ/mol
# Density = 2.362367 g / cm^3
# Si number density = 23.677565 Si / 1000 Ang^3
#
#
#
# Elastic Constant Matrix: (Units=GPa)
#
#
# Indices 1 2 3 4 5 6 
#
# 1 83.6838 14.0905 -0.4448 0.9822 1.1061 -4.6611
# 2 14.0905 142.7927 7.9451 10.3756 -5.6606 5.4123
# 3 -0.4448 7.9451 28.9104 5.1883 -5.8907 -4.2486
# 4 0.9822 10.3756 5.1883 13.0156 -1.6739 -7.7565
# 5 1.1061 -5.6606 -5.8907 -1.6739 19.5990 2.7428
# 6 -4.6611 5.4123 -4.2486 -7.7565 2.7428 43.8224
#
#
#
# Elastic Compliance Matrix: (Units=1/GPa)
#
#
# Indices 1 2 3 4 5 6 
#
# 1 0.012293 -0.001417 0.000438 0.000930 -0.001138 0.001761
# 2 -0.001417 0.007882 -0.000917 -0.007117 0.001835 -0.002588
# 3 0.000438 -0.000917 0.039448 -0.013092 0.010306 0.001022
# 4 0.000930 -0.007117 -0.013092 0.097787 -0.000074 0.017021
# 5 -0.001138 0.001835 0.010306 -0.000074 0.055102 -0.002810
# 6 0.001761 -0.002588 0.001022 0.017021 -0.002810 0.026614
#
#
# Mechanical properties :
#
#
# Convention : Reuss Voigt Hill
#
# Bulk Modulus (GPa) = 17.91090 33.17427 25.54258
# Shear Modulus (GPa) = 19.11847 30.87380 24.99614
#
# Velocity S-wave (km/s) = 2.84465 3.61491 3.25266
# Velocity P-wave (km/s) = 4.28606 5.60934 4.99174
#
# Compressibility (1/GPa) = 0.05583193
#
# Stress axis : x y z
#
# Youngs Moduli (GPa) = 81.34811 126.87221 25.34979
#
# Poissons Ratio (x) = 0.17976 -0.01112
# Poissons Ratio (y) = 0.11526 0.02325
# Poissons Ratio (z) = -0.03567 0.11635
#
# Static dielectric constant tensor:
#      x y z
#    x 4.697680 -0.013460 0.058410 
#    y -0.013460 4.688010 0.243450 
#    z 0.058410 0.243450 3.492410 
# 
# 
# High freq. dielectric constant tensor:
#      x y z
#    x 1.957730 0.001410 0.003460 
#    y 0.001410 1.959580 0.016040 
#    z 0.003460 0.016040 1.878860 
# 
# From -- ./inp_files/189047.got.cif
#   From: 2010.06.25/outbox.cif.g09.slc.cpg/sg2_95_cif.got.tgz:189047.got - 2010.06.27 13:26:56.
