data_PCOD8018452
_publ_section_title
;
Structure prediction by ZEFSAII (Michael W. Deem and Ramdas Pophale) SiO2 
 PCOD8018452
Probable space group: P -1
;
_chemical_formula_sum "Si O2"
_cell_formula_units_Z 16
_cell_length_a 13.548257
_cell_length_b 13.626196
_cell_length_c 7.533390
_cell_angle_alpha 119.460696
_cell_angle_beta 139.553327
_cell_angle_gamma 49.381781
_cell_volume 684.835348
_symmetry_space_group_name_H-M "P -1"
_symmetry_group_IT_number 2
_symmetry_cell_setting 'triclinic'
loop_
_space_group_symop_operation_xyz
x,y,z
-x,-y,-z
loop_
_atom_site_type_symbol
_atom_site_label
_atom_site_fract_x
_atom_site_fract_y
_atom_site_fract_z
Si Si1 0.853246 0.389883 0.242996
Si Si2 0.951052 0.205212 0.526633
Si Si3 0.850023 0.052031 0.984518
Si Si4 0.303242 0.027979 0.751342
Si Si5 0.360629 0.334274 0.726688
Si Si6 0.575617 0.317350 0.697046
Si Si7 0.183952 0.170719 0.348015
Si Si8 0.641062 0.247573 0.341668
O O1 0.910790 0.328767 0.462097
O O2 0.811720 0.539300 0.321067
O O3 0.998936 0.303117 0.220693
O O4 0.672807 0.396693 0.948841
O O5 0.820496 0.254382 0.561300
O O6 0.160956 0.130995 0.790850
O O7 0.904829 0.102897 0.276319
O O8 0.680115 0.167710 0.764603
O O9 0.815496 0.932303 0.886158
O O10 0.000000 0.000000 0.000000
O O11 0.218686 0.092143 0.506997
O O12 0.301399 0.897185 0.658295
O O13 0.500000 0.000000 0.000000
O O14 0.399219 0.376049 0.624427
O O15 0.330054 0.211912 0.549150
O O16 0.521897 0.292864 0.044309
O O17 0.537525 0.333593 0.447881
#
# Coordination Sequence:
#
# PCOD8018452 Si02
#       8
#     2   2   2   2   2   2   2   2
#     4  10  22  44  68  90 128 177 223 263 314 397
#     4  10  22  40  66  94 129 175 211 266 329 380
#     4  11  17  38  66  92 125 162 214 262 320 383
#     4  11  21  37  61  99 132 160 210 266 325 389
#     4  12  25  43  64  97 134 173 220 263 328 380
#     4  11  23  41  67  96 127 168 223 273 314 385
#     4  11  22  40  69  93 130 179 207 270 336 383
#     4  12  23  40  65  99 129 171 214 267 329 381
#
# _framework density 23.36328
#
# number of rings (size 3 to 8) (size 9 to 14) (size 15 to 20)
#    0.000    1.000    8.750    1.125    0.000    1.000 
#    2.250    0.000    0.000    1.500    0.000    0.000 
#    0.000    0.000    0.000    0.000    0.000    0.000 
#
# Total GULP energy -198263.277391 kJ/mol
# GULP energy per Si atom -12391.454837 kJ/mol
# Density = 2.331010 g / cm^3
# Si number density = 23.363280 Si / 1000 Ang^3
#
#
#
# Elastic Constant Matrix: (Units=GPa)
#
#
# Indices 1 2 3 4 5 6 
#
# 1 84.8152 -5.0864 28.3757 -9.6036 -3.4324 -3.2527
# 2 -5.0864 92.7935 21.8920 5.3826 6.5797 0.2619
# 3 28.3757 21.8920 57.1966 -5.1575 13.0530 0.0739
# 4 -9.6036 5.3826 -5.1575 20.2057 -5.5413 8.2311
# 5 -3.4324 6.5797 13.0530 -5.5413 34.6750 1.1811
# 6 -3.2527 0.2619 0.0739 8.2311 1.1811 26.7567
#
#
#
# Elastic Compliance Matrix: (Units=1/GPa)
#
#
# Indices 1 2 3 4 5 6 
#
# 1 0.016094 0.002391 -0.009657 0.006216 0.005775 -0.000207
# 2 0.002391 0.012715 -0.006343 -0.004709 -0.000597 0.001659
# 3 -0.009657 -0.006343 0.027066 0.001933 -0.009586 -0.001358
# 4 0.006216 -0.004709 0.001933 0.065575 0.011939 -0.019903
# 5 0.005775 -0.000597 -0.009586 0.011939 0.035194 -0.004492
# 6 -0.000207 0.001659 -0.001358 -0.019903 -0.004492 0.043657
#
#
# Mechanical properties :
#
#
# Convention : Reuss Voigt Hill
#
# Bulk Modulus (GPa) = 34.89574 36.12976 35.51275
# Shear Modulus (GPa) = 21.09069 28.96908 25.02988
#
# Velocity S-wave (km/s) = 3.00780 3.52510 3.27668
# Velocity P-wave (km/s) = 5.19914 5.66272 5.43587
#
# Compressibility (1/GPa) = 0.02865679
#
# Stress axis : x y z
#
# Youngs Moduli (GPa) = 62.13475 78.64696 36.94680
#
# Poissons Ratio (x) = -0.18804 0.35679
# Poissons Ratio (y) = -0.14856 0.23437
# Poissons Ratio (z) = 0.60002 0.49889
#
# Static dielectric constant tensor:
#      x y z
#    x 4.549370 -0.441090 -0.015380 
#    y -0.441090 5.023390 0.542730 
#    z -0.015380 0.542730 4.560550 
# 
# 
# High freq. dielectric constant tensor:
#      x y z
#    x 1.925170 -0.003750 0.011340 
#    y -0.003750 1.925660 -0.006100 
#    z 0.011340 -0.006100 1.892600 
# 
# From -- ./inp_files/314046.got.cif
#   From: 2010.06.25/outbox.cif.g09.slc.cpg/sg2_158_cif.got.tgz:314046.got - 2010.06.27 13:26:56.
