data_PCOD8018000
_publ_section_title
;
Structure prediction by ZEFSAII (Michael W. Deem and Ramdas Pophale) SiO2 
 PCOD8018000
Probable space group: P -1
;
_chemical_formula_sum "Si O2"
_cell_formula_units_Z 16
_cell_length_a 11.526015
_cell_length_b 6.346023
_cell_length_c 14.383935
_cell_angle_alpha 63.814464
_cell_angle_beta 120.644747
_cell_angle_gamma 95.901443
_cell_volume 802.049452
_symmetry_space_group_name_H-M "P -1"
_symmetry_group_IT_number 2
_symmetry_cell_setting 'triclinic'
loop_
_space_group_symop_operation_xyz
x,y,z
-x,-y,-z
loop_
_atom_site_type_symbol
_atom_site_label
_atom_site_fract_x
_atom_site_fract_y
_atom_site_fract_z
Si Si1 0.927081 0.664229 0.859731
Si Si2 0.668539 0.952580 0.158395
Si Si3 0.510450 0.383564 0.927025
Si Si4 0.022297 0.071819 0.716689
Si Si5 0.158759 0.553068 0.314285
Si Si6 0.448632 0.869883 0.729876
Si Si7 0.680134 0.042057 0.681848
Si Si8 0.772077 0.974516 0.528547
O O1 0.882073 0.487878 0.799673
O O2 0.796700 0.841078 0.812650
O O3 0.029357 0.826702 0.824769
O O4 0.000000 0.500000 0.000000
O O5 0.577757 0.016963 0.200960
O O6 0.626694 0.718732 0.139096
O O7 0.826806 0.907242 0.260826
O O8 0.637154 0.165941 0.026961
O O9 0.526171 0.596399 0.820159
O O10 0.500000 0.500000 0.000000
O O11 0.970687 0.298034 0.715771
O O12 0.916216 0.067719 0.588300
O O13 0.201270 0.303837 0.433964
O O14 0.286567 0.695271 0.336206
O O15 0.537063 0.026101 0.674892
O O16 0.304814 0.875754 0.616298
O O17 0.678212 0.003370 0.577482
#
# Coordination Sequence:
#
# PCOD8018000 Si02
#       8
#     2   2   2   2   2   2   2   2
#     4   9  19  35  55  86 110 145 193 234 284 336
#     4  10  22  40  59  85 113 152 195 232 285 341
#     4   9  22  42  55  79 115 149 192 236 280 332
#     4   9  20  37  58  82 113 151 188 235 286 332
#     4   8  18  37  53  79 118 146 187 234 286 329
#     4  11  22  37  60  86 117 152 191 235 282 339
#     4   9  20  35  55  86 116 151 186 230 287 338
#     4   9  20  38  59  86 116 149 190 235 287 337
#
# _framework density 19.948893000000002
#
# number of rings (size 3 to 8) (size 9 to 14) (size 15 to 20)
#    0.000    3.250    0.000    0.375    1.750   11.000 
#    9.000    1.250    0.000    0.000    0.000    0.000 
#    0.000    0.000    0.000    0.000    0.000    0.000 
#
# Total GULP energy -198295.994637 kJ/mol
# GULP energy per Si atom -12393.499665 kJ/mol
# Density = 1.990349 g / cm^3
# Si number density = 19.948893 Si / 1000 Ang^3
#
#
#
# Elastic Constant Matrix: (Units=GPa)
#
#
# Indices 1 2 3 4 5 6 
#
# 1 86.8462 30.6917 5.1889 12.8672 13.3417 11.7553
# 2 30.6917 119.3648 23.2338 11.1719 0.7844 2.1591
# 3 5.1889 23.2338 98.2661 3.4275 5.4843 0.6101
# 4 12.8672 11.1719 3.4275 20.6628 5.1997 3.8125
# 5 13.3417 0.7844 5.4843 5.1997 20.3844 4.5831
# 6 11.7553 2.1591 0.6101 3.8125 4.5831 17.1629
#
#
#
# Elastic Compliance Matrix: (Units=1/GPa)
#
#
# Indices 1 2 3 4 5 6 
#
# 1 0.015514 -0.003493 0.000627 -0.004693 -0.007373 -0.007197
# 2 -0.003493 0.010035 -0.002239 -0.003916 0.003228 0.001218
# 3 0.000627 -0.002239 0.010861 -0.000229 -0.003276 0.000392
# 4 -0.004693 -0.003916 -0.000229 0.057126 -0.009862 -0.006341
# 5 -0.007373 0.003228 -0.003276 -0.009862 0.059144 -0.008843
# 6 -0.007197 0.001218 0.000392 -0.006341 -0.008843 0.066797
#
#
# Mechanical properties :
#
#
# Convention : Reuss Voigt Hill
#
# Bulk Modulus (GPa) = 38.17042 46.96730 42.56886
# Shear Modulus (GPa) = 20.97130 27.99953 24.48541
#
# Velocity S-wave (km/s) = 3.24582 3.75048 3.50724
# Velocity P-wave (km/s) = 5.76392 6.50767 6.14705
#
# Compressibility (1/GPa) = 0.02619830
#
# Stress axis : x y z
#
# Youngs Moduli (GPa) = 64.45880 99.65134 92.07082
#
# Poissons Ratio (x) = 0.34809 -0.05769
# Poissons Ratio (y) = 0.22516 0.20618
# Poissons Ratio (z) = -0.04039 0.22315
#
# Static dielectric constant tensor:
#      x y z
#    x 3.240580 0.000330 0.102900 
#    y 0.000330 3.829640 -0.117580 
#    z 0.102900 -0.117580 3.668450 
# 
# 
# High freq. dielectric constant tensor:
#      x y z
#    x 1.746130 0.000660 0.009270 
#    y 0.000660 1.791800 0.000600 
#    z 0.009270 0.000600 1.776750 
# 
# From -- ./inp_files/510827.got.cif
#   From: 2010.06.25/outbox.cif.g09.slc.cpg/sg2_256_cif.got.tgz:510827.got - 2010.06.27 13:26:56.
