data_PCOD8018318
_publ_section_title
;
Structure prediction by ZEFSAII (Michael W. Deem and Ramdas Pophale) SiO2 
 PCOD8018318
Probable space group: P -1
;
_chemical_formula_sum "Si O2"
_cell_formula_units_Z 14
_cell_length_a 9.284239
_cell_length_b 9.066988
_cell_length_c 22.044308
_cell_angle_alpha 49.217314
_cell_angle_beta 28.795085
_cell_angle_gamma 48.419848
_cell_volume 655.292230
_symmetry_space_group_name_H-M "P -1"
_symmetry_group_IT_number 2
_symmetry_cell_setting 'triclinic'
loop_
_space_group_symop_operation_xyz
x,y,z
-x,-y,-z
loop_
_atom_site_type_symbol
_atom_site_label
_atom_site_fract_x
_atom_site_fract_y
_atom_site_fract_z
Si Si1 0.864114 0.843092 0.870971
Si Si2 0.435019 0.973946 0.600494
Si Si3 0.744489 0.004503 0.997844
Si Si4 0.139698 0.601469 0.123625
Si Si5 0.808262 0.568276 0.138233
Si Si6 0.205178 0.411059 0.622258
Si Si7 0.195513 0.426596 0.388736
O O1 0.920834 0.616297 0.940102
O O2 0.622033 0.894148 0.891070
O O3 0.796806 0.005974 0.905635
O O4 0.176093 0.852792 0.721298
O O5 0.336837 0.176096 0.621406
O O6 0.500000 0.000000 0.500000
O O7 0.705091 0.816703 0.579166
O O8 0.852947 0.782575 0.043952
O O9 0.916923 0.155015 0.925726
O O10 0.891101 0.545661 0.185421
O O11 0.036128 0.549081 0.243017
O O12 0.500000 0.500000 0.000000
O O13 0.470889 0.541716 0.253965
O O14 0.500000 0.500000 0.500000
O O15 0.010100 0.521918 0.608481
O O16 0.000000 0.500000 0.500000
#
# Coordination Sequence:
#
# PCOD8018318 Si02
#       7
#     2   2   2   2   2   2   2
#     4  10  22  40  65 102 128 175 226 280 336 407
#     4  11  23  42  73  99 135 177 230 282 344 408
#     4  11  22  40  68  93 137 175 225 280 340 398
#     4  12  26  46  66 104 147 182 227 289 346 401
#     4  11  24  41  69  98 133 181 229 275 345 412
#     4  12  27  49  71 101 145 182 230 292 345 412
#     4  11  24  45  73 103 133 182 236 283 346 419
#
# _framework density 21.364514
#
# number of rings (size 3 to 8) (size 9 to 14) (size 15 to 20)
#    0.000    0.857    4.286    2.571    4.000    2.857 
#    2.571    0.000    0.000    0.000    0.000    0.000 
#    0.000    0.000    0.000    0.000    0.000    0.000 
#
# Total GULP energy -173448.617432 kJ/mol
# GULP energy per Si atom -12389.186959 kJ/mol
# Density = 2.131589 g / cm^3
# Si number density = 21.364514 Si / 1000 Ang^3
#
#
#
# Elastic Constant Matrix: (Units=GPa)
#
#
# Indices 1 2 3 4 5 6 
#
# 1 136.7149 42.4018 40.5769 2.0859 -10.4836 -8.8933
# 2 42.4018 140.6898 36.5066 -7.6350 -6.8426 -12.2621
# 3 40.5769 36.5066 92.1243 6.3149 5.4797 -2.2306
# 4 2.0859 -7.6350 6.3149 33.3214 3.7944 1.2950
# 5 -10.4836 -6.8426 5.4797 3.7944 32.9583 -2.4203
# 6 -8.8933 -12.2621 -2.2306 1.2950 -2.4203 36.6915
#
#
#
# Elastic Compliance Matrix: (Units=1/GPa)
#
#
# Indices 1 2 3 4 5 6 
#
# 1 0.009248 -0.001586 -0.003556 -0.000725 0.003416 0.001746
# 2 -0.001586 0.008784 -0.002990 0.002390 0.001718 0.002398
# 3 -0.003556 -0.002990 0.013988 -0.002628 -0.003861 -0.001173
# 4 -0.000725 0.002390 -0.002628 0.031474 -0.002983 -0.000845
# 5 0.003416 0.001718 -0.003861 -0.002983 0.033023 0.003451
# 6 0.001746 0.002398 -0.001173 -0.000845 0.003451 0.028665
#
#
# Mechanical properties :
#
#
# Convention : Reuss Voigt Hill
#
# Bulk Modulus (GPa) = 63.47012 67.61108 65.54060
# Shear Modulus (GPa) = 34.08336 37.26383 35.67359
#
# Velocity S-wave (km/s) = 3.99849 4.18088 4.09070
# Velocity P-wave (km/s) = 7.14772 7.41765 7.28393
#
# Compressibility (1/GPa) = 0.01575545
#
# Stress axis : x y z
#
# Youngs Moduli (GPa) = 108.12738 113.84466 71.49097
#
# Poissons Ratio (x) = 0.18050 0.25425
# Poissons Ratio (y) = 0.17144 0.21379
# Poissons Ratio (z) = 0.38454 0.34044
#
# Static dielectric constant tensor:
#      x y z
#    x 3.915290 0.171410 -0.182730 
#    y 0.171410 4.130670 0.122810 
#    z -0.182730 0.122810 3.840650 
# 
# 
# High freq. dielectric constant tensor:
#      x y z
#    x 1.839070 0.002230 -0.002470 
#    y 0.002230 1.860930 0.000310 
#    z -0.002470 0.000310 1.833430 
# 
# From -- ./inp_files/186235.got.cif
#   From: 2010.06.25/outbox.cif.g09.slc.cpg/sg2_94_cif.got.tgz:186235.got - 2010.06.27 13:26:56.
