data_PCOD8018883
_publ_section_title
;
Structure prediction by ZEFSAII (Michael W. Deem and Ramdas Pophale) SiO2 
 PCOD8018883
Probable space group: P -1
;
_chemical_formula_sum "Si O2"
_cell_formula_units_Z 14
_cell_length_a 11.368250
_cell_length_b 4.928865
_cell_length_c 23.480825
_cell_angle_alpha 85.312920
_cell_angle_beta 144.728141
_cell_angle_gamma 70.917188
_cell_volume 552.388956
_symmetry_space_group_name_H-M "P -1"
_symmetry_group_IT_number 2
_symmetry_cell_setting 'triclinic'
loop_
_space_group_symop_operation_xyz
x,y,z
-x,-y,-z
loop_
_atom_site_type_symbol
_atom_site_label
_atom_site_fract_x
_atom_site_fract_y
_atom_site_fract_z
Si Si1 0.070171 0.451352 0.139846
Si Si2 0.295971 0.693739 0.735846
Si Si3 0.636772 0.403492 0.977342
Si Si4 0.924094 0.925843 0.200992
Si Si5 0.015812 0.528184 0.348978
Si Si6 0.591487 0.158022 0.632695
Si Si7 0.374403 0.692144 0.236491
O O1 0.114385 0.715466 0.129135
O O2 0.232020 0.269136 0.268253
O O3 0.229131 0.116241 0.161027
O O4 0.762160 0.596918 0.023449
O O5 0.572385 0.364777 0.888107
O O6 0.042949 0.723243 0.650395
O O7 0.376581 0.602598 0.703186
O O8 0.188577 0.092194 0.701676
O O9 0.339428 0.666218 0.886388
O O10 0.849310 0.987151 0.101216
O O11 0.957031 0.618786 0.256006
O O12 0.202410 0.845706 0.323768
O O13 0.338330 0.294591 0.491674
O O14 0.491030 0.422215 0.644459
#
# Coordination Sequence:
#
# PCOD8018883 Si02
#       7
#     2   2   2   2   2   2   2
#     4   9  21  39  62  93 121 164 197 252 304 362
#     4  11  25  41  62  95 122 166 203 253 303 366
#     4   9  20  41  66  90 128 155 209 250 312 360
#     4   9  19  44  63  94 120 165 200 260 303 365
#     4  11  24  41  64  91 126 161 208 249 307 359
#     4   9  22  41  64  93 124 162 203 253 304 366
#     4  10  22  41  61  95 124 159 209 243 314 356
#
# _framework density 25.344460000000002
#
# number of rings (size 3 to 8) (size 9 to 14) (size 15 to 20)
#    0.857    1.429    0.000    1.286    2.000    5.143 
#   12.857    3.571    0.000    0.000    0.000    0.000 
#    0.000    0.000    0.000    0.000    0.000    0.000 
#
# Total GULP energy -173448.016270 kJ/mol
# GULP energy per Si atom -12389.144019 kJ/mol
# Density = 2.528677 g / cm^3
# Si number density = 25.344460 Si / 1000 Ang^3
#
#
#
# Elastic Constant Matrix: (Units=GPa)
#
#
# Indices 1 2 3 4 5 6 
#
# 1 85.4515 3.2985 30.1505 11.2537 15.4326 5.0705
# 2 3.2985 27.7045 2.4427 19.2258 -5.3767 10.8213
# 3 30.1505 2.4427 129.9513 12.1826 6.8056 -2.8104
# 4 11.2537 19.2258 12.1826 30.5408 5.5060 4.6806
# 5 15.4326 -5.3767 6.8056 5.5060 31.2664 0.3289
# 6 5.0705 10.8213 -2.8104 4.6806 0.3289 25.2589
#
#
#
# Elastic Compliance Matrix: (Units=1/GPa)
#
#
# Indices 1 2 3 4 5 6 
#
# 1 0.014276 0.000701 -0.002793 -0.003120 -0.005739 -0.002824
# 2 0.000701 0.094924 0.001731 -0.060962 0.026648 -0.029665
# 3 -0.002793 0.001731 0.008679 -0.003831 0.000446 0.001489
# 4 -0.003120 -0.060962 -0.003831 0.075764 -0.021584 0.012559
# 5 -0.005739 0.026648 0.000446 -0.021584 0.043173 -0.006777
# 6 -0.002824 -0.029665 0.001489 0.012559 -0.006777 0.050793
#
#
# Mechanical properties :
#
#
# Convention : Reuss Voigt Hill
#
# Bulk Modulus (GPa) = 8.53563 34.98786 21.76174
# Shear Modulus (GPa) = 15.27264 31.22760 23.25012
#
# Velocity S-wave (km/s) = 2.45746 3.51397 3.03209
# Velocity P-wave (km/s) = 3.38043 5.50445 4.56762
#
# Compressibility (1/GPa) = 0.11715603
#
# Stress axis : x y z
#
# Youngs Moduli (GPa) = 70.04756 10.53478 115.22422
#
# Poissons Ratio (x) = -0.00739 0.32187
# Poissons Ratio (y) = -0.04912 -0.19945
# Poissons Ratio (z) = 0.19567 -0.01824
#
# Static dielectric constant tensor:
#      x y z
#    x 4.625170 -0.166440 -0.131620 
#    y -0.166440 4.364800 0.066820 
#    z -0.131620 0.066820 4.480080 
# 
# 
# High freq. dielectric constant tensor:
#      x y z
#    x 2.008610 -0.010230 0.015310 
#    y -0.010230 2.008580 0.001240 
#    z 0.015310 0.001240 2.003210 
# 
# From -- ./inp_files/409051.got.cif
#   From: 2010.06.25/outbox.cif.g09.slc.cpg/sg2_205_cif.got.tgz:409051.got - 2010.06.27 13:26:56.
