data_PCOD8018861
_publ_section_title
;
Structure prediction by ZEFSAII (Michael W. Deem and Ramdas Pophale) SiO2 
 PCOD8018861
Probable space group: P -1
;
_chemical_formula_sum "Si O2"
_cell_formula_units_Z 16
_cell_length_a 13.933276
_cell_length_b 10.999334
_cell_length_c 9.165468
_cell_angle_alpha 89.864645
_cell_angle_beta 83.709940
_cell_angle_gamma 30.424502
_cell_volume 695.106607
_symmetry_space_group_name_H-M "P -1"
_symmetry_group_IT_number 2
_symmetry_cell_setting 'triclinic'
loop_
_space_group_symop_operation_xyz
x,y,z
-x,-y,-z
loop_
_atom_site_type_symbol
_atom_site_label
_atom_site_fract_x
_atom_site_fract_y
_atom_site_fract_z
Si Si1 0.250787 0.706954 0.154401
Si Si2 0.480462 0.813151 0.376513
Si Si3 0.895018 0.943867 0.207325
Si Si4 0.515629 0.585689 0.615456
Si Si5 0.832961 0.586019 0.340062
Si Si6 0.568946 0.235509 0.921710
Si Si7 0.081235 0.264855 0.559981
Si Si8 0.923912 0.716325 0.964280
O O1 0.294114 0.645325 0.319494
O O2 0.288070 0.803033 0.092736
O O3 0.023268 0.925516 0.166762
O O4 0.380137 0.465409 0.049715
O O5 0.532682 0.691455 0.521803
O O6 0.609124 0.795244 0.348640
O O7 0.512131 0.695979 0.228456
O O8 0.254487 0.092657 0.414787
O O9 0.929492 0.855081 0.365353
O O10 0.664753 0.222716 0.238394
O O11 0.971150 0.761798 0.080744
O O12 0.500000 0.500000 0.500000
O O13 0.876562 0.682782 0.317571
O O14 0.886697 0.495073 0.498988
O O15 0.959473 0.374642 0.201257
O O16 0.692829 0.983600 0.962027
O O17 0.000000 0.500000 0.000000
#
# Coordination Sequence:
#
# PCOD8018861 Si02
#       8
#     2   2   2   2   2   2   2   2
#     4  11  24  45  69  98 133 178 222 276 335 397
#     4  11  22  40  65  96 127 173 215 269 334 390
#     4  11  24  43  69  97 134 178 220 274 342 389
#     4  11  23  42  66 100 139 167 218 278 331 403
#     4  11  22  39  67  90 129 176 217 266 331 388
#     4  11  24  45  66  96 139 171 228 281 323 399
#     4  10  22  41  60  96 131 164 220 276 314 400
#     4  12  24  45  66  96 135 178 223 279 327 395
#
# _framework density 23.018049000000001
#
# number of rings (size 3 to 8) (size 9 to 14) (size 15 to 20)
#    0.000    1.000    5.000    1.875    0.000    2.000 
#    0.000    5.000    0.000    0.000    0.000    0.000 
#    0.000    0.000    0.000    0.000    0.000    0.000 
#
# Total GULP energy -198339.126180 kJ/mol
# GULP energy per Si atom -12396.195386 kJ/mol
# Density = 2.296566 g / cm^3
# Si number density = 23.018049 Si / 1000 Ang^3
#
#
#
# Elastic Constant Matrix: (Units=GPa)
#
#
# Indices 1 2 3 4 5 6 
#
# 1 99.5448 12.5837 27.8077 9.4837 4.8791 -15.4496
# 2 12.5837 64.1875 9.1745 -1.4072 -1.5091 7.5133
# 3 27.8077 9.1745 90.8207 10.3017 18.1730 -3.5425
# 4 9.4837 -1.4072 10.3017 31.1382 7.2129 1.0752
# 5 4.8791 -1.5091 18.1730 7.2129 31.3867 2.5947
# 6 -15.4496 7.5133 -3.5425 1.0752 2.5947 32.3644
#
#
#
# Elastic Compliance Matrix: (Units=1/GPa)
#
#
# Indices 1 2 3 4 5 6 
#
# 1 0.012531 -0.002873 -0.002892 -0.003162 -0.000218 0.006455
# 2 -0.002873 0.017170 -0.001764 0.001893 0.002338 -0.005801
# 3 -0.002892 -0.001764 0.013812 -0.002132 -0.007241 0.001192
# 4 -0.003162 0.001893 -0.002132 0.035375 -0.006075 -0.002870
# 5 -0.000218 0.002338 -0.007241 -0.006075 0.037949 -0.004280
# 6 0.006455 -0.005801 0.001192 -0.002870 -0.004280 0.035895
#
#
# Mechanical properties :
#
#
# Convention : Reuss Voigt Hill
#
# Bulk Modulus (GPa) = 35.14409 39.29831 37.22120
# Shear Modulus (GPa) = 28.20484 32.64367 30.42425
#
# Velocity S-wave (km/s) = 3.50428 3.76995 3.63954
# Velocity P-wave (km/s) = 5.62801 6.00500 5.81956
#
# Compressibility (1/GPa) = 0.02845428
#
# Stress axis : x y z
#
# Youngs Moduli (GPa) = 79.80479 58.24051 72.40288
#
# Poissons Ratio (x) = 0.16733 0.20941
# Poissons Ratio (y) = 0.22929 0.12769
# Poissons Ratio (z) = 0.23082 0.10271
#
# Static dielectric constant tensor:
#      x y z
#    x 3.900500 0.045380 0.083360 
#    y 0.045380 4.025120 0.015550 
#    z 0.083360 0.015550 4.360390 
# 
# 
# High freq. dielectric constant tensor:
#      x y z
#    x 1.889480 -0.000480 0.013570 
#    y -0.000480 1.900720 -0.002070 
#    z 0.013570 -0.002070 1.926070 
# 
# From -- ./inp_files/307509.got.cif
#   From: 2010.06.25/outbox.cif.g09.slc.cpg/sg2_154_cif.got.tgz:307509.got - 2010.06.27 13:26:56.
