data_PCOD8018756
_publ_section_title
;
Structure prediction by ZEFSAII (Michael W. Deem and Ramdas Pophale) SiO2 
 PCOD8018756
Probable space group: P -1
;
_chemical_formula_sum "Si O2"
_cell_formula_units_Z 12
_cell_length_a 9.317166
_cell_length_b 10.673820
_cell_length_c 4.789155
_cell_angle_alpha 98.725924
_cell_angle_beta 76.999368
_cell_angle_gamma 83.610822
_cell_volume 453.442244
_symmetry_space_group_name_H-M "P -1"
_symmetry_group_IT_number 2
_symmetry_cell_setting 'triclinic'
loop_
_space_group_symop_operation_xyz
x,y,z
-x,-y,-z
loop_
_atom_site_type_symbol
_atom_site_label
_atom_site_fract_x
_atom_site_fract_y
_atom_site_fract_z
Si Si1 0.547932 0.589732 0.279271
Si Si2 0.200882 0.074443 0.990350
Si Si3 0.705312 0.793415 0.512207
Si Si4 0.232844 0.641226 0.261457
Si Si5 0.864287 0.193465 0.153137
Si Si6 0.862944 0.531837 0.272258
O O1 0.500000 0.500000 0.500000
O O2 0.561218 0.730128 0.455955
O O3 0.414831 0.598687 0.111287
O O4 0.721183 0.525913 0.105749
O O5 0.316221 0.138319 0.155291
O O6 0.206695 0.923422 0.992330
O O7 0.255470 0.093666 0.662124
O O8 0.035516 0.148338 0.140156
O O9 0.847131 0.679160 0.427086
O O10 0.151819 0.685274 0.016123
O O11 0.143112 0.548618 0.463688
O O12 0.223745 0.765447 0.508777
O O13 0.000000 0.500000 0.000000
#
# Coordination Sequence:
#
# PCOD8018756 Si02
#       6
#     2   2   2   2   2   2
#     4   8  20  43  67 100 141 177 213 273 343 411
#     4  11  23  45  63 102 129 182 224 287 322 389
#     4  10  22  40  70  95 138 170 224 277 336 392
#     4  11  22  44  66 104 132 182 219 272 344 405
#     4  11  25  41  71  91 142 178 230 270 339 394
#     4   9  20  41  70 102 132 172 221 279 336 397
#
# _framework density 26.464234000000001
#
# number of rings (size 3 to 8) (size 9 to 14) (size 15 to 20)
#    1.000    1.000    0.000    3.000    0.000    5.333 
#    0.000   14.167    0.000    0.000    0.000    0.000 
#    0.000    0.000    0.000    0.000    0.000    0.000 
#
# Total GULP energy -148690.415167 kJ/mol
# GULP energy per Si atom -12390.867931 kJ/mol
# Density = 2.640400 g / cm^3
# Si number density = 26.464234 Si / 1000 Ang^3
#
#
#
# Elastic Constant Matrix: (Units=GPa)
#
#
# Indices 1 2 3 4 5 6 
#
# 1 78.9142 36.4278 30.6054 -5.2822 -17.5681 10.5395
# 2 36.4278 98.1988 24.1856 -17.5398 -2.0156 14.4640
# 3 30.6054 24.1856 121.3479 -10.5066 -0.0930 -10.7932
# 4 -5.2822 -17.5398 -10.5066 31.8318 -0.2700 -2.8421
# 5 -17.5681 -2.0156 -0.0930 -0.2700 44.3239 6.5743
# 6 10.5395 14.4640 -10.7932 -2.8421 6.5743 44.6844
#
#
#
# Elastic Compliance Matrix: (Units=1/GPa)
#
#
# Indices 1 2 3 4 5 6 
#
# 1 0.019263 -0.005438 -0.004366 -0.001631 0.008131 -0.005138
# 2 -0.005438 0.014002 -0.001152 0.006158 -0.001041 -0.002983
# 3 -0.004366 -0.001152 0.010162 0.002364 -0.002394 0.004360
# 4 -0.001631 0.006158 0.002364 0.035428 -0.000333 0.001265
# 5 0.008131 -0.001041 -0.002394 -0.000333 0.026634 -0.006099
# 6 -0.005138 -0.002983 0.004360 0.001265 -0.006099 0.026588
#
#
# Mechanical properties :
#
#
# Convention : Reuss Voigt Hill
#
# Bulk Modulus (GPa) = 46.48102 53.43316 49.95709
# Shear Modulus (GPa) = 31.02479 37.98415 34.50447
#
# Velocity S-wave (km/s) = 3.42764 3.79265 3.61476
# Velocity P-wave (km/s) = 5.76774 6.27801 6.02828
#
# Compressibility (1/GPa) = 0.02151416
#
# Stress axis : x y z
#
# Youngs Moduli (GPa) = 51.91374 71.41649 98.40275
#
# Poissons Ratio (x) = 0.38836 0.42967
# Poissons Ratio (y) = 0.28230 0.11339
# Poissons Ratio (z) = 0.22668 0.08229
#
# Static dielectric constant tensor:
#      x y z
#    x 6.381870 -1.319600 -0.603710 
#    y -1.319600 5.460800 0.458500 
#    z -0.603710 0.458500 4.731570 
# 
# 
# High freq. dielectric constant tensor:
#      x y z
#    x 2.063640 0.021900 0.012630 
#    y 0.021900 2.080640 0.018800 
#    z 0.012630 0.018800 2.063710 
# 
# From -- ./inp_files/18927.got.cif
#   From: 2010.06.25/outbox.cif.g09.slc.cpg/sg2_10_cif.got.tgz:18927.got - 2010.06.27 13:26:56.
