data_PCOD8018707
_publ_section_title
;
Structure prediction by ZEFSAII (Michael W. Deem and Ramdas Pophale) SiO2 
 PCOD8018707
Probable space group: P -1
;
_chemical_formula_sum "Si O2"
_cell_formula_units_Z 12
_cell_length_a 11.493153
_cell_length_b 15.834746
_cell_length_c 11.917073
_cell_angle_alpha 24.663968
_cell_angle_beta 124.090645
_cell_angle_gamma 140.255080
_cell_volume 494.910366
_symmetry_space_group_name_H-M "P -1"
_symmetry_group_IT_number 2
_symmetry_cell_setting 'triclinic'
loop_
_space_group_symop_operation_xyz
x,y,z
-x,-y,-z
loop_
_atom_site_type_symbol
_atom_site_label
_atom_site_fract_x
_atom_site_fract_y
_atom_site_fract_z
Si Si1 0.451705 0.772289 0.366992
Si Si2 0.303296 0.703177 0.965969
Si Si3 0.040002 0.454602 0.455439
Si Si4 0.137232 0.708651 0.664991
Si Si5 0.890930 0.917515 0.907205
Si Si6 0.687324 0.718879 0.425642
O O1 0.300103 0.729158 0.246174
O O2 0.653187 0.882547 0.284700
O O3 0.508153 0.985722 0.239801
O O4 0.300008 0.438458 0.742381
O O5 0.314156 0.777117 0.749604
O O6 0.322723 0.484136 0.251783
O O7 0.086089 0.553857 0.076590
O O8 0.000000 0.500000 0.500000
O O9 0.911569 0.437572 0.309965
O O10 0.968874 0.137157 0.793790
O O11 0.197779 0.010523 0.317405
O O12 0.088892 0.015976 0.836549
O O13 0.500000 0.500000 0.500000
#
# Coordination Sequence:
#
# PCOD8018707 Si02
#       6
#     2   2   2   2   2   2
#     4  12  24  39  70 104 129 173 232 274 334 397
#     4  10  22  42  68  99 135 177 225 274 334 408
#     4  10  22  40  69  97 132 180 224 273 334 393
#     4   8  20  44  65  92 143 177 219 276 336 398
#     4   9  22  44  64  95 141 173 219 285 327 391
#     4  11  23  43  68  97 140 172 222 280 335 397
#
# _framework density 24.246815999999999
#
# number of rings (size 3 to 8) (size 9 to 14) (size 15 to 20)
#    1.000    1.000    1.667    0.500    2.333    4.667 
#    0.000   12.500    0.000    0.000    0.000    0.000 
#    0.000    0.000    0.000    0.000    0.000    0.000 
#
# Total GULP energy -148677.359941 kJ/mol
# GULP energy per Si atom -12389.779995 kJ/mol
# Density = 2.419163 g / cm^3
# Si number density = 24.246816 Si / 1000 Ang^3
#
#
#
# Elastic Constant Matrix: (Units=GPa)
#
#
# Indices 1 2 3 4 5 6 
#
# 1 117.9270 31.4755 19.5012 16.5157 3.2493 -15.6964
# 2 31.4755 165.0303 30.7170 26.6848 22.2959 -15.9765
# 3 19.5012 30.7170 80.4397 4.3871 15.2954 -6.8457
# 4 16.5157 26.6848 4.3871 30.3722 -4.7819 3.1217
# 5 3.2493 22.2959 15.2954 -4.7819 17.3354 0.4351
# 6 -15.6964 -15.9765 -6.8457 3.1217 0.4351 29.5826
#
#
#
# Elastic Compliance Matrix: (Units=1/GPa)
#
#
# Indices 1 2 3 4 5 6 
#
# 1 0.010499 0.000517 -0.001064 -0.007278 -0.003863 0.006429
# 2 0.000517 0.011794 0.000771 -0.014836 -0.020257 0.008686
# 3 -0.001064 0.000771 0.016269 -0.005549 -0.016789 0.004449
# 4 -0.007278 -0.014836 -0.005549 0.059431 0.042240 -0.020051
# 5 -0.003863 -0.020257 -0.016789 0.042240 0.111505 -0.022972
# 6 0.006429 0.008686 0.004449 -0.020051 -0.022972 0.045389
#
#
# Mechanical properties :
#
#
# Convention : Reuss Voigt Hill
#
# Bulk Modulus (GPa) = 25.63475 58.53160 42.08318
# Shear Modulus (GPa) = 18.69563 34.23826 26.46695
#
# Velocity S-wave (km/s) = 2.77980 3.76183 3.30747
# Velocity P-wave (km/s) = 4.57148 6.56207 5.65505
#
# Compressibility (1/GPa) = 0.03900955
#
# Stress axis : x y z
#
# Youngs Moduli (GPa) = 95.24428 84.78883 61.46687
#
# Poissons Ratio (x) = -0.04381 0.06541
# Poissons Ratio (y) = -0.04921 -0.04740
# Poissons Ratio (z) = 0.10136 -0.06538
#
# Static dielectric constant tensor:
#      x y z
#    x 4.512090 0.188360 0.037300 
#    y 0.188360 4.975660 0.374870 
#    z 0.037300 0.374870 4.509860 
# 
# 
# High freq. dielectric constant tensor:
#      x y z
#    x 1.950750 0.006300 -0.000110 
#    y 0.006300 1.955410 0.014480 
#    z -0.000110 0.014480 1.980200 
# 
# From -- ./inp_files/432332.got.cif
#   From: 2010.06.25/outbox.cif.g09.slc.cpg/sg2_217_cif.got.tgz:432332.got - 2010.06.27 13:26:56.
