data_PCOD8018054
_publ_section_title
;
Structure prediction by ZEFSAII (Michael W. Deem and Ramdas Pophale) SiO2 
 PCOD8018054
Probable space group: P -1
;
_chemical_formula_sum "Si O2"
_cell_formula_units_Z 16
_cell_length_a 24.101883
_cell_length_b 8.624115
_cell_length_c 8.843889
_cell_angle_alpha 129.094539
_cell_angle_beta 150.598364
_cell_angle_gamma 54.438496
_cell_volume 697.898660
_symmetry_space_group_name_H-M "P -1"
_symmetry_group_IT_number 2
_symmetry_cell_setting 'triclinic'
loop_
_space_group_symop_operation_xyz
x,y,z
-x,-y,-z
loop_
_atom_site_type_symbol
_atom_site_label
_atom_site_fract_x
_atom_site_fract_y
_atom_site_fract_z
Si Si1 0.054362 0.392506 0.416632
Si Si2 0.846624 0.412045 0.728822
Si Si3 0.677963 0.673565 0.683118
Si Si4 0.428899 0.024352 0.616523
Si Si5 0.191435 0.023873 0.612590
Si Si6 0.746963 0.562996 0.291636
Si Si7 0.346849 0.994343 0.700121
Si Si8 0.475214 0.614875 0.357456
O O1 0.078061 0.159337 0.378554
O O2 0.172974 0.477187 0.692570
O O3 0.000000 0.500000 0.500000
O O4 0.973564 0.414565 0.093421
O O5 0.767901 0.494802 0.732948
O O6 0.826811 0.559604 0.628279
O O7 0.833007 0.184820 0.494712
O O8 0.577381 0.556265 0.447386
O O9 0.631369 0.785651 0.491949
O O10 0.731389 0.836923 0.019189
O O11 0.480304 0.854529 0.521775
O O12 0.342507 0.926929 0.471679
O O13 0.533105 0.098161 0.005680
O O14 0.247860 0.933347 0.535303
O O15 0.666819 0.763622 0.194076
O O16 0.654275 0.406086 0.012375
O O17 0.500000 0.500000 0.500000
#
# Coordination Sequence:
#
# PCOD8018054 Si02
#       8
#     2   2   2   2   2   2   2   2
#     4  11  24  48  76  95 134 176 227 289 345 398
#     4  12  26  44  73 101 133 179 232 284 336 404
#     4  12  25  43  68 103 142 180 223 278 337 405
#     4  11  22  39  62  92 140 183 218 269 334 396
#     4  11  24  45  69 103 132 176 227 280 344 403
#     4  11  24  45  66 101 135 177 226 279 340 400
#     4  10  22  40  61  91 140 179 216 274 331 397
#     4  12  24  40  67 101 141 181 227 277 334 410
#
# _framework density 22.925964
#
# number of rings (size 3 to 8) (size 9 to 14) (size 15 to 20)
#    0.000    0.750    5.000    2.625    3.500    0.500 
#    0.000    0.625    0.000    0.000    0.000    0.000 
#    0.000    0.000    0.000    0.000    0.000    0.000 
#
# Total GULP energy -198219.721439 kJ/mol
# GULP energy per Si atom -12388.732590 kJ/mol
# Density = 2.287378 g / cm^3
# Si number density = 22.925964 Si / 1000 Ang^3
#
#
#
# Elastic Constant Matrix: (Units=GPa)
#
#
# Indices 1 2 3 4 5 6 
#
# 1 100.9448 13.7329 25.2945 -7.8848 7.5372 -15.7896
# 2 13.7329 80.4209 31.7974 -17.8655 4.2192 -2.8102
# 3 25.2945 31.7974 97.9773 -19.2635 0.4633 4.9275
# 4 -7.8848 -17.8655 -19.2635 39.9586 5.5328 -2.9076
# 5 7.5372 4.2192 0.4633 5.5328 30.2813 -10.7606
# 6 -15.7896 -2.8102 4.9275 -2.9076 -10.7606 36.4139
#
#
#
# Elastic Compliance Matrix: (Units=1/GPa)
#
#
# Indices 1 2 3 4 5 6 
#
# 1 0.011682 -0.000307 -0.002914 0.001309 -0.001219 0.005180
# 2 -0.000307 0.015409 -0.003914 0.005386 -0.002546 0.001263
# 3 -0.002914 -0.003914 0.013163 0.003894 -0.000806 -0.003274
# 4 0.001309 0.005386 0.003894 0.030523 -0.006352 0.001017
# 5 -0.001219 -0.002546 -0.000806 -0.006352 0.038498 0.010253
# 6 0.005180 0.001263 -0.003274 0.001017 0.010253 0.033360
#
#
# Mechanical properties :
#
#
# Convention : Reuss Voigt Hill
#
# Bulk Modulus (GPa) = 38.48488 46.77696 42.63092
# Shear Modulus (GPa) = 30.19950 35.23197 32.71574
#
# Velocity S-wave (km/s) = 3.63335 3.92442 3.78169
# Velocity P-wave (km/s) = 5.86725 6.40176 6.14033
#
# Compressibility (1/GPa) = 0.02598423
#
# Stress axis : x y z
#
# Youngs Moduli (GPa) = 85.60332 64.89790 75.97070
#
# Poissons Ratio (x) = 0.01993 0.22135
# Poissons Ratio (y) = 0.02629 0.29735
# Poissons Ratio (z) = 0.24941 0.25401
#
# Static dielectric constant tensor:
#      x y z
#    x 4.305890 -0.164830 -0.046910 
#    y -0.164830 4.197550 -0.269600 
#    z -0.046910 -0.269600 4.096000 
# 
# 
# High freq. dielectric constant tensor:
#      x y z
#    x 1.914350 -0.005160 -0.006540 
#    y -0.005160 1.912210 -0.029090 
#    z -0.006540 -0.029090 1.882120 
# 
# From -- ./inp_files/226744.got.cif
#   From: 2010.06.25/outbox.cif.g09.slc.cpg/sg2_114_cif.got.tgz:226744.got - 2010.06.27 13:26:56.
