data_PCOD8018084
_publ_section_title
;
Structure prediction by ZEFSAII (Michael W. Deem and Ramdas Pophale) SiO2 
 PCOD8018084
Probable space group: P -1
;
_chemical_formula_sum "Si O2"
_cell_formula_units_Z 16
_cell_length_a 10.814966
_cell_length_b 10.067826
_cell_length_c 8.736953
_cell_angle_alpha 89.999844
_cell_angle_beta 113.823823
_cell_angle_gamma 62.988189
_cell_volume 755.417638
_symmetry_space_group_name_H-M "P -1"
_symmetry_group_IT_number 2
_symmetry_cell_setting 'triclinic'
loop_
_space_group_symop_operation_xyz
x,y,z
-x,-y,-z
loop_
_atom_site_type_symbol
_atom_site_label
_atom_site_fract_x
_atom_site_fract_y
_atom_site_fract_z
Si Si1 0.614123 0.836893 0.987310
Si Si2 0.614123 0.836893 0.626813
Si Si3 0.108233 0.826911 0.230763
Si Si4 0.941965 0.673053 0.649975
Si Si5 0.058035 0.326947 0.708010
Si Si6 0.465428 0.657542 0.055316
Si Si7 0.465427 0.657542 0.410111
Si Si8 0.108233 0.826911 0.877470
O O1 0.598024 0.850097 0.799012
O O2 0.573919 0.710499 0.026446
O O3 0.788819 0.787862 0.122135
O O4 0.500000 0.000000 0.000000
O O5 0.788819 0.787862 0.666684
O O6 0.573919 0.710499 0.547473
O O7 0.500000 0.000000 0.500000
O O8 0.285805 0.784590 0.344350
O O9 0.075549 0.713271 0.316368
O O10 0.074897 0.808221 0.037448
O O11 1.000000 1.000000 0.233451
O O12 0.904716 0.695916 0.452358
O O13 0.000000 0.500000 0.729836
O O14 0.075549 0.713271 0.759180
O O15 0.285805 0.784590 0.941455
O O16 0.500000 0.500000 0.000000
O O17 0.511279 0.632343 0.255640
O O18 0.500000 0.500000 0.500000
#
# Coordination Sequence:
#
# PCOD8018084 Si02
#       8
#     2   2   2   2   2   2   2   2
#     4  12  25  42  65  92 125 164 208 258 312 370
#     4  12  25  42  65  92 125 164 208 258 312 370
#     4  10  22  40  62  88 119 158 203 251 303 360
#     4  11  24  41  63  92 125 161 205 255 306 366
#     4  11  24  41  63  92 125 161 205 255 306 366
#     4  11  23  40  63  92 126 163 205 253 307 367
#     4  11  23  40  63  92 126 163 205 253 307 367
#     4  10  22  40  62  88 119 158 203 251 303 360
#
# _framework density 21.180337000000002
#
# number of rings (size 3 to 8) (size 9 to 14) (size 15 to 20)
#    0.000    1.000    0.000    6.750    0.000   10.500 
#    0.000    0.000    0.000    0.000    0.000    0.000 
#    0.000    0.000    0.000    0.000    0.000    0.000 
#
# Total GULP energy -198554.581944 kJ/mol
# GULP energy per Si atom -12409.661371 kJ/mol
# Density = 2.113213 g / cm^3
# Si number density = 21.180337 Si / 1000 Ang^3
#
#
#
# Elastic Constant Matrix: (Units=GPa)
#
#
# Indices 1 2 3 4 5 6 
#
# 1 76.3924 0.2716 21.2403 3.0367 -13.7646 0.8174
# 2 0.2716 85.3776 22.3801 2.8950 -13.5153 -0.1858
# 3 21.2403 22.3801 113.0387 3.7408 -11.1027 -3.9454
# 4 3.0367 2.8950 3.7408 38.3415 2.2034 2.2727
# 5 -13.7646 -13.5153 -11.1027 2.2034 36.0581 0.2815
# 6 0.8174 -0.1858 -3.9454 2.2727 0.2815 42.1930
#
#
#
# Elastic Compliance Matrix: (Units=1/GPa)
#
#
# Indices 1 2 3 4 5 6 
#
# 1 0.014844 0.001537 -0.002521 -0.001336 0.005552 -0.000482
# 2 0.001537 0.013138 -0.002381 -0.001150 0.004849 -0.000165
# 3 -0.002521 -0.002381 0.009974 -0.000725 0.001253 0.001002
# 4 -0.001336 -0.001150 -0.000725 0.026591 -0.002778 -0.001461
# 5 0.005552 0.004849 0.001253 -0.002778 0.032226 -0.000034
# 6 -0.000482 -0.000165 0.001002 -0.001461 -0.000034 0.023882
#
#
# Mechanical properties :
#
#
# Convention : Reuss Voigt Hill
#
# Bulk Modulus (GPa) = 32.02525 40.28807 36.15666
# Shear Modulus (GPa) = 36.28597 38.71296 37.49946
#
# Velocity S-wave (km/s) = 4.14356 4.27989 4.21228
# Velocity P-wave (km/s) = 6.16808 6.59439 6.38480
#
# Compressibility (1/GPa) = 0.03122536
#
# Stress axis : x y z
#
# Youngs Moduli (GPa) = 67.36571 76.11326 100.26414
#
# Poissons Ratio (x) = -0.11696 0.25275
# Poissons Ratio (y) = -0.10352 0.23876
# Poissons Ratio (z) = 0.16982 0.18125
#
# Static dielectric constant tensor:
#      x y z
#    x 4.262870 0.022040 0.281890 
#    y 0.022040 3.915730 -0.027390 
#    z 0.281890 -0.027390 3.825030 
# 
# 
# High freq. dielectric constant tensor:
#      x y z
#    x 1.842090 -0.000620 0.003110 
#    y -0.000620 1.844170 -0.001640 
#    z 0.003110 -0.001640 1.837770 
# 
# From -- ./inp_files/244719.got.cif
#   From: 2010.06.25/outbox.cif.g09.slc.cpg/sg2_123_cif.got.tgz:244719.got - 2010.06.27 13:26:56.
