data_PCOD8018929
_publ_section_title
;
Structure prediction by ZEFSAII (Michael W. Deem and Ramdas Pophale) SiO2 
 PCOD8018929
Probable space group: P -1
;
_chemical_formula_sum "Si O2"
_cell_formula_units_Z 12
_cell_length_a 8.970566
_cell_length_b 9.154048
_cell_length_c 15.584965
_cell_angle_alpha 104.372399
_cell_angle_beta 110.189322
_cell_angle_gamma 134.542303
_cell_volume 582.385429
_symmetry_space_group_name_H-M "P -1"
_symmetry_group_IT_number 2
_symmetry_cell_setting 'triclinic'
loop_
_space_group_symop_operation_xyz
x,y,z
-x,-y,-z
loop_
_atom_site_type_symbol
_atom_site_label
_atom_site_fract_x
_atom_site_fract_y
_atom_site_fract_z
Si Si1 0.105145 0.252901 0.828666
Si Si2 0.438805 0.681610 0.298703
Si Si3 0.422865 0.392786 0.374740
Si Si4 0.252030 0.323518 0.055539
Si Si5 0.827490 0.272001 0.657886
Si Si6 0.048549 0.387924 0.543426
O O1 0.438719 0.521557 0.884258
O O2 0.871441 0.179780 0.725231
O O3 0.136968 0.314853 0.945303
O O4 0.946644 0.956417 0.751704
O O5 0.510060 0.602070 0.362834
O O6 0.330006 0.525806 0.163647
O O7 0.158315 0.555893 0.264702
O O8 0.763460 0.042018 0.409737
O O9 0.500000 0.500000 0.500000
O O10 0.619638 0.409788 0.387087
O O11 0.000000 0.000000 0.000000
O O12 0.086934 0.459386 0.662674
O O13 0.500000 0.000000 0.500000
O O14 0.000000 0.500000 0.500000
#
# Coordination Sequence:
#
# PCOD8018929 Si02
#       6
#     2   2   2   2   2   2
#     4  11  24  43  69  95 136 176 220 278 331 390
#     4  11  22  40  64  94 134 172 227 269 326 406
#     4  12  21  36  66  98 130 174 222 274 339 395
#     4  11  24  46  69  95 133 181 231 270 319 394
#     4  10  22  41  62  97 134 167 214 276 339 395
#     4  11  22  39  63  97 139 173 213 282 342 392
#
# _framework density 20.604911000000001
#
# number of rings (size 3 to 8) (size 9 to 14) (size 15 to 20)
#    0.000    1.000    1.667    7.500    0.000    0.667 
#    0.000    0.833    0.000    0.000    0.000    0.000 
#    0.000    0.000    0.000    0.000    0.000    0.000 
#
# Total GULP energy -148752.090058 kJ/mol
# GULP energy per Si atom -12396.007505 kJ/mol
# Density = 2.055801 g / cm^3
# Si number density = 20.604911 Si / 1000 Ang^3
#
#
#
# Elastic Constant Matrix: (Units=GPa)
#
#
# Indices 1 2 3 4 5 6 
#
# 1 125.4951 65.0883 48.9083 -17.4877 -10.1053 6.0451
# 2 65.0883 145.3222 67.1959 -10.3477 -2.1227 -6.8026
# 3 48.9083 67.1959 120.0379 -21.2178 -16.3406 0.7771
# 4 -17.4877 -10.3477 -21.2178 52.2692 3.9979 -0.8579
# 5 -10.1053 -2.1227 -16.3406 3.9979 42.3516 -10.0662
# 6 6.0451 -6.8026 0.7771 -0.8579 -10.0662 47.6285
#
#
#
# Elastic Compliance Matrix: (Units=1/GPa)
#
#
# Indices 1 2 3 4 5 6 
#
# 1 0.011273 -0.004171 -0.001705 0.002133 0.001217 -0.001703
# 2 -0.004171 0.010997 -0.004899 -0.001039 -0.001813 0.001778
# 3 -0.001705 -0.004899 0.012920 0.003397 0.004066 0.000226
# 4 0.002133 -0.001039 0.003397 0.021036 -0.000254 -0.000149
# 5 0.001217 -0.001813 0.004066 -0.000254 0.026626 0.005143
# 6 -0.001703 0.001778 0.000226 -0.000149 0.005143 0.022547
#
#
# Mechanical properties :
#
#
# Convention : Reuss Voigt Hill
#
# Bulk Modulus (GPa) = 73.30384 83.69335 78.49859
# Shear Modulus (GPa) = 38.02411 42.42738 40.22575
#
# Velocity S-wave (km/s) = 4.30046 4.54264 4.42321
# Velocity P-wave (km/s) = 7.76606 8.25957 8.01662
#
# Compressibility (1/GPa) = 0.01364185
#
# Stress axis : x y z
#
# Youngs Moduli (GPa) = 88.70465 90.93087 77.39939
#
# Poissons Ratio (x) = 0.37928 0.13193
# Poissons Ratio (y) = 0.37000 0.37916
# Poissons Ratio (z) = 0.15120 0.44545
#
# Static dielectric constant tensor:
#      x y z
#    x 3.989970 -0.030240 -0.348670 
#    y -0.030240 2.875330 -0.753990 
#    z -0.348670 -0.753990 3.450150 
# 
# 
# High freq. dielectric constant tensor:
#      x y z
#    x 1.810170 0.009520 -0.005000 
#    y 0.009520 1.822990 -0.012830 
#    z -0.005000 -0.012830 1.801260 
# 
# From -- ./inp_files/23751.got.cif
#   From: 2010.06.25/outbox.cif.g09.slc.cpg/sg2_12_cif.got.tgz:23751.got - 2010.06.27 13:26:56.
