data_PCOD8018018
_publ_section_title
;
Structure prediction by ZEFSAII (Michael W. Deem and Ramdas Pophale) SiO2 
 PCOD8018018
Probable space group: P -1
;
_chemical_formula_sum "Si O2"
_cell_formula_units_Z 16
_cell_length_a 8.754570
_cell_length_b 21.694819
_cell_length_c 12.605355
_cell_angle_alpha 29.150290
_cell_angle_beta 40.597247
_cell_angle_gamma 47.324173
_cell_volume 758.059642
_symmetry_space_group_name_H-M "P -1"
_symmetry_group_IT_number 2
_symmetry_cell_setting 'triclinic'
loop_
_space_group_symop_operation_xyz
x,y,z
-x,-y,-z
loop_
_atom_site_type_symbol
_atom_site_label
_atom_site_fract_x
_atom_site_fract_y
_atom_site_fract_z
Si Si1 0.747747 0.240753 0.969977
Si Si2 0.753003 0.995609 0.195911
Si Si3 0.381549 0.265901 0.303365
Si Si4 0.413210 0.753993 0.543900
Si Si5 0.212244 0.260643 0.813775
Si Si6 0.764686 0.487890 0.082615
Si Si7 0.264329 0.013157 0.293140
Si Si8 0.381587 0.508545 0.435423
O O1 0.762210 0.355336 0.704032
O O2 0.947965 0.245443 0.944052
O O3 0.753966 0.103500 0.120850
O O4 0.515966 0.258842 0.132592
O O5 0.496206 0.008057 0.254985
O O6 0.782904 0.853222 0.439679
O O7 0.000000 0.000000 0.000000
O O8 0.530408 0.260540 0.340081
O O9 0.245570 0.403052 0.166161
O O10 0.641224 0.736263 0.376818
O O11 0.230101 0.648085 0.772926
O O12 0.293556 0.893533 0.377800
O O13 0.218049 0.389363 0.686305
O O14 0.292314 0.143186 0.021369
O O15 0.561766 0.497320 0.261553
O O16 0.000000 0.500000 0.000000
O O17 0.000000 0.000000 0.500000
O O18 0.500000 0.500000 0.500000
#
# Coordination Sequence:
#
# PCOD8018018 Si02
#       8
#     2   2   2   2   2   2   2   2
#     4  11  22  39  63  92 123 161 206 256 310 371
#     4  11  24  42  64  93 125 165 208 256 312 369
#     4  10  22  40  60  87 121 160 201 248 304 365
#     4  10  22  40  60  87 121 160 201 248 304 365
#     4  11  22  39  63  92 123 161 206 256 310 371
#     4  10  23  38  60  88 116 154 201 250 304 362
#     4  11  24  42  64  93 125 165 208 256 312 369
#     4  10  23  40  60  88 122 158 203 254 310 370
#
# _framework density 21.106518000000001
#
# number of rings (size 3 to 8) (size 9 to 14) (size 15 to 20)
#    0.000    1.500    0.000    5.250    0.000    9.000 
#    0.000    0.000    0.000    0.000    0.000    0.000 
#    0.000    0.000    0.000    0.000    0.000    0.000 
#
# Total GULP energy -198228.551479 kJ/mol
# GULP energy per Si atom -12389.284467 kJ/mol
# Density = 2.105848 g / cm^3
# Si number density = 21.106518 Si / 1000 Ang^3
#
#
#
# Elastic Constant Matrix: (Units=GPa)
#
#
# Indices 1 2 3 4 5 6 
#
# 1 101.0503 21.1959 51.4493 -14.0609 -18.9983 11.0406
# 2 21.1959 64.7543 42.5487 -18.8313 -19.4767 21.2854
# 3 51.4493 42.5487 137.1555 -37.9438 -9.5650 8.7258
# 4 -14.0609 -18.8313 -37.9438 44.9413 7.1120 -12.5311
# 5 -18.9983 -19.4767 -9.5650 7.1120 39.9574 0.2676
# 6 11.0406 21.2854 8.7258 -12.5311 0.2676 36.7382
#
#
#
# Elastic Compliance Matrix: (Units=1/GPa)
#
#
# Indices 1 2 3 4 5 6 
#
# 1 0.013805 0.002194 -0.005612 -0.001886 0.006657 -0.004778
# 2 0.002194 0.029175 -0.008045 -0.000456 0.013526 -0.015906
# 3 -0.005612 -0.008045 0.013607 0.008867 -0.004952 0.006176
# 4 -0.001886 -0.000456 0.008867 0.032464 -0.004841 0.009834
# 5 0.006657 0.013526 -0.004952 -0.004841 0.034532 -0.010564
# 6 -0.004778 -0.015906 0.006176 0.009834 -0.010564 0.039836
#
#
# Mechanical properties :
#
#
# Convention : Reuss Voigt Hill
#
# Bulk Modulus (GPa) = 29.70922 59.26085 44.48503
# Shear Modulus (GPa) = 25.30815 36.84516 31.07665
#
# Velocity S-wave (km/s) = 3.46651 4.18266 3.84131
# Velocity P-wave (km/s) = 5.48896 7.17386 6.38721
#
# Compressibility (1/GPa) = 0.03365959
#
# Stress axis : x y z
#
# Youngs Moduli (GPa) = 72.43919 34.27587 73.49320
#
# Poissons Ratio (x) = -0.07519 0.41247
# Poissons Ratio (y) = -0.15891 0.59123
# Poissons Ratio (z) = 0.40656 0.27574
#
# Static dielectric constant tensor:
#      x y z
#    x 3.040980 1.275730 -0.750880 
#    y 1.275730 1.684350 0.904770 
#    z -0.750880 0.904770 3.548190 
# 
# 
# High freq. dielectric constant tensor:
#      x y z
#    x 1.821810 0.003390 -0.003300 
#    y 0.003390 1.835460 -0.019590 
#    z -0.003300 -0.019590 1.849510 
# 
# From -- ./inp_files/346471.got.cif
#   From: 2010.06.25/outbox.cif.g09.slc.cpg/sg2_174_cif.got.tgz:346471.got - 2010.06.27 13:26:56.
