data_PCOD8018147
_publ_section_title
;
Structure prediction by ZEFSAII (Michael W. Deem and Ramdas Pophale) SiO2 
 PCOD8018147
Probable space group: P -1
;
_chemical_formula_sum "Si O2"
_cell_formula_units_Z 14
_cell_length_a 10.498659
_cell_length_b 9.807943
_cell_length_c 13.017419
_cell_angle_alpha 52.080792
_cell_angle_beta 119.312507
_cell_angle_gamma 138.749805
_cell_volume 696.229277
_symmetry_space_group_name_H-M "P -1"
_symmetry_group_IT_number 2
_symmetry_cell_setting 'triclinic'
loop_
_space_group_symop_operation_xyz
x,y,z
-x,-y,-z
loop_
_atom_site_type_symbol
_atom_site_label
_atom_site_fract_x
_atom_site_fract_y
_atom_site_fract_z
Si Si1 0.847376 0.409883 0.714279
Si Si2 0.554389 0.726327 0.376224
Si Si3 0.857508 0.125618 0.685326
Si Si4 0.884630 0.937634 0.267424
Si Si5 0.125286 0.911025 0.513145
Si Si6 0.703813 0.754536 0.953721
Si Si7 0.934004 0.172772 0.990279
O O1 0.627086 0.291097 0.701784
O O2 0.873041 0.312731 0.668094
O O3 0.912204 0.356661 0.866446
O O4 0.974859 0.677355 0.624289
O O5 0.500000 0.500000 0.500000
O O6 0.661353 0.781179 0.283857
O O7 0.691680 0.923221 0.420924
O O8 0.069147 0.191279 0.729952
O O9 0.794057 0.117593 0.546638
O O10 0.709217 0.875244 0.796105
O O11 0.940128 0.154131 0.125301
O O12 0.015796 0.006985 0.391140
O O13 0.867343 0.734380 0.026174
O O14 0.500000 0.500000 0.000000
O O15 0.750871 0.920602 0.990133
#
# Coordination Sequence:
#
# PCOD8018147 Si02
#       7
#     2   2   2   2   2   2   2
#     4  11  22  38  62  91 121 152 191 249 301 339
#     4  12  24  39  62  86 116 160 206 239 287 358
#     4   8  19  37  60  89 117 148 194 239 298 342
#     4   9  20  41  62  82 117 161 194 236 294 347
#     4  10  22  40  63  81 120 157 197 241 294 350
#     4   9  17  34  60  86 119 158 191 231 296 354
#     4   9  20  38  56  87 124 147 192 249 288 347
#
# _framework density 20.108319999999999
#
# number of rings (size 3 to 8) (size 9 to 14) (size 15 to 20)
#    0.857    1.429    1.429    1.714    0.000    4.571 
#    0.000    0.714    0.000    0.000    0.000    0.000 
#    0.000    0.000    0.000    0.000    0.000    0.000 
#
# Total GULP energy -173444.937088 kJ/mol
# GULP energy per Si atom -12388.924078 kJ/mol
# Density = 2.006255 g / cm^3
# Si number density = 20.108320 Si / 1000 Ang^3
#
#
#
# Elastic Constant Matrix: (Units=GPa)
#
#
# Indices 1 2 3 4 5 6 
#
# 1 98.4381 27.7984 41.6591 -4.1479 -0.6664 15.6166
# 2 27.7984 100.8323 48.3709 -13.9208 0.1458 13.8012
# 3 41.6591 48.3709 164.5193 -4.6005 -0.6729 11.8681
# 4 -4.1479 -13.9208 -4.6005 14.4355 8.6030 3.1754
# 5 -0.6664 0.1458 -0.6729 8.6030 27.5797 -0.7905
# 6 15.6166 13.8012 11.8681 3.1754 -0.7905 18.3965
#
#
#
# Elastic Compliance Matrix: (Units=1/GPa)
#
#
# Indices 1 2 3 4 5 6 
#
# 1 0.013156 -0.000123 -0.002344 0.006528 -0.002084 -0.010781
# 2 -0.000123 0.016639 -0.003204 0.022780 -0.007693 -0.014574
# 3 -0.002344 -0.003204 0.007581 -0.001711 0.000674 -0.000173
# 4 0.006528 0.022780 -0.001711 0.126871 -0.040875 -0.045183
# 5 -0.002084 -0.007693 0.000674 -0.040875 0.049482 0.016287
# 6 -0.010781 -0.014574 -0.000173 -0.045183 0.016287 0.083054
#
#
# Mechanical properties :
#
#
# Convention : Reuss Voigt Hill
#
# Bulk Modulus (GPa) = 38.40893 66.60518 52.50705
# Shear Modulus (GPa) = 15.78265 28.47977 22.13121
#
# Velocity S-wave (km/s) = 2.80461 3.76748 3.32113
# Velocity P-wave (km/s) = 5.44337 7.21944 6.39338
#
# Compressibility (1/GPa) = 0.02603561
#
# Stress axis : x y z
#
# Youngs Moduli (GPa) = 76.00836 60.09848 131.90450
#
# Poissons Ratio (x) = 0.00739 0.30913
# Poissons Ratio (y) = 0.00935 0.42264
# Poissons Ratio (z) = 0.17813 0.19257
#
# Static dielectric constant tensor:
#      x y z
#    x 3.689380 0.158070 -0.133990 
#    y 0.158070 3.363450 0.072020 
#    z -0.133990 0.072020 3.920740 
# 
# 
# High freq. dielectric constant tensor:
#      x y z
#    x 1.782000 0.007190 -0.009160 
#    y 0.007190 1.746280 -0.001050 
#    z -0.009160 -0.001050 1.800040 
# 
# From -- ./inp_files/518674.got.cif
#   From: 2010.06.25/outbox.cif.g09.slc.cpg/sg2_260_cif.got.tgz:518674.got - 2010.06.27 13:26:56.
