data_PCOD8018158
_publ_section_title
;
Structure prediction by ZEFSAII (Michael W. Deem and Ramdas Pophale) SiO2 
 PCOD8018158
Probable space group: P -1
;
_chemical_formula_sum "Si O2"
_cell_formula_units_Z 14
_cell_length_a 11.999724
_cell_length_b 13.390590
_cell_length_c 18.970048
_cell_angle_alpha 143.739762
_cell_angle_beta 153.124237
_cell_angle_gamma 28.816333
_cell_volume 659.857978
_symmetry_space_group_name_H-M "P -1"
_symmetry_group_IT_number 2
_symmetry_cell_setting 'triclinic'
loop_
_space_group_symop_operation_xyz
x,y,z
-x,-y,-z
loop_
_atom_site_type_symbol
_atom_site_label
_atom_site_fract_x
_atom_site_fract_y
_atom_site_fract_z
Si Si1 0.635041 0.113078 0.172461
Si Si2 0.641448 0.165598 0.899093
Si Si3 0.770585 0.265322 0.652332
Si Si4 0.298309 0.232373 0.293857
Si Si5 0.522865 0.520845 0.794928
Si Si6 0.281529 0.542449 0.811577
Si Si7 0.102208 0.426202 0.145823
O O1 0.640214 0.241686 0.184263
O O2 0.433101 0.254110 0.203984
O O3 0.973996 0.965820 0.309268
O O4 0.500000 0.000000 0.000000
O O5 0.482714 0.306388 0.820270
O O6 0.532736 0.016633 0.766896
O O7 0.569279 0.331911 0.014551
O O8 0.000000 0.000000 0.000000
O O9 0.560700 0.261625 0.473414
O O10 0.564855 0.391303 0.675670
O O11 0.942051 0.355203 0.764276
O O12 0.096343 0.373040 0.193639
O O13 0.064717 0.320982 0.278463
O O14 0.300927 0.517424 0.723716
O O15 0.852667 0.423380 0.959729
#
# Coordination Sequence:
#
# PCOD8018158 Si02
#       7
#     2   2   2   2   2   2   2
#     4  11  21  39  64  90 120 161 209 256 304 357
#     4   9  19  37  58  89 120 161 208 245 299 361
#     4  11  24  42  60  95 130 161 205 258 313 367
#     4  11  25  40  63  94 131 161 204 256 313 374
#     4  11  22  39  67  92 120 165 212 251 304 372
#     4  10  22  40  63  89 126 165 205 256 304 367
#     4  11  22  39  65  93 121 163 211 256 306 366
#
# _framework density 21.216685999999999
#
# number of rings (size 3 to 8) (size 9 to 14) (size 15 to 20)
#    0.000    1.429    2.857    3.857    2.000    6.857 
#    0.000    1.429    0.000    0.000    0.000    0.000 
#    0.000    0.000    0.000    0.000    0.000    0.000 
#
# Total GULP energy -173580.677963 kJ/mol
# GULP energy per Si atom -12398.619854 kJ/mol
# Density = 2.116840 g / cm^3
# Si number density = 21.216686 Si / 1000 Ang^3
#
#
#
# Elastic Constant Matrix: (Units=GPa)
#
#
# Indices 1 2 3 4 5 6 
#
# 1 84.8732 21.0567 -9.3152 2.0114 -6.2360 17.5050
# 2 21.0567 118.7107 15.3667 -10.8107 -7.3991 14.7965
# 3 -9.3152 15.3667 80.1396 1.5284 -5.6411 9.5804
# 4 2.0114 -10.8107 1.5284 25.1030 0.5265 -1.1864
# 5 -6.2360 -7.3991 -5.6411 0.5265 20.2179 -5.4035
# 6 17.5050 14.7965 9.5804 -1.1864 -5.4035 24.9156
#
#
#
# Elastic Compliance Matrix: (Units=1/GPa)
#
#
# Indices 1 2 3 4 5 6 
#
# 1 0.015040 -0.001947 0.003579 -0.002801 0.002207 -0.010441
# 2 -0.001947 0.009893 -0.001701 0.004331 0.001548 -0.003311
# 3 0.003579 -0.001701 0.014234 -0.002251 0.002779 -0.006482
# 4 -0.002801 0.004331 -0.002251 0.042174 -0.000423 0.002178
# 5 0.002207 0.001548 0.002779 -0.000423 0.053653 0.008077
# 6 -0.010441 -0.003311 -0.006482 0.002178 0.008077 0.053785
#
#
# Mechanical properties :
#
#
# Convention : Reuss Voigt Hill
#
# Bulk Modulus (GPa) = 25.62292 37.54886 31.58589
# Shear Modulus (GPa) = 24.76124 31.15499 27.95812
#
# Velocity S-wave (km/s) = 3.41994 3.83615 3.63401
# Velocity P-wave (km/s) = 5.26285 6.11209 5.70330
#
# Compressibility (1/GPa) = 0.03902756
#
# Stress axis : x y z
#
# Youngs Moduli (GPa) = 66.48871 101.08129 70.25546
#
# Poissons Ratio (x) = 0.19682 -0.25141
# Poissons Ratio (y) = 0.12946 0.11951
# Poissons Ratio (z) = -0.23794 0.17195
#
# Static dielectric constant tensor:
#      x y z
#    x 3.728310 0.103000 -0.034150 
#    y 0.103000 4.451790 0.203440 
#    z -0.034150 0.203440 3.658350 
# 
# 
# High freq. dielectric constant tensor:
#      x y z
#    x 1.825930 0.003780 -0.003600 
#    y 0.003780 1.847650 -0.001700 
#    z -0.003600 -0.001700 1.810340 
# 
# From -- ./inp_files/36907.got.cif
#   From: 2010.06.25/outbox.cif.g09.slc.cpg/sg2_19_cif.got.tgz:36907.got - 2010.06.27 13:26:56.
