data_PCOD8018327
_publ_section_title
;
Structure prediction by ZEFSAII (Michael W. Deem and Ramdas Pophale) SiO2 
 PCOD8018327
Probable space group: P -1
;
_chemical_formula_sum "Si O2"
_cell_formula_units_Z 16
_cell_length_a 18.501255
_cell_length_b 9.040851
_cell_length_c 5.017384
_cell_angle_alpha 117.134921
_cell_angle_beta 61.100519
_cell_angle_gamma 111.156762
_cell_volume 643.142495
_symmetry_space_group_name_H-M "P -1"
_symmetry_group_IT_number 2
_symmetry_cell_setting 'triclinic'
loop_
_space_group_symop_operation_xyz
x,y,z
-x,-y,-z
loop_
_atom_site_type_symbol
_atom_site_label
_atom_site_fract_x
_atom_site_fract_y
_atom_site_fract_z
Si Si1 0.084098 0.942361 0.388725
Si Si2 0.609062 0.384749 0.105722
Si Si3 0.232999 0.998747 0.824868
Si Si4 0.034113 0.352453 0.456255
Si Si5 0.666915 0.053265 0.883085
Si Si6 0.285061 0.362057 0.183623
Si Si7 0.572308 0.692278 0.779878
Si Si8 0.136005 0.300944 0.743843
O O1 0.051976 0.786160 0.511873
O O2 0.139069 0.100758 0.571799
O O3 0.139933 0.902865 0.003740
O O4 0.000000 0.000000 0.500000
O O5 0.594103 0.539084 0.441676
O O6 0.527625 0.332333 0.015428
O O7 0.621477 0.215822 0.098602
O O8 0.695208 0.457582 0.852455
O O9 0.254182 0.921826 0.441603
O O10 0.300647 0.960513 0.888409
O O11 0.235765 0.203255 0.969410
O O12 0.069925 0.365620 0.706898
O O13 0.000000 0.500000 0.500000
O O14 0.112299 0.328332 0.112329
O O15 0.604460 0.881397 0.759258
O O16 0.377093 0.317947 0.045605
O O17 0.230246 0.390847 0.568449
#
# Coordination Sequence:
#
# PCOD8018327 Si02
#       8
#     2   2   2   2   2   2   2   2
#     4   9  21  40  66  89 124 166 213 250 315 376
#     4  11  23  40  68  94 126 175 213 267 324 382
#     4  10  23  42  64  94 129 170 210 270 315 386
#     4  11  23  39  60  91 128 158 207 262 310 366
#     4  11  24  43  65  95 135 166 216 263 325 376
#     4  10  22  40  65  88 130 164 218 262 320 376
#     4  10  23  43  63  95 130 168 219 265 320 386
#     4  10  23  39  65  88 119 170 206 250 315 378
#
# _framework density 24.877846999999999
#
# number of rings (size 3 to 8) (size 9 to 14) (size 15 to 20)
#    0.000    1.750    1.250    1.500    3.500   10.000 
#    0.000    1.875    0.000    0.000    0.000    0.000 
#    0.000    0.000    0.000    0.000    0.000    0.000 
#
# Total GULP energy -198226.239349 kJ/mol
# GULP energy per Si atom -12389.139959 kJ/mol
# Density = 2.482122 g / cm^3
# Si number density = 24.877847 Si / 1000 Ang^3
#
#
#
# Elastic Constant Matrix: (Units=GPa)
#
#
# Indices 1 2 3 4 5 6 
#
# 1 59.2014 29.0426 -11.5267 3.5237 -13.0027 -2.2777
# 2 29.0426 168.8582 35.3438 -0.6565 -21.8569 -13.8456
# 3 -11.5267 35.3438 54.3381 -18.5261 -5.4164 9.3096
# 4 3.5237 -0.6565 -18.5261 33.2108 2.7153 -11.3987
# 5 -13.0027 -21.8569 -5.4164 2.7153 34.4590 -6.3769
# 6 -2.2777 -13.8456 9.3096 -11.3987 -6.3769 30.8183
#
#
#
# Elastic Compliance Matrix: (Units=1/GPa)
#
#
# Indices 1 2 3 4 5 6 
#
# 1 0.022555 -0.005229 0.009723 0.001853 0.006273 -0.001636
# 2 -0.005229 0.009805 -0.009006 -0.002300 0.004264 0.006771
# 3 0.009723 -0.009006 0.032564 0.014240 0.000511 -0.007792
# 4 0.001853 -0.002300 0.014240 0.041265 0.000093 0.010084
# 5 0.006273 0.004264 0.000511 0.000093 0.035960 0.009700
# 6 -0.001636 0.006771 -0.007792 0.010084 0.009700 0.043460
#
#
# Mechanical properties :
#
#
# Convention : Reuss Voigt Hill
#
# Bulk Modulus (GPa) = 17.88900 43.12412 30.50656
# Shear Modulus (GPa) = 23.44483 35.00014 29.22249
#
# Velocity S-wave (km/s) = 3.07318 3.75491 3.43102
# Velocity P-wave (km/s) = 4.44960 6.01424 5.29009
#
# Compressibility (1/GPa) = 0.05590026
#
# Stress axis : x y z
#
# Youngs Moduli (GPa) = 44.33668 101.99118 30.70833
#
# Poissons Ratio (x) = 0.53336 -0.29859
# Poissons Ratio (y) = 0.23186 0.27655
# Poissons Ratio (z) = -0.43110 0.91851
#
# Static dielectric constant tensor:
#      x y z
#    x 4.635240 0.455750 -0.333740 
#    y 0.455750 5.376460 -0.267240 
#    z -0.333740 -0.267240 4.390210 
# 
# 
# High freq. dielectric constant tensor:
#      x y z
#    x 1.992810 -0.001500 -0.013950 
#    y -0.001500 1.998590 -0.019980 
#    z -0.013950 -0.019980 1.966370 
# 
# From -- ./inp_files/89808.got.cif
#   From: 2010.06.25/outbox.cif.g09.slc.cpg/sg2_45_cif.got.tgz:89808.got - 2010.06.27 13:26:56.
