data_PCOD8018548
_publ_section_title
;
Structure prediction by ZEFSAII (Michael W. Deem and Ramdas Pophale) SiO2 
 PCOD8018548
Probable space group: P -1
;
_chemical_formula_sum "Si O2"
_cell_formula_units_Z 14
_cell_length_a 10.815118
_cell_length_b 9.607025
_cell_length_c 17.374885
_cell_angle_alpha 31.858657
_cell_angle_beta 137.635617
_cell_angle_gamma 127.873092
_cell_volume 641.610323
_symmetry_space_group_name_H-M "P -1"
_symmetry_group_IT_number 2
_symmetry_cell_setting 'triclinic'
loop_
_space_group_symop_operation_xyz
x,y,z
-x,-y,-z
loop_
_atom_site_type_symbol
_atom_site_label
_atom_site_fract_x
_atom_site_fract_y
_atom_site_fract_z
Si Si1 0.131805 0.089434 0.637181
Si Si2 0.902831 0.128611 0.106036
Si Si3 0.546834 0.008902 0.410634
Si Si4 0.341321 0.547768 0.466563
Si Si5 0.040495 0.210547 0.856561
Si Si6 0.727494 0.672641 0.769070
Si Si7 0.799580 0.282639 0.293902
O O1 0.307617 0.278310 0.624645
O O2 0.945054 0.233574 0.453513
O O3 0.123594 0.006951 0.760541
O O4 0.155370 0.832858 0.714722
O O5 0.100425 0.257720 0.131969
O O6 0.743965 0.357134 0.909446
O O7 0.899928 0.910810 0.140817
O O8 0.462881 0.243796 0.315103
O O9 0.611451 0.152827 0.295412
O O10 0.391923 0.794872 0.426484
O O11 0.720726 0.843967 0.606385
O O12 0.500000 0.500000 0.500000
O O13 0.145911 0.611885 0.308620
O O14 0.207539 0.399103 0.868937
O O15 0.000000 0.000000 0.000000
#
# Coordination Sequence:
#
# PCOD8018548 Si02
#       7
#     2   2   2   2   2   2   2
#     4  10  22  40  67  96 128 174 218 259 322 390
#     4  11  23  43  64  97 129 176 214 269 319 392
#     4  11  21  44  64 101 123 168 214 274 320 385
#     4  11  23  41  68  95 130 168 215 269 322 378
#     4  11  27  44  66  95 132 176 217 263 325 389
#     4  10  24  38  69  92 133 166 217 266 330 376
#     4  10  22  40  67  93 131 171 217 262 320 389
#
# _framework density 21.820098000000002
#
# number of rings (size 3 to 8) (size 9 to 14) (size 15 to 20)
#    0.000    1.429    4.286    0.000    6.000    4.571 
#    2.571    2.857    0.000    0.000    0.000    0.000 
#    0.000    0.000    0.000    0.000    0.000    0.000 
#
# Total GULP energy -173512.090392 kJ/mol
# GULP energy per Si atom -12393.720742 kJ/mol
# Density = 2.177043 g / cm^3
# Si number density = 21.820098 Si / 1000 Ang^3
#
#
#
# Elastic Constant Matrix: (Units=GPa)
#
#
# Indices 1 2 3 4 5 6 
#
# 1 126.6810 42.2486 54.7908 -18.6980 -20.9955 -15.4587
# 2 42.2486 103.6251 31.1415 -30.6685 -15.0408 4.0317
# 3 54.7908 31.1415 99.2880 -20.2548 -6.2863 -6.0928
# 4 -18.6980 -30.6685 -20.2548 32.6743 2.2743 -2.9764
# 5 -20.9955 -15.0408 -6.2863 2.2743 39.8118 -2.3226
# 6 -15.4587 4.0317 -6.0928 -2.9764 -2.3226 33.1004
#
#
#
# Elastic Compliance Matrix: (Units=1/GPa)
#
#
# Indices 1 2 3 4 5 6 
#
# 1 0.012881 -0.002602 -0.005217 0.001869 0.005224 0.005907
# 2 -0.002602 0.014961 -0.000780 0.011663 0.003380 -0.001895
# 3 -0.005217 -0.000780 0.014240 0.005245 -0.001058 0.000677
# 4 0.001869 0.011663 0.005245 0.046043 0.003871 0.004830
# 5 0.005224 0.003380 -0.001058 0.003871 0.029008 0.004217
# 6 0.005907 -0.001895 0.000677 0.004830 0.004217 0.034055
#
#
# Mechanical properties :
#
#
# Convention : Reuss Voigt Hill
#
# Bulk Modulus (GPa) = 40.18751 65.10621 52.64686
# Shear Modulus (GPa) = 28.29958 34.54486 31.42222
#
# Velocity S-wave (km/s) = 3.60523 3.98322 3.79893
# Velocity P-wave (km/s) = 5.98229 7.14543 6.58958
#
# Compressibility (1/GPa) = 0.02488335
#
# Stress axis : x y z
#
# Youngs Moduli (GPa) = 77.63603 66.83890 70.22460
#
# Poissons Ratio (x) = 0.17392 0.36639
# Poissons Ratio (y) = 0.20201 0.05476
# Poissons Ratio (z) = 0.40506 0.05212
#
# Static dielectric constant tensor:
#      x y z
#    x 3.894110 0.198110 -0.110360 
#    y 0.198110 4.302640 -0.471000 
#    z -0.110360 -0.471000 4.126540 
# 
# 
# High freq. dielectric constant tensor:
#      x y z
#    x 1.859690 0.000440 -0.005140 
#    y 0.000440 1.855350 -0.020850 
#    z -0.005140 -0.020850 1.847430 
# 
# From -- ./inp_files/185300.got.cif
#   From: 2010.06.25/outbox.cif.g09.slc.cpg/sg2_93_cif.got.tgz:185300.got - 2010.06.27 13:26:56.
