data_PCOD8018837
_publ_section_title
;
Structure prediction by ZEFSAII (Michael W. Deem and Ramdas Pophale) SiO2 
 PCOD8018837
Probable space group: P -1
;
_chemical_formula_sum "Si O2"
_cell_formula_units_Z 14
_cell_length_a 14.450880
_cell_length_b 18.623879
_cell_length_c 12.156731
_cell_angle_alpha 145.215168
_cell_angle_beta 141.127881
_cell_angle_gamma 20.163870
_cell_volume 642.924403
_symmetry_space_group_name_H-M "P -1"
_symmetry_group_IT_number 2
_symmetry_cell_setting 'triclinic'
loop_
_space_group_symop_operation_xyz
x,y,z
-x,-y,-z
loop_
_atom_site_type_symbol
_atom_site_label
_atom_site_fract_x
_atom_site_fract_y
_atom_site_fract_z
Si Si1 0.901613 0.644028 0.366883
Si Si2 0.471828 0.414013 0.127648
Si Si3 0.629361 0.779625 0.885803
Si Si4 0.287406 0.548288 0.712021
Si Si5 0.899147 0.399973 0.168880
Si Si6 0.683618 0.224272 0.495086
Si Si7 0.517259 0.111580 0.878773
O O1 0.097095 0.440030 0.201700
O O2 0.015297 0.692230 0.581758
O O3 0.869614 0.572154 0.350084
O O4 0.617653 0.866923 0.321757
O O5 0.696605 0.313237 0.125415
O O6 0.410332 0.564305 0.354009
O O7 0.578440 0.211785 0.027070
O O8 0.200236 0.586039 0.021524
O O9 0.427025 0.804672 0.723166
O O10 0.684467 0.752895 0.033598
O O11 0.500000 0.000000 0.000000
O O12 0.553046 0.290795 0.580158
O O13 0.286676 0.520680 0.805615
O O14 0.206534 0.148704 0.159217
O O15 0.000000 0.000000 0.500000
#
# Coordination Sequence:
#
# PCOD8018837 Si02
#       7
#     2   2   2   2   2   2   2
#     4  10  22  41  58  91 122 152 204 246 289 355
#     4   9  22  40  58  90 120 154 202 240 290 358
#     4  11  21  39  62  86 116 157 199 242 298 349
#     4   9  21  39  62  90 120 157 199 245 292 355
#     4  11  20  39  66  85 122 162 195 241 298 347
#     4   9  20  38  61  87 118 152 198 243 296 350
#     4  11  23  36  62  86 122 163 192 246 295 347
#
# _framework density 21.775499
#
# number of rings (size 3 to 8) (size 9 to 14) (size 15 to 20)
#    0.857    1.143    1.429    2.143    2.000    1.714 
#    0.000    2.857    0.000    0.000    0.000    0.000 
#    0.000    0.000    0.000    0.000    0.000    0.000 
#
# Total GULP energy -173450.881942 kJ/mol
# GULP energy per Si atom -12389.348710 kJ/mol
# Density = 2.172594 g / cm^3
# Si number density = 21.775499 Si / 1000 Ang^3
#
#
#
# Elastic Constant Matrix: (Units=GPa)
#
#
# Indices 1 2 3 4 5 6 
#
# 1 101.5512 7.4197 2.5955 -11.7939 4.1167 13.1116
# 2 7.4197 66.2950 17.5726 -18.3833 11.6335 15.4137
# 3 2.5955 17.5726 67.0042 -16.4783 20.1553 12.2995
# 4 -11.7939 -18.3833 -16.4783 18.5721 -8.0848 -3.2361
# 5 4.1167 11.6335 20.1553 -8.0848 39.5619 -3.1565
# 6 13.1116 15.4137 12.2995 -3.2361 -3.1565 29.9957
#
#
#
# Elastic Compliance Matrix: (Units=1/GPa)
#
#
# Indices 1 2 3 4 5 6 
#
# 1 0.011875 0.002931 0.003527 0.011398 -0.002135 -0.007138
# 2 0.002931 0.024754 0.003584 0.024868 -0.005394 -0.013356
# 3 0.003527 0.003584 0.024364 0.020659 -0.010590 -0.012260
# 4 0.011398 0.024868 0.020659 0.101606 0.000526 -0.015215
# 5 -0.002135 -0.005394 -0.010590 0.000526 0.033516 0.011631
# 6 -0.007138 -0.013356 -0.012260 -0.015215 0.011631 0.047931
#
#
# Mechanical properties :
#
#
# Convention : Reuss Voigt Hill
#
# Bulk Modulus (GPa) = 12.33387 32.22510 22.27948
# Shear Modulus (GPa) = 19.92141 31.44344 25.68242
#
# Velocity S-wave (km/s) = 3.02794 3.80410 3.43799
# Velocity P-wave (km/s) = 4.23095 5.84173 5.10033
#
# Compressibility (1/GPa) = 0.08107758
#
# Stress axis : x y z
#
# Youngs Moduli (GPa) = 84.21137 40.39827 41.04345
#
# Poissons Ratio (x) = -0.11841 -0.14476
# Poissons Ratio (y) = -0.24682 -0.14712
# Poissons Ratio (z) = -0.29700 -0.14481
#
# Static dielectric constant tensor:
#      x y z
#    x 4.310590 -0.098340 0.024000 
#    y -0.098340 3.477430 -0.133720 
#    z 0.024000 -0.133720 4.067430 
# 
# 
# High freq. dielectric constant tensor:
#      x y z
#    x 1.865770 -0.010720 0.009170 
#    y -0.010720 1.825540 -0.010440 
#    z 0.009170 -0.010440 1.858150 
# 
# From -- ./inp_files/27080.got.cif
#   From: 2010.06.25/outbox.cif.g09.slc.cpg/sg2_14_cif.got.tgz:27080.got - 2010.06.27 13:26:56.
