data_PCOD8018263
_publ_section_title
;
Structure prediction by ZEFSAII (Michael W. Deem and Ramdas Pophale) SiO2 
 PCOD8018263
Probable space group: P -1
;
_chemical_formula_sum "Si O2"
_cell_formula_units_Z 16
_cell_length_a 8.419142
_cell_length_b 6.016414
_cell_length_c 23.666759
_cell_angle_alpha 68.641617
_cell_angle_beta 51.277963
_cell_angle_gamma 50.112811
_cell_volume 716.285242
_symmetry_space_group_name_H-M "P -1"
_symmetry_group_IT_number 2
_symmetry_cell_setting 'triclinic'
loop_
_space_group_symop_operation_xyz
x,y,z
-x,-y,-z
loop_
_atom_site_type_symbol
_atom_site_label
_atom_site_fract_x
_atom_site_fract_y
_atom_site_fract_z
Si Si1 0.861433 0.093498 0.464155
Si Si2 0.184256 0.532502 0.723546
Si Si3 0.569496 0.474486 0.216462
Si Si4 0.006353 0.174818 0.837744
Si Si5 0.539653 0.178774 0.900354
Si Si6 0.348642 0.299724 0.592019
Si Si7 0.971790 0.145259 0.669856
Si Si8 0.693700 0.575623 0.958651
O O1 0.619871 0.085619 0.524822
O O2 0.796742 0.411965 0.439582
O O3 0.025659 0.884693 0.395616
O O4 0.000000 0.000000 0.500000
O O5 0.334069 0.464605 0.754137
O O6 0.027738 0.392956 0.773275
O O7 0.374278 0.383188 0.642608
O O8 0.996956 0.876661 0.722070
O O9 0.573142 0.669080 0.148332
O O10 0.291020 0.564438 0.281242
O O11 0.738599 0.141059 0.190662
O O12 0.777886 0.176264 0.864456
O O13 0.954434 0.297670 0.902765
O O14 0.625641 0.847810 0.909416
O O15 0.313300 0.350571 0.980457
O O16 0.202518 0.149345 0.638112
O O17 0.500000 0.500000 0.000000
#
# Coordination Sequence:
#
# PCOD8018263 Si02
#       8
#     2   2   2   2   2   2   2   2
#     4  10  22  40  64  93 124 160 207 257 308 365
#     4  11  24  41  61  89 125 162 206 255 310 368
#     4  12  24  37  62  94 122 160 209 256 306 371
#     4  11  23  41  63  90 126 163 205 256 310 370
#     4  10  22  43  65  90 124 163 208 256 311 369
#     4  10  22  41  63  89 123 164 206 255 309 365
#     4  11  24  42  64  91 127 166 205 254 312 369
#     4   9  20  41  66  89 123 165 204 256 313 368
#
# _framework density 22.337468000000001
#
# number of rings (size 3 to 8) (size 9 to 14) (size 15 to 20)
#    0.000    1.500    0.000    4.875    0.000    8.000 
#    0.000    8.750    0.000    0.000    0.000    0.000 
#    0.000    0.000    0.000    0.000    0.000    0.000 
#
# Total GULP energy -198387.116438 kJ/mol
# GULP energy per Si atom -12399.194777 kJ/mol
# Density = 2.228663 g / cm^3
# Si number density = 22.337468 Si / 1000 Ang^3
#
#
#
# Elastic Constant Matrix: (Units=GPa)
#
#
# Indices 1 2 3 4 5 6 
#
# 1 88.0536 59.9613 54.0330 -12.9252 14.4475 -4.1065
# 2 59.9613 136.6732 87.8853 0.9795 -3.1094 3.8392
# 3 54.0330 87.8853 147.6157 -0.3451 10.8707 -14.4792
# 4 -12.9252 0.9795 -0.3451 40.0980 4.4320 -6.9969
# 5 14.4475 -3.1094 10.8707 4.4320 46.6270 -12.2179
# 6 -4.1065 3.8392 -14.4792 -6.9969 -12.2179 27.9569
#
#
#
# Elastic Compliance Matrix: (Units=1/GPa)
#
#
# Indices 1 2 3 4 5 6 
#
# 1 0.020257 -0.007833 -0.002048 0.007789 -0.006513 0.002093
# 2 -0.007833 0.015936 -0.007578 -0.004582 0.003939 -0.006689
# 3 -0.002048 -0.007578 0.012820 0.001004 -0.001079 0.007159
# 4 0.007789 -0.004582 0.001004 0.029378 -0.003634 0.008057
# 5 -0.006513 0.003939 -0.001079 -0.003634 0.026593 0.008656
# 6 0.002093 -0.006689 0.007159 0.008057 0.008656 0.046502
#
#
# Mechanical properties :
#
#
# Convention : Reuss Voigt Hill
#
# Bulk Modulus (GPa) = 70.94572 86.23353 78.58963
# Shear Modulus (GPa) = 26.16410 34.30055 30.23233
#
# Velocity S-wave (km/s) = 3.42615 3.92288 3.68290
# Velocity P-wave (km/s) = 6.89066 7.69463 7.30371
#
# Compressibility (1/GPa) = 0.01409528
#
# Stress axis : x y z
#
# Youngs Moduli (GPa) = 49.36537 62.75037 78.00610
#
# Poissons Ratio (x) = 0.49152 0.15978
# Poissons Ratio (y) = 0.38667 0.59110
# Poissons Ratio (z) = 0.10111 0.47550
#
# Static dielectric constant tensor:
#      x y z
#    x 3.692230 0.200130 0.121910 
#    y 0.200130 4.099890 0.206900 
#    z 0.121910 0.206900 4.840060 
# 
# 
# High freq. dielectric constant tensor:
#      x y z
#    x 1.858040 0.014950 0.005780 
#    y 0.014950 1.874870 0.002930 
#    z 0.005780 0.002930 1.914440 
# 
# From -- ./inp_files/13742.got.cif
#   From: 2010.06.25/outbox.cif.g09.slc.cpg/sg2_7_cif.got.tgz:13742.got - 2010.06.27 13:26:56.
