data_PCOD8018637
_publ_section_title
;
Structure prediction by ZEFSAII (Michael W. Deem and Ramdas Pophale) SiO2 
 PCOD8018637
Probable space group: P -1
;
_chemical_formula_sum "Si O2"
_cell_formula_units_Z 16
_cell_length_a 18.572815
_cell_length_b 5.343121
_cell_length_c 10.762951
_cell_angle_alpha 115.543231
_cell_angle_beta 44.419082
_cell_angle_gamma 122.098117
_cell_volume 630.871069
_symmetry_space_group_name_H-M "P -1"
_symmetry_group_IT_number 2
_symmetry_cell_setting 'triclinic'
loop_
_space_group_symop_operation_xyz
x,y,z
-x,-y,-z
loop_
_atom_site_type_symbol
_atom_site_label
_atom_site_fract_x
_atom_site_fract_y
_atom_site_fract_z
Si Si1 0.013007 0.129419 0.222989
Si Si2 0.187477 0.861415 0.646585
Si Si3 0.627409 0.147571 0.948925
Si Si4 0.644671 0.742211 0.640646
Si Si5 0.212297 0.939196 0.903670
Si Si6 0.855000 0.742169 0.527866
Si Si7 0.145910 0.752464 0.208172
Si Si8 0.427196 0.280326 0.841595
O O1 0.036824 0.470152 0.311544
O O2 0.919170 0.039381 0.211663
O O3 0.130000 0.122855 0.030398
O O4 0.964820 0.900104 0.345502
O O5 0.163743 0.604964 0.515225
O O6 0.303277 0.120475 0.526368
O O7 0.200113 0.758961 0.750112
O O8 0.578293 0.955932 0.093726
O O9 0.599374 0.438367 0.016011
O O10 0.588115 0.946030 0.829580
O O11 0.759033 0.268082 0.823634
O O12 0.743687 0.736536 0.601063
O O13 0.552300 0.415587 0.662506
O O14 0.340325 0.140737 0.807905
O O15 0.174606 0.724810 0.022168
O O16 0.869972 0.929964 0.677943
#
# Coordination Sequence:
#
# PCOD8018637 Si02
#       8
#     2   2   2   2   2   2   2   2
#     4  11  22  42  66  93 128 173 229 280 340 398
#     4  11  26  43  63  93 136 180 222 274 341 406
#     4  10  22  40  70 105 136 172 225 282 347 396
#     4  10  24  40  67  95 136 174 218 278 339 406
#     4  11  25  42  65  95 132 178 227 277 336 407
#     4  10  24  42  64  99 130 171 222 280 344 403
#     4  10  22  40  68  97 133 170 220 287 338 403
#     4  11  23  43  70 104 133 179 225 286 336 404
#
# _framework density 25.361761999999999
#
# number of rings (size 3 to 8) (size 9 to 14) (size 15 to 20)
#    0.000    1.500    1.250    2.250    7.000    7.500 
#    0.000    0.625    0.000    0.000    0.000    0.000 
#    0.000    0.000    0.000    0.000    0.000    0.000 
#
# Total GULP energy -198238.533109 kJ/mol
# GULP energy per Si atom -12389.908319 kJ/mol
# Density = 2.530404 g / cm^3
# Si number density = 25.361762 Si / 1000 Ang^3
#
#
#
# Elastic Constant Matrix: (Units=GPa)
#
#
# Indices 1 2 3 4 5 6 
#
# 1 47.9519 10.2554 7.4157 -8.1644 12.7607 13.0456
# 2 10.2554 97.1773 24.0905 -29.5247 -7.9439 15.0097
# 3 7.4157 24.0905 48.3790 -16.9682 3.1957 18.4304
# 4 -8.1644 -29.5247 -16.9682 35.3257 2.1083 -10.3345
# 5 12.7607 -7.9439 3.1957 2.1083 24.5972 -4.6276
# 6 13.0456 15.0097 18.4304 -10.3345 -4.6276 36.5147
#
#
#
# Elastic Compliance Matrix: (Units=1/GPa)
#
#
# Indices 1 2 3 4 5 6 
#
# 1 0.030463 -0.002607 0.004611 0.004340 -0.020150 -0.013465
# 2 -0.002607 0.014968 -0.004218 0.009640 0.005982 0.000394
# 3 0.004611 -0.004218 0.031628 0.009099 -0.011419 -0.014749
# 4 0.004340 0.009640 0.009099 0.042374 -0.003685 0.001420
# 5 -0.020150 0.005982 -0.011419 -0.003685 0.058003 0.016811
# 6 -0.013465 0.000394 -0.014749 0.001420 0.016811 0.042012
#
#
# Mechanical properties :
#
#
# Convention : Reuss Voigt Hill
#
# Bulk Modulus (GPa) = 13.76795 30.78124 22.27460
# Shear Modulus (GPa) = 20.15432 29.40398 24.77915
#
# Velocity S-wave (km/s) = 2.82205 3.40866 3.12914
# Velocity P-wave (km/s) = 4.00738 5.25882 4.67516
#
# Compressibility (1/GPa) = 0.07263244
#
# Stress axis : x y z
#
# Youngs Moduli (GPa) = 32.82679 66.80799 31.61732
#
# Poissons Ratio (x) = 0.17415 -0.14580
# Poissons Ratio (y) = 0.08557 0.13337
# Poissons Ratio (z) = -0.15138 0.28181
#
# Static dielectric constant tensor:
#      x y z
#    x 4.565010 0.268810 -0.410420 
#    y 0.268810 4.656570 -0.193070 
#    z -0.410420 -0.193070 4.575160 
# 
# 
# High freq. dielectric constant tensor:
#      x y z
#    x 2.025780 0.012280 -0.027780 
#    y 0.012280 2.006140 -0.021430 
#    z -0.027780 -0.021430 1.989340 
# 
# From -- ./inp_files/78285.got.cif
#   From: 2010.06.25/outbox.cif.g09.slc.cpg/sg2_40_cif.got.tgz:78285.got - 2010.06.27 13:26:56.
