data_PCOD8018353
_publ_section_title
;
Structure prediction by ZEFSAII (Michael W. Deem and Ramdas Pophale) SiO2 
 PCOD8018353
Probable space group: P -1
;
_chemical_formula_sum "Si O2"
_cell_formula_units_Z 16
_cell_length_a 6.717510
_cell_length_b 8.560244
_cell_length_c 17.297504
_cell_angle_alpha 82.977552
_cell_angle_beta 132.643191
_cell_angle_gamma 106.126093
_cell_volume 699.812019
_symmetry_space_group_name_H-M "P -1"
_symmetry_group_IT_number 2
_symmetry_cell_setting 'triclinic'
loop_
_space_group_symop_operation_xyz
x,y,z
-x,-y,-z
loop_
_atom_site_type_symbol
_atom_site_label
_atom_site_fract_x
_atom_site_fract_y
_atom_site_fract_z
Si Si1 0.681691 0.990903 0.711863
Si Si2 0.765120 0.673647 0.968316
Si Si3 0.587782 0.541302 0.330133
Si Si4 0.660939 0.275308 0.263220
Si Si5 0.354724 0.662144 0.113771
Si Si6 0.702323 0.883603 0.078521
Si Si7 0.251001 0.164460 0.546185
Si Si8 0.776641 0.729514 0.640515
O O1 0.413301 0.887455 0.695589
O O2 0.732253 0.890808 0.657237
O O3 0.564975 0.141344 0.643598
O O4 0.964382 0.032468 0.835097
O O5 0.628905 0.728777 0.853921
O O6 0.699639 0.476911 0.959122
O O7 0.646635 0.740398 0.008870
O O8 0.099780 0.746913 0.045215
O O9 0.761038 0.434493 0.335995
O O10 0.388465 0.596882 0.212038
O O11 0.796737 0.703301 0.411733
O O12 0.409726 0.434180 0.358965
O O13 0.900671 0.275871 0.263816
O O14 0.623303 0.802886 0.147226
O O15 0.500000 0.000000 0.000000
O O16 0.267393 0.254010 0.463048
O O17 0.000000 0.000000 0.500000
#
# Coordination Sequence:
#
# PCOD8018353 Si02
#       8
#     2   2   2   2   2   2   2   2
#     4  11  25  43  66 100 137 173 219 275 332 393
#     4  10  22  40  65  93 133 176 223 265 323 394
#     4  10  25  44  68  97 130 175 226 271 329 400
#     4  10  22  44  68  96 135 175 220 272 327 395
#     4  10  23  43  65  95 134 175 222 275 321 394
#     4  12  25  39  67 103 135 175 216 268 338 393
#     4  12  25  45  71  98 132 175 220 282 335 384
#     4  11  24  47  67  95 133 179 220 271 335 392
#
# _framework density 22.863284
#
# number of rings (size 3 to 8) (size 9 to 14) (size 15 to 20)
#    0.000    1.250    1.250    3.375    1.750   12.500 
#    2.250    0.000    0.000    0.000    0.000    0.000 
#    0.000    0.000    0.000    0.000    0.000    0.000 
#
# Total GULP energy -198314.053290 kJ/mol
# GULP energy per Si atom -12394.628331 kJ/mol
# Density = 2.281125 g / cm^3
# Si number density = 22.863284 Si / 1000 Ang^3
#
#
#
# Elastic Constant Matrix: (Units=GPa)
#
#
# Indices 1 2 3 4 5 6 
#
# 1 104.7317 44.6248 22.8488 -3.7654 -5.6680 3.2988
# 2 44.6248 91.1811 42.7745 -1.9639 -7.1809 5.2099
# 3 22.8488 42.7745 93.9856 -5.6479 -5.9966 -4.0185
# 4 -3.7654 -1.9639 -5.6479 38.3838 -6.2005 1.8735
# 5 -5.6680 -7.1809 -5.9966 -6.2005 36.7859 -3.9145
# 6 3.2988 5.2099 -4.0185 1.8735 -3.9145 24.9222
#
#
#
# Elastic Compliance Matrix: (Units=1/GPa)
#
#
# Indices 1 2 3 4 5 6 
#
# 1 0.012130 -0.005706 -0.000254 0.001016 0.000843 -0.000398
# 2 -0.005706 0.017092 -0.006507 -0.000309 0.000951 -0.003694
# 3 -0.000254 -0.006507 0.014041 0.001795 0.001685 0.003788
# 4 0.001016 -0.000309 0.001795 0.027239 0.004867 -0.001064
# 5 0.000843 0.000951 0.001685 0.004867 0.029037 0.004156
# 6 -0.000398 -0.003694 0.003788 -0.001064 0.004156 0.042293
#
#
# Mechanical properties :
#
#
# Convention : Reuss Voigt Hill
#
# Bulk Modulus (GPa) = 54.56451 56.71052 55.63751
# Shear Modulus (GPa) = 28.92246 31.99505 30.45876
#
# Velocity S-wave (km/s) = 3.56057 3.74492 3.65391
# Velocity P-wave (km/s) = 6.38912 6.59980 6.49531
#
# Compressibility (1/GPa) = 0.01832693
#
# Stress axis : x y z
#
# Youngs Moduli (GPa) = 82.44277 58.50704 71.22159
#
# Poissons Ratio (x) = 0.33385 0.01809
# Poissons Ratio (y) = 0.47044 0.46347
# Poissons Ratio (z) = 0.02094 0.38073
#
# Static dielectric constant tensor:
#      x y z
#    x 4.156790 -0.231600 -0.039710 
#    y -0.231600 4.184810 -0.041210 
#    z -0.039710 -0.041210 4.024790 
# 
# 
# High freq. dielectric constant tensor:
#      x y z
#    x 1.902790 -0.013240 -0.004290 
#    y -0.013240 1.907620 -0.008650 
#    z -0.004290 -0.008650 1.903550 
# 
# From -- ./inp_files/217563.got.cif
#   From: 2010.06.25/outbox.cif.g09.slc.cpg/sg2_109_cif.got.tgz:217563.got - 2010.06.27 13:26:56.
