data_PCOD8018420
_publ_section_title
;
Structure prediction by ZEFSAII (Michael W. Deem and Ramdas Pophale) SiO2 
 PCOD8018420
Probable space group: P -1
;
_chemical_formula_sum "Si O2"
_cell_formula_units_Z 16
_cell_length_a 5.905922
_cell_length_b 24.332800
_cell_length_c 5.016506
_cell_angle_alpha 67.737371
_cell_angle_beta 85.774152
_cell_angle_gamma 77.967808
_cell_volume 652.502873
_symmetry_space_group_name_H-M "P -1"
_symmetry_group_IT_number 2
_symmetry_cell_setting 'triclinic'
loop_
_space_group_symop_operation_xyz
x,y,z
-x,-y,-z
loop_
_atom_site_type_symbol
_atom_site_label
_atom_site_fract_x
_atom_site_fract_y
_atom_site_fract_z
Si Si1 0.666100 0.732941 0.076041
Si Si2 0.821674 0.039890 0.239410
Si Si3 0.073931 0.323948 0.332829
Si Si4 0.350542 0.651228 0.341031
Si Si5 0.613804 0.873724 0.786984
Si Si6 0.721617 0.568698 0.762717
Si Si7 0.198319 0.075971 0.808103
Si Si8 0.660521 0.456090 0.766852
O O1 0.751199 0.715024 0.400898
O O2 0.429482 0.707581 0.078992
O O3 0.874281 0.706857 0.902319
O O4 0.597749 0.804323 0.927666
O O5 0.635198 0.085771 0.346535
O O6 0.701139 0.993649 0.160333
O O7 0.000000 0.000000 0.500000
O O8 0.943705 0.079121 0.950028
O O9 0.098229 0.395214 0.182101
O O10 0.809035 0.323820 0.438205
O O11 0.603441 0.610101 0.452570
O O12 0.209357 0.607775 0.260025
O O13 0.806279 0.883104 0.534939
O O14 0.651962 0.897975 0.032953
O O15 0.835318 0.498908 0.790690
O O16 0.496696 0.565067 0.958566
O O17 0.500000 0.500000 0.500000
#
# Coordination Sequence:
#
# PCOD8018420 Si02
#       8
#     2   2   2   2   2   2   2   2
#     4  11  26  45  62  95 129 173 228 271 314 389
#     4  11  25  44  73 107 138 173 219 273 334 403
#     4  11  24  43  68  91 127 176 226 270 329 392
#     4  10  22  40  66  87 129 174 213 276 334 379
#     4  12  26  43  70  96 140 180 219 275 335 387
#     4   9  19  37  61  93 129 160 216 274 333 397
#     4  11  25  44  69 104 135 173 217 268 333 400
#     4   9  17  35  61  92 128 162 208 278 330 393
#
# _framework density 24.520965
#
# number of rings (size 3 to 8) (size 9 to 14) (size 15 to 20)
#    0.000    1.500    2.500    1.500    5.250    2.500 
#    0.000    5.625    0.000    0.000    0.000    0.000 
#    0.000    0.000    0.000    0.000    0.000    0.000 
#
# Total GULP energy -198241.469184 kJ/mol
# GULP energy per Si atom -12390.091824 kJ/mol
# Density = 2.446515 g / cm^3
# Si number density = 24.520965 Si / 1000 Ang^3
#
#
#
# Elastic Constant Matrix: (Units=GPa)
#
#
# Indices 1 2 3 4 5 6 
#
# 1 51.5357 54.9599 12.3250 -8.2540 -23.6060 8.7986
# 2 54.9599 174.8567 51.2721 -12.7936 -19.1535 20.6542
# 3 12.3250 51.2721 95.3180 -2.4419 -23.5817 11.2509
# 4 -8.2540 -12.7936 -2.4419 41.5215 4.9063 -7.5762
# 5 -23.6060 -19.1535 -23.5817 4.9063 36.3601 -0.1407
# 6 8.7986 20.6542 11.2509 -7.5762 -0.1407 30.4917
#
#
#
# Elastic Compliance Matrix: (Units=1/GPa)
#
#
# Indices 1 2 3 4 5 6 
#
# 1 0.045305 -0.012828 0.008931 0.000898 0.028299 -0.007325
# 2 -0.012828 0.010939 -0.005599 0.000979 -0.006335 -0.001428
# 3 0.008931 -0.005599 0.016274 -0.001530 0.013590 -0.005107
# 4 0.000898 0.000979 -0.001530 0.025983 -0.003376 0.006083
# 5 0.028299 -0.006335 0.013590 -0.003376 0.051771 -0.009489
# 6 -0.007325 -0.001428 -0.005107 0.006083 -0.009489 0.039229
#
#
# Mechanical properties :
#
#
# Convention : Reuss Voigt Hill
#
# Bulk Modulus (GPa) = 18.68246 62.09158 40.38702
# Shear Modulus (GPa) = 22.09104 35.21822 28.65463
#
# Velocity S-wave (km/s) = 3.00476 3.79390 3.42215
# Velocity P-wave (km/s) = 4.43550 6.67595 5.66754
#
# Compressibility (1/GPa) = 0.05352614
#
# Stress axis : x y z
#
# Youngs Moduli (GPa) = 22.07239 91.41403 61.44775
#
# Poissons Ratio (x) = 1.17266 -0.54879
# Poissons Ratio (y) = 0.28315 0.34406
# Poissons Ratio (z) = -0.19713 0.51184
#
# Static dielectric constant tensor:
#      x y z
#    x 4.142310 0.436120 -0.234640 
#    y 0.436120 4.588780 0.287570 
#    z -0.234640 0.287570 4.209600 
# 
# 
# High freq. dielectric constant tensor:
#      x y z
#    x 1.951070 0.019670 -0.015770 
#    y 0.019670 1.972460 0.005180 
#    z -0.015770 0.005180 1.983980 
# 
# From -- ./inp_files/12959.got.cif
#   From: 2010.06.25/outbox.cif.g09.slc.cpg/sg2_7_cif.got.tgz:12959.got - 2010.06.27 13:26:56.
