data_PCOD8018256
_publ_section_title
;
Structure prediction by ZEFSAII (Michael W. Deem and Ramdas Pophale) SiO2 
 PCOD8018256
Probable space group: P -1
;
_chemical_formula_sum "Si O2"
_cell_formula_units_Z 14
_cell_length_a 11.172296
_cell_length_b 14.008546
_cell_length_c 13.913231
_cell_angle_alpha 158.819480
_cell_angle_beta 129.265462
_cell_angle_gamma 53.595670
_cell_volume 609.081458
_symmetry_space_group_name_H-M "P -1"
_symmetry_group_IT_number 2
_symmetry_cell_setting 'triclinic'
loop_
_space_group_symop_operation_xyz
x,y,z
-x,-y,-z
loop_
_atom_site_type_symbol
_atom_site_label
_atom_site_fract_x
_atom_site_fract_y
_atom_site_fract_z
Si Si1 0.467122 0.095982 0.468163
Si Si2 0.093917 0.231472 0.813097
Si Si3 0.937188 0.680916 0.773222
Si Si4 0.565440 0.626003 0.941046
Si Si5 0.879234 0.805111 0.641905
Si Si6 0.447659 0.677500 0.728162
Si Si7 0.246868 0.095049 0.952178
O O1 0.579010 0.342375 0.734140
O O2 0.295436 0.211688 0.493939
O O3 0.500000 0.000000 0.500000
O O4 0.479670 0.853958 0.172525
O O5 0.110651 0.139263 0.846736
O O6 0.262604 0.270551 0.891595
O O7 0.000000 0.000000 0.500000
O O8 0.000000 0.500000 0.000000
O O9 0.883146 0.729840 0.684358
O O10 0.024279 0.403185 0.568739
O O11 0.786562 0.695927 0.781282
O O12 0.051850 0.910900 0.080840
O O13 0.460264 0.555893 0.727432
O O14 0.500000 0.500000 0.500000
O O15 0.274507 0.805082 0.744064
O O16 0.588785 0.885736 0.000230
#
# Coordination Sequence:
#
# PCOD8018256 Si02
#       7
#     2   2   2   2   2   2   2
#     4  12  26  46  70  97 135 186 238 285 336 409
#     4  11  26  45  67 100 142 182 222 276 340 423
#     4  10  22  40  64  92 128 169 210 281 337 394
#     4  11  26  45  73  99 138 180 231 292 348 396
#     4  10  23  40  62  93 128 165 225 274 333 385
#     4  10  24  40  71 102 136 171 229 288 349 417
#     4  10  24  40  66 100 133 174 227 272 349 417
#
# _framework density 22.985431999999999
#
# number of rings (size 3 to 8) (size 9 to 14) (size 15 to 20)
#    0.000    1.429    0.000    3.000   14.000    4.571 
#    0.000    0.000    0.000    0.000    0.000    0.000 
#    0.000    0.000    0.000    0.000    0.000    0.000 
#
# Total GULP energy -173512.060154 kJ/mol
# GULP energy per Si atom -12393.718582 kJ/mol
# Density = 2.293312 g / cm^3
# Si number density = 22.985432 Si / 1000 Ang^3
#
#
#
# Elastic Constant Matrix: (Units=GPa)
#
#
# Indices 1 2 3 4 5 6 
#
# 1 104.5120 52.3844 37.4056 6.1062 -21.9132 -0.6242
# 2 52.3844 166.0958 66.8851 6.8965 -17.1116 2.1389
# 3 37.4056 66.8851 141.3936 12.2853 -19.9265 1.0340
# 4 6.1062 6.8965 12.2853 21.4043 -1.4674 -1.9803
# 5 -21.9132 -17.1116 -19.9265 -1.4674 46.5552 2.3218
# 6 -0.6242 2.1389 1.0340 -1.9803 2.3218 32.4170
#
#
#
# Elastic Compliance Matrix: (Units=1/GPa)
#
#
# Indices 1 2 3 4 5 6 
#
# 1 0.012446 -0.002957 -0.001157 -0.001638 0.004221 0.000069
# 2 -0.002957 0.008228 -0.003049 -0.000082 0.000351 -0.000533
# 3 -0.001157 -0.003049 0.009499 -0.004032 0.002300 -0.000535
# 4 -0.001638 -0.000082 -0.004032 0.049749 -0.001119 0.003222
# 5 0.004221 0.000351 0.002300 -0.001119 0.024637 -0.001848
# 6 0.000069 -0.000533 -0.000535 0.003222 -0.001848 0.031231
#
#
# Mechanical properties :
#
#
# Convention : Reuss Voigt Hill
#
# Bulk Modulus (GPa) = 63.10815 80.59463 71.85139
# Shear Modulus (GPa) = 32.17544 37.09704 34.63624
#
# Velocity S-wave (km/s) = 3.74547 4.02174 3.88606
# Velocity P-wave (km/s) = 6.79854 7.53030 7.17375
#
# Compressibility (1/GPa) = 0.01584581
#
# Stress axis : x y z
#
# Youngs Moduli (GPa) = 80.34848 121.54157 105.27143
#
# Poissons Ratio (x) = 0.35945 0.12179
# Poissons Ratio (y) = 0.23762 0.32099
# Poissons Ratio (z) = 0.09296 0.37059
#
# Static dielectric constant tensor:
#      x y z
#    x 4.492180 0.126320 0.139300 
#    y 0.126320 4.127240 0.052820 
#    z 0.139300 0.052820 4.114700 
# 
# 
# High freq. dielectric constant tensor:
#      x y z
#    x 1.917210 -0.001390 -0.000360 
#    y -0.001390 1.911890 0.009410 
#    z -0.000360 0.009410 1.914270 
# 
# From -- ./inp_files/522061.got.cif
#   From: 2010.06.25/outbox.cif.g09.slc.cpg/sg2_262_cif.got.tgz:522061.got - 2010.06.27 13:26:56.
