data_PCOD8018215
_publ_section_title
;
Structure prediction by ZEFSAII (Michael W. Deem and Ramdas Pophale) SiO2 
 PCOD8018215
Probable space group: P -1
;
_chemical_formula_sum "Si O2"
_cell_formula_units_Z 16
_cell_length_a 13.610011
_cell_length_b 15.103144
_cell_length_c 9.402581
_cell_angle_alpha 123.279474
_cell_angle_beta 131.336108
_cell_angle_gamma 27.944365
_cell_volume 676.725851
_symmetry_space_group_name_H-M "P -1"
_symmetry_group_IT_number 2
_symmetry_cell_setting 'triclinic'
loop_
_space_group_symop_operation_xyz
x,y,z
-x,-y,-z
loop_
_atom_site_type_symbol
_atom_site_label
_atom_site_fract_x
_atom_site_fract_y
_atom_site_fract_z
Si Si1 0.999305 0.828592 0.768693
Si Si2 0.879926 0.221866 0.475905
Si Si3 0.692747 0.553921 0.539024
Si Si4 0.119770 0.003113 0.790278
Si Si5 0.735524 0.714317 0.900973
Si Si6 0.906431 0.666626 0.477818
Si Si7 0.736847 0.207428 0.832677
Si Si8 0.545819 0.044610 0.874531
O O1 0.989866 0.831155 0.591372
O O2 0.935737 0.750624 0.684518
O O3 0.246142 0.704096 0.963443
O O4 0.824596 0.038919 0.842825
O O5 0.704035 0.435989 0.534199
O O6 0.065176 0.094546 0.668237
O O7 0.753401 0.193980 0.301436
O O8 0.599383 0.707735 0.689809
O O9 0.530545 0.637086 0.322414
O O10 0.943101 0.423327 0.601753
O O11 0.881058 0.137741 0.765262
O O12 0.284912 0.969466 0.009362
O O13 0.709253 0.831341 0.870132
O O14 0.606440 0.827714 0.021208
O O15 0.000000 0.500000 0.000000
O O16 0.630518 0.847431 0.332561
O O17 0.000000 0.500000 0.500000
#
# Coordination Sequence:
#
# PCOD8018215 Si02
#       8
#     2   2   2   2   2   2   2   2
#     4   9  21  42  63  87 127 178 220 265 341 399
#     4   9  21  39  62  90 131 169 212 278 335 389
#     4  11  23  41  65  95 129 170 228 272 332 409
#     4  10  22  40  63  97 131 168 222 276 340 389
#     4  11  23  43  71  99 129 180 227 269 340 404
#     4  11  25  43  64  95 137 180 224 274 332 400
#     4  10  22  40  66  93 126 171 224 277 329 399
#     4  11  25  42  69  97 138 177 217 284 332 395
#
# _framework density 23.643252
#
# number of rings (size 3 to 8) (size 9 to 14) (size 15 to 20)
#    0.000    1.750    1.250    1.500   10.500    7.500 
#    4.500    1.875    0.000    0.000    0.000    0.000 
#    0.000    0.000    0.000    0.000    0.000    0.000 
#
# Total GULP energy -198259.043703 kJ/mol
# GULP energy per Si atom -12391.190231 kJ/mol
# Density = 2.358944 g / cm^3
# Si number density = 23.643252 Si / 1000 Ang^3
#
#
#
# Elastic Constant Matrix: (Units=GPa)
#
#
# Indices 1 2 3 4 5 6 
#
# 1 52.6671 31.0424 22.7495 2.2059 7.1155 23.4708
# 2 31.0424 133.5737 63.5756 9.9732 20.9893 43.2037
# 3 22.7495 63.5756 168.1462 13.3348 22.6980 25.5200
# 4 2.2059 9.9732 13.3348 47.4966 4.4942 8.6735
# 5 7.1155 20.9893 22.6980 4.4942 35.5394 6.0331
# 6 23.4708 43.2037 25.5200 8.6735 6.0331 39.0435
#
#
#
# Elastic Compliance Matrix: (Units=1/GPa)
#
#
# Indices 1 2 3 4 5 6 
#
# 1 0.026573 -0.000852 -0.000958 0.002060 -0.001995 -0.014554
# 2 -0.000852 0.013474 -0.002620 0.000558 -0.004118 -0.012173
# 3 -0.000958 -0.002620 0.007674 -0.001133 -0.002875 -0.000844
# 4 0.002060 0.000558 -0.001133 0.022396 -0.001865 -0.005803
# 5 -0.001995 -0.004118 -0.002875 -0.001865 0.032528 0.003023
# 6 -0.014554 -0.012173 -0.000844 -0.005803 0.003023 0.049205
#
#
# Mechanical properties :
#
#
# Convention : Reuss Voigt Hill
#
# Bulk Modulus (GPa) = 25.73393 65.45799 45.59596
# Shear Modulus (GPa) = 28.79129 40.21721 34.50425
#
# Velocity S-wave (km/s) = 3.49340 4.12879 3.82431
# Velocity P-wave (km/s) = 5.21341 7.10458 6.23116
#
# Compressibility (1/GPa) = 0.03885920
#
# Stress axis : x y z
#
# Youngs Moduli (GPa) = 37.63278 74.21544 130.31609
#
# Poissons Ratio (x) = 0.06326 0.12485
# Poissons Ratio (y) = 0.03208 0.34145
# Poissons Ratio (z) = 0.03606 0.19446
#
# Static dielectric constant tensor:
#      x y z
#    x 3.935070 0.399410 0.130960 
#    y 0.399410 4.511210 0.335220 
#    z 0.130960 0.335220 4.695360 
# 
# 
# High freq. dielectric constant tensor:
#      x y z
#    x 1.911440 0.023360 0.000240 
#    y 0.023360 1.932470 0.017540 
#    z 0.000240 0.017540 1.956170 
# 
# From -- ./inp_files/455885.got.cif
#   From: 2010.06.25/outbox.cif.g09.slc.cpg/sg2_228_cif.got.tgz:455885.got - 2010.06.27 13:26:56.
