data_PCOD8018988
_publ_section_title
;
Structure prediction by ZEFSAII (Michael W. Deem and Ramdas Pophale) SiO2 
 PCOD8018988
Probable space group: P -1
;
_chemical_formula_sum "Si O2"
_cell_formula_units_Z 16
_cell_length_a 6.521194
_cell_length_b 5.092933
_cell_length_c 26.336161
_cell_angle_alpha 61.659774
_cell_angle_beta 120.249789
_cell_angle_gamma 105.893410
_cell_volume 664.324824
_symmetry_space_group_name_H-M "P -1"
_symmetry_group_IT_number 2
_symmetry_cell_setting 'triclinic'
loop_
_space_group_symop_operation_xyz
x,y,z
-x,-y,-z
loop_
_atom_site_type_symbol
_atom_site_label
_atom_site_fract_x
_atom_site_fract_y
_atom_site_fract_z
Si Si1 0.502784 0.485315 0.188167
Si Si2 0.580590 0.362684 0.643695
Si Si3 0.786536 0.939829 0.873658
Si Si4 0.258546 0.161611 0.016194
Si Si5 0.298032 0.237478 0.906412
Si Si6 0.863265 0.760969 0.583189
Si Si7 0.243180 0.584133 0.496687
Si Si8 0.388324 0.718362 0.673376
O O1 0.354424 0.766917 0.158870
O O2 0.691449 0.530285 0.160668
O O3 0.652572 0.381745 0.264513
O O4 0.309794 0.222562 0.173747
O O5 0.839324 0.515492 0.648846
O O6 0.437315 0.544586 0.567337
O O7 0.500523 0.445131 0.682750
O O8 0.568108 0.008946 0.667104
O O9 0.065527 0.014868 0.892627
O O10 0.727465 0.709834 0.935932
O O11 0.459427 0.929054 0.052988
O O12 0.282219 0.383940 0.949013
O O13 0.000000 0.000000 0.000000
O O14 0.728063 0.637220 0.526943
O O15 0.146833 0.806983 0.607419
O O16 0.754866 0.075791 0.554694
O O17 0.000000 0.500000 0.500000
#
# Coordination Sequence:
#
# PCOD8018988 Si02
#       8
#     2   2   2   2   2   2   2   2
#     4  11  25  41  62  88 124 168 218 259 305 367
#     4  12  25  42  66  92 127 163 205 260 315 375
#     4  10  22  41  63  94 124 164 211 261 315 372
#     4   8  16  36  65  98 131 159 205 258 319 377
#     4   9  19  39  65  94 128 169 204 260 317 370
#     4  12  24  42  65  95 124 164 205 251 322 379
#     4  12  21  41  69  95 129 159 195 261 321 379
#     4  12  25  43  61  89 125 167 214 261 304 365
#
# _framework density 24.084606000000001
#
# number of rings (size 3 to 8) (size 9 to 14) (size 15 to 20)
#    0.000    1.250    2.500    3.375    0.000    4.500 
#    0.000   21.250    0.000    0.000    0.000    0.000 
#    0.000    0.000    0.000    0.000    0.000    0.000 
#
# Total GULP energy -198226.939568 kJ/mol
# GULP energy per Si atom -12389.183723 kJ/mol
# Density = 2.402979 g / cm^3
# Si number density = 24.084606 Si / 1000 Ang^3
#
#
#
# Elastic Constant Matrix: (Units=GPa)
#
#
# Indices 1 2 3 4 5 6 
#
# 1 83.5628 23.3821 24.1431 -4.1156 -17.7075 10.8111
# 2 23.3821 110.4788 31.4956 5.9545 -3.1174 -11.1528
# 3 24.1431 31.4956 95.2655 14.1588 -27.9036 0.2495
# 4 -4.1156 5.9545 14.1588 32.0704 -2.0285 -8.4022
# 5 -17.7075 -3.1174 -27.9036 -2.0285 35.6123 -1.4841
# 6 10.8111 -11.1528 0.2495 -8.4022 -1.4841 28.1892
#
#
#
# Elastic Compliance Matrix: (Units=1/GPa)
#
#
# Indices 1 2 3 4 5 6 
#
# 1 0.015571 -0.003533 -0.001183 0.001884 0.006344 -0.006464
# 2 -0.003533 0.011412 -0.004038 0.000517 -0.003648 0.005868
# 3 -0.001183 -0.004038 0.016494 -0.006656 0.011492 -0.002669
# 4 0.001884 0.000517 -0.006656 0.036896 -0.001696 0.010449
# 5 0.006344 -0.003648 0.011492 -0.001696 0.039723 -0.002392
# 6 -0.006464 0.005868 -0.002669 0.010449 -0.002392 0.043287
#
#
# Mechanical properties :
#
#
# Convention : Reuss Voigt Hill
#
# Bulk Modulus (GPa) = 38.50853 49.70539 44.10696
# Shear Modulus (GPa) = 26.37840 33.19345 29.78593
#
# Velocity S-wave (km/s) = 3.31303 3.71644 3.52052
# Velocity P-wave (km/s) = 5.53701 6.25288 5.90580
#
# Compressibility (1/GPa) = 0.02596827
#
# Stress axis : x y z
#
# Youngs Moduli (GPa) = 64.22244 87.62623 60.62764
#
# Poissons Ratio (x) = 0.30961 0.07172
# Poissons Ratio (y) = 0.22692 0.24483
# Poissons Ratio (z) = 0.07597 0.35386
#
# Static dielectric constant tensor:
#      x y z
#    x 3.104240 0.035460 -0.745370 
#    y 0.035460 4.334730 0.210500 
#    z -0.745370 0.210500 4.564220 
# 
# 
# High freq. dielectric constant tensor:
#      x y z
#    x 1.972810 0.014790 -0.019890 
#    y 0.014790 1.946410 0.014490 
#    z -0.019890 0.014490 1.947020 
# 
# From -- ./inp_files/614863.got.cif
#   From: 2010.06.25/outbox.cif.g09.slc.cpg/sg2_308_cif.got.tgz:614863.got - 2010.06.27 13:26:56.
