data_PCOD8018754
_publ_section_title
;
Structure prediction by ZEFSAII (Michael W. Deem and Ramdas Pophale) SiO2 
 PCOD8018754
Probable space group: P -1
;
_chemical_formula_sum "Si O2"
_cell_formula_units_Z 16
_cell_length_a 5.300589
_cell_length_b 14.916694
_cell_length_c 9.421847
_cell_angle_alpha 113.472268
_cell_angle_beta 85.838096
_cell_angle_gamma 90.224424
_cell_volume 681.260208
_symmetry_space_group_name_H-M "P -1"
_symmetry_group_IT_number 2
_symmetry_cell_setting 'triclinic'
loop_
_space_group_symop_operation_xyz
x,y,z
-x,-y,-z
loop_
_atom_site_type_symbol
_atom_site_label
_atom_site_fract_x
_atom_site_fract_y
_atom_site_fract_z
Si Si1 0.579692 0.107259 0.023359
Si Si2 0.731719 0.011801 0.688928
Si Si3 0.634956 0.474875 0.623463
Si Si4 0.249389 0.905083 0.572320
Si Si5 0.101128 0.398974 0.107143
Si Si6 0.953394 0.293682 0.506724
Si Si7 0.055806 0.216665 0.162241
Si Si8 0.772763 0.596044 0.209637
O O1 0.321223 0.171053 0.069433
O O2 0.808636 0.147626 0.137610
O O3 0.500000 0.000000 0.000000
O O4 0.699048 0.100726 0.856663
O O5 0.493706 0.940062 0.670437
O O6 0.986547 0.949094 0.676390
O O7 0.736021 0.059553 0.566350
O O8 0.500000 0.500000 0.500000
O O9 0.705195 0.575700 0.758810
O O10 0.859938 0.400459 0.523335
O O11 0.496263 0.412630 0.710991
O O12 0.254514 0.787159 0.500602
O O13 0.970092 0.301314 0.106120
O O14 0.908639 0.490310 0.157010
O O15 0.248123 0.378763 0.940112
O O16 0.117337 0.254671 0.341988
O O17 0.101662 0.312580 0.658955
#
# Coordination Sequence:
#
# PCOD8018754 Si02
#       8
#     2   2   2   2   2   2   2   2
#     4  12  26  45  69  97 139 180 229 284 347 401
#     4  10  22  43  65  96 133 180 217 285 344 394
#     4  11  23  41  70  95 141 177 224 280 343 409
#     4  10  22  40  70  95 137 171 229 276 337 415
#     4  10  24  44  64 103 131 182 228 279 345 404
#     4  11  25  40  65 103 126 181 226 277 339 401
#     4  12  27  42  72 101 137 180 232 282 337 420
#     4  10  23  43  69  92 144 173 228 285 340 403
#
# _framework density 23.485886000000001
#
# number of rings (size 3 to 8) (size 9 to 14) (size 15 to 20)
#    0.000    1.250    0.000    4.500    8.750    3.000 
#    0.000    0.000    0.000    0.000    0.000    0.000 
#    0.000    0.000    0.000    0.000    0.000    0.000 
#
# Total GULP energy -198327.347289 kJ/mol
# GULP energy per Si atom -12395.459206 kJ/mol
# Density = 2.343243 g / cm^3
# Si number density = 23.485886 Si / 1000 Ang^3
#
#
#
# Elastic Constant Matrix: (Units=GPa)
#
#
# Indices 1 2 3 4 5 6 
#
# 1 116.1110 21.7806 48.0144 10.7284 0.0178 6.9239
# 2 21.7806 99.1125 40.3678 6.5242 6.0888 14.0570
# 3 48.0144 40.3678 146.0127 17.2867 2.6826 -1.5109
# 4 10.7284 6.5242 17.2867 27.4008 0.6815 3.0867
# 5 0.0178 6.0888 2.6826 0.6815 35.5066 -2.0634
# 6 6.9239 14.0570 -1.5109 3.0867 -2.0634 24.1465
#
#
#
# Elastic Compliance Matrix: (Units=1/GPa)
#
#
# Indices 1 2 3 4 5 6 
#
# 1 0.010292 -0.000548 -0.003065 -0.001679 0.000202 -0.002592
# 2 -0.000548 0.012843 -0.003438 0.000261 -0.002399 -0.007773
# 3 -0.003065 -0.003438 0.009360 -0.004346 0.000202 0.004039
# 4 -0.001679 0.000261 -0.004346 0.040436 -0.000793 -0.005179
# 5 0.000202 -0.002399 0.000202 -0.000793 0.028802 0.003914
# 6 -0.002592 -0.007773 0.004039 -0.005179 0.003914 0.047931
#
#
# Mechanical properties :
#
#
# Convention : Reuss Voigt Hill
#
# Bulk Modulus (GPa) = 54.36540 64.61799 59.49169
# Shear Modulus (GPa) = 29.42980 34.14899 31.78939
#
# Velocity S-wave (km/s) = 3.54373 3.81730 3.68306
# Velocity P-wave (km/s) = 6.32000 6.85582 6.59336
#
# Compressibility (1/GPa) = 0.01839405
#
# Stress axis : x y z
#
# Youngs Moduli (GPa) = 97.16060 77.86536 106.84230
#
# Poissons Ratio (x) = 0.04265 0.32745
# Poissons Ratio (y) = 0.05322 0.36729
# Poissons Ratio (z) = 0.29778 0.26768
#
# Static dielectric constant tensor:
#      x y z
#    x 4.222420 0.181130 -0.058690 
#    y 0.181130 4.160630 0.145960 
#    z -0.058690 0.145960 4.802480 
# 
# 
# High freq. dielectric constant tensor:
#      x y z
#    x 1.917040 0.010630 -0.001690 
#    y 0.010630 1.931880 -0.001690 
#    z -0.001690 -0.001690 1.953940 
# 
# From -- ./inp_files/90348.got.cif
#   From: 2010.06.25/outbox.cif.g09.slc.cpg/sg2_46_cif.got.tgz:90348.got - 2010.06.27 13:26:56.
