data_PCOD8018695
_publ_section_title
;
Structure prediction by ZEFSAII (Michael W. Deem and Ramdas Pophale) SiO2 
 PCOD8018695
Probable space group: P -1
;
_chemical_formula_sum "Si O2"
_cell_formula_units_Z 16
_cell_length_a 9.575532
_cell_length_b 9.453691
_cell_length_c 15.860835
_cell_angle_alpha 116.926053
_cell_angle_beta 35.281975
_cell_angle_gamma 117.754224
_cell_volume 726.442502
_symmetry_space_group_name_H-M "P -1"
_symmetry_group_IT_number 2
_symmetry_cell_setting 'triclinic'
loop_
_space_group_symop_operation_xyz
x,y,z
-x,-y,-z
loop_
_atom_site_type_symbol
_atom_site_label
_atom_site_fract_x
_atom_site_fract_y
_atom_site_fract_z
Si Si1 0.086965 0.246526 0.099194
Si Si2 0.474647 0.859760 0.218472
Si Si3 0.819134 0.264058 0.516883
Si Si4 0.121983 0.593719 0.212170
Si Si5 0.829160 0.888510 0.809598
Si Si6 0.718202 0.229606 0.975125
Si Si7 0.768768 0.554866 0.518669
Si Si8 0.369409 0.776275 0.796245
O O1 0.208914 0.420986 0.125224
O O2 0.058146 0.119751 0.155490
O O3 0.821538 0.253153 0.193795
O O4 0.253280 0.182454 0.929079
O O5 0.392453 0.844746 0.352307
O O6 0.311048 0.736398 0.201877
O O7 0.473809 0.041279 0.234882
O O8 0.696823 0.368948 0.536658
O O9 0.974447 0.146032 0.364322
O O10 0.988849 0.376342 0.529362
O O11 0.110171 0.633972 0.128961
O O12 0.852977 0.568655 0.382695
O O13 0.779069 0.064836 0.864425
O O14 0.570742 0.763070 0.893438
O O15 0.777826 0.255130 0.051470
O O16 0.549070 0.649211 0.665418
#
# Coordination Sequence:
#
# PCOD8018695 Si02
#       8
#     2   2   2   2   2   2   2   2
#     4  12  25  44  67  94 139 172 215 269 332 384
#     4  11  24  42  69  99 127 175 222 266 323 387
#     4  10  22  40  69  95 128 171 224 272 312 386
#     4  11  24  41  70  98 124 174 225 273 306 392
#     4  11  21  43  66  97 131 172 220 268 322 379
#     4  11  23  39  68  98 130 170 220 271 315 391
#     4  10  23  41  64  99 135 169 214 272 332 375
#     4  12  26  44  64  98 141 172 204 276 338 386
#
# _framework density 22.025144000000001
#
# number of rings (size 3 to 8) (size 9 to 14) (size 15 to 20)
#    0.000    1.000    5.000    1.500    3.500    2.000 
#    0.000    0.625    0.000    0.000    0.000    0.000 
#    0.000    0.000    0.000    0.000    0.000    0.000 
#
# Total GULP energy -198390.789637 kJ/mol
# GULP energy per Si atom -12399.424352 kJ/mol
# Density = 2.197501 g / cm^3
# Si number density = 22.025144 Si / 1000 Ang^3
#
#
#
# Elastic Constant Matrix: (Units=GPa)
#
#
# Indices 1 2 3 4 5 6 
#
# 1 74.5654 19.9980 21.1011 -6.2097 5.3705 -14.8948
# 2 19.9980 73.6305 58.8149 4.5729 -0.0220 -23.0414
# 3 21.1011 58.8149 164.8376 4.0295 27.7985 -25.6018
# 4 -6.2097 4.5729 4.0295 39.0001 -17.0353 5.5675
# 5 5.3705 -0.0220 27.7985 -17.0353 29.9645 -0.8008
# 6 -14.8948 -23.0414 -25.6018 5.5675 -0.8008 27.5852
#
#
#
# Elastic Compliance Matrix: (Units=1/GPa)
#
#
# Indices 1 2 3 4 5 6 
#
# 1 0.015505 -0.002511 0.000284 0.000767 -0.002440 0.006313
# 2 -0.002511 0.024262 -0.007645 -0.001005 0.007316 0.012229
# 3 0.000284 -0.007645 0.012890 -0.008722 -0.016786 0.007004
# 4 0.000767 -0.001005 -0.008722 0.043092 0.032017 -0.016288
# 5 -0.002440 0.007316 -0.016786 0.032017 0.067182 -0.015298
# 6 0.006313 0.012229 0.007004 -0.016288 -0.015298 0.059219
#
#
# Mechanical properties :
#
#
# Convention : Reuss Voigt Hill
#
# Bulk Modulus (GPa) = 30.38344 56.98458 43.68401
# Shear Modulus (GPa) = 19.77354 33.51794 26.64574
#
# Velocity S-wave (km/s) = 2.99953 3.90526 3.48197
# Velocity P-wave (km/s) = 5.08145 6.80172 6.00352
#
# Compressibility (1/GPa) = 0.03291266
#
# Stress axis : x y z
#
# Youngs Moduli (GPa) = 64.49700 41.21746 77.58035
#
# Poissons Ratio (x) = 0.10350 -0.02206
# Poissons Ratio (y) = 0.16196 0.59310
# Poissons Ratio (z) = -0.01834 0.31511
#
# Static dielectric constant tensor:
#      x y z
#    x 3.717300 -0.246430 0.247480 
#    y -0.246430 3.986810 -0.060960 
#    z 0.247480 -0.060960 4.154160 
# 
# 
# High freq. dielectric constant tensor:
#      x y z
#    x 1.842890 -0.024690 0.018340 
#    y -0.024690 1.863590 0.009270 
#    z 0.018340 0.009270 1.878440 
# 
# From -- ./inp_files/208405.got.cif
#   From: 2010.06.25/outbox.cif.g09.slc.cpg/sg2_105_cif.got.tgz:208405.got - 2010.06.27 13:26:56.
