data_PCOD8018193
_publ_section_title
;
Structure prediction by ZEFSAII (Michael W. Deem and Ramdas Pophale) SiO2 
 PCOD8018193
Probable space group: P -1
;
_chemical_formula_sum "Si O2"
_cell_formula_units_Z 14
_cell_length_a 22.478335
_cell_length_b 11.820731
_cell_length_c 5.266603
_cell_angle_alpha 69.377996
_cell_angle_beta 76.030910
_cell_angle_gamma 29.227856
_cell_volume 632.820524
_symmetry_space_group_name_H-M "P -1"
_symmetry_group_IT_number 2
_symmetry_cell_setting 'triclinic'
loop_
_space_group_symop_operation_xyz
x,y,z
-x,-y,-z
loop_
_atom_site_type_symbol
_atom_site_label
_atom_site_fract_x
_atom_site_fract_y
_atom_site_fract_z
Si Si1 0.284632 0.761690 0.480077
Si Si2 0.599087 0.869791 0.300618
Si Si3 0.515826 0.777311 0.259980
Si Si4 0.270886 0.179724 0.511096
Si Si5 0.776800 0.997219 0.149490
Si Si6 0.023991 0.094270 0.486297
Si Si7 0.035994 0.669599 0.133092
O O1 0.408427 0.475174 0.626972
O O2 0.279017 0.866003 0.632595
O O3 0.170041 0.866696 0.512449
O O4 0.290683 0.821415 0.158540
O O5 0.613589 0.722494 0.240128
O O6 0.728143 0.696172 0.423455
O O7 0.500000 0.000000 0.500000
O O8 0.549513 0.075307 0.049801
O O9 0.408081 0.940586 0.445302
O O10 0.161670 0.378551 0.262458
O O11 0.245898 0.106620 0.770845
O O12 0.922575 0.771109 0.182066
O O13 0.975140 0.209905 0.727989
O O14 0.000000 0.000000 0.500000
O O15 0.957110 0.288683 0.188300
#
# Coordination Sequence:
#
# PCOD8018193 Si02
#       7
#     2   2   2   2   2   2   2
#     4  10  24  42  65  89 134 164 212 263 318 373
#     4   9  22  41  59  93 123 164 211 258 316 371
#     4  10  23  41  63  94 127 165 211 266 321 371
#     4  11  24  39  67  91 128 166 218 256 317 379
#     4  10  24  44  63  95 126 173 210 262 312 376
#     4  10  22  40  63  94 123 169 210 258 317 377
#     4  10  23  41  63  94 127 165 212 260 314 366
#
# _framework density 22.123176000000001
#
# number of rings (size 3 to 8) (size 9 to 14) (size 15 to 20)
#    0.000    2.000    0.000    0.857   10.000    3.429 
#    0.000    4.286    0.000    0.000    0.000    0.000 
#    0.000    0.000    0.000    0.000    0.000    0.000 
#
# Total GULP energy -173488.744040 kJ/mol
# GULP energy per Si atom -12392.053146 kJ/mol
# Density = 2.207282 g / cm^3
# Si number density = 22.123176 Si / 1000 Ang^3
#
#
#
# Elastic Constant Matrix: (Units=GPa)
#
#
# Indices 1 2 3 4 5 6 
#
# 1 106.0501 13.4901 18.7087 7.3813 -14.2644 -8.8067
# 2 13.4901 60.1137 12.7917 -13.3415 -5.1654 -6.5176
# 3 18.7087 12.7917 91.8279 -0.3103 5.4578 -7.3825
# 4 7.3813 -13.3415 -0.3103 32.5511 9.1945 5.0965
# 5 -14.2644 -5.1654 5.4578 9.1945 28.3224 2.8240
# 6 -8.8067 -6.5176 -7.3825 5.0965 2.8240 16.8290
#
#
#
# Elastic Compliance Matrix: (Units=1/GPa)
#
#
# Indices 1 2 3 4 5 6 
#
# 1 0.012074 -0.002530 -0.002176 -0.006784 0.007728 0.005141
# 2 -0.002530 0.019754 -0.001949 0.008258 -0.000278 0.003017
# 3 -0.002176 -0.001949 0.012190 0.000400 -0.004335 0.004060
# 4 -0.006784 0.008258 0.000400 0.041317 -0.014376 -0.010277
# 5 0.007728 -0.000278 -0.004335 -0.014376 0.044764 -0.001123
# 6 0.005141 0.003017 0.004060 -0.010277 -0.001123 0.068362
#
#
# Mechanical properties :
#
#
# Convention : Reuss Voigt Hill
#
# Bulk Modulus (GPa) = 32.56706 38.66364 35.61535
# Shear Modulus (GPa) = 22.52170 29.74057 26.13113
#
# Velocity S-wave (km/s) = 3.19409 3.67047 3.44054
# Velocity P-wave (km/s) = 5.32501 5.95631 5.64948
#
# Compressibility (1/GPa) = 0.03070588
#
# Stress axis : x y z
#
# Youngs Moduli (GPa) = 82.82295 50.62346 82.03235
#
# Poissons Ratio (x) = 0.12810 0.17853
# Poissons Ratio (y) = 0.20958 0.15990
# Poissons Ratio (z) = 0.18025 0.09867
#
# Static dielectric constant tensor:
#      x y z
#    x 4.490910 -0.028870 0.216210 
#    y -0.028870 3.642460 0.070680 
#    z 0.216210 0.070680 4.143410 
# 
# 
# High freq. dielectric constant tensor:
#      x y z
#    x 1.881610 -0.012090 0.005390 
#    y -0.012090 1.851910 0.002250 
#    z 0.005390 0.002250 1.881670 
# 
# From -- ./inp_files/66117.got.cif
#   From: 2010.06.25/outbox.cif.g09.slc.cpg/sg2_34_cif.got.tgz:66117.got - 2010.06.27 13:26:56.
