data_PCOD8018804
_publ_section_title
;
Structure prediction by ZEFSAII (Michael W. Deem and Ramdas Pophale) SiO2 
 PCOD8018804
Probable space group: P -1
;
_chemical_formula_sum "Si O2"
_cell_formula_units_Z 16
_cell_length_a 9.065670
_cell_length_b 11.457685
_cell_length_c 12.633650
_cell_angle_alpha 122.792943
_cell_angle_beta 133.966413
_cell_angle_gamma 45.438940
_cell_volume 669.156144
_symmetry_space_group_name_H-M "P -1"
_symmetry_group_IT_number 2
_symmetry_cell_setting 'triclinic'
loop_
_space_group_symop_operation_xyz
x,y,z
-x,-y,-z
loop_
_atom_site_type_symbol
_atom_site_label
_atom_site_fract_x
_atom_site_fract_y
_atom_site_fract_z
Si Si1 0.845243 0.147103 0.575386
Si Si2 0.202663 0.141608 0.152619
Si Si3 0.039814 0.418627 0.593929
Si Si4 0.372841 0.392389 0.365067
Si Si5 0.090295 0.237938 0.920930
Si Si6 0.353330 0.419000 0.126232
Si Si7 0.716155 0.398459 0.135639
Si Si8 0.393041 0.039232 0.579226
O O1 0.652859 0.319673 0.505376
O O2 0.023408 0.165750 0.752307
O O3 0.680455 0.094790 0.524814
O O4 0.000000 0.000000 0.500000
O O5 0.303315 0.258882 0.262019
O O6 0.940180 0.221421 0.118818
O O7 0.409408 0.983475 0.244066
O O8 0.186395 0.106226 0.002052
O O9 0.205343 0.471306 0.757302
O O10 0.165118 0.223592 0.560282
O O11 0.000000 0.500000 0.500000
O O12 0.799046 0.473703 0.567808
O O13 0.351684 0.458907 0.268751
O O14 0.861825 0.404758 0.940311
O O15 0.292245 0.278298 0.004769
O O16 0.611495 0.366316 0.175692
O O17 0.500000 0.500000 0.000000
O O18 0.500000 0.000000 0.500000
#
# Coordination Sequence:
#
# PCOD8018804 Si02
#       8
#     2   2   2   2   2   2   2   2
#     4  11  26  45  69 103 146 183 228 288 357 427
#     4   9  20  44  68  99 140 176 230 294 352 420
#     4  11  25  45  71  99 135 181 235 292 345 417
#     4   9  22  43  69 101 135 179 238 290 347 416
#     4  10  22  43  70 100 142 183 232 289 347 414
#     4  10  22  40  72 103 139 181 237 292 340 403
#     4  11  22  39  69 105 135 176 231 289 346 414
#     4  11  25  46  68  99 142 187 227 288 364 417
#
# _framework density 23.910710999999999
#
# number of rings (size 3 to 8) (size 9 to 14) (size 15 to 20)
#    0.000    1.750    1.250    2.250    7.000    2.500 
#    0.000   10.625    0.000    1.500    0.000    0.000 
#    0.000    0.000    0.000    0.000    0.000    0.000 
#
# Total GULP energy -198249.512923 kJ/mol
# GULP energy per Si atom -12390.594558 kJ/mol
# Density = 2.385629 g / cm^3
# Si number density = 23.910711 Si / 1000 Ang^3
#
#
#
# Elastic Constant Matrix: (Units=GPa)
#
#
# Indices 1 2 3 4 5 6 
#
# 1 142.2599 24.0808 43.6064 -3.9865 -9.6256 -4.7384
# 2 24.0808 87.8651 46.4755 -21.4925 -10.5958 -10.7960
# 3 43.6064 46.4755 154.5755 -10.5324 -13.0242 -1.4667
# 4 -3.9865 -21.4925 -10.5324 38.2963 7.0810 -5.7936
# 5 -9.6256 -10.5958 -13.0242 7.0810 41.0309 0.9661
# 6 -4.7384 -10.7960 -1.4667 -5.7936 0.9661 30.5519
#
#
#
# Elastic Compliance Matrix: (Units=1/GPa)
#
#
# Indices 1 2 3 4 5 6 
#
# 1 0.007852 -0.001077 -0.001824 -0.000383 0.001036 0.000644
# 2 -0.001077 0.017144 -0.004053 0.009314 0.001106 0.007428
# 3 -0.001824 -0.004053 0.008252 -0.000658 0.001294 -0.001485
# 4 -0.000383 0.009314 -0.000658 0.033291 -0.003866 0.009636
# 5 0.001036 0.001106 0.001294 -0.003866 0.026000 -0.000942
# 6 0.000644 0.007428 -0.001485 0.009636 -0.000942 0.037242
#
#
# Mechanical properties :
#
#
# Convention : Reuss Voigt Hill
#
# Bulk Modulus (GPa) = 51.70150 68.11396 59.90773
# Shear Modulus (GPa) = 33.30346 40.01168 36.65757
#
# Velocity S-wave (km/s) = 3.73611 4.09513 3.91973
# Velocity P-wave (km/s) = 6.34673 7.13504 6.75240
#
# Compressibility (1/GPa) = 0.01934180
#
# Stress axis : x y z
#
# Youngs Moduli (GPa) = 127.36362 58.32920 121.17683
#
# Poissons Ratio (x) = 0.06279 0.22102
# Poissons Ratio (y) = 0.13711 0.49108
# Poissons Ratio (z) = 0.23230 0.23639
#
# Static dielectric constant tensor:
#      x y z
#    x 4.631490 -0.090400 -0.140200 
#    y -0.090400 4.042180 -0.551160 
#    z -0.140200 -0.551160 4.479560 
# 
# 
# High freq. dielectric constant tensor:
#      x y z
#    x 1.964780 0.005990 0.002780 
#    y 0.005990 1.935020 -0.011880 
#    z 0.002780 -0.011880 1.959450 
# 
# From -- ./inp_files/392891.got.cif
#   From: 2010.06.25/outbox.cif.g09.slc.cpg/sg2_197_cif.got.tgz:392891.got - 2010.06.27 13:26:56.
