data_PCOD8018368
_publ_section_title
;
Structure prediction by ZEFSAII (Michael W. Deem and Ramdas Pophale) SiO2 
 PCOD8018368
Probable space group: P -1
;
_chemical_formula_sum "Si O2"
_cell_formula_units_Z 16
_cell_length_a 20.998573
_cell_length_b 8.770353
_cell_length_c 8.667187
_cell_angle_alpha 87.423625
_cell_angle_beta 122.473826
_cell_angle_gamma 45.629030
_cell_volume 690.110877
_symmetry_space_group_name_H-M "P -1"
_symmetry_group_IT_number 2
_symmetry_cell_setting 'triclinic'
loop_
_space_group_symop_operation_xyz
x,y,z
-x,-y,-z
loop_
_atom_site_type_symbol
_atom_site_label
_atom_site_fract_x
_atom_site_fract_y
_atom_site_fract_z
Si Si1 0.707823 0.163456 0.488713
Si Si2 0.803066 0.985223 0.277211
Si Si3 0.457873 0.385137 0.224822
Si Si4 0.689094 0.663692 0.022811
Si Si5 0.168532 0.643511 0.087047
Si Si6 0.449454 0.302933 0.567290
Si Si7 0.902125 0.481577 0.476087
Si Si8 0.022886 0.209325 0.961131
O O1 0.614350 0.168742 0.369063
O O2 0.597365 0.489581 0.379267
O O3 0.768999 0.094821 0.402573
O O4 0.843709 0.918562 0.796605
O O5 0.823862 0.768510 0.296762
O O6 0.951104 0.810799 0.417902
O O7 0.667731 0.269576 0.979749
O O8 0.412025 0.309157 0.078541
O O9 0.475297 0.333023 0.432370
O O10 0.810190 0.416031 0.063046
O O11 0.595429 0.970021 0.831213
O O12 0.784585 0.546893 0.301970
O O13 0.324791 0.389155 0.387803
O O14 0.088293 0.634245 0.051448
O O15 0.075657 0.958445 0.970032
O O16 0.940097 0.444043 0.707103
#
# Coordination Sequence:
#
# PCOD8018368 Si02
#       8
#     2   2   2   2   2   2   2   2
#     4  11  23  42  66  91 127 165 208 255 308 372
#     4  11  25  43  62  92 127 166 208 257 312 367
#     4  11  23  41  67  94 126 165 206 253 313 373
#     4  11  23  40  66  95 127 164 204 258 311 369
#     4   9  19  38  64  96 126 157 209 258 312 369
#     4  10  22  41  66  93 124 163 207 258 310 371
#     4  11  25  43  63  92 129 164 211 257 307 370
#     4  10  22  40  65  95 125 166 207 257 311 366
#
# _framework density 23.184678999999999
#
# number of rings (size 3 to 8) (size 9 to 14) (size 15 to 20)
#    0.000    1.500    0.000    6.000    0.000    9.500 
#    0.000    1.875    0.000    0.000    0.000    0.000 
#    0.000    0.000    0.000    0.000    0.000    0.000 
#
# Total GULP energy -198447.118291 kJ/mol
# GULP energy per Si atom -12402.944893 kJ/mol
# Density = 2.313191 g / cm^3
# Si number density = 23.184679 Si / 1000 Ang^3
#
#
#
# Elastic Constant Matrix: (Units=GPa)
#
#
# Indices 1 2 3 4 5 6 
#
# 1 120.1729 17.9635 59.0620 6.1810 13.3021 13.6561
# 2 17.9635 39.0064 17.5671 15.7926 2.6258 -1.5802
# 3 59.0620 17.5671 127.9766 2.2011 7.9401 14.7887
# 4 6.1810 15.7926 2.2011 26.2464 8.2397 3.9250
# 5 13.3021 2.6258 7.9401 8.2397 31.7434 10.6752
# 6 13.6561 -1.5802 14.7887 3.9250 10.6752 15.7413
#
#
#
# Elastic Compliance Matrix: (Units=1/GPa)
#
#
# Indices 1 2 3 4 5 6 
#
# 1 0.011778 -0.004406 -0.004052 0.001736 -0.002018 -0.005918
# 2 -0.004406 0.041712 -0.005526 -0.026564 0.000008 0.019819
# 3 -0.004052 -0.005526 0.011414 0.004328 0.001490 -0.009853
# 4 0.001736 -0.026564 0.004328 0.058704 -0.009272 -0.016588
# 5 -0.002018 0.000008 0.001490 -0.009272 0.043379 -0.026754
# 6 -0.005918 0.019819 -0.009853 -0.016588 -0.026754 0.102187
#
#
# Mechanical properties :
#
#
# Convention : Reuss Voigt Hill
#
# Bulk Modulus (GPa) = 27.07368 52.92680 40.00024
# Shear Modulus (GPa) = 16.15755 27.58376 21.87066
#
# Velocity S-wave (km/s) = 2.64276 3.45300 3.07469
# Velocity P-wave (km/s) = 4.58421 6.22700 5.46766
#
# Compressibility (1/GPa) = 0.03693624
#
# Stress axis : x y z
#
# Youngs Moduli (GPa) = 84.90583 23.97394 87.61178
#
# Poissons Ratio (x) = 0.10563 0.35496
# Poissons Ratio (y) = 0.37409 0.48417
# Poissons Ratio (z) = 0.34400 0.13249
#
# Static dielectric constant tensor:
#      x y z
#    x 4.221320 -0.053800 0.192430 
#    y -0.053800 4.058090 -0.098810 
#    z 0.192430 -0.098810 4.130040 
# 
# 
# High freq. dielectric constant tensor:
#      x y z
#    x 1.912580 -0.002880 0.011410 
#    y -0.002880 1.910920 -0.005730 
#    z 0.011410 -0.005730 1.921220 
# 
# From -- ./inp_files/263449.got.cif
#   From: 2010.06.25/outbox.cif.g09.slc.cpg/sg2_132_cif.got.tgz:263449.got - 2010.06.27 13:26:56.
