data_PCOD8018912
_publ_section_title
;
Structure prediction by ZEFSAII (Michael W. Deem and Ramdas Pophale) SiO2 
 PCOD8018912
Probable space group: P -1
;
_chemical_formula_sum "Si O2"
_cell_formula_units_Z 16
_cell_length_a 6.723137
_cell_length_b 17.703279
_cell_length_c 9.376307
_cell_angle_alpha 62.364956
_cell_angle_beta 53.131500
_cell_angle_gamma 54.243015
_cell_volume 713.405091
_symmetry_space_group_name_H-M "P -1"
_symmetry_group_IT_number 2
_symmetry_cell_setting 'triclinic'
loop_
_space_group_symop_operation_xyz
x,y,z
-x,-y,-z
loop_
_atom_site_type_symbol
_atom_site_label
_atom_site_fract_x
_atom_site_fract_y
_atom_site_fract_z
Si Si1 0.652734 0.905541 0.427123
Si Si2 0.939530 0.386090 0.203847
Si Si3 0.355146 0.289218 0.339546
Si Si4 0.788693 0.251898 0.966402
Si Si5 0.823706 0.092962 0.907269
Si Si6 0.439716 0.142245 0.790069
Si Si7 0.385955 0.398117 0.816848
Si Si8 0.537261 0.310243 0.529940
O O1 0.641854 0.814059 0.582421
O O2 0.515908 0.923044 0.311190
O O3 0.971543 0.883300 0.301640
O O4 0.500000 0.000000 0.500000
O O5 0.706145 0.492786 0.202641
O O6 0.797856 0.314608 0.334786
O O7 0.108591 0.370471 0.290753
O O8 0.151022 0.365023 0.998502
O O9 0.314160 0.327433 0.485394
O O10 0.642726 0.280876 0.156847
O O11 0.690248 0.176575 0.005995
O O12 0.674169 0.340558 0.827626
O O13 0.114999 0.209732 0.888439
O O14 0.586630 0.081349 0.922493
O O15 0.000000 0.000000 0.000000
O O16 0.608373 0.206110 0.649441
O O17 0.423123 0.384758 0.642503
#
# Coordination Sequence:
#
# PCOD8018912 Si02
#       8
#     2   2   2   2   2   2   2   2
#     4  10  22  41  62  93 131 164 211 270 319 386
#     4  10  23  43  62  95 133 167 220 265 324 377
#     4  10  23  40  64  97 123 172 219 263 321 384
#     4  10  22  41  63  91 131 166 215 264 323 381
#     4  11  22  40  65  91 123 166 212 262 329 382
#     4  10  23  40  66  94 125 169 214 260 321 389
#     4  10  22  43  65  92 132 175 209 271 321 378
#     4  11  22  39  65  93 125 171 214 262 321 377
#
# _framework density 22.427648000000001
#
# number of rings (size 3 to 8) (size 9 to 14) (size 15 to 20)
#    0.000    1.750    1.250    1.875    5.250    3.000 
#    2.250    5.625    0.000    0.000    0.000    0.000 
#    0.000    0.000    0.000    0.000    0.000    0.000 
#
# Total GULP energy -198290.920297 kJ/mol
# GULP energy per Si atom -12393.182519 kJ/mol
# Density = 2.237660 g / cm^3
# Si number density = 22.427648 Si / 1000 Ang^3
#
#
#
# Elastic Constant Matrix: (Units=GPa)
#
#
# Indices 1 2 3 4 5 6 
#
# 1 132.9618 53.1865 44.0776 -0.8951 10.9880 -20.7864
# 2 53.1865 79.2848 23.7402 -0.7409 12.4277 -22.2955
# 3 44.0776 23.7402 89.2164 -5.0126 4.0665 -6.2304
# 4 -0.8951 -0.7409 -5.0126 27.1115 3.9011 6.9930
# 5 10.9880 12.4277 4.0665 3.9011 39.5073 -7.5471
# 6 -20.7864 -22.2955 -6.2304 6.9930 -7.5471 33.6111
#
#
#
# Elastic Compliance Matrix: (Units=1/GPa)
#
#
# Indices 1 2 3 4 5 6 
#
# 1 0.011629 -0.005753 -0.004071 -0.001194 -0.000355 0.002790
# 2 -0.005753 0.019989 -0.001829 -0.001990 -0.002544 0.009205
# 3 -0.004071 -0.001829 0.013755 0.002889 -0.000349 -0.001861
# 4 -0.001194 -0.001990 0.002889 0.041041 -0.005552 -0.011309
# 5 -0.000355 -0.002544 -0.000349 -0.005552 0.027833 0.005433
# 6 0.002790 0.009205 -0.001861 -0.011309 0.005433 0.040811
#
#
# Mechanical properties :
#
#
# Convention : Reuss Voigt Hill
#
# Bulk Modulus (GPa) = 45.31875 60.38573 52.85224
# Shear Modulus (GPa) = 26.92223 32.07656 29.49939
#
# Velocity S-wave (km/s) = 3.46844 3.78593 3.63066
# Velocity P-wave (km/s) = 6.02417 6.78927 6.41813
#
# Compressibility (1/GPa) = 0.02206592
#
# Stress axis : x y z
#
# Youngs Moduli (GPa) = 85.99014 50.02795 72.70146
#
# Poissons Ratio (x) = 0.28783 0.29594
# Poissons Ratio (y) = 0.49474 0.13301
# Poissons Ratio (z) = 0.35003 0.09153
#
# Static dielectric constant tensor:
#      x y z
#    x 4.852050 0.286620 -0.167760 
#    y 0.286620 3.920700 -0.195960 
#    z -0.167760 -0.195960 4.407430 
# 
# 
# High freq. dielectric constant tensor:
#      x y z
#    x 1.882630 -0.003680 0.006690 
#    y -0.003680 1.866930 -0.007440 
#    z 0.006690 -0.007440 1.894720 
# 
# From -- ./inp_files/138848.got.cif
#   From: 2010.06.25/outbox.cif.g09.slc.cpg/sg2_70_cif.got.tgz:138848.got - 2010.06.27 13:26:56.
