data_PCOD8018121
_publ_section_title
;
Structure prediction by ZEFSAII (Michael W. Deem and Ramdas Pophale) SiO2 
 PCOD8018121
Probable space group: P -1
;
_chemical_formula_sum "Si O2"
_cell_formula_units_Z 16
_cell_length_a 8.808723
_cell_length_b 25.738146
_cell_length_c 9.048808
_cell_angle_alpha 150.419065
_cell_angle_beta 132.936744
_cell_angle_gamma 48.746366
_cell_volume 728.593190
_symmetry_space_group_name_H-M "P -1"
_symmetry_group_IT_number 2
_symmetry_cell_setting 'triclinic'
loop_
_space_group_symop_operation_xyz
x,y,z
-x,-y,-z
loop_
_atom_site_type_symbol
_atom_site_label
_atom_site_fract_x
_atom_site_fract_y
_atom_site_fract_z
Si Si1 0.089932 0.898201 0.212272
Si Si2 0.399557 0.618861 0.567711
Si Si3 0.046921 0.379465 0.792893
Si Si4 0.542128 0.930637 0.503140
Si Si5 0.485776 0.376890 0.005928
Si Si6 0.135790 0.989415 0.916286
Si Si7 0.881219 0.228112 0.805975
Si Si8 0.786293 0.712725 0.029903
O O1 0.337127 0.889670 0.321985
O O2 0.066541 0.796664 0.047152
O O3 0.000000 0.000000 0.500000
O O4 0.959552 0.909143 0.000578
O O5 0.437370 0.500495 0.229236
O O6 0.427952 0.623260 0.771507
O O7 0.154797 0.676208 0.514980
O O8 0.566497 0.680377 0.750631
O O9 0.089629 0.372176 0.979809
O O10 0.270711 0.326252 0.733227
O O11 0.000000 0.500000 0.000000
O O12 0.731839 0.831021 0.355728
O O13 0.500000 0.000000 0.500000
O O14 0.624079 0.002266 0.862262
O O15 0.657335 0.308765 0.843652
O O16 0.133933 0.877489 0.558134
O O17 0.000000 0.000000 0.000000
O O18 0.064043 0.286383 0.010029
#
# Coordination Sequence:
#
# PCOD8018121 Si02
#       8
#     2   2   2   2   2   2   2   2
#     4  10  22  40  62  93 128 164 216 273 320 377
#     4   9  19  39  66  89 121 173 211 256 330 388
#     4   9  19  40  66  92 121 167 221 264 317 390
#     4  12  23  41  68  93 127 174 221 267 319 391
#     4   9  19  39  64  92 125 161 211 271 322 381
#     4  11  22  44  66  89 125 176 214 262 327 379
#     4  11  23  41  61  98 137 164 217 277 320 385
#     4  11  23  38  61  94 129 171 214 260 323 394
#
# _framework density 21.960128999999998
#
# number of rings (size 3 to 8) (size 9 to 14) (size 15 to 20)
#    0.000    1.750    2.500    3.000    0.000    5.500 
#    0.000   10.000    0.000    0.000    0.000    0.000 
#    0.000    0.000    0.000    0.000    0.000    0.000 
#
# Total GULP energy -198307.876105 kJ/mol
# GULP energy per Si atom -12394.242257 kJ/mol
# Density = 2.191015 g / cm^3
# Si number density = 21.960129 Si / 1000 Ang^3
#
#
#
# Elastic Constant Matrix: (Units=GPa)
#
#
# Indices 1 2 3 4 5 6 
#
# 1 181.4834 66.2086 44.7124 -7.6081 22.2830 -8.7970
# 2 66.2086 122.4895 41.0225 -12.8711 6.1163 -1.0166
# 3 44.7124 41.0225 69.9184 -14.5536 16.6955 -7.8510
# 4 -7.6081 -12.8711 -14.5536 39.1292 -13.8638 4.0425
# 5 22.2830 6.1163 16.6955 -13.8638 41.8687 -1.7537
# 6 -8.7970 -1.0166 -7.8510 4.0425 -1.7537 46.8609
#
#
#
# Elastic Compliance Matrix: (Units=1/GPa)
#
#
# Indices 1 2 3 4 5 6 
#
# 1 0.007704 -0.003360 -0.002450 -0.001744 -0.003168 0.000995
# 2 -0.003360 0.011790 -0.005084 0.002485 0.002861 -0.001334
# 3 -0.002450 -0.005084 0.021095 0.003653 -0.005053 0.002460
# 4 -0.001744 0.002485 0.003653 0.030875 0.009249 -0.001979
# 5 -0.003168 0.002861 -0.005053 0.009249 0.030186 -0.001047
# 6 0.000995 -0.001334 0.002460 -0.001979 -0.001047 0.022041
#
#
# Mechanical properties :
#
#
# Convention : Reuss Voigt Hill
#
# Bulk Modulus (GPa) = 53.19004 75.30868 64.24936
# Shear Modulus (GPa) = 32.94970 40.36828 36.65899
#
# Velocity S-wave (km/s) = 3.87774 4.29214 4.09019
# Velocity P-wave (km/s) = 6.65755 7.67666 7.18519
#
# Compressibility (1/GPa) = 0.01880051
#
# Stress axis : x y z
#
# Youngs Moduli (GPa) = 129.80744 84.81521 47.40455
#
# Poissons Ratio (x) = 0.28502 0.11612
# Poissons Ratio (y) = 0.43621 0.24101
# Poissons Ratio (z) = 0.31798 0.43122
#
# Static dielectric constant tensor:
#      x y z
#    x 4.187560 -0.163630 0.248070 
#    y -0.163630 4.817260 -0.144620 
#    z 0.248070 -0.144620 3.925000 
# 
# 
# High freq. dielectric constant tensor:
#      x y z
#    x 1.868440 -0.009450 0.016990 
#    y -0.009450 1.873570 0.003940 
#    z 0.016990 0.003940 1.838310 
# 
# From -- ./inp_files/227690.got.cif
#   From: 2010.06.25/outbox.cif.g09.slc.cpg/sg2_114_cif.got.tgz:227690.got - 2010.06.27 13:26:56.
