data_PCOD8018812
_publ_section_title
;
Structure prediction by ZEFSAII (Michael W. Deem and Ramdas Pophale) SiO2 
 PCOD8018812
Probable space group: P -1
;
_chemical_formula_sum "Si O2"
_cell_formula_units_Z 14
_cell_length_a 8.924621
_cell_length_b 18.247921
_cell_length_c 8.796139
_cell_angle_alpha 126.719072
_cell_angle_beta 62.753660
_cell_angle_gamma 147.961528
_cell_volume 605.079330
_symmetry_space_group_name_H-M "P -1"
_symmetry_group_IT_number 2
_symmetry_cell_setting 'triclinic'
loop_
_space_group_symop_operation_xyz
x,y,z
-x,-y,-z
loop_
_atom_site_type_symbol
_atom_site_label
_atom_site_fract_x
_atom_site_fract_y
_atom_site_fract_z
Si Si1 0.882480 0.888267 0.048389
Si Si2 0.133093 0.685327 0.626550
Si Si3 0.203536 0.012182 0.349192
Si Si4 0.219775 0.320462 0.362530
Si Si5 0.186045 0.852364 0.400755
Si Si6 0.325706 0.708145 0.140644
Si Si7 0.935243 0.445130 0.218479
O O1 0.661223 0.857119 0.207424
O O2 0.122228 0.960800 0.146187
O O3 0.713109 0.730721 0.850840
O O4 0.000000 0.000000 0.000000
O O5 0.918731 0.522196 0.437533
O O6 0.032570 0.738474 0.682665
O O7 0.069952 0.648312 0.790450
O O8 0.463041 0.812482 0.583942
O O9 0.159094 0.895249 0.308410
O O10 0.000000 0.000000 0.500000
O O11 0.500000 0.500000 0.500000
O O12 0.064804 0.218425 0.462358
O O13 0.149673 0.726024 0.249764
O O14 0.500000 0.000000 0.500000
O O15 0.205463 0.577274 0.146105
O O16 0.328889 0.674839 0.922305
#
# Coordination Sequence:
#
# PCOD8018812 Si02
#       7
#     2   2   2   2   2   2   2
#     4  12  27  45  72 108 148 189 250 298 363 438
#     4  11  23  44  70 101 143 186 238 296 365 425
#     4  12  26  45  75 107 140 193 247 297 358 435
#     4  12  27  46  71 110 149 191 241 307 367 430
#     4  12  24  47  74 101 148 192 239 296 367 434
#     4  11  23  44  70 101 138 188 233 291 362 430
#     4  10  22  40  72  95 135 187 232 288 367 431
#
# _framework density 23.137464000000001
#
# number of rings (size 3 to 8) (size 9 to 14) (size 15 to 20)
#    0.000    0.571    2.857    5.143    4.000    5.143 
#    0.000    1.429    0.000    0.000    0.000    0.000 
#    0.000    0.000    0.000    0.000    0.000    0.000 
#
# Total GULP energy -173439.487937 kJ/mol
# GULP energy per Si atom -12388.534853 kJ/mol
# Density = 2.308480 g / cm^3
# Si number density = 23.137464 Si / 1000 Ang^3
#
#
#
# Elastic Constant Matrix: (Units=GPa)
#
#
# Indices 1 2 3 4 5 6 
#
# 1 128.0401 54.4421 32.6930 -14.4327 17.4855 -10.4361
# 2 54.4421 105.8004 24.9909 -11.5888 17.7326 -15.7768
# 3 32.6930 24.9909 84.4654 -0.6784 13.2638 -4.4861
# 4 -14.4327 -11.5888 -0.6784 38.2070 -9.2546 8.1118
# 5 17.4855 17.7326 13.2638 -9.2546 35.8299 -13.1887
# 6 -10.4361 -15.7768 -4.4861 8.1118 -13.1887 43.0876
#
#
#
# Elastic Compliance Matrix: (Units=1/GPa)
#
#
# Indices 1 2 3 4 5 6 
#
# 1 0.010843 -0.004470 -0.002619 0.002356 -0.001579 -0.000210
# 2 -0.004470 0.013044 -0.001599 0.001100 -0.002453 0.002569
# 3 -0.002619 -0.001599 0.013876 -0.002030 -0.003796 -0.000555
# 4 0.002356 0.001100 -0.002030 0.029348 0.005504 -0.003078
# 5 -0.001579 -0.002453 -0.003796 0.005504 0.035751 0.008231
# 6 -0.000210 0.002569 -0.000555 -0.003078 0.008231 0.027140
#
#
# Mechanical properties :
#
#
# Convention : Reuss Voigt Hill
#
# Bulk Modulus (GPa) = 49.04670 60.28422 54.66546
# Shear Modulus (GPa) = 32.43118 37.17023 34.80070
#
# Velocity S-wave (km/s) = 3.74796 4.01246 3.88246
# Velocity P-wave (km/s) = 6.32246 6.89767 6.61632
#
# Compressibility (1/GPa) = 0.02038873
#
# Stress axis : x y z
#
# Youngs Moduli (GPa) = 92.22294 76.66291 72.06594
#
# Poissons Ratio (x) = 0.34266 0.18873
# Poissons Ratio (y) = 0.41221 0.11523
# Poissons Ratio (z) = 0.24151 0.12258
#
# Static dielectric constant tensor:
#      x y z
#    x 6.302280 0.292600 -1.794040 
#    y 0.292600 4.261240 -0.511440 
#    z -1.794040 -0.511440 6.625870 
# 
# 
# High freq. dielectric constant tensor:
#      x y z
#    x 1.914460 -0.009250 0.017260 
#    y -0.009250 1.922560 -0.002700 
#    z 0.017260 -0.002700 1.917270 
# 
# From -- ./inp_files/186294.got.cif
#   From: 2010.06.25/outbox.cif.g09.slc.cpg/sg2_94_cif.got.tgz:186294.got - 2010.06.27 13:26:56.
