data_PCOD8018280
_publ_section_title
;
Structure prediction by ZEFSAII (Michael W. Deem and Ramdas Pophale) SiO2 
 PCOD8018280
Probable space group: P -1
;
_chemical_formula_sum "Si O2"
_cell_formula_units_Z 16
_cell_length_a 22.033448
_cell_length_b 20.655940
_cell_length_c 7.164201
_cell_angle_alpha 65.569169
_cell_angle_beta 55.802049
_cell_angle_gamma 18.732753
_cell_volume 774.835701
_symmetry_space_group_name_H-M "P -1"
_symmetry_group_IT_number 2
_symmetry_cell_setting 'triclinic'
loop_
_space_group_symop_operation_xyz
x,y,z
-x,-y,-z
loop_
_atom_site_type_symbol
_atom_site_label
_atom_site_fract_x
_atom_site_fract_y
_atom_site_fract_z
Si Si1 0.217836 0.251653 0.971334
Si Si2 0.525040 0.638245 0.667072
Si Si3 0.620597 0.155815 0.973356
Si Si4 0.058730 0.839499 0.562122
Si Si5 0.895812 0.076093 0.891620
Si Si6 0.339882 0.070019 0.345696
Si Si7 0.433414 0.279994 0.769916
Si Si8 0.892402 0.769453 0.086716
O O1 0.454850 0.076347 0.729536
O O2 0.218843 0.179558 0.935141
O O3 0.000000 0.500000 0.000000
O O4 0.208117 0.241197 0.220359
O O5 0.771134 0.383897 0.471230
O O6 0.437370 0.778202 0.505170
O O7 0.551884 0.650350 0.808546
O O8 0.348405 0.735602 0.867267
O O9 0.455904 0.277940 0.950971
O O10 0.798512 0.051911 0.711816
O O11 0.771614 0.956548 0.051296
O O12 0.144869 0.815611 0.286674
O O13 0.061759 0.871118 0.727674
O O14 0.000000 0.000000 0.000000
O O15 0.445521 0.906183 0.249716
O O16 0.151118 0.220368 0.643645
O O17 0.167121 0.521748 0.877672
#
# Coordination Sequence:
#
# PCOD8018280 Si02
#       8
#     2   2   2   2   2   2   2   2
#     4  11  24  45  68  94 129 167 213 268 320 384
#     4  11  23  41  65  94 130 172 217 260 321 379
#     4  11  24  41  63  94 131 170 213 268 316 377
#     4  10  22  41  63  92 134 167 211 270 312 375
#     4  10  22  40  64  95 130 169 215 261 318 375
#     4  11  25  43  66  95 128 168 215 263 323 383
#     4  12  24  40  65  96 126 172 218 260 325 381
#     4  12  24  42  66  93 130 168 214 266 320 380
#
# _framework density 20.649538
#
# number of rings (size 3 to 8) (size 9 to 14) (size 15 to 20)
#    0.000    1.000    5.000    1.500    0.000    5.000 
#    0.000    0.000    0.000    0.000    0.000    0.000 
#    0.000    0.000    0.000    0.000    0.000    0.000 
#
# Total GULP energy -198470.595959 kJ/mol
# GULP energy per Si atom -12404.412247 kJ/mol
# Density = 2.060254 g / cm^3
# Si number density = 20.649538 Si / 1000 Ang^3
#
#
#
# Elastic Constant Matrix: (Units=GPa)
#
#
# Indices 1 2 3 4 5 6 
#
# 1 106.3732 33.1618 30.2260 -3.0102 10.7674 -7.0136
# 2 33.1618 88.2904 28.8962 -4.4041 4.2713 0.5546
# 3 30.2260 28.8962 98.1221 -9.2272 -1.5255 -4.6193
# 4 -3.0102 -4.4041 -9.2272 26.7159 7.0683 6.3487
# 5 10.7674 4.2713 -1.5255 7.0683 39.0205 -9.8439
# 6 -7.0136 0.5546 -4.6193 6.3487 -9.8439 29.0970
#
#
#
# Elastic Compliance Matrix: (Units=1/GPa)
#
#
# Indices 1 2 3 4 5 6 
#
# 1 0.011535 -0.003390 -0.002505 0.000185 -0.002554 0.001543
# 2 -0.003390 0.013765 -0.002976 0.001904 -0.001671 -0.002533
# 3 -0.002505 -0.002976 0.012180 0.002805 0.001291 0.001211
# 4 0.000185 0.001904 0.002805 0.044979 -0.011653 -0.013303
# 5 -0.002554 -0.001671 0.001291 -0.011653 0.031949 0.012973
# 6 0.001543 -0.002533 0.001211 -0.013303 0.012973 0.042272
#
#
# Mechanical properties :
#
#
# Convention : Reuss Voigt Hill
#
# Bulk Modulus (GPa) = 50.65906 53.03930 51.84918
# Shear Modulus (GPa) = 27.62437 32.33346 29.97892
#
# Velocity S-wave (km/s) = 3.66152 3.96134 3.81438
# Velocity P-wave (km/s) = 6.51627 6.83112 6.67555
#
# Compressibility (1/GPa) = 0.01973981
#
# Stress axis : x y z
#
# Youngs Moduli (GPa) = 86.69433 72.64785 82.10099
#
# Poissons Ratio (x) = 0.24625 0.20564
# Poissons Ratio (y) = 0.29386 0.24431
# Poissons Ratio (z) = 0.21714 0.21618
#
# Static dielectric constant tensor:
#      x y z
#    x 4.036500 0.100900 -0.086210 
#    y 0.100900 3.460550 -0.098900 
#    z -0.086210 -0.098900 3.800900 
# 
# 
# High freq. dielectric constant tensor:
#      x y z
#    x 1.828030 0.008860 -0.004960 
#    y 0.008860 1.792820 -0.007010 
#    z -0.004960 -0.007010 1.817800 
# 
# From -- ./inp_files/14812.got.cif
#   From: 2010.06.25/outbox.cif.g09.slc.cpg/sg2_8_cif.got.tgz:14812.got - 2010.06.27 13:26:56.
