data_PCOD8018005
_publ_section_title
;
Structure prediction by ZEFSAII (Michael W. Deem and Ramdas Pophale) SiO2 
 PCOD8018005
Probable space group: P -1
;
_chemical_formula_sum "Si O2"
_cell_formula_units_Z 16
_cell_length_a 12.258856
_cell_length_b 11.869605
_cell_length_c 6.662092
_cell_angle_alpha 99.267025
_cell_angle_beta 53.158002
_cell_angle_gamma 92.805307
_cell_volume 764.274267
_symmetry_space_group_name_H-M "P -1"
_symmetry_group_IT_number 2
_symmetry_cell_setting 'triclinic'
loop_
_space_group_symop_operation_xyz
x,y,z
-x,-y,-z
loop_
_atom_site_type_symbol
_atom_site_label
_atom_site_fract_x
_atom_site_fract_y
_atom_site_fract_z
Si Si1 0.997598 0.671428 0.422636
Si Si2 0.752456 0.654410 0.433784
Si Si3 0.361606 0.108084 0.381847
Si Si4 0.660438 0.044988 0.997194
Si Si5 0.766207 0.218242 0.633526
Si Si6 0.656770 0.475696 0.779957
Si Si7 0.162352 0.969360 0.815120
Si Si8 0.134911 0.447309 0.118433
O O1 0.858129 0.714688 0.482839
O O2 0.974737 0.619900 0.654330
O O3 0.098623 0.771792 0.375200
O O4 0.065366 0.571545 0.174943
O O5 0.634255 0.754277 0.566473
O O6 0.696315 0.537721 0.547608
O O7 0.826696 0.626864 0.136908
O O8 0.511858 0.057743 0.271316
O O9 0.243788 0.068140 0.648159
O O10 0.329608 0.071262 0.177783
O O11 0.783240 0.042633 0.020434
O O12 0.665414 0.149579 0.863237
O O13 0.696585 0.340932 0.682934
O O14 0.805321 0.150538 0.367706
O O15 0.730034 0.535714 0.897912
O O16 0.500000 0.500000 0.000000
O O17 0.000000 0.000000 0.000000
#
# Coordination Sequence:
#
# PCOD8018005 Si02
#       8
#     2   2   2   2   2   2   2   2
#     4   9  20  36  55  83 125 155 195 253 305 363
#     4  11  22  35  64  90 119 164 205 249 307 370
#     4  10  24  42  63  93 123 168 208 257 314 371
#     4  10  23  45  64  85 129 165 209 261 315 366
#     4  10  23  39  63  91 123 165 204 255 319 363
#     4  10  22  40  59  90 127 160 206 255 303 375
#     4  11  26  40  65  96 120 162 215 263 315 369
#     4   9  20  36  53  85 118 162 202 239 306 365
#
# _framework density 20.934892999999999
#
# number of rings (size 3 to 8) (size 9 to 14) (size 15 to 20)
#    0.000    2.000    0.000    2.250    5.250    5.500 
#    0.000    0.000    0.000    0.000    0.000    0.000 
#    0.000    0.000    0.000    0.000    0.000    0.000 
#
# Total GULP energy -198390.438034 kJ/mol
# GULP energy per Si atom -12399.402377 kJ/mol
# Density = 2.088724 g / cm^3
# Si number density = 20.934893 Si / 1000 Ang^3
#
#
#
# Elastic Constant Matrix: (Units=GPa)
#
#
# Indices 1 2 3 4 5 6 
#
# 1 94.0940 25.0258 39.6767 6.0074 -14.6998 -3.1960
# 2 25.0258 108.0786 50.4282 9.4020 -0.7353 -5.2276
# 3 39.6767 50.4282 110.7846 7.8801 -6.9292 -5.9199
# 4 6.0074 9.4020 7.8801 23.4297 6.7136 -1.4955
# 5 -14.6998 -0.7353 -6.9292 6.7136 35.9915 -0.7529
# 6 -3.1960 -5.2276 -5.9199 -1.4955 -0.7529 27.1475
#
#
#
# Elastic Compliance Matrix: (Units=1/GPa)
#
#
# Indices 1 2 3 4 5 6 
#
# 1 0.013576 -0.001022 -0.003793 -0.003314 0.005423 0.000542
# 2 -0.001022 0.012061 -0.004918 -0.002691 -0.000596 0.000965
# 3 -0.003793 -0.004918 0.012885 -0.001635 0.001164 0.001358
# 4 -0.003314 -0.002691 -0.001635 0.048299 -0.010710 0.001099
# 5 0.005423 -0.000596 0.001164 -0.010710 0.032232 0.001082
# 6 0.000542 0.000965 0.001358 0.001099 0.001082 0.037472
#
#
# Mechanical properties :
#
#
# Convention : Reuss Voigt Hill
#
# Bulk Modulus (GPa) = 52.47832 60.35763 56.41798
# Shear Modulus (GPa) = 27.42069 30.50218 28.96143
#
# Velocity S-wave (km/s) = 3.62305 3.82121 3.72345
# Velocity P-wave (km/s) = 6.52869 6.95432 6.74486
#
# Compressibility (1/GPa) = 0.01905549
#
# Stress axis : x y z
#
# Youngs Moduli (GPa) = 73.65816 82.91395 77.60808
#
# Poissons Ratio (x) = 0.08477 0.29436
# Poissons Ratio (y) = 0.07531 0.38168
# Poissons Ratio (z) = 0.27938 0.40777
#
# Static dielectric constant tensor:
#      x y z
#    x 3.762530 0.085760 -0.079630 
#    y 0.085760 3.788480 -0.011450 
#    z -0.079630 -0.011450 3.706810 
# 
# 
# High freq. dielectric constant tensor:
#      x y z
#    x 1.820060 0.006070 -0.009250 
#    y 0.006070 1.817430 0.002750 
#    z -0.009250 0.002750 1.820390 
# 
# From -- ./inp_files/71005.got.cif
#   From: 2010.06.25/outbox.cif.g09.slc.cpg/sg2_36_cif.got.tgz:71005.got - 2010.06.27 13:26:56.
