data_PCOD8018430
_publ_section_title
;
Structure prediction by ZEFSAII (Michael W. Deem and Ramdas Pophale) SiO2 
 PCOD8018430
Probable space group: P -1
;
_chemical_formula_sum "Si O2"
_cell_formula_units_Z 12
_cell_length_a 13.027443
_cell_length_b 9.721283
_cell_length_c 12.974582
_cell_angle_alpha 119.476472
_cell_angle_beta 22.872933
_cell_angle_gamma 112.311799
_cell_volume 542.642665
_symmetry_space_group_name_H-M "P -1"
_symmetry_group_IT_number 2
_symmetry_cell_setting 'triclinic'
loop_
_space_group_symop_operation_xyz
x,y,z
-x,-y,-z
loop_
_atom_site_type_symbol
_atom_site_label
_atom_site_fract_x
_atom_site_fract_y
_atom_site_fract_z
Si Si1 0.989813 0.888382 0.267203
Si Si2 0.444439 0.074047 0.893786
Si Si3 0.302331 0.428943 0.228682
Si Si4 0.632672 0.061870 0.498887
Si Si5 0.890328 0.485113 0.983702
Si Si6 0.699124 0.399203 0.496456
O O1 0.756403 0.984990 0.595476
O O2 0.055584 0.701627 0.167423
O O3 0.876735 0.919496 0.264870
O O4 0.259245 0.953968 0.056527
O O5 0.366160 0.235891 0.092014
O O6 0.412556 0.112004 0.813686
O O7 0.348005 0.475713 0.320068
O O8 0.000000 0.500000 0.500000
O O9 0.500000 0.500000 0.000000
O O10 0.759377 0.214957 0.411439
O O11 0.500000 0.000000 0.500000
O O12 0.040707 0.581386 0.801329
O O13 0.571595 0.564086 0.308604
O O14 0.000000 0.500000 0.000000
#
# Coordination Sequence:
#
# PCOD8018430 Si02
#       6
#     2   2   2   2   2   2
#     4  10  23  43  63  91 135 175 214 266 347 380
#     4  10  22  40  66  91 130 172 211 273 337 375
#     4  12  22  43  67 101 141 168 220 288 334 390
#     4  10  23  39  68  98 128 167 230 273 334 392
#     4  12  27  46  66  97 144 179 220 277 336 404
#     4  12  26  42  71 105 126 181 232 269 338 400
#
# _framework density 22.113997999999999
#
# number of rings (size 3 to 8) (size 9 to 14) (size 15 to 20)
#    1.000    0.000    1.667    5.500    4.667    0.667 
#    0.000    5.000    0.000    0.000    0.000    0.000 
#    0.000    0.000    0.000    0.000    0.000    0.000 
#
# Total GULP energy -148810.318460 kJ/mol
# GULP energy per Si atom -12400.859872 kJ/mol
# Density = 2.206367 g / cm^3
# Si number density = 22.113998 Si / 1000 Ang^3
#
#
#
# Elastic Constant Matrix: (Units=GPa)
#
#
# Indices 1 2 3 4 5 6 
#
# 1 62.5759 -6.2676 -7.0586 -14.6104 8.6294 11.2014
# 2 -6.2676 117.4759 42.2416 -19.3757 -3.0656 14.8319
# 3 -7.0586 42.2416 77.6856 -22.0006 -9.4071 4.9305
# 4 -14.6104 -19.3757 -22.0006 39.6572 2.4764 -5.7281
# 5 8.6294 -3.0656 -9.4071 2.4764 40.3738 8.7366
# 6 11.2014 14.8319 4.9305 -5.7281 8.7366 30.8696
#
#
#
# Elastic Compliance Matrix: (Units=1/GPa)
#
#
# Indices 1 2 3 4 5 6 
#
# 1 0.020389 0.002177 0.003533 0.009761 -0.002568 -0.006471
# 2 0.002177 0.011515 -0.004877 0.002983 0.000181 -0.005042
# 3 0.003533 -0.004877 0.018827 0.009019 0.002947 -0.001106
# 4 0.009761 0.002983 0.009019 0.035516 -0.002103 0.000770
# 5 -0.002568 0.000181 0.002947 -0.002103 0.027856 -0.007900
# 6 -0.006471 -0.005042 -0.001106 0.000770 -0.007900 0.039720
#
#
# Mechanical properties :
#
#
# Convention : Reuss Voigt Hill
#
# Bulk Modulus (GPa) = 19.08523 35.06313 27.07418
# Shear Modulus (GPa) = 29.47725 37.43492 33.45608
#
# Velocity S-wave (km/s) = 3.65494 4.11885 3.89381
# Velocity P-wave (km/s) = 5.14399 6.20564 5.69958
#
# Compressibility (1/GPa) = 0.05239655
#
# Stress axis : x y z
#
# Youngs Moduli (GPa) = 49.04712 86.83961 53.11633
#
# Poissons Ratio (x) = -0.18908 -0.18764
# Poissons Ratio (y) = -0.10679 0.25905
# Poissons Ratio (z) = -0.17326 0.42352
#
# Static dielectric constant tensor:
#      x y z
#    x 3.873720 0.148490 -0.008660 
#    y 0.148490 4.138610 -0.004340 
#    z -0.008660 -0.004340 3.992820 
# 
# 
# High freq. dielectric constant tensor:
#      x y z
#    x 1.858720 0.007950 -0.005160 
#    y 0.007950 1.884900 -0.004340 
#    z -0.005160 -0.004340 1.874260 
# 
# From -- ./inp_files/417726.got.cif
#   From: 2010.06.25/outbox.cif.g09.slc.cpg/sg2_209_cif.got.tgz:417726.got - 2010.06.27 13:26:56.
