data_PCOD8018133
_publ_section_title
;
Structure prediction by ZEFSAII (Michael W. Deem and Ramdas Pophale) SiO2 
 PCOD8018133
Probable space group: P -1
;
_chemical_formula_sum "Si O2"
_cell_formula_units_Z 16
_cell_length_a 17.526047
_cell_length_b 8.333614
_cell_length_c 9.921261
_cell_angle_alpha 69.748171
_cell_angle_beta 36.331993
_cell_angle_gamma 72.314543
_cell_volume 804.626564
_symmetry_space_group_name_H-M "P -1"
_symmetry_group_IT_number 2
_symmetry_cell_setting 'triclinic'
loop_
_space_group_symop_operation_xyz
x,y,z
-x,-y,-z
loop_
_atom_site_type_symbol
_atom_site_label
_atom_site_fract_x
_atom_site_fract_y
_atom_site_fract_z
Si Si1 0.776041 0.166889 0.853515
Si Si2 0.981306 0.411575 0.407630
Si Si3 0.786078 0.204217 0.127381
Si Si4 0.503678 0.368974 0.157042
Si Si5 0.725261 0.836728 0.342206
Si Si6 0.981766 0.641957 0.102245
Si Si7 0.407062 0.485311 0.756408
Si Si8 0.237027 0.210795 0.009425
O O1 0.871105 0.276407 0.600022
O O2 0.778282 0.974487 0.849190
O O3 0.838439 0.149884 0.920111
O O4 0.630728 0.243554 0.019315
O O5 0.107112 0.324945 0.184147
O O6 0.000000 0.500000 0.500000
O O7 0.932347 0.559541 0.333718
O O8 0.701756 0.370043 0.158704
O O9 0.708290 0.041337 0.338251
O O10 0.889104 0.256702 0.077979
O O11 0.376707 0.257933 0.390255
O O12 0.508702 0.496736 0.236744
O O13 0.500000 0.500000 0.000000
O O14 0.872554 0.782960 0.179528
O O15 0.709066 0.796703 0.218516
O O16 0.000000 0.500000 0.000000
O O17 0.500000 0.500000 0.500000
O O18 0.347149 0.301015 0.909705
#
# Coordination Sequence:
#
# PCOD8018133 Si02
#       8
#     2   2   2   2   2   2   2   2
#     4  10  23  40  65  94 129 165 211 263 310 375
#     4  12  21  41  65  89 130 166 213 256 312 374
#     4  10  22  40  62  95 123 165 216 252 314 372
#     4  11  24  44  64  93 128 167 206 255 326 375
#     4  11  23  39  65  95 131 163 208 268 311 374
#     4  12  22  40  63  94 130 163 211 257 316 372
#     4  11  21  39  68  90 122 165 209 258 306 381
#     4  11  22  40  64 100 123 165 218 259 313 369
#
# _framework density 19.885000999999999
#
# number of rings (size 3 to 8) (size 9 to 14) (size 15 to 20)
#    0.000    1.000    5.000    2.250    1.750    1.500 
#    0.000    1.875    0.000    0.000    0.000    0.000 
#    0.000    0.000    0.000    0.000    0.000    0.000 
#
# Total GULP energy -198248.605385 kJ/mol
# GULP energy per Si atom -12390.537837 kJ/mol
# Density = 1.983974 g / cm^3
# Si number density = 19.885001 Si / 1000 Ang^3
#
#
#
# Elastic Constant Matrix: (Units=GPa)
#
#
# Indices 1 2 3 4 5 6 
#
# 1 102.1116 36.2008 25.6198 -14.4402 -0.7178 11.1088
# 2 36.2008 104.1664 35.0887 -30.2405 1.1833 20.6099
# 3 25.6198 35.0887 107.9688 -27.9271 -2.5852 16.2751
# 4 -14.4402 -30.2405 -27.9271 37.0722 2.7954 -3.5251
# 5 -0.7178 1.1833 -2.5852 2.7954 31.3258 -6.6410
# 6 11.1088 20.6099 16.2751 -3.5251 -6.6410 27.5063
#
#
#
# Elastic Compliance Matrix: (Units=1/GPa)
#
#
# Indices 1 2 3 4 5 6 
#
# 1 0.011470 -0.002970 -0.001280 0.000943 -0.000146 -0.001564
# 2 -0.002970 0.015951 -0.000185 0.011038 -0.003823 -0.010151
# 3 -0.001280 -0.000185 0.012683 0.008408 -0.001001 -0.006012
# 4 0.000943 0.011038 0.008408 0.042186 -0.005490 -0.009545
# 5 -0.000146 -0.003823 -0.001001 -0.005490 0.034851 0.011226
# 6 -0.001564 -0.010151 -0.006012 -0.009545 0.011226 0.049637
#
#
# Mechanical properties :
#
#
# Convention : Reuss Voigt Hill
#
# Bulk Modulus (GPa) = 32.01817 56.45172 44.23495
# Shear Modulus (GPa) = 26.87298 33.67002 30.27150
#
# Velocity S-wave (km/s) = 3.68015 4.11936 3.90594
# Velocity P-wave (km/s) = 5.84762 7.14676 6.52958
#
# Compressibility (1/GPa) = 0.03123226
#
# Stress axis : x y z
#
# Youngs Moduli (GPa) = 87.18534 62.69228 78.84421
#
# Poissons Ratio (x) = 0.18620 0.10095
# Poissons Ratio (y) = 0.25894 0.01462
# Poissons Ratio (z) = 0.11163 0.01163
#
# Static dielectric constant tensor:
#      x y z
#    x 3.701410 0.148050 0.011990 
#    y 0.148050 3.825620 -0.135440 
#    z 0.011990 -0.135440 3.622490 
# 
# 
# High freq. dielectric constant tensor:
#      x y z
#    x 1.769100 0.005640 -0.006790 
#    y 0.005640 1.788810 -0.013550 
#    z -0.006790 -0.013550 1.776410 
# 
# From -- ./inp_files/262524.got.cif
#   From: 2010.06.25/outbox.cif.g09.slc.cpg/sg2_132_cif.got.tgz:262524.got - 2010.06.27 13:26:56.
