data_PCOD8018154
_publ_section_title
;
Structure prediction by ZEFSAII (Michael W. Deem and Ramdas Pophale) SiO2 
 PCOD8018154
Probable space group: P -1
;
_chemical_formula_sum "Si O2"
_cell_formula_units_Z 16
_cell_length_a 9.762315
_cell_length_b 16.423640
_cell_length_c 11.652102
_cell_angle_alpha 62.339029
_cell_angle_beta 121.007494
_cell_angle_gamma 66.363748
_cell_volume 762.524902
_symmetry_space_group_name_H-M "P -1"
_symmetry_group_IT_number 2
_symmetry_cell_setting 'triclinic'
loop_
_space_group_symop_operation_xyz
x,y,z
-x,-y,-z
loop_
_atom_site_type_symbol
_atom_site_label
_atom_site_fract_x
_atom_site_fract_y
_atom_site_fract_z
Si Si1 0.608398 0.974517 0.244398
Si Si2 0.371230 0.822523 0.649367
Si Si3 0.582076 0.100847 0.930078
Si Si4 0.266251 0.771074 0.408527
Si Si5 0.576384 0.633308 0.398262
Si Si6 0.348409 0.586757 0.171205
Si Si7 0.885404 0.194684 0.282721
Si Si8 0.127121 0.290391 0.979595
O O1 0.920507 0.831002 0.538380
O O2 0.583976 0.072322 0.082792
O O3 0.606988 0.879296 0.239510
O O4 0.336265 0.113683 0.124657
O O5 0.375287 0.785872 0.545416
O O6 0.339625 0.753517 0.769172
O O7 0.095504 0.025349 0.411328
O O8 0.681829 0.721850 0.872099
O O9 0.422419 0.276748 0.738849
O O10 0.914540 0.943268 0.128875
O O11 0.411114 0.738110 0.376347
O O12 0.367319 0.617832 0.578762
O O13 0.400630 0.637281 0.257622
O O14 0.912226 0.439062 0.694249
O O15 0.055819 0.671301 0.024242
O O16 0.309770 0.650005 0.988876
#
# Coordination Sequence:
#
# PCOD8018154 Si02
#       8
#     2   2   2   2   2   2   2   2
#     4  10  22  40  63  88 129 157 205 261 304 365
#     4  10  22  40  65  89 126 165 206 253 307 364
#     4  11  22  39  63  94 120 163 209 256 306 364
#     4  11  22  41  63  91 127 161 206 259 301 369
#     4  11  24  40  64  91 124 166 208 252 312 366
#     4  11  24  40  65  91 127 165 206 252 312 364
#     4  10  22  42  63  91 125 164 207 248 312 371
#     4  10  23  42  60  93 127 163 202 258 306 366
#
# _framework density 20.982921999999999
#
# number of rings (size 3 to 8) (size 9 to 14) (size 15 to 20)
#    0.000    1.500    1.250    4.125    3.500    8.000 
#    4.500    0.000    0.000    0.000    0.000    0.000 
#    0.000    0.000    0.000    0.000    0.000    0.000 
#
# Total GULP energy -198507.282113 kJ/mol
# GULP energy per Si atom -12406.705132 kJ/mol
# Density = 2.093516 g / cm^3
# Si number density = 20.982922 Si / 1000 Ang^3
#
#
#
# Elastic Constant Matrix: (Units=GPa)
#
#
# Indices 1 2 3 4 5 6 
#
# 1 57.4913 13.2755 29.0083 11.7642 2.6865 16.5904
# 2 13.2755 92.8005 24.1202 28.1436 8.0653 6.6500
# 3 29.0083 24.1202 70.4359 18.8038 -8.6916 17.2793
# 4 11.7642 28.1436 18.8038 30.8415 2.5716 -3.4097
# 5 2.6865 8.0653 -8.6916 2.5716 36.2075 2.0388
# 6 16.5904 6.6500 17.2793 -3.4097 2.0388 24.3896
#
#
#
# Elastic Compliance Matrix: (Units=1/GPa)
#
#
# Indices 1 2 3 4 5 6 
#
# 1 0.026386 0.002053 -0.005015 -0.010516 -0.001956 -0.016262
# 2 0.002053 0.016160 -0.000680 -0.015725 -0.002386 -0.007320
# 3 -0.005015 -0.000680 0.026436 -0.016348 0.009054 -0.018175
# 4 -0.010516 -0.015725 -0.016348 0.064863 -0.006084 0.032599
# 5 -0.001956 -0.002386 0.009054 -0.006084 0.031346 -0.007904
# 6 -0.016262 -0.007320 -0.018175 0.032599 -0.007904 0.072153
#
#
# Mechanical properties :
#
#
# Convention : Reuss Voigt Hill
#
# Bulk Modulus (GPa) = 16.20801 39.28178 27.74489
# Shear Modulus (GPa) = 18.85423 28.57595 23.71509
#
# Velocity S-wave (km/s) = 3.00084 3.69435 3.36551
# Velocity P-wave (km/s) = 4.44385 6.07940 5.32480
#
# Compressibility (1/GPa) = 0.06169790
#
# Stress axis : x y z
#
# Youngs Moduli (GPa) = 37.89886 61.88271 37.82757
#
# Poissons Ratio (x) = -0.12705 0.18969
# Poissons Ratio (y) = -0.07781 0.02573
# Poissons Ratio (z) = 0.19005 0.04209
#
# Static dielectric constant tensor:
#      x y z
#    x 3.758490 0.065320 -0.002830 
#    y 0.065320 3.788270 0.087080 
#    z -0.002830 0.087080 3.755180 
# 
# 
# High freq. dielectric constant tensor:
#      x y z
#    x 1.822510 0.002880 0.001350 
#    y 0.002880 1.829010 0.010820 
#    z 0.001350 0.010820 1.820790 
# 
# From -- ./inp_files/277642.got.cif
#   From: 2010.06.25/outbox.cif.g09.slc.cpg/sg2_139_cif.got.tgz:277642.got - 2010.06.27 13:26:56.
