data_PCOD8018055
_publ_section_title
;
Structure prediction by ZEFSAII (Michael W. Deem and Ramdas Pophale) SiO2 
 PCOD8018055
Probable space group: P -1
;
_chemical_formula_sum "Si O2"
_cell_formula_units_Z 14
_cell_length_a 11.777608
_cell_length_b 9.091697
_cell_length_c 8.912083
_cell_angle_alpha 109.504904
_cell_angle_beta 74.870217
_cell_angle_gamma 127.589154
_cell_volume 710.687382
_symmetry_space_group_name_H-M "P -1"
_symmetry_group_IT_number 2
_symmetry_cell_setting 'triclinic'
loop_
_space_group_symop_operation_xyz
x,y,z
-x,-y,-z
loop_
_atom_site_type_symbol
_atom_site_label
_atom_site_fract_x
_atom_site_fract_y
_atom_site_fract_z
Si Si1 0.568777 0.665551 0.152418
Si Si2 0.417891 0.541599 0.658989
Si Si3 0.784238 0.369418 0.366538
Si Si4 0.688463 0.297368 0.709494
Si Si5 0.593107 0.970041 0.843671
Si Si6 0.771564 0.068201 0.085387
Si Si7 0.970590 0.552336 0.865704
O O1 0.634733 0.612480 0.244073
O O2 0.442158 0.682689 0.258759
O O3 0.705382 0.861982 0.107760
O O4 0.500000 0.500000 0.000000
O O5 0.500000 0.500000 0.500000
O O6 0.280404 0.513687 0.618719
O O7 0.523323 0.751988 0.759308
O O8 0.765817 0.327935 0.535499
O O9 0.704355 0.168585 0.232287
O O10 0.952787 0.498993 0.305271
O O11 0.803749 0.447579 0.845267
O O12 0.626892 0.086033 0.717607
O O13 0.500000 0.000000 0.000000
O O14 0.739146 0.049262 0.912536
O O15 0.945919 0.215299 0.090043
O O16 0.000000 0.500000 0.000000
#
# Coordination Sequence:
#
# PCOD8018055 Si02
#       7
#     2   2   2   2   2   2   2
#     4  12  24  37  63  91 127 160 202 259 315 367
#     4  12  24  38  60  96 133 160 199 261 326 364
#     4  10  23  40  62  90 126 159 212 254 311 367
#     4  12  22  39  67  91 123 164 208 260 309 366
#     4  12  20  38  64  92 123 163 215 257 296 372
#     4  10  22  40  61  92 119 160 215 253 303 368
#     4  10  22  40  67  89 119 161 218 260 300 365
#
# _framework density 19.699238999999999
#
# number of rings (size 3 to 8) (size 9 to 14) (size 15 to 20)
#    0.857    0.000    7.143    0.429    4.000    1.143 
#    0.000    0.714    3.143    1.714    0.000    0.000 
#    0.000    0.000    0.000    0.000    0.000    0.000 
#
# Total GULP energy -173496.564189 kJ/mol
# GULP energy per Si atom -12392.611728 kJ/mol
# Density = 1.965440 g / cm^3
# Si number density = 19.699239 Si / 1000 Ang^3
#
#
#
# Elastic Constant Matrix: (Units=GPa)
#
#
# Indices 1 2 3 4 5 6 
#
# 1 53.8108 33.9713 2.1293 -4.9775 15.4163 -5.2692
# 2 33.9713 128.5125 26.4572 -12.1804 6.0862 -11.3456
# 3 2.1293 26.4572 84.0501 -15.8699 5.3267 -13.2605
# 4 -4.9775 -12.1804 -15.8699 44.4814 -5.9786 6.6407
# 5 15.4163 6.0862 5.3267 -5.9786 28.9359 -3.5070
# 6 -5.2692 -11.3456 -13.2605 6.6407 -3.5070 33.2263
#
#
#
# Elastic Compliance Matrix: (Units=1/GPa)
#
#
# Indices 1 2 3 4 5 6 
#
# 1 0.026683 -0.006820 0.002548 0.000044 -0.013056 0.001533
# 2 -0.006820 0.010273 -0.002779 0.001180 0.002390 0.001333
# 3 0.002548 -0.002779 0.014194 0.003682 -0.002121 0.004160
# 4 0.000044 0.001180 0.003682 0.025052 0.003898 -0.002716
# 5 -0.013056 0.002390 -0.002121 0.003898 0.042401 0.001596
# 6 0.001533 0.001333 0.004160 -0.002716 0.001596 0.033167
#
#
# Mechanical properties :
#
#
# Convention : Reuss Voigt Hill
#
# Bulk Modulus (GPa) = 26.99213 43.49878 35.24545
# Shear Modulus (GPa) = 28.05502 34.91644 31.48573
#
# Velocity S-wave (km/s) = 3.77791 4.21465 4.00224
# Velocity P-wave (km/s) = 5.72381 6.76858 6.26800
#
# Compressibility (1/GPa) = 0.03704783
#
# Stress axis : x y z
#
# Youngs Moduli (GPa) = 37.47701 97.34452 70.45284
#
# Poissons Ratio (x) = 0.66392 -0.17955
# Poissons Ratio (y) = 0.25560 0.19579
# Poissons Ratio (z) = -0.09551 0.27053
#
# Static dielectric constant tensor:
#      x y z
#    x 3.284640 0.104980 -0.034150 
#    y 0.104980 3.531670 -0.022480 
#    z -0.034150 -0.022480 3.547600 
# 
# 
# High freq. dielectric constant tensor:
#      x y z
#    x 1.747990 0.000340 0.013980 
#    y 0.000340 1.770250 -0.011840 
#    z 0.013980 -0.011840 1.771990 
# 
# From -- ./inp_files/235588.got.cif
#   From: 2010.06.25/outbox.cif.g09.slc.cpg/sg2_118_cif.got.tgz:235588.got - 2010.06.27 13:26:56.
