data_PCOD8018062
_publ_section_title
;
Structure prediction by ZEFSAII (Michael W. Deem and Ramdas Pophale) SiO2 
 PCOD8018062
Probable space group: P -1
;
_chemical_formula_sum "Si O2"
_cell_formula_units_Z 14
_cell_length_a 8.201309
_cell_length_b 13.913213
_cell_length_c 21.419767
_cell_angle_alpha 155.879290
_cell_angle_beta 40.498410
_cell_angle_gamma 138.924313
_cell_volume 631.972826
_symmetry_space_group_name_H-M "P -1"
_symmetry_group_IT_number 2
_symmetry_cell_setting 'triclinic'
loop_
_space_group_symop_operation_xyz
x,y,z
-x,-y,-z
loop_
_atom_site_type_symbol
_atom_site_label
_atom_site_fract_x
_atom_site_fract_y
_atom_site_fract_z
Si Si1 0.617686 0.270098 0.827925
Si Si2 0.836839 0.684476 0.330461
Si Si3 0.364480 0.757285 0.567762
Si Si4 0.093977 0.489097 0.367174
Si Si5 0.530242 0.222566 0.076855
Si Si6 0.199197 0.950595 0.546087
Si Si7 0.846876 0.232733 0.872846
O O1 0.695310 0.208983 0.838131
O O2 0.871417 0.322268 0.739859
O O3 0.404489 0.046193 0.730550
O O4 0.500000 0.500000 0.000000
O O5 0.644631 0.683649 0.444680
O O6 0.733141 0.457513 0.181209
O O7 0.849891 0.937992 0.440334
O O8 0.229264 0.664299 0.487156
O O9 0.196513 0.639038 0.605438
O O10 0.252593 0.286088 0.185270
O O11 0.088418 0.659518 0.409489
O O12 0.635788 0.138754 0.931913
O O13 0.500000 0.000000 0.000000
O O14 0.500000 0.000000 0.500000
O O15 0.055284 0.067364 0.711792
O O16 0.000000 0.500000 0.000000
#
# Coordination Sequence:
#
# PCOD8018062 Si02
#       7
#     2   2   2   2   2   2   2
#     4  11  25  40  67  97 132 172 214 273 323 382
#     4  10  22  41  62  97 124 173 215 265 324 383
#     4  10  22  40  61  93 130 158 222 251 326 382
#     4  10  23  38  66  96 122 175 213 265 323 390
#     4  11  23  38  66  95 133 166 221 266 324 385
#     4  11  19  37  64  95 124 162 222 264 313 384
#     4  11  23  41  64  94 131 166 222 264 321 383
#
# _framework density 22.152849
#
# number of rings (size 3 to 8) (size 9 to 14) (size 15 to 20)
#    0.000    1.429    5.714    0.429   10.000    1.143 
#    0.000    3.571    3.143    0.000    0.000    0.000 
#    0.000    0.000    0.000    0.000    0.000    0.000 
#
# Total GULP energy -173570.605225 kJ/mol
# GULP energy per Si atom -12397.900373 kJ/mol
# Density = 2.210243 g / cm^3
# Si number density = 22.152849 Si / 1000 Ang^3
#
#
#
# Elastic Constant Matrix: (Units=GPa)
#
#
# Indices 1 2 3 4 5 6 
#
# 1 36.5109 30.7873 31.9255 -7.8566 -18.1945 7.9791
# 2 30.7873 179.3828 74.4316 -25.6659 -27.0383 13.2008
# 3 31.9255 74.4316 147.6987 -19.8292 -32.7954 8.3660
# 4 -7.8566 -25.6659 -19.8292 44.6936 1.8934 -3.0687
# 5 -18.1945 -27.0383 -32.7954 1.8934 41.7484 0.2551
# 6 7.9791 13.2008 8.3660 -3.0687 0.2551 30.2923
#
#
#
# Elastic Compliance Matrix: (Units=1/GPa)
#
#
# Indices 1 2 3 4 5 6 
#
# 1 0.042319 -0.002478 -0.003959 0.003079 0.013643 -0.008777
# 2 -0.002478 0.007866 -0.002532 0.002753 0.001912 -0.001813
# 3 -0.003959 -0.002532 0.010239 0.002164 0.004583 -0.000501
# 4 0.003079 0.002753 0.002164 0.025296 0.003678 -0.000077
# 5 0.013643 0.001912 0.004583 0.003678 0.034605 -0.005611
# 6 -0.008777 -0.001813 -0.000501 -0.000077 -0.005611 0.036292
#
#
# Mechanical properties :
#
#
# Convention : Reuss Voigt Hill
#
# Bulk Modulus (GPa) = 23.53637 70.87568 47.20602
# Shear Modulus (GPa) = 26.49500 38.44339 32.46919
#
# Velocity S-wave (km/s) = 3.46209 4.17030 3.83259
# Velocity P-wave (km/s) = 5.16033 7.43316 6.39847
#
# Compressibility (1/GPa) = 0.04248744
#
# Stress axis : x y z
#
# Youngs Moduli (GPa) = 23.62978 127.13206 97.67002
#
# Poissons Ratio (x) = 0.31499 0.38668
# Poissons Ratio (y) = 0.05855 0.24725
# Poissons Ratio (z) = 0.09355 0.32184
#
# Static dielectric constant tensor:
#      x y z
#    x 3.721530 0.134120 -0.127580 
#    y 0.134120 4.487860 -0.246050 
#    z -0.127580 -0.246050 4.305650 
# 
# 
# High freq. dielectric constant tensor:
#      x y z
#    x 1.834410 0.009420 -0.007550 
#    y 0.009420 1.887470 -0.013480 
#    z -0.007550 -0.013480 1.884960 
# 
# From -- ./inp_files/450772.got.cif
#   From: 2010.06.25/outbox.cif.g09.slc.cpg/sg2_226_cif.got.tgz:450772.got - 2010.06.27 13:26:56.
