data_PCOD8018556
_publ_section_title
;
Structure prediction by ZEFSAII (Michael W. Deem and Ramdas Pophale) SiO2 
 PCOD8018556
Probable space group: P -1
;
_chemical_formula_sum "Si O2"
_cell_formula_units_Z 14
_cell_length_a 15.029212
_cell_length_b 5.214944
_cell_length_c 21.885363
_cell_angle_alpha 67.923345
_cell_angle_beta 155.432599
_cell_angle_gamma 98.728924
_cell_volume 574.860896
_symmetry_space_group_name_H-M "P -1"
_symmetry_group_IT_number 2
_symmetry_cell_setting 'triclinic'
loop_
_space_group_symop_operation_xyz
x,y,z
-x,-y,-z
loop_
_atom_site_type_symbol
_atom_site_label
_atom_site_fract_x
_atom_site_fract_y
_atom_site_fract_z
Si Si1 0.474985 0.539301 0.282038
Si Si2 0.147818 0.911385 0.527165
Si Si3 0.746654 0.966665 0.057849
Si Si4 0.346528 0.284653 0.332371
Si Si5 0.233271 0.663881 0.846995
Si Si6 0.033420 0.991009 0.122806
Si Si7 0.261894 0.264113 0.653481
O O1 0.576978 0.277007 0.314087
O O2 0.529340 0.350519 0.397336
O O3 0.619066 0.734100 0.340412
O O4 0.184185 0.792498 0.079268
O O5 0.056567 0.644102 0.501346
O O6 0.167642 0.018396 0.599159
O O7 0.958562 0.181532 0.341094
O O8 0.827625 0.595654 0.139401
O O9 0.918069 0.031646 0.114188
O O10 0.782137 0.080108 0.136233
O O11 0.461476 0.156428 0.841662
O O12 0.169425 0.617106 0.225532
O O13 0.500000 0.000000 0.500000
O O14 0.205110 0.151887 0.214190
O O15 0.500000 0.500000 0.000000
#
# Coordination Sequence:
#
# PCOD8018556 Si02
#       7
#     2   2   2   2   2   2   2
#     4   9  24  39  67  86 137 170 231 258 327 368
#     4  10  22  40  67  94 130 171 221 265 332 385
#     4  11  24  44  71  93 132 171 222 264 336 398
#     4  12  26  39  60 100 132 171 222 273 314 374
#     4  12  26  45  69 101 134 168 210 274 344 402
#     4  11  25  41  66  88 130 177 221 266 324 376
#     4   9  21  40  68  94 124 177 223 260 318 385
#
# _framework density 24.353718000000001
#
# number of rings (size 3 to 8) (size 9 to 14) (size 15 to 20)
#    0.857    0.571    0.000    4.286   10.000    0.000 
#    0.000    4.286    0.000    0.000    0.000    0.000 
#    0.000    0.000    0.000    0.000    0.000    0.000 
#
# Total GULP energy -173490.162916 kJ/mol
# GULP energy per Si atom -12392.154494 kJ/mol
# Density = 2.429829 g / cm^3
# Si number density = 24.353718 Si / 1000 Ang^3
#
#
#
# Elastic Constant Matrix: (Units=GPa)
#
#
# Indices 1 2 3 4 5 6 
#
# 1 89.4323 17.1894 9.7768 -6.0851 -1.6784 2.3980
# 2 17.1894 141.3236 36.7452 -9.8039 -1.9692 -15.0421
# 3 9.7768 36.7452 105.6894 -25.9401 -7.4082 -13.8155
# 4 -6.0851 -9.8039 -25.9401 40.7677 -1.8238 -0.0639
# 5 -1.6784 -1.9692 -7.4082 -1.8238 37.6428 -5.5934
# 6 2.3980 -15.0421 -13.8155 -0.0639 -5.5934 47.7140
#
#
#
# Elastic Compliance Matrix: (Units=1/GPa)
#
#
# Indices 1 2 3 4 5 6 
#
# 1 0.011598 -0.001326 -0.000462 0.001128 0.000247 -0.001104
# 2 -0.001326 0.008078 -0.002352 0.000260 0.000204 0.001957
# 3 -0.000462 -0.002352 0.012892 0.007720 0.003274 0.003409
# 4 0.001128 0.000260 0.007720 0.029830 0.003430 0.002703
# 5 0.000247 0.000204 0.003274 0.003430 0.028035 0.004291
# 6 -0.001104 0.001957 0.003409 0.002703 0.004291 0.023124
#
#
# Mechanical properties :
#
#
# Convention : Reuss Voigt Hill
#
# Bulk Modulus (GPa) = 41.17333 51.54091 46.35712
# Shear Modulus (GPa) = 38.48101 43.40715 40.94408
#
# Velocity S-wave (km/s) = 3.97934 4.22638 4.10472
# Velocity P-wave (km/s) = 6.16901 6.71013 6.44525
#
# Compressibility (1/GPa) = 0.02428757
#
# Stress axis : x y z
#
# Youngs Moduli (GPa) = 86.22123 123.79388 77.56730
#
# Poissons Ratio (x) = 0.16421 0.03584
# Poissons Ratio (y) = 0.11437 0.18242
# Poissons Ratio (z) = 0.03983 0.29114
#
# Static dielectric constant tensor:
#      x y z
#    x 4.766200 0.314270 0.152730 
#    y 0.314270 4.186370 0.040700 
#    z 0.152730 0.040700 4.152400 
# 
# 
# High freq. dielectric constant tensor:
#      x y z
#    x 1.997830 0.013360 0.010710 
#    y 0.013360 1.985700 -0.018470 
#    z 0.010710 -0.018470 1.962110 
# 
# From -- ./inp_files/596560.got.cif
#   From: 2010.06.25/outbox.cif.g09.slc.cpg/sg2_299_cif.got.tgz:596560.got - 2010.06.27 13:26:56.
