data_PCOD8018366
_publ_section_title
;
Structure prediction by ZEFSAII (Michael W. Deem and Ramdas Pophale) SiO2 
 PCOD8018366
Probable space group: P -1
;
_chemical_formula_sum "Si O2"
_cell_formula_units_Z 14
_cell_length_a 12.840207
_cell_length_b 10.020632
_cell_length_c 11.001713
_cell_angle_alpha 74.838218
_cell_angle_beta 32.417690
_cell_angle_gamma 60.547366
_cell_volume 624.025636
_symmetry_space_group_name_H-M "P -1"
_symmetry_group_IT_number 2
_symmetry_cell_setting 'triclinic'
loop_
_space_group_symop_operation_xyz
x,y,z
-x,-y,-z
loop_
_atom_site_type_symbol
_atom_site_label
_atom_site_fract_x
_atom_site_fract_y
_atom_site_fract_z
Si Si1 0.064830 0.125358 0.361198
Si Si2 0.701309 0.844722 0.273712
Si Si3 0.072981 0.325254 0.514430
Si Si4 0.491382 0.998883 0.823911
Si Si5 0.099971 0.762946 0.077660
Si Si6 0.468324 0.657184 0.560362
Si Si7 0.839847 0.089163 0.385419
O O1 0.981724 0.264090 0.509140
O O2 0.926025 0.188295 0.355297
O O3 0.334611 0.045154 0.087318
O O4 0.000000 0.000000 0.500000
O O5 0.681532 0.904379 0.140136
O O6 0.939067 0.804075 0.107549
O O7 0.684928 0.681505 0.344999
O O8 0.500000 0.000000 0.500000
O O9 0.934656 0.351988 0.769223
O O10 0.000000 0.500000 0.500000
O O11 0.345607 0.198943 0.302109
O O12 0.675092 0.055061 0.640601
O O13 0.049225 0.919317 0.168797
O O14 0.361869 0.669534 0.796012
O O15 0.500000 0.500000 0.500000
O O16 0.285706 0.814840 0.631833
#
# Coordination Sequence:
#
# PCOD8018366 Si02
#       7
#     2   2   2   2   2   2   2
#     4  12  23  41  66  91 122 171 218 251 300 369
#     4  11  21  40  71  93 117 167 211 255 318 368
#     4  11  25  42  62  95 131 169 205 259 316 366
#     4  10  22  41  67  90 126 163 214 259 304 372
#     4  11  22  42  67  92 127 164 215 256 305 383
#     4  11  25  40  63 101 129 155 205 267 323 368
#     4  10  22  40  65  95 121 167 214 255 308 373
#
# _framework density 22.434975000000001
#
# number of rings (size 3 to 8) (size 9 to 14) (size 15 to 20)
#    0.000    1.143    7.143    1.714    2.000    4.000 
#    0.000    0.714    0.000    0.000    0.000    0.000 
#    0.000    0.000    0.000    0.000    0.000    0.000 
#
# Total GULP energy -173462.524007 kJ/mol
# GULP energy per Si atom -12390.180286 kJ/mol
# Density = 2.238391 g / cm^3
# Si number density = 22.434975 Si / 1000 Ang^3
#
#
#
# Elastic Constant Matrix: (Units=GPa)
#
#
# Indices 1 2 3 4 5 6 
#
# 1 101.6270 18.3540 10.6515 0.3969 -4.5364 17.5884
# 2 18.3540 121.3752 30.8092 -11.8072 10.7701 5.6054
# 3 10.6515 30.8092 125.7074 -10.4247 15.7078 -0.1024
# 4 0.3969 -11.8072 -10.4247 15.1657 3.7876 3.4648
# 5 -4.5364 10.7701 15.7078 3.7876 17.3844 0.8621
# 6 17.5884 5.6054 -0.1024 3.4648 0.8621 35.0117
#
#
#
# Elastic Compliance Matrix: (Units=1/GPa)
#
#
# Indices 1 2 3 4 5 6 
#
# 1 0.011619 -0.002039 -0.001626 -0.003486 0.006789 -0.005337
# 2 -0.002039 0.010537 -0.000427 0.010524 -0.008894 -0.001486
# 3 -0.001626 -0.000427 0.010482 0.009804 -0.011779 0.000236
# 4 -0.003486 0.010524 0.009804 0.091775 -0.035881 -0.008104
# 5 0.006789 -0.008894 -0.011779 -0.035881 0.083291 -0.000521
# 6 -0.005337 -0.001486 0.000236 -0.008104 -0.000521 0.032297
#
#
# Mechanical properties :
#
#
# Convention : Reuss Voigt Hill
#
# Bulk Modulus (GPa) = 40.89348 52.03768 46.46558
# Shear Modulus (GPa) = 19.50553 32.77201 26.13877
#
# Velocity S-wave (km/s) = 2.95180 3.82613 3.41704
# Velocity P-wave (km/s) = 5.46668 6.53944 6.02698
#
# Compressibility (1/GPa) = 0.02445377
#
# Stress axis : x y z
#
# Youngs Moduli (GPa) = 86.06544 94.90132 95.39727
#
# Poissons Ratio (x) = 0.19352 0.15516
# Poissons Ratio (y) = 0.17550 0.04072
# Poissons Ratio (z) = 0.13998 0.04051
#
# Static dielectric constant tensor:
#      x y z
#    x 4.619140 0.005250 -0.220270 
#    y 0.005250 4.102820 -0.658670 
#    z -0.220270 -0.658670 4.356330 
# 
# 
# High freq. dielectric constant tensor:
#      x y z
#    x 1.898970 0.003750 0.016140 
#    y 0.003750 1.853330 -0.026850 
#    z 0.016140 -0.026850 1.887900 
# 
# From -- ./inp_files/444283.got.cif
#   From: 2010.06.25/outbox.cif.g09.slc.cpg/sg2_223_cif.got.tgz:444283.got - 2010.06.27 13:26:56.
