data_PCOD8018401
_publ_section_title
;
Structure prediction by ZEFSAII (Michael W. Deem and Ramdas Pophale) SiO2 
 PCOD8018401
Probable space group: P -1
;
_chemical_formula_sum "Si O2"
_cell_formula_units_Z 14
_cell_length_a 14.970678
_cell_length_b 8.753552
_cell_length_c 7.819837
_cell_angle_alpha 80.059540
_cell_angle_beta 65.218735
_cell_angle_gamma 34.202191
_cell_volume 491.639825
_symmetry_space_group_name_H-M "P -1"
_symmetry_group_IT_number 2
_symmetry_cell_setting 'triclinic'
loop_
_space_group_symop_operation_xyz
x,y,z
-x,-y,-z
loop_
_atom_site_type_symbol
_atom_site_label
_atom_site_fract_x
_atom_site_fract_y
_atom_site_fract_z
Si Si1 0.456191 0.807397 0.270572
Si Si2 0.053951 0.901588 0.203847
Si Si3 0.635419 0.297322 0.085964
Si Si4 0.911444 0.677828 0.704990
Si Si5 0.607461 0.013172 0.337032
Si Si6 0.814063 0.424079 0.492281
Si Si7 0.202787 0.452772 0.962299
O O1 0.561177 0.502805 0.262965
O O2 0.364616 0.979372 0.489777
O O3 0.600690 0.741929 0.089577
O O4 0.296823 0.991136 0.224590
O O5 0.145822 0.672764 0.323787
O O6 0.166814 0.909220 0.092978
O O7 0.059591 0.789688 0.043036
O O8 0.851943 0.226382 0.369807
O O9 0.660065 0.086863 0.161026
O O10 0.500000 0.500000 0.000000
O O11 0.000000 0.500000 0.500000
O O12 0.042484 0.637714 0.675417
O O13 0.899946 0.550855 0.867125
O O14 0.397926 0.240691 0.420708
O O15 0.741493 0.686923 0.244821
#
# Coordination Sequence:
#
# PCOD8018401 Si02
#       7
#     2   2   2   2   2   2   2
#     4  11  26  44  68 102 141 179 227 287 342 404
#     4  10  22  40  66 100 132 175 232 280 323 401
#     4  11  21  42  71  99 132 185 236 271 331 422
#     4  12  24  42  72 102 132 180 238 282 334 406
#     4  12  25  44  70 104 141 178 225 287 348 397
#     4  11  23  41  69 103 136 173 230 282 339 402
#     4  11  24  44  70  99 135 185 232 277 333 420
#
# _framework density 28.476130999999999
#
# number of rings (size 3 to 8) (size 9 to 14) (size 15 to 20)
#    0.000    0.857    2.857    4.714    4.000    0.000 
#    0.000    7.143    0.000    1.714    0.000    0.000 
#    0.000    0.000    0.000    0.000    0.000    0.000 
#
# Total GULP energy -173434.260929 kJ/mol
# GULP energy per Si atom -12388.161495 kJ/mol
# Density = 2.841132 g / cm^3
# Si number density = 28.476131 Si / 1000 Ang^3
#
#
#
# Elastic Constant Matrix: (Units=GPa)
#
#
# Indices 1 2 3 4 5 6 
#
# 1 121.4419 47.0514 56.9967 -2.7604 -17.0534 15.8207
# 2 47.0514 95.4822 35.8378 31.1278 8.1905 24.6668
# 3 56.9967 35.8378 137.6962 14.5116 -10.3948 30.4692
# 4 -2.7604 31.1278 14.5116 47.0698 31.0137 12.7033
# 5 -17.0534 8.1905 -10.3948 31.0137 70.6590 13.8742
# 6 15.8207 24.6668 30.4692 12.7033 13.8742 53.3484
#
#
#
# Elastic Compliance Matrix: (Units=1/GPa)
#
#
# Indices 1 2 3 4 5 6 
#
# 1 0.013172 -0.007035 -0.004278 0.006341 0.000555 0.000135
# 2 -0.007035 0.019273 0.000701 -0.014339 0.003386 -0.004691
# 3 -0.004278 0.000701 0.010764 -0.005132 0.003693 -0.004941
# 4 0.006341 -0.014339 -0.005132 0.043372 -0.016945 0.001760
# 5 0.000555 0.003386 0.003693 -0.016945 0.023011 -0.005789
# 6 0.000135 -0.004691 -0.004941 0.001760 -0.005789 0.024782
#
#
# Mechanical properties :
#
#
# Convention : Reuss Voigt Hill
#
# Bulk Modulus (GPa) = 45.48605 70.48801 57.98703
# Shear Modulus (GPa) = 30.68858 48.53108 39.60983
#
# Velocity S-wave (km/s) = 3.28639 4.13276 3.73364
# Velocity P-wave (km/s) = 5.51439 6.89783 6.24454
#
# Compressibility (1/GPa) = 0.02198476
#
# Stress axis : x y z
#
# Youngs Moduli (GPa) = 75.91651 51.88562 92.90506
#
# Poissons Ratio (x) = 0.36504 0.39742
# Poissons Ratio (y) = 0.53411 -0.06512
# Poissons Ratio (z) = 0.32475 -0.03637
#
# Static dielectric constant tensor:
#      x y z
#    x 4.458750 0.963810 0.201430 
#    y 0.963810 5.044380 0.529090 
#    z 0.201430 0.529090 5.060960 
# 
# 
# High freq. dielectric constant tensor:
#      x y z
#    x 2.157500 0.020400 0.006710 
#    y 0.020400 2.160210 0.017670 
#    z 0.006710 0.017670 2.180940 
# 
# From -- ./inp_files/298160.got.cif
#   From: 2010.06.25/outbox.cif.g09.slc.cpg/sg2_150_cif.got.tgz:298160.got - 2010.06.27 13:26:56.
