data_PCOD8018802
_publ_section_title
;
Structure prediction by ZEFSAII (Michael W. Deem and Ramdas Pophale) SiO2 
 PCOD8018802
Probable space group: P -1
;
_chemical_formula_sum "Si O2"
_cell_formula_units_Z 16
_cell_length_a 14.605048
_cell_length_b 8.833508
_cell_length_c 9.187645
_cell_angle_alpha 65.138210
_cell_angle_beta 136.618170
_cell_angle_gamma 102.744764
_cell_volume 731.805964
_symmetry_space_group_name_H-M "P -1"
_symmetry_group_IT_number 2
_symmetry_cell_setting 'triclinic'
loop_
_space_group_symop_operation_xyz
x,y,z
-x,-y,-z
loop_
_atom_site_type_symbol
_atom_site_label
_atom_site_fract_x
_atom_site_fract_y
_atom_site_fract_z
Si Si1 0.216792 0.241066 0.940251
Si Si2 0.996247 0.960938 0.343435
Si Si3 0.376373 0.422150 0.829375
Si Si4 0.023779 0.403508 0.856471
Si Si5 0.623433 0.959344 0.553031
Si Si6 0.596861 0.852164 0.253822
Si Si7 0.805397 0.235264 0.553886
Si Si8 0.105482 0.270299 0.299536
O O1 0.333284 0.289949 0.950945
O O2 0.111287 0.399312 0.810161
O O3 0.143856 0.104488 0.826376
O O4 0.268679 0.167139 0.185634
O O5 0.127756 0.835481 0.491968
O O6 0.997723 0.142692 0.196035
O O7 0.000000 0.000000 0.500000
O O8 0.424769 0.325345 0.773866
O O9 0.257267 0.571313 0.611673
O O10 0.500000 0.500000 0.000000
O O11 0.927351 0.254581 0.799129
O O12 0.942202 0.591926 0.687490
O O13 0.118146 0.371094 0.122475
O O14 0.563793 0.870570 0.379770
O O15 0.500000 0.000000 0.500000
O O16 0.693910 0.122530 0.524954
O O17 0.759602 0.846683 0.439635
O O18 0.500000 0.000000 0.000000
#
# Coordination Sequence:
#
# PCOD8018802 Si02
#       8
#     2   2   2   2   2   2   2   2
#     4  11  24  44  70 104 142 180 239 289 359 426
#     4  11  24  38  69 105 143 181 227 285 357 430
#     4  12  27  47  68 100 143 192 234 295 357 418
#     4  10  22  40  72 102 140 180 219 302 354 424
#     4  12  25  47  72 100 136 192 246 294 345 429
#     4  12  24  45  72  98 140 190 236 292 352 425
#     4  11  23  42  70 100 145 180 233 289 359 412
#     4  11  21  42  67 106 141 174 234 284 366 414
#
# _framework density 21.863721000000002
#
# number of rings (size 3 to 8) (size 9 to 14) (size 15 to 20)
#    0.000    0.750    3.750    3.750    1.750    3.000 
#    0.000    5.000    0.000    0.000    0.000    0.000 
#    0.000    0.000    0.000    0.000    0.000    0.000 
#
# Total GULP energy -198224.807150 kJ/mol
# GULP energy per Si atom -12389.050447 kJ/mol
# Density = 2.181396 g / cm^3
# Si number density = 21.863721 Si / 1000 Ang^3
#
#
#
# Elastic Constant Matrix: (Units=GPa)
#
#
# Indices 1 2 3 4 5 6 
#
# 1 134.1721 75.9922 47.7905 13.2322 3.5239 -21.8905
# 2 75.9922 152.7711 47.3542 18.2486 -1.5324 -18.5616
# 3 47.7905 47.3542 118.1968 10.9100 -4.4650 -13.0728
# 4 13.2322 18.2486 10.9100 39.5892 -2.3144 -0.7384
# 5 3.5239 -1.5324 -4.4650 -2.3144 26.4547 6.9372
# 6 -21.8905 -18.5616 -13.0728 -0.7384 6.9372 50.3594
#
#
#
# Elastic Compliance Matrix: (Units=1/GPa)
#
#
# Indices 1 2 3 4 5 6 
#
# 1 0.011629 -0.004492 -0.002559 -0.001238 -0.003177 0.003154
# 2 -0.004492 0.009749 -0.001725 -0.002475 0.000365 0.001106
# 3 -0.002559 -0.001725 0.010432 -0.001111 0.001719 0.000707
# 4 -0.001238 -0.002475 -0.001111 0.027244 0.002665 -0.001706
# 5 -0.003177 0.000365 0.001719 0.002665 0.040428 -0.006330
# 6 0.003154 0.001106 0.000707 -0.001706 -0.006330 0.022667
#
#
# Mechanical properties :
#
#
# Convention : Reuss Voigt Hill
#
# Bulk Modulus (GPa) = 70.13876 83.04597 76.59237
# Shear Modulus (GPa) = 34.61352 38.88088 36.74720
#
# Velocity S-wave (km/s) = 3.98320 4.22160 4.10413
# Velocity P-wave (km/s) = 7.30097 7.86311 7.58724
#
# Compressibility (1/GPa) = 0.01425745
#
# Stress axis : x y z
#
# Youngs Moduli (GPa) = 85.99200 102.57977 95.86039
#
# Poissons Ratio (x) = 0.46079 0.24532
# Poissons Ratio (y) = 0.38628 0.16534
# Poissons Ratio (z) = 0.22006 0.17693
#
# Static dielectric constant tensor:
#      x y z
#    x 4.085740 -0.200870 0.118170 
#    y -0.200870 3.971410 0.467430 
#    z 0.118170 0.467430 3.684650 
# 
# 
# High freq. dielectric constant tensor:
#      x y z
#    x 1.860170 -0.026430 0.005130 
#    y -0.026430 1.867290 0.013060 
#    z 0.005130 0.013060 1.860680 
# 
# From -- ./inp_files/291976.got.cif
#   From: 2010.06.25/outbox.cif.g09.slc.cpg/sg2_146_cif.got.tgz:291976.got - 2010.06.27 13:26:56.
