data_PCOD8018902
_publ_section_title
;
Structure prediction by ZEFSAII (Michael W. Deem and Ramdas Pophale) SiO2 
 PCOD8018902
Probable space group: P -1
;
_chemical_formula_sum "Si O2"
_cell_formula_units_Z 16
_cell_length_a 8.167206
_cell_length_b 8.222113
_cell_length_c 12.827714
_cell_angle_alpha 85.999846
_cell_angle_beta 50.166848
_cell_angle_gamma 90.416112
_cell_volume 658.351921
_symmetry_space_group_name_H-M "P -1"
_symmetry_group_IT_number 2
_symmetry_cell_setting 'triclinic'
loop_
_space_group_symop_operation_xyz
x,y,z
-x,-y,-z
loop_
_atom_site_type_symbol
_atom_site_label
_atom_site_fract_x
_atom_site_fract_y
_atom_site_fract_z
Si Si1 0.223177 0.698640 0.844098
Si Si2 0.500106 0.421846 0.776995
Si Si3 0.576092 0.890150 0.565026
Si Si4 0.045605 0.264500 0.676810
Si Si5 0.878111 0.086775 0.952548
Si Si6 0.227038 0.820251 0.404162
Si Si7 0.102072 0.390694 0.312326
Si Si8 0.235598 0.250911 0.056727
O O1 0.300247 0.515925 0.813685
O O2 0.358384 0.810448 0.703216
O O3 0.975911 0.691973 0.916297
O O4 0.258325 0.775818 0.943031
O O5 0.552754 0.274804 0.684181
O O6 0.712229 0.544675 0.687185
O O7 0.442240 0.349200 0.918494
O O8 0.720717 0.753265 0.465846
O O9 0.500000 0.000000 0.500000
O O10 0.715722 0.995471 0.589486
O O11 0.030236 0.174864 0.799090
O O12 0.868034 0.181945 0.673812
O O13 0.015572 0.457111 0.694500
O O14 0.733711 0.942155 0.961976
O O15 0.000000 0.000000 0.000000
O O16 0.062883 0.730900 0.555131
O O17 0.220060 0.289403 0.182348
#
# Coordination Sequence:
#
# PCOD8018902 Si02
#       8
#     2   2   2   2   2   2   2   2
#     4  11  23  41  63  92 127 167 211 262 316 376
#     4  11  23  41  64  92 126 167 213 262 313 377
#     4  12  24  41  65  97 130 168 212 262 317 380
#     4  11  23  42  67  93 127 171 212 262 320 376
#     4  10  22  41  62  91 127 166 209 260 313 373
#     4  11  24  44  66  94 129 169 213 263 317 378
#     4  11  23  43  65  94 129 166 211 264 314 377
#     4  11  23  41  63  91 127 168 209 261 317 373
#
# _framework density 24.303108000000002
#
# number of rings (size 3 to 8) (size 9 to 14) (size 15 to 20)
#    0.000    1.000    0.000    8.625    0.000    5.000 
#    0.000    6.250    0.000    0.000    0.000    0.000 
#    0.000    0.000    0.000    0.000    0.000    0.000 
#
# Total GULP energy -198412.684025 kJ/mol
# GULP energy per Si atom -12400.792752 kJ/mol
# Density = 2.424779 g / cm^3
# Si number density = 24.303108 Si / 1000 Ang^3
#
#
#
# Elastic Constant Matrix: (Units=GPa)
#
#
# Indices 1 2 3 4 5 6 
#
# 1 33.8983 -4.5242 -0.2435 -0.1983 -1.8201 -4.0263
# 2 -4.5242 44.4186 18.2454 -1.4433 -1.0328 -0.7041
# 3 -0.2435 18.2454 137.7230 -7.5709 0.8818 1.9533
# 4 -0.1983 -1.4433 -7.5709 44.0955 -4.2153 -2.4536
# 5 -1.8201 -1.0328 0.8818 -4.2153 39.5853 2.0911
# 6 -4.0263 -0.7041 1.9533 -2.4536 2.0911 23.8273
#
#
#
# Elastic Compliance Matrix: (Units=1/GPa)
#
#
# Indices 1 2 3 4 5 6 
#
# 1 0.030654 0.003441 -0.000452 0.000590 0.001294 0.005266
# 2 0.003441 0.024239 -0.003209 0.000422 0.000826 0.001532
# 3 -0.000452 -0.003209 0.007760 0.001177 -0.000116 -0.000676
# 4 0.000590 0.000422 0.001177 0.023246 0.002371 0.002201
# 5 0.001294 0.000826 -0.000116 0.002371 0.025691 -0.001758
# 6 0.005266 0.001532 -0.000676 0.002201 -0.001758 0.043340
#
#
# Mechanical properties :
#
#
# Convention : Reuss Voigt Hill
#
# Bulk Modulus (GPa) = 16.07390 26.99950 21.53670
# Shear Modulus (GPa) = 28.39164 35.00579 31.69871
#
# Velocity S-wave (km/s) = 3.42165 3.79936 3.61544
# Velocity P-wave (km/s) = 4.71577 5.51184 5.12927
#
# Compressibility (1/GPa) = 0.06221266
#
# Stress axis : x y z
#
# Youngs Moduli (GPa) = 32.62185 41.25618 128.86152
#
# Poissons Ratio (x) = -0.14195 0.05827
# Poissons Ratio (y) = -0.11224 0.41350
# Poissons Ratio (z) = 0.01475 0.13239
#
# Static dielectric constant tensor:
#      x y z
#    x 4.131190 0.005500 -0.062380 
#    y 0.005500 4.844650 0.428230 
#    z -0.062380 0.428230 4.761300 
# 
# 
# High freq. dielectric constant tensor:
#      x y z
#    x 1.938320 -0.004680 -0.004330 
#    y -0.004680 1.976030 0.008410 
#    z -0.004330 0.008410 1.987370 
# 
# From -- ./inp_files/345935.got.cif
#   From: 2010.06.25/outbox.cif.g09.slc.cpg/sg2_173_cif.got.tgz:345935.got - 2010.06.27 13:26:56.
