data_PCOD8018424
_publ_section_title
;
Structure prediction by ZEFSAII (Michael W. Deem and Ramdas Pophale) SiO2 
 PCOD8018424
Probable space group: P -1
;
_chemical_formula_sum "Si O2"
_cell_formula_units_Z 14
_cell_length_a 17.507928
_cell_length_b 20.207465
_cell_length_c 9.672588
_cell_angle_alpha 136.737294
_cell_angle_beta 143.634759
_cell_angle_gamma 19.619479
_cell_volume 673.369976
_symmetry_space_group_name_H-M "P -1"
_symmetry_group_IT_number 2
_symmetry_cell_setting 'triclinic'
loop_
_space_group_symop_operation_xyz
x,y,z
-x,-y,-z
loop_
_atom_site_type_symbol
_atom_site_label
_atom_site_fract_x
_atom_site_fract_y
_atom_site_fract_z
Si Si1 0.293260 0.711026 0.079354
Si Si2 0.027261 0.663772 0.051359
Si Si3 0.260543 0.366082 0.751811
Si Si4 0.435783 0.896029 0.953035
Si Si5 0.627665 0.776715 0.765514
Si Si6 0.703105 0.085017 0.739858
Si Si7 0.439028 0.366680 0.409734
O O1 0.300086 0.801705 0.135009
O O2 0.371206 0.684112 0.310466
O O3 0.500000 0.500000 0.000000
O O4 0.998181 0.859320 0.872934
O O5 0.223898 0.569297 0.317025
O O6 0.195694 0.516814 0.941265
O O7 0.838658 0.874644 0.050332
O O8 0.870501 0.672428 0.891582
O O9 0.508300 0.202995 0.763873
O O10 0.000000 0.500000 0.500000
O O11 0.345150 0.241680 0.815193
O O12 0.534363 0.887792 0.944267
O O13 0.386925 0.815171 0.718461
O O14 0.384472 0.929237 0.533418
O O15 0.711784 0.609821 0.669528
#
# Coordination Sequence:
#
# PCOD8018424 Si02
#       7
#     2   2   2   2   2   2   2
#     4  10  22  40  66  89 112 159 211 252 298 346
#     4  11  19  35  60  88 123 162 202 235 303 365
#     4  11  23  40  58  88 132 163 190 243 311 367
#     4   9  22  35  57  88 121 159 201 244 296 356
#     4   9  18  37  57  88 118 161 196 251 291 352
#     4  10  22  41  61  89 126 152 200 259 295 350
#     4   8  20  34  57  86 113 150 199 254 291 338
#
# _framework density 20.790948
#
# number of rings (size 3 to 8) (size 9 to 14) (size 15 to 20)
#    0.857    1.429    1.429    0.857    2.000    1.714 
#    2.571    2.857    0.000    5.143    0.000    0.000 
#    0.000    0.000    0.000    0.000    0.000    0.000 
#
# Total GULP energy -173471.380866 kJ/mol
# GULP energy per Si atom -12390.812919 kJ/mol
# Density = 2.074363 g / cm^3
# Si number density = 20.790948 Si / 1000 Ang^3
#
#
#
# Elastic Constant Matrix: (Units=GPa)
#
#
# Indices 1 2 3 4 5 6 
#
# 1 53.4445 32.6109 45.9285 -7.6788 -15.3932 -20.1483
# 2 32.6109 151.6709 66.3015 -22.2384 -19.6388 -5.3786
# 3 45.9285 66.3015 164.1297 -28.6100 -35.0843 -5.2136
# 4 -7.6788 -22.2384 -28.6100 28.3735 0.6580 -2.3665
# 5 -15.3932 -19.6388 -35.0843 0.6580 27.0365 -3.6405
# 6 -20.1483 -5.3786 -5.2136 -2.3665 -3.6405 29.3089
#
#
#
# Elastic Compliance Matrix: (Units=1/GPa)
#
#
# Indices 1 2 3 4 5 6 
#
# 1 0.042898 -0.002402 -0.004104 0.007728 0.021421 0.031604
# 2 -0.002402 0.008858 -0.001324 0.004926 0.003302 0.000547
# 3 -0.004104 -0.001324 0.012262 0.010048 0.012569 0.001490
# 4 0.007728 0.004926 0.010048 0.052068 0.021758 0.014911
# 5 0.021421 0.003302 0.012569 0.021758 0.071155 0.028163
# 6 0.031604 0.000547 0.001490 0.014911 0.028163 0.060913
#
#
# Mechanical properties :
#
#
# Convention : Reuss Voigt Hill
#
# Bulk Modulus (GPa) = 20.67929 73.21412 46.94670
# Shear Modulus (GPa) = 17.86146 31.90406 24.88276
#
# Velocity S-wave (km/s) = 2.93422 3.92154 3.46324
# Velocity P-wave (km/s) = 4.63113 7.46964 6.21462
#
# Compressibility (1/GPa) = 0.04835756
#
# Stress axis : x y z
#
# Youngs Moduli (GPa) = 23.31100 112.89574 81.55516
#
# Poissons Ratio (x) = 0.27118 0.33469
# Poissons Ratio (y) = 0.05599 0.10799
# Poissons Ratio (z) = 0.09567 0.14948
#
# Static dielectric constant tensor:
#      x y z
#    x 3.590190 -0.062210 -0.212330 
#    y -0.062210 3.644130 -0.094210 
#    z -0.212330 -0.094210 4.050270 
# 
# 
# High freq. dielectric constant tensor:
#      x y z
#    x 1.778030 -0.000600 -0.029030 
#    y -0.000600 1.809150 -0.008540 
#    z -0.029030 -0.008540 1.820040 
# 
# From -- ./inp_files/337854.got.cif
#   From: 2010.06.25/outbox.cif.g09.slc.cpg/sg2_169_cif.got.tgz:337854.got - 2010.06.27 13:26:56.
