data_PCOD8018612
_publ_section_title
;
Structure prediction by ZEFSAII (Michael W. Deem and Ramdas Pophale) SiO2 
 PCOD8018612
Probable space group: P -1
;
_chemical_formula_sum "Si O2"
_cell_formula_units_Z 14
_cell_length_a 11.466813
_cell_length_b 14.760568
_cell_length_c 10.459954
_cell_angle_alpha 129.219552
_cell_angle_beta 140.008596
_cell_angle_gamma 31.485506
_cell_volume 593.083002
_symmetry_space_group_name_H-M "P -1"
_symmetry_group_IT_number 2
_symmetry_cell_setting 'triclinic'
loop_
_space_group_symop_operation_xyz
x,y,z
-x,-y,-z
loop_
_atom_site_type_symbol
_atom_site_label
_atom_site_fract_x
_atom_site_fract_y
_atom_site_fract_z
Si Si1 0.054679 0.561826 0.882838
Si Si2 0.030601 0.155573 0.299451
Si Si3 0.796064 0.151451 0.718565
Si Si4 0.486280 0.642067 0.098086
Si Si5 0.241592 0.644871 0.327081
Si Si6 0.273036 0.077171 0.165456
Si Si7 0.112460 0.273832 0.688997
O O1 0.239450 0.444017 0.809914
O O2 0.999548 0.457400 0.794966
O O3 0.787469 0.760969 0.791734
O O4 0.227691 0.555955 0.122717
O O5 0.239181 0.086543 0.299100
O O6 0.967413 0.302018 0.459826
O O7 0.158907 0.009287 0.385666
O O8 0.771179 0.210576 0.077190
O O9 0.547178 0.285045 0.726592
O O10 0.729517 0.237096 0.600351
O O11 0.056855 0.095877 0.937398
O O12 0.500000 0.500000 0.000000
O O13 0.500000 0.500000 0.500000
O O14 0.975573 0.763344 0.297403
O O15 0.565870 0.891894 0.205237
#
# Coordination Sequence:
#
# PCOD8018612 Si02
#       7
#     2   2   2   2   2   2   2
#     4  11  23  43  68  95 130 170 210 267 327 379
#     4  11  22  40  64  99 129 162 217 265 317 386
#     4  10  22  40  68  93 125 168 218 268 312 377
#     4  11  18  40  71  94 124 167 211 264 322 368
#     4  11  25  44  67  93 124 170 228 264 308 385
#     4  10  22  42  64  97 129 163 211 266 326 383
#     4  12  26  40  63  94 137 174 206 262 327 381
#
# _framework density 23.605464999999999
#
# number of rings (size 3 to 8) (size 9 to 14) (size 15 to 20)
#    0.000    1.143    4.286    5.143    0.000    4.571 
#    0.000    2.857    0.000    0.000    0.000    0.000 
#    0.000    0.000    0.000    0.000    0.000    0.000 
#
# Total GULP energy -173526.526400 kJ/mol
# GULP energy per Si atom -12394.751886 kJ/mol
# Density = 2.355174 g / cm^3
# Si number density = 23.605465 Si / 1000 Ang^3
#
#
#
# Elastic Constant Matrix: (Units=GPa)
#
#
# Indices 1 2 3 4 5 6 
#
# 1 92.6685 40.4840 29.6912 -8.7194 -31.8544 0.7737
# 2 40.4840 124.3833 17.4502 -7.4963 -9.9446 29.7287
# 3 29.6912 17.4502 43.0525 -4.0627 -17.1905 21.7576
# 4 -8.7194 -7.4963 -4.0627 30.7594 3.9803 -6.5219
# 5 -31.8544 -9.9446 -17.1905 3.9803 22.7988 -7.0423
# 6 0.7737 29.7287 21.7576 -6.5219 -7.0423 48.2959
#
#
#
# Elastic Compliance Matrix: (Units=1/GPa)
#
#
# Indices 1 2 3 4 5 6 
#
# 1 0.030247 -0.009056 -0.011082 0.003791 0.034102 0.015567
# 2 -0.009056 0.012292 0.003112 -0.000251 -0.007997 -0.010023
# 3 -0.011082 0.003112 0.045384 -0.002567 0.014222 -0.020456
# 4 0.003791 -0.000251 -0.002567 0.034537 -0.000995 0.005769
# 5 0.034102 -0.007997 0.014222 -0.000995 0.102883 0.012837
# 6 0.015567 -0.010023 -0.020456 0.005769 0.012837 0.038492
#
#
# Mechanical properties :
#
#
# Convention : Reuss Voigt Hill
#
# Bulk Modulus (GPa) = 18.56321 48.37279 33.46800
# Shear Modulus (GPa) = 15.83057 31.86941 23.84999
#
# Velocity S-wave (km/s) = 2.59247 3.67834 3.18206
# Velocity P-wave (km/s) = 4.10392 6.21103 5.26399
#
# Compressibility (1/GPa) = 0.05386999
#
# Stress axis : x y z
#
# Youngs Moduli (GPa) = 33.06094 81.35635 22.03429
#
# Poissons Ratio (x) = 0.73674 0.24419
# Poissons Ratio (y) = 0.29939 -0.06856
# Poissons Ratio (z) = 0.36639 -0.25315
#
# Static dielectric constant tensor:
#      x y z
#    x 4.368140 0.308350 -0.192810 
#    y 0.308350 4.341760 0.119100 
#    z -0.192810 0.119100 3.531620 
# 
# 
# High freq. dielectric constant tensor:
#      x y z
#    x 1.940200 0.009800 -0.006720 
#    y 0.009800 1.938440 -0.000520 
#    z -0.006720 -0.000520 1.915150 
# 
# From -- ./inp_files/274149.got.cif
#   From: 2010.06.25/outbox.cif.g09.slc.cpg/sg2_138_cif.got.tgz:274149.got - 2010.06.27 13:26:56.
