data_PCOD8018174
_publ_section_title
;
Structure prediction by ZEFSAII (Michael W. Deem and Ramdas Pophale) SiO2 
 PCOD8018174
Probable space group: P -1
;
_chemical_formula_sum "Si O2"
_cell_formula_units_Z 16
_cell_length_a 12.148746
_cell_length_b 12.281099
_cell_length_c 18.017995
_cell_angle_alpha 27.928939
_cell_angle_beta 144.200782
_cell_angle_gamma 134.720594
_cell_volume 735.698761
_symmetry_space_group_name_H-M "P -1"
_symmetry_group_IT_number 2
_symmetry_cell_setting 'triclinic'
loop_
_space_group_symop_operation_xyz
x,y,z
-x,-y,-z
loop_
_atom_site_type_symbol
_atom_site_label
_atom_site_fract_x
_atom_site_fract_y
_atom_site_fract_z
Si Si1 0.496008 0.268430 0.310495
Si Si2 0.625913 0.727112 0.604123
Si Si3 0.320039 0.125789 0.159285
Si Si4 0.585144 0.336859 0.705362
Si Si5 0.950088 0.033538 0.088515
Si Si6 0.305041 0.335816 0.861977
Si Si7 0.003863 0.777858 0.837069
Si Si8 0.602050 0.059785 0.095736
O O1 0.423957 0.390917 0.272889
O O2 0.361457 0.296781 0.147865
O O3 0.691899 0.383683 0.321135
O O4 0.500000 0.000000 0.500000
O O5 0.663359 0.490780 0.721584
O O6 0.817933 0.866537 0.635410
O O7 0.468238 0.901982 0.375585
O O8 0.110741 0.040389 0.110170
O O9 0.326331 0.269878 0.000112
O O10 0.500000 0.500000 0.500000
O O11 0.763562 0.177939 0.869856
O O12 0.407898 0.185065 0.719599
O O13 0.017402 0.119699 0.153185
O O14 0.882502 0.767078 0.214400
O O15 0.493391 0.251787 0.971138
O O16 0.184237 0.874775 0.837418
O O17 0.000000 0.500000 0.000000
O O18 0.500000 0.000000 0.000000
#
# Coordination Sequence:
#
# PCOD8018174 Si02
#       8
#     2   2   2   2   2   2   2   2
#     4  10  22  40  63  91 128 173 218 264 325 388
#     4  11  22  41  67  93 133 173 221 276 324 389
#     4  11  24  43  64  95 136 177 216 267 338 396
#     4  11  23  42  66 100 133 169 217 280 335 386
#     4  11  23  40  69  97 130 176 222 263 335 396
#     4  11  22  40  65  95 132 172 219 272 330 394
#     4  12  21  39  69 102 127 171 226 277 324 387
#     4  11  21  39  67 100 125 168 224 269 327 393
#
# _framework density 21.748031000000001
#
# number of rings (size 3 to 8) (size 9 to 14) (size 15 to 20)
#    0.000    1.000    5.000    3.750    0.000    0.000 
#    0.000   11.250    0.000    0.000    0.000    0.000 
#    0.000    0.000    0.000    0.000    0.000    0.000 
#
# Total GULP energy -198215.538329 kJ/mol
# GULP energy per Si atom -12388.471146 kJ/mol
# Density = 2.169853 g / cm^3
# Si number density = 21.748031 Si / 1000 Ang^3
#
#
#
# Elastic Constant Matrix: (Units=GPa)
#
#
# Indices 1 2 3 4 5 6 
#
# 1 139.1004 53.2652 49.9593 -2.6625 -16.1761 34.7644
# 2 53.2652 134.9201 50.1687 -7.5167 -17.7261 28.8847
# 3 49.9593 50.1687 84.7895 -12.4297 -15.9407 21.6150
# 4 -2.6625 -7.5167 -12.4297 26.8248 9.3700 -7.6011
# 5 -16.1761 -17.7261 -15.9407 9.3700 31.2943 1.8012
# 6 34.7644 28.8847 21.6150 -7.6011 1.8012 50.3479
#
#
#
# Elastic Compliance Matrix: (Units=1/GPa)
#
#
# Indices 1 2 3 4 5 6 
#
# 1 0.011075 -0.001207 -0.004043 -0.004459 0.004665 -0.006059
# 2 -0.001207 0.010691 -0.004080 -0.001538 0.004040 -0.003925
# 3 -0.004043 -0.004080 0.018596 0.005174 0.003649 -0.002200
# 4 -0.004459 -0.001538 0.005174 0.046708 -0.015063 0.009330
# 5 0.004665 0.004040 0.003649 -0.015063 0.043653 -0.010941
# 6 -0.006059 -0.003925 -0.002200 0.009330 -0.010941 0.029042
#
#
# Mechanical properties :
#
#
# Convention : Reuss Voigt Hill
#
# Bulk Modulus (GPa) = 46.08095 73.95516 60.01806
# Shear Modulus (GPa) = 26.93130 35.38786 31.15958
#
# Velocity S-wave (km/s) = 3.52281 4.03820 3.78928
# Velocity P-wave (km/s) = 6.14667 7.47142 6.84118
#
# Compressibility (1/GPa) = 0.02170094
#
# Stress axis : x y z
#
# Youngs Moduli (GPa) = 90.29463 93.53886 53.77640
#
# Poissons Ratio (x) = 0.11292 0.21743
# Poissons Ratio (y) = 0.10901 0.21939
# Poissons Ratio (z) = 0.36509 0.38160
#
# Static dielectric constant tensor:
#      x y z
#    x 5.682550 -0.572280 -0.474730 
#    y -0.572280 4.494870 -0.035930 
#    z -0.474730 -0.035930 3.800240 
# 
# 
# High freq. dielectric constant tensor:
#      x y z
#    x 1.858660 -0.003320 -0.012700 
#    y -0.003320 1.883000 -0.009510 
#    z -0.012700 -0.009510 1.830110 
# 
# From -- ./inp_files/573350.got.cif
#   From: 2010.06.25/outbox.cif.g09.slc.cpg/sg2_287_cif.got.tgz:573350.got - 2010.06.27 13:26:56.
