data_PCOD8018361
_publ_section_title
;
Structure prediction by ZEFSAII (Michael W. Deem and Ramdas Pophale) SiO2 
 PCOD8018361
Probable space group: P -1
;
_chemical_formula_sum "Si O2"
_cell_formula_units_Z 16
_cell_length_a 14.295538
_cell_length_b 13.890898
_cell_length_c 15.233151
_cell_angle_alpha 149.195328
_cell_angle_beta 27.070165
_cell_angle_gamma 142.766167
_cell_volume 698.570358
_symmetry_space_group_name_H-M "P -1"
_symmetry_group_IT_number 2
_symmetry_cell_setting 'triclinic'
loop_
_space_group_symop_operation_xyz
x,y,z
-x,-y,-z
loop_
_atom_site_type_symbol
_atom_site_label
_atom_site_fract_x
_atom_site_fract_y
_atom_site_fract_z
Si Si1 0.462479 0.574419 0.491820
Si Si2 0.253611 0.910051 0.864009
Si Si3 0.903198 0.579009 0.058979
Si Si4 0.146212 0.159007 0.950316
Si Si5 0.945173 0.639302 0.395681
Si Si6 0.605998 0.061437 0.557100
Si Si7 0.152130 0.542002 0.325099
Si Si8 0.996857 0.000569 0.287604
O O1 0.500000 0.500000 0.500000
O O2 0.386969 0.780942 0.709636
O O3 0.662953 0.587514 0.275568
O O4 0.296473 0.426137 0.465613
O O5 0.027672 0.782734 0.928015
O O6 0.376351 0.008106 0.752486
O O7 0.175109 0.070594 0.118890
O O8 0.032506 0.786228 0.108521
O O9 0.000000 0.500000 0.000000
O O10 0.920973 0.444991 0.856103
O O11 0.240374 0.345526 0.072110
O O12 0.350292 0.070714 0.669997
O O13 0.000000 0.000000 0.000000
O O14 0.020264 0.604060 0.403161
O O15 0.970605 0.870097 0.550954
O O16 0.663850 0.288722 0.670699
O O17 0.764390 0.999378 0.446602
O O18 0.000000 0.500000 0.500000
#
# Coordination Sequence:
#
# PCOD8018361 Si02
#       8
#     2   2   2   2   2   2   2   2
#     4  12  23  43  70  99 135 177 221 280 338 401
#     4  11  22  43  67  96 139 172 228 277 333 405
#     4  12  23  44  70  97 135 175 227 280 336 403
#     4  11  22  42  67  93 133 179 219 281 340 393
#     4  11  24  43  69  99 133 181 222 275 341 393
#     4  10  22  40  65  94 130 177 220 277 334 391
#     4  11  22  42  67  96 136 175 224 273 332 401
#     4  10  22  41  65  96 134 175 215 273 335 395
#
# _framework density 22.903922000000001
#
# number of rings (size 3 to 8) (size 9 to 14) (size 15 to 20)
#    0.000    1.000    6.250    0.750    0.000    3.000 
#    0.000    1.875    0.000    0.000    0.000    0.000 
#    0.000    0.000    0.000    0.000    0.000    0.000 
#
# Total GULP energy -198242.893155 kJ/mol
# GULP energy per Si atom -12390.180822 kJ/mol
# Density = 2.285179 g / cm^3
# Si number density = 22.903922 Si / 1000 Ang^3
#
#
#
# Elastic Constant Matrix: (Units=GPa)
#
#
# Indices 1 2 3 4 5 6 
#
# 1 61.8724 23.0099 60.1899 -5.9277 19.1464 -8.8659
# 2 23.0099 122.6424 96.2076 1.5956 23.1639 7.3221
# 3 60.1899 96.2076 188.4792 -4.3752 11.1893 26.9693
# 4 -5.9277 1.5956 -4.3752 54.7485 17.4842 -1.6232
# 5 19.1464 23.1639 11.1893 17.4842 38.4779 1.8656
# 6 -8.8659 7.3221 26.9693 -1.6232 1.8656 30.6125
#
#
#
# Elastic Compliance Matrix: (Units=1/GPa)
#
#
# Indices 1 2 3 4 5 6 
#
# 1 0.068289 0.022056 -0.037034 0.020768 -0.048408 0.051180
# 2 0.022056 0.022896 -0.020061 0.008288 -0.023683 0.020468
# 3 -0.037034 -0.020061 0.030447 -0.011100 0.028395 -0.035070
# 4 0.020768 0.008288 -0.011100 0.028085 -0.025675 0.016865
# 5 -0.048408 -0.023683 0.028395 -0.025675 0.069633 -0.038976
# 6 0.051180 0.020468 -0.035070 0.016865 -0.038976 0.076759
#
#
# Mechanical properties :
#
#
# Convention : Reuss Voigt Hill
#
# Bulk Modulus (GPa) = 19.39666 81.31209 50.35438
# Shear Modulus (GPa) = 13.04220 37.67354 25.35787
#
# Velocity S-wave (km/s) = 2.38886 4.06008 3.33098
# Velocity P-wave (km/s) = 4.01198 7.58666 6.06850
#
# Compressibility (1/GPa) = 0.05155526
#
# Stress axis : x y z
#
# Youngs Moduli (GPa) = 14.64354 43.67614 32.84423
#
# Poissons Ratio (x) = -0.96332 1.21634
# Poissons Ratio (y) = -0.32298 0.65888
# Poissons Ratio (z) = 0.54230 0.87618
#
# Static dielectric constant tensor:
#      x y z
#    x 4.501860 0.061050 -0.040200 
#    y 0.061050 4.712810 -0.120290 
#    z -0.040200 -0.120290 4.903990 
# 
# 
# High freq. dielectric constant tensor:
#      x y z
#    x 1.911030 -0.004740 -0.010160 
#    y -0.004740 1.900710 -0.002330 
#    z -0.010160 -0.002330 1.928190 
# 
# From -- ./inp_files/534511.got.cif
#   From: 2010.06.25/outbox.cif.g09.slc.cpg/sg2_268_cif.got.tgz:534511.got - 2010.06.27 13:26:56.
