data_PCOD8018875
_publ_section_title
;
Structure prediction by ZEFSAII (Michael W. Deem and Ramdas Pophale) SiO2 
 PCOD8018875
Probable space group: P -1
;
_chemical_formula_sum "Si O2"
_cell_formula_units_Z 16
_cell_length_a 11.878902
_cell_length_b 14.876260
_cell_length_c 8.711936
_cell_angle_alpha 39.519312
_cell_angle_beta 124.969327
_cell_angle_gamma 122.482910
_cell_volume 789.373197
_symmetry_space_group_name_H-M "P -1"
_symmetry_group_IT_number 2
_symmetry_cell_setting 'triclinic'
loop_
_space_group_symop_operation_xyz
x,y,z
-x,-y,-z
loop_
_atom_site_type_symbol
_atom_site_label
_atom_site_fract_x
_atom_site_fract_y
_atom_site_fract_z
Si Si1 0.237901 0.719764 0.887647
Si Si2 0.372822 0.871196 0.081738
Si Si3 0.573510 0.408729 0.379142
Si Si4 0.953381 0.589386 0.205665
Si Si5 0.003833 0.824388 0.392919
Si Si6 0.343703 0.566043 0.923739
Si Si7 0.901620 0.116626 0.951838
Si Si8 0.178152 0.469957 0.382040
O O1 0.092443 0.767478 0.670840
O O2 0.319470 0.709581 0.804800
O O3 0.308703 0.840370 0.902790
O O4 0.238438 0.555148 0.164075
O O5 0.449272 0.741499 0.355170
O O6 0.253530 0.889870 0.089511
O O7 0.500000 0.000000 0.000000
O O8 0.577265 0.375809 0.245346
O O9 0.716560 0.506357 0.422809
O O10 0.441932 0.483964 0.212287
O O11 0.794986 0.544482 0.088438
O O12 0.000000 0.500000 0.500000
O O13 0.987769 0.758954 0.043882
O O14 0.047637 0.552009 0.190055
O O15 0.093493 0.849897 0.271281
O O16 0.865824 0.701411 0.433724
O O17 0.952660 0.967629 0.219498
#
# Coordination Sequence:
#
# PCOD8018875 Si02
#       8
#     2   2   2   2   2   2   2   2
#     4  11  23  39  62  94 121 158 214 263 304 375
#     4  11  25  44  59  82 129 177 198 251 330 378
#     4  10  22  41  61  91 123 167 211 250 307 380
#     4  12  18  38  69  89 121 167 207 255 310 366
#     4  11  23  38  65  99 123 159 215 268 308 360
#     4  11  22  36  67  95 120 155 218 262 298 365
#     4  11  23  41  63  91 129 166 210 257 316 374
#     4  11  21  38  65  91 127 163 203 255 322 362
#
# _framework density 20.269245000000002
#
# number of rings (size 3 to 8) (size 9 to 14) (size 15 to 20)
#    0.000    1.000    6.250    1.125    0.000    5.500 
#    0.000    5.000    0.000    0.000    0.000    0.000 
#    0.000    0.000    0.000    0.000    0.000    0.000 
#
# Total GULP energy -198295.817223 kJ/mol
# GULP energy per Si atom -12393.488576 kJ/mol
# Density = 2.022311 g / cm^3
# Si number density = 20.269245 Si / 1000 Ang^3
#
#
#
# Elastic Constant Matrix: (Units=GPa)
#
#
# Indices 1 2 3 4 5 6 
#
# 1 61.9391 34.5862 14.8772 -2.1864 4.6876 3.8214
# 2 34.5862 119.4446 46.7646 -23.7979 -4.1432 4.8562
# 3 14.8772 46.7646 98.7498 -0.8322 10.7249 2.0441
# 4 -2.1864 -23.7979 -0.8322 32.9972 -2.2260 4.4192
# 5 4.6876 -4.1432 10.7249 -2.2260 25.4155 -0.6166
# 6 3.8214 4.8562 2.0441 4.4192 -0.6166 31.8674
#
#
#
# Elastic Compliance Matrix: (Units=1/GPa)
#
#
# Indices 1 2 3 4 5 6 
#
# 1 0.020298 -0.007239 0.000976 -0.004112 -0.005719 -0.000934
# 2 -0.007239 0.016016 -0.007205 0.011773 0.007955 -0.002589
# 3 0.000976 -0.007205 0.014179 -0.005389 -0.007794 0.000668
# 4 -0.004112 0.011773 -0.005389 0.039792 0.008284 -0.006313
# 5 -0.005719 0.007955 -0.007794 0.008284 0.045705 -0.000291
# 6 -0.000934 -0.002589 0.000668 -0.006313 -0.000291 0.032714
#
#
# Mechanical properties :
#
#
# Convention : Reuss Voigt Hill
#
# Bulk Modulus (GPa) = 42.45185 52.50996 47.48091
# Shear Modulus (GPa) = 24.57091 30.31638 27.44365
#
# Velocity S-wave (km/s) = 3.48548 3.87160 3.68360
# Velocity P-wave (km/s) = 6.09816 6.77851 6.44732
#
# Compressibility (1/GPa) = 0.02355610
#
# Stress axis : x y z
#
# Youngs Moduli (GPa) = 49.26578 62.43747 70.52747
#
# Poissons Ratio (x) = 0.45200 -0.06884
# Poissons Ratio (y) = 0.35665 0.50816
# Poissons Ratio (z) = -0.04808 0.44987
#
# Static dielectric constant tensor:
#      x y z
#    x 5.025240 0.234250 -0.413420 
#    y 0.234250 3.830220 -0.023390 
#    z -0.413420 -0.023390 3.883170 
# 
# 
# High freq. dielectric constant tensor:
#      x y z
#    x 1.794570 -0.010690 -0.002130 
#    y -0.010690 1.785890 0.008840 
#    z -0.002130 0.008840 1.794820 
# 
# From -- ./inp_files/238382.got.cif
#   From: 2010.06.25/outbox.cif.g09.slc.cpg/sg2_120_cif.got.tgz:238382.got - 2010.06.27 13:26:56.
