data_PCOD8018032
_publ_section_title
;
Structure prediction by ZEFSAII (Michael W. Deem and Ramdas Pophale) SiO2 
 PCOD8018032
Probable space group: P -1
;
_chemical_formula_sum "Si O2"
_cell_formula_units_Z 16
_cell_length_a 7.418594
_cell_length_b 9.176689
_cell_length_c 20.384369
_cell_angle_alpha 31.818491
_cell_angle_beta 66.019677
_cell_angle_gamma 70.318087
_cell_volume 668.394996
_symmetry_space_group_name_H-M "P -1"
_symmetry_group_IT_number 2
_symmetry_cell_setting 'triclinic'
loop_
_space_group_symop_operation_xyz
x,y,z
-x,-y,-z
loop_
_atom_site_type_symbol
_atom_site_label
_atom_site_fract_x
_atom_site_fract_y
_atom_site_fract_z
Si Si1 0.545764 0.464505 0.764120
Si Si2 0.907834 0.136825 0.600184
Si Si3 0.585537 0.056893 0.577075
Si Si4 0.425335 0.067347 0.189838
Si Si5 0.821199 0.082990 0.257001
Si Si6 0.044712 0.660651 0.304989
Si Si7 0.585397 0.546135 0.071751
Si Si8 0.700828 0.614128 0.285173
O O1 0.532257 0.361926 0.880491
O O2 0.343468 0.374373 0.790547
O O3 0.725136 0.322847 0.753016
O O4 0.570704 0.797597 0.629250
O O5 0.792502 0.016655 0.600307
O O6 0.994865 0.439251 0.454505
O O7 0.085043 0.941289 0.673956
O O8 0.752136 0.142442 0.681951
O O9 0.400343 0.054505 0.655985
O O10 0.578216 0.346315 0.430706
O O11 0.447957 0.326246 0.136605
O O12 0.624413 0.893618 0.223861
O O13 0.369278 0.185511 0.081049
O O14 0.963241 0.947625 0.234464
O O15 0.790329 0.403466 0.118948
O O16 0.929507 0.587623 0.281614
#
# Coordination Sequence:
#
# PCOD8018032 Si02
#       8
#     2   2   2   2   2   2   2   2
#     4  11  23  42  59  97 133 165 197 265 313 373
#     4  11  21  35  66  95 124 160 207 254 313 372
#     4  10  22  40  60  96 134 164 203 253 313 384
#     4  11  21  45  66  90 119 175 214 265 299 364
#     4  11  20  39  64  95 124 168 209 258 306 375
#     4  11  23  37  63 101 132 156 202 261 319 382
#     4  10  24  43  68  84 128 166 220 261 305 356
#     4  11  22  38  69  88 131 170 205 247 325 375
#
# _framework density 23.937942
#
# number of rings (size 3 to 8) (size 9 to 14) (size 15 to 20)
#    0.000    1.250    3.750    3.000    0.000    8.000 
#    0.000    0.625    0.000    0.000    0.000    0.000 
#    0.000    0.000    0.000    0.000    0.000    0.000 
#
# Total GULP energy -198315.118424 kJ/mol
# GULP energy per Si atom -12394.694901 kJ/mol
# Density = 2.388346 g / cm^3
# Si number density = 23.937942 Si / 1000 Ang^3
#
#
#
# Elastic Constant Matrix: (Units=GPa)
#
#
# Indices 1 2 3 4 5 6 
#
# 1 106.7904 18.2105 31.6847 8.5683 29.2227 0.3602
# 2 18.2105 95.1432 26.1154 15.4571 0.4119 -14.2026
# 3 31.6847 26.1154 103.7369 17.0324 20.3030 -3.2523
# 4 8.5683 15.4571 17.0324 31.5668 1.0424 7.1563
# 5 29.2227 0.4119 20.3030 1.0424 33.0890 0.0156
# 6 0.3602 -14.2026 -3.2523 7.1563 0.0156 33.3732
#
#
#
# Elastic Compliance Matrix: (Units=1/GPa)
#
#
# Indices 1 2 3 4 5 6 
#
# 1 0.013133 -0.002041 -0.001181 -0.001385 -0.010804 -0.000823
# 2 -0.002041 0.013596 -0.002096 -0.006671 0.003125 0.007033
# 3 -0.001181 -0.002096 0.012809 -0.005708 -0.006611 0.001596
# 4 -0.001385 -0.006671 -0.005708 0.041047 0.003521 -0.012184
# 5 -0.010804 0.003125 -0.006611 0.003521 0.043670 0.000027
# 6 -0.000823 0.007033 0.001596 -0.012184 0.000027 0.035734
#
#
# Mechanical properties :
#
#
# Convention : Reuss Voigt Hill
#
# Bulk Modulus (GPa) = 34.59786 50.85464 42.72625
# Shear Modulus (GPa) = 27.73783 34.91644 31.32714
#
# Velocity S-wave (km/s) = 3.40772 3.82334 3.62149
# Velocity P-wave (km/s) = 5.47430 6.38600 5.94764
#
# Compressibility (1/GPa) = 0.02890352
#
# Stress axis : x y z
#
# Youngs Moduli (GPa) = 76.14395 73.54964 78.06784
#
# Poissons Ratio (x) = 0.15008 0.09224
# Poissons Ratio (y) = 0.15537 0.16359
# Poissons Ratio (z) = 0.08996 0.15413
#
# Static dielectric constant tensor:
#      x y z
#    x 4.496650 0.120560 0.430760 
#    y 0.120560 3.951940 0.052350 
#    z 0.430760 0.052350 4.400110 
# 
# 
# High freq. dielectric constant tensor:
#      x y z
#    x 1.954420 0.016210 0.027660 
#    y 0.016210 1.933640 0.002490 
#    z 0.027660 0.002490 1.939590 
# 
# From -- ./inp_files/556762.got.cif
#   From: 2010.06.25/outbox.cif.g09.slc.cpg/sg2_279_cif.got.tgz:556762.got - 2010.06.27 13:26:56.
