data_PCOD8018515
_publ_section_title
;
Structure prediction by ZEFSAII (Michael W. Deem and Ramdas Pophale) SiO2 
 PCOD8018515
Probable space group: P -1
;
_chemical_formula_sum "Si O2"
_cell_formula_units_Z 16
_cell_length_a 9.283111
_cell_length_b 7.737319
_cell_length_c 10.068393
_cell_angle_alpha 115.416403
_cell_angle_beta 90.339637
_cell_angle_gamma 101.284163
_cell_volume 637.246477
_symmetry_space_group_name_H-M "P -1"
_symmetry_group_IT_number 2
_symmetry_cell_setting 'triclinic'
loop_
_space_group_symop_operation_xyz
x,y,z
-x,-y,-z
loop_
_atom_site_type_symbol
_atom_site_label
_atom_site_fract_x
_atom_site_fract_y
_atom_site_fract_z
Si Si1 0.593274 0.091730 0.655615
Si Si2 0.632393 0.101792 0.228627
Si Si3 0.662639 0.525294 0.447918
Si Si4 0.913322 0.040927 0.321787
Si Si5 0.072421 0.759902 0.344574
Si Si6 0.878337 0.656750 0.738208
Si Si7 0.416020 0.396048 0.794931
Si Si8 0.647798 0.748958 0.968575
O O1 0.535030 0.945970 0.730622
O O2 0.765448 0.113311 0.646692
O O3 0.560802 0.303216 0.758768
O O4 0.500000 0.000000 0.500000
O O5 0.697514 0.331449 0.314564
O O6 0.639282 0.980528 0.051916
O O7 0.735660 0.000925 0.295766
O O8 0.500000 0.500000 0.500000
O O9 0.781554 0.597785 0.585200
O O10 0.679802 0.664598 0.361886
O O11 0.985040 0.163689 0.233122
O O12 0.973970 0.180987 0.491502
O O13 0.962731 0.831826 0.263011
O O14 0.061166 0.527282 0.265019
O O15 0.786275 0.733422 0.876505
O O16 0.491171 0.631521 0.867541
O O17 0.329509 0.339420 0.913460
#
# Coordination Sequence:
#
# PCOD8018515 Si02
#       8
#     2   2   2   2   2   2   2   2
#     4  11  19  38  70 100 133 173 235 294 339 414
#     4  11  25  43  66 102 143 182 233 294 349 427
#     4  12  23  41  70 111 136 178 241 291 361 412
#     4  11  26  43  68 104 146 189 236 290 360 421
#     4  11  23  43  69 105 141 185 234 298 360 409
#     4  12  24  47  72 103 144 186 240 297 345 436
#     4  10  22  40  67 102 145 180 223 294 364 419
#     4  10  23  45  66  96 149 186 230 288 361 422
#
# _framework density 25.108025000000001
#
# number of rings (size 3 to 8) (size 9 to 14) (size 15 to 20)
#    0.000    1.000    5.000    1.125    3.500    2.000 
#    2.250    0.625    0.000    0.000    0.000    0.000 
#    0.000    0.000    0.000    0.000    0.000    0.000 
#
# Total GULP energy -198265.657637 kJ/mol
# GULP energy per Si atom -12391.603602 kJ/mol
# Density = 2.505088 g / cm^3
# Si number density = 25.108025 Si / 1000 Ang^3
#
#
#
# Elastic Constant Matrix: (Units=GPa)
#
#
# Indices 1 2 3 4 5 6 
#
# 1 77.2222 27.3297 11.8201 -15.6452 -16.2982 -6.4572
# 2 27.3297 62.0721 21.5997 -6.1919 -16.0023 -5.5991
# 3 11.8201 21.5997 107.1553 2.8691 -26.9654 1.4515
# 4 -15.6452 -6.1919 2.8691 42.1463 1.4078 -4.9946
# 5 -16.2982 -16.0023 -26.9654 1.4078 39.0874 -5.3803
# 6 -6.4572 -5.5991 1.4515 -4.9946 -5.3803 35.2739
#
#
#
# Elastic Compliance Matrix: (Units=1/GPa)
#
#
# Indices 1 2 3 4 5 6 
#
# 1 0.017572 -0.005434 0.000377 0.005989 0.005705 0.004057
# 2 -0.005434 0.021138 -0.002462 0.001494 0.005111 0.003453
# 3 0.000377 -0.002462 0.011641 -0.001241 0.007243 0.000128
# 4 0.005989 0.001494 -0.001241 0.026837 0.002043 0.005496
# 5 0.005705 0.005111 0.007243 0.002043 0.035988 0.007336
# 6 0.004057 0.003453 0.000128 0.005496 0.007336 0.031532
#
#
# Mechanical properties :
#
#
# Convention : Reuss Voigt Hill
#
# Bulk Modulus (GPa) = 28.31770 40.88318 34.60044
# Shear Modulus (GPa) = 29.15192 35.68154 32.41673
#
# Velocity S-wave (km/s) = 3.41113 3.77387 3.59707
# Velocity P-wave (km/s) = 5.17854 5.94203 5.57337
#
# Compressibility (1/GPa) = 0.03531360
#
# Stress axis : x y z
#
# Youngs Moduli (GPa) = 56.90980 47.30907 85.90362
#
# Poissons Ratio (x) = 0.25706 -0.03242
# Poissons Ratio (y) = 0.30923 0.21150
# Poissons Ratio (z) = -0.02148 0.11648
#
# Static dielectric constant tensor:
#      x y z
#    x 4.552520 -0.169920 -0.113330 
#    y -0.169920 4.701470 0.094930 
#    z -0.113330 0.094930 4.784220 
# 
# 
# High freq. dielectric constant tensor:
#      x y z
#    x 1.991780 0.000120 -0.012570 
#    y 0.000120 2.006770 0.009170 
#    z -0.012570 0.009170 1.997600 
# 
# From -- ./inp_files/383242.got.cif
#   From: 2010.06.25/outbox.cif.g09.slc.cpg/sg2_192_cif.got.tgz:383242.got - 2010.06.27 13:26:56.
