data_PCOD8018538
_publ_section_title
;
Structure prediction by ZEFSAII (Michael W. Deem and Ramdas Pophale) SiO2 
 PCOD8018538
Probable space group: P -1
;
_chemical_formula_sum "Si O2"
_cell_formula_units_Z 16
_cell_length_a 9.561467
_cell_length_b 21.386801
_cell_length_c 19.051909
_cell_angle_alpha 161.380808
_cell_angle_beta 144.815050
_cell_angle_gamma 36.153521
_cell_volume 705.174412
_symmetry_space_group_name_H-M "P -1"
_symmetry_group_IT_number 2
_symmetry_cell_setting 'triclinic'
loop_
_space_group_symop_operation_xyz
x,y,z
-x,-y,-z
loop_
_atom_site_type_symbol
_atom_site_label
_atom_site_fract_x
_atom_site_fract_y
_atom_site_fract_z
Si Si1 0.705418 0.689102 0.125139
Si Si2 0.961978 0.497701 0.564497
Si Si3 0.448428 0.138830 0.193461
Si Si4 0.728543 0.973325 0.663667
Si Si5 0.110267 0.919341 0.886891
Si Si6 0.946365 0.124477 0.441060
Si Si7 0.776762 0.950106 0.311796
Si Si8 0.472255 0.321989 0.644757
O O1 0.710304 0.750036 0.108328
O O2 0.954986 0.720516 0.301348
O O3 0.474898 0.829055 0.215352
O O4 0.685445 0.457208 0.881517
O O5 0.787636 0.687353 0.728072
O O6 0.829868 0.317256 0.340662
O O7 0.000000 0.500000 0.500000
O O8 0.233553 0.474553 0.683518
O O9 0.690224 0.228574 0.409648
O O10 0.500000 0.000000 0.000000
O O11 0.370119 0.993788 0.066674
O O12 0.594053 0.782560 0.421067
O O13 0.925258 0.998515 0.831540
O O14 0.852879 0.953453 0.617640
O O15 0.000000 0.000000 0.000000
O O16 0.872260 0.937733 0.256926
O O17 0.550619 0.139073 0.427885
O O18 0.000000 0.000000 0.500000
#
# Coordination Sequence:
#
# PCOD8018538 Si02
#       8
#     2   2   2   2   2   2   2   2
#     4  10  22  41  68  89 125 174 219 259 324 384
#     4  11  23  40  67  98 125 170 229 265 318 405
#     4  12  25  43  65  97 137 170 212 282 342 377
#     4  10  22  43  62  96 130 163 218 266 320 403
#     4  11  23  42  72  95 125 174 221 269 331 397
#     4  11  23  41  62  94 134 166 211 269 327 398
#     4   9  21  40  63  92 128 162 213 269 318 383
#     4  10  22  40  67  92 126 168 220 269 313 396
#
# _framework density 22.689423999999999
#
# number of rings (size 3 to 8) (size 9 to 14) (size 15 to 20)
#    0.000    1.500    2.500    1.875    3.500    3.000 
#    0.000    5.000    0.000    0.000    0.000    0.000 
#    0.000    0.000    0.000    0.000    0.000    0.000 
#
# Total GULP energy -198253.186318 kJ/mol
# GULP energy per Si atom -12390.824145 kJ/mol
# Density = 2.263778 g / cm^3
# Si number density = 22.689424 Si / 1000 Ang^3
#
#
#
# Elastic Constant Matrix: (Units=GPa)
#
#
# Indices 1 2 3 4 5 6 
#
# 1 178.3510 24.5246 46.1098 8.2706 0.2057 7.5853
# 2 24.5246 71.5457 29.6550 4.7555 -4.8364 -6.1353
# 3 46.1098 29.6550 107.7893 2.8068 17.2744 1.8621
# 4 8.2706 4.7555 2.8068 25.3154 -2.9753 -3.8069
# 5 0.2057 -4.8364 17.2744 -2.9753 40.7832 -2.9041
# 6 7.5853 -6.1353 1.8621 -3.8069 -2.9041 29.6230
#
#
#
# Elastic Compliance Matrix: (Units=1/GPa)
#
#
# Indices 1 2 3 4 5 6 
#
# 1 0.006591 -0.001229 -0.002495 -0.001871 0.000601 -0.001967
# 2 -0.001229 0.017208 -0.004961 -0.001092 0.004387 0.004480
# 3 -0.002495 -0.004961 0.012746 -0.000673 -0.006157 -0.001880
# 4 -0.001871 -0.001092 -0.000673 0.041724 0.003637 0.006014
# 5 0.000601 0.004387 -0.006157 0.003637 0.028222 0.004376
# 6 -0.001967 0.004480 -0.001880 0.006014 0.004376 0.036509
#
#
# Mechanical properties :
#
#
# Convention : Reuss Voigt Hill
#
# Bulk Modulus (GPa) = 52.14866 62.02941 57.08904
# Shear Modulus (GPa) = 29.98308 36.30410 33.14359
#
# Velocity S-wave (km/s) = 3.63913 4.00440 3.82612
# Velocity P-wave (km/s) = 6.37897 6.98413 6.68840
#
# Compressibility (1/GPa) = 0.01917595
#
# Stress axis : x y z
#
# Youngs Moduli (GPa) = 151.73107 58.11338 78.45460
#
# Poissons Ratio (x) = 0.07140 0.19574
# Poissons Ratio (y) = 0.18643 0.38919
# Poissons Ratio (z) = 0.37856 0.28828
#
# Static dielectric constant tensor:
#      x y z
#    x 7.234690 -0.462350 0.393310 
#    y -0.462350 4.485830 -0.197630 
#    z 0.393310 -0.197630 4.016390 
# 
# 
# High freq. dielectric constant tensor:
#      x y z
#    x 1.911350 -0.009360 0.020740 
#    y -0.009360 1.893960 -0.008410 
#    z 0.020740 -0.008410 1.872140 
# 
# From -- ./inp_files/562991.got.cif
#   From: 2010.06.25/outbox.cif.g09.slc.cpg/sg2_282_cif.got.tgz:562991.got - 2010.06.27 13:26:56.
