data_PCOD8018521
_publ_section_title
;
Structure prediction by ZEFSAII (Michael W. Deem and Ramdas Pophale) SiO2 
 PCOD8018521
Probable space group: P -1
;
_chemical_formula_sum "Si O2"
_cell_formula_units_Z 14
_cell_length_a 11.850629
_cell_length_b 13.702686
_cell_length_c 11.114475
_cell_angle_alpha 149.787901
_cell_angle_beta 41.678509
_cell_angle_gamma 128.158767
_cell_volume 601.847005
_symmetry_space_group_name_H-M "P -1"
_symmetry_group_IT_number 2
_symmetry_cell_setting 'triclinic'
loop_
_space_group_symop_operation_xyz
x,y,z
-x,-y,-z
loop_
_atom_site_type_symbol
_atom_site_label
_atom_site_fract_x
_atom_site_fract_y
_atom_site_fract_z
Si Si1 0.227280 0.296176 0.884864
Si Si2 0.321854 0.522254 0.595472
Si Si3 0.189112 0.143126 0.201121
Si Si4 0.060433 0.863760 0.197994
Si Si5 0.906276 0.360253 0.513591
Si Si6 0.380421 0.156196 0.833072
Si Si7 0.411457 0.594068 0.331650
O O1 0.214856 0.193048 0.916866
O O2 0.424501 0.284920 0.676599
O O3 0.121424 0.191984 0.760745
O O4 0.151801 0.518479 0.191639
O O5 0.500000 0.500000 0.500000
O O6 0.236360 0.318958 0.437130
O O7 0.348190 0.598212 0.522241
O O8 0.188523 0.677761 0.936243
O O9 0.028283 0.186315 0.286273
O O10 0.158853 0.967522 0.125201
O O11 0.342593 0.084968 0.922593
O O12 0.000000 0.000000 0.500000
O O13 0.740807 0.290280 0.501824
O O14 0.000000 0.500000 0.500000
O O15 0.500000 0.000000 0.500000
O O16 0.453405 0.371980 0.013076
#
# Coordination Sequence:
#
# PCOD8018521 Si02
#       7
#     2   2   2   2   2   2   2
#     4  11  23  42  67 103 147 189 235 294 364 445
#     4  11  26  50  77  99 144 204 250 305 374 429
#     4  11  25  46  78 106 148 195 240 306 370 444
#     4  12  30  49  71 110 145 199 264 303 357 438
#     4  11  17  43  73 105 144 180 237 290 378 445
#     4  10  22  40  67 115 145 178 235 298 375 435
#     4  10  23  42  74 106 143 195 232 294 376 454
#
# _framework density 23.261724999999998
#
# number of rings (size 3 to 8) (size 9 to 14) (size 15 to 20)
#    0.000    1.143    5.714    1.714    4.000    7.429 
#    2.571    0.000    0.000    0.000    0.000    0.000 
#    0.000    0.000    0.000    0.000    0.000    0.000 
#
# Total GULP energy -173508.601055 kJ/mol
# GULP energy per Si atom -12393.471504 kJ/mol
# Density = 2.320878 g / cm^3
# Si number density = 23.261725 Si / 1000 Ang^3
#
#
#
# Elastic Constant Matrix: (Units=GPa)
#
#
# Indices 1 2 3 4 5 6 
#
# 1 150.3225 37.3056 55.2129 6.1099 3.1388 32.2855
# 2 37.3056 80.5384 17.5380 -5.3371 -7.2977 21.1762
# 3 55.2129 17.5380 149.4384 -3.7163 2.7870 8.8455
# 4 6.1099 -5.3371 -3.7163 15.9767 -0.0441 -3.3834
# 5 3.1388 -7.2977 2.7870 -0.0441 32.2891 -3.4318
# 6 32.2855 21.1762 8.8455 -3.3834 -3.4318 38.4867
#
#
#
# Elastic Compliance Matrix: (Units=1/GPa)
#
#
# Indices 1 2 3 4 5 6 
#
# 1 0.010465 -0.002912 -0.003235 -0.007272 -0.002178 -0.007267
# 2 -0.002912 0.015942 -0.000404 0.005193 0.003345 -0.005481
# 3 -0.003235 -0.000404 0.007940 0.003238 -0.000312 0.001368
# 4 -0.007272 0.005193 0.003238 0.069745 0.002639 0.008865
# 5 -0.002178 0.003345 -0.000312 0.002639 0.032306 0.003171
# 6 -0.007267 -0.005481 0.001368 0.008865 0.003171 0.035843
#
#
# Mechanical properties :
#
#
# Convention : Reuss Voigt Hill
#
# Bulk Modulus (GPa) = 47.06907 66.71246 56.89077
# Shear Modulus (GPa) = 25.98460 35.36666 30.67563
#
# Velocity S-wave (km/s) = 3.34586 3.90344 3.63535
# Velocity P-wave (km/s) = 5.93337 7.00408 6.49084
#
# Compressibility (1/GPa) = 0.02124537
#
# Stress axis : x y z
#
# Youngs Moduli (GPa) = 95.55809 62.72930 125.94970
#
# Poissons Ratio (x) = 0.18264 0.40743
# Poissons Ratio (y) = 0.27822 0.05088
# Poissons Ratio (z) = 0.30911 0.02534
#
# Static dielectric constant tensor:
#      x y z
#    x 4.615840 0.163360 -0.248340 
#    y 0.163360 4.235200 -0.065030 
#    z -0.248340 -0.065030 4.567580 
# 
# 
# High freq. dielectric constant tensor:
#      x y z
#    x 1.910870 0.006500 0.001420 
#    y 0.006500 1.910250 -0.004350 
#    z 0.001420 -0.004350 1.936140 
# 
# From -- ./inp_files/433410.got.cif
#   From: 2010.06.25/outbox.cif.g09.slc.cpg/sg2_217_cif.got.tgz:433410.got - 2010.06.27 13:26:56.
