data_PCOD8018481
_publ_section_title
;
Structure prediction by ZEFSAII (Michael W. Deem and Ramdas Pophale) SiO2 
 PCOD8018481
Probable space group: P -1
;
_chemical_formula_sum "Si O2"
_cell_formula_units_Z 14
_cell_length_a 13.072681
_cell_length_b 7.863596
_cell_length_c 21.631317
_cell_angle_alpha 128.865322
_cell_angle_beta 25.415889
_cell_angle_gamma 112.065904
_cell_volume 609.614023
_symmetry_space_group_name_H-M "P -1"
_symmetry_group_IT_number 2
_symmetry_cell_setting 'triclinic'
loop_
_space_group_symop_operation_xyz
x,y,z
-x,-y,-z
loop_
_atom_site_type_symbol
_atom_site_label
_atom_site_fract_x
_atom_site_fract_y
_atom_site_fract_z
Si Si1 0.215151 0.041791 0.355039
Si Si2 0.987117 0.536698 0.660264
Si Si3 0.019549 0.889432 0.627020
Si Si4 0.242265 0.464050 0.636986
Si Si5 0.577796 0.848753 0.316875
Si Si6 0.952239 0.520855 0.929899
Si Si7 0.416718 0.544487 0.964496
O O1 0.503837 0.742504 0.118751
O O2 0.000000 0.000000 0.500000
O O3 0.250965 0.246409 0.422558
O O4 0.076964 0.190612 0.399633
O O5 0.955049 0.781776 0.698243
O O6 0.045186 0.565108 0.706078
O O7 0.689309 0.562119 0.816302
O O8 0.361512 0.757236 0.406212
O O9 0.831088 0.213958 0.802841
O O10 0.500000 0.500000 0.500000
O O11 0.039490 0.613265 0.841856
O O12 0.382318 0.159228 0.502990
O O13 0.762005 0.723660 0.249733
O O14 0.783275 0.766641 0.125941
O O15 0.740503 0.425336 0.008197
#
# Coordination Sequence:
#
# PCOD8018481 Si02
#       7
#     2   2   2   2   2   2   2
#     4  10  22  40  66  97 137 178 223 277 337 404
#     4  11  25  43  66 104 142 179 225 285 342 405
#     4  12  23  42  72 100 141 177 231 282 339 408
#     4  12  26  45  71  98 138 179 229 283 341 406
#     4  11  24  47  70 101 133 186 228 279 343 406
#     4  11  25  43  74  98 136 179 232 277 342 413
#     4  11  23  41  69 103 134 183 224 279 343 403
#
# _framework density 22.965349
#
# number of rings (size 3 to 8) (size 9 to 14) (size 15 to 20)
#    0.000    0.857    1.429    6.857    4.000    0.571 
#    0.000    2.857    0.000    0.000    0.000    0.000 
#    0.000    0.000    0.000    0.000    0.000    0.000 
#
# Total GULP energy -173521.506608 kJ/mol
# GULP energy per Si atom -12394.393329 kJ/mol
# Density = 2.291308 g / cm^3
# Si number density = 22.965349 Si / 1000 Ang^3
#
#
#
# Elastic Constant Matrix: (Units=GPa)
#
#
# Indices 1 2 3 4 5 6 
#
# 1 160.5732 42.6512 55.4991 -16.3947 3.5352 -18.0131
# 2 42.6512 76.4129 42.6889 -16.3288 -0.9543 -6.9682
# 3 55.4991 42.6889 87.5815 -12.9339 -15.6967 -9.6088
# 4 -16.3947 -16.3288 -12.9339 33.3575 2.6549 -2.8158
# 5 3.5352 -0.9543 -15.6967 2.6549 31.9049 -5.9164
# 6 -18.0131 -6.9682 -9.6088 -2.8158 -5.9164 34.3205
#
#
#
# Elastic Compliance Matrix: (Units=1/GPa)
#
#
# Indices 1 2 3 4 5 6 
#
# 1 0.008903 -0.001622 -0.004788 0.002194 -0.003082 0.002651
# 2 -0.001622 0.020017 -0.008421 0.006094 -0.003740 0.000710
# 3 -0.004788 -0.008421 0.021160 0.001146 0.011287 0.003741
# 4 0.002194 0.006094 0.001146 0.035048 -0.001423 0.005340
# 5 -0.003082 -0.003740 0.011287 -0.001423 0.038602 0.007321
# 6 0.002651 0.000710 0.003741 0.005340 0.007321 0.033420
#
#
# Mechanical properties :
#
#
# Convention : Reuss Voigt Hill
#
# Bulk Modulus (GPa) = 48.98109 67.36066 58.17087
# Shear Modulus (GPa) = 25.82398 32.16514 28.99456
#
# Velocity S-wave (km/s) = 3.35696 3.74651 3.55707
# Velocity P-wave (km/s) = 6.03325 6.93615 6.50040
#
# Compressibility (1/GPa) = 0.02041604
#
# Stress axis : x y z
#
# Youngs Moduli (GPa) = 112.32353 49.95740 47.26001
#
# Poissons Ratio (x) = 0.08103 0.22630
# Poissons Ratio (y) = 0.18219 0.39799
# Poissons Ratio (z) = 0.53785 0.42071
#
# Static dielectric constant tensor:
#      x y z
#    x 6.979090 1.594160 -3.595600 
#    y 1.594160 5.058560 -1.896860 
#    z -3.595600 -1.896860 9.442370 
# 
# 
# High freq. dielectric constant tensor:
#      x y z
#    x 1.927630 0.000910 -0.002040 
#    y 0.000910 1.875750 0.003510 
#    z -0.002040 0.003510 1.918270 
# 
# From -- ./inp_files/593694.got.cif
#   From: 2010.06.25/outbox.cif.g09.slc.cpg/sg2_297_cif.got.tgz:593694.got - 2010.06.27 13:26:56.
