data_PCOD8018984
_publ_section_title
;
Structure prediction by ZEFSAII (Michael W. Deem and Ramdas Pophale) SiO2 
 PCOD8018984
Probable space group: P -1
;
_chemical_formula_sum "Si O2"
_cell_formula_units_Z 16
_cell_length_a 8.016027
_cell_length_b 17.690783
_cell_length_c 9.758192
_cell_angle_alpha 48.801363
_cell_angle_beta 73.500620
_cell_angle_gamma 51.138369
_cell_volume 790.777506
_symmetry_space_group_name_H-M "P -1"
_symmetry_group_IT_number 2
_symmetry_cell_setting 'triclinic'
loop_
_space_group_symop_operation_xyz
x,y,z
-x,-y,-z
loop_
_atom_site_type_symbol
_atom_site_label
_atom_site_fract_x
_atom_site_fract_y
_atom_site_fract_z
Si Si1 0.005876 0.903429 0.012826
Si Si2 0.240653 0.372670 0.087958
Si Si3 0.261922 0.129246 0.386732
Si Si4 0.540228 0.361114 0.811066
Si Si5 0.938593 0.770254 0.406892
Si Si6 0.414901 0.270600 0.441026
Si Si7 0.162244 0.004468 0.360138
Si Si8 0.547491 0.392703 0.472434
O O1 0.887870 0.974062 0.815139
O O2 0.247753 0.783808 0.054776
O O3 0.888590 0.854602 0.182399
O O4 0.000000 0.000000 0.000000
O O5 0.247609 0.251254 0.215737
O O6 0.365485 0.357845 0.216875
O O7 0.352068 0.381664 0.921622
O O8 0.000000 0.500000 0.000000
O O9 0.138958 0.145414 0.538022
O O10 0.150186 0.119443 0.290898
O O11 0.500000 0.000000 0.500000
O O12 0.446264 0.395635 0.637648
O O13 0.581307 0.463320 0.725702
O O14 0.808675 0.710387 0.487195
O O15 0.199187 0.664587 0.492499
O O16 0.514830 0.308140 0.486173
O O17 0.593091 0.125273 0.529183
O O18 0.000000 0.000000 0.500000
#
# Coordination Sequence:
#
# PCOD8018984 Si02
#       8
#     2   2   2   2   2   2   2   2
#     4  11  24  38  63  95 129 167 216 274 319 385
#     4  11  24  41  67  97 130 169 217 270 323 382
#     4  11  22  41  62  90 131 169 209 271 323 376
#     4  10  22  41  63  93 131 166 212 270 323 384
#     4  10  22  42  63  92 132 165 215 270 322 384
#     4  11  23  41  65  92 127 172 213 265 325 388
#     4  12  23  38  63  94 125 173 219 260 332 390
#     4  10  22  43  66  91 128 175 207 263 338 383
#
# _framework density 20.233250000000002
#
# number of rings (size 3 to 8) (size 9 to 14) (size 15 to 20)
#    0.000    1.250    2.500    5.250    1.750    3.000 
#    0.000    8.750    0.000    0.000    0.000    0.000 
#    0.000    0.000    0.000    0.000    0.000    0.000 
#
# Total GULP energy -198310.691371 kJ/mol
# GULP energy per Si atom -12394.418211 kJ/mol
# Density = 2.018720 g / cm^3
# Si number density = 20.233250 Si / 1000 Ang^3
#
#
#
# Elastic Constant Matrix: (Units=GPa)
#
#
# Indices 1 2 3 4 5 6 
#
# 1 107.1862 49.9024 51.4411 7.1066 -5.3769 4.5610
# 2 49.9024 109.1521 67.2982 5.2251 -8.2682 -1.3564
# 3 51.4411 67.2982 143.6681 13.9483 -1.4990 -11.9521
# 4 7.1066 5.2251 13.9483 45.6198 -3.8929 -2.2177
# 5 -5.3769 -8.2682 -1.4990 -3.8929 29.2152 2.8438
# 6 4.5610 -1.3564 -11.9521 -2.2177 2.8438 39.0901
#
#
#
# Elastic Compliance Matrix: (Units=1/GPa)
#
#
# Indices 1 2 3 4 5 6 
#
# 1 0.012772 -0.003993 -0.002842 -0.000685 0.001239 -0.002627
# 2 -0.003993 0.014597 -0.005535 0.000881 0.003319 -0.000911
# 3 -0.002842 -0.005535 0.011069 -0.002321 -0.002176 0.003551
# 4 -0.000685 0.000881 -0.002321 0.022916 0.003011 0.000482
# 5 0.001239 0.003319 -0.002176 0.003011 0.035991 -0.003142
# 6 -0.002627 -0.000911 0.003551 0.000482 -0.003142 0.027198
#
#
# Mechanical properties :
#
#
# Convention : Reuss Voigt Hill
#
# Bulk Modulus (GPa) = 72.99900 77.47667 75.23784
# Shear Modulus (GPa) = 32.49942 35.54265 34.02104
#
# Velocity S-wave (km/s) = 4.01214 4.19578 4.10499
# Velocity P-wave (km/s) = 7.59079 7.86433 7.72877
#
# Compressibility (1/GPa) = 0.01369882
#
# Stress axis : x y z
#
# Youngs Moduli (GPa) = 78.29836 68.50488 90.34534
#
# Poissons Ratio (x) = 0.27354 0.25672
# Poissons Ratio (y) = 0.31264 0.50006
# Poissons Ratio (z) = 0.22249 0.37917
#
# Static dielectric constant tensor:
#      x y z
#    x 3.636630 0.156900 0.056680 
#    y 0.156900 4.171440 0.202770 
#    z 0.056680 0.202770 4.037460 
# 
# 
# High freq. dielectric constant tensor:
#      x y z
#    x 1.776270 -0.001080 -0.004230 
#    y -0.001080 1.811520 0.003430 
#    z -0.004230 0.003430 1.801580 
# 
# From -- ./inp_files/216649.got.cif
#   From: 2010.06.25/outbox.cif.g09.slc.cpg/sg2_109_cif.got.tgz:216649.got - 2010.06.27 13:26:56.
