data_PCOD8018657
_publ_section_title
;
Structure prediction by ZEFSAII (Michael W. Deem and Ramdas Pophale) SiO2 
 PCOD8018657
Probable space group: P -1
;
_chemical_formula_sum "Si O2"
_cell_formula_units_Z 16
_cell_length_a 9.848863
_cell_length_b 10.983967
_cell_length_c 15.975682
_cell_angle_alpha 36.623031
_cell_angle_beta 59.427449
_cell_angle_gamma 45.586499
_cell_volume 730.708977
_symmetry_space_group_name_H-M "P -1"
_symmetry_group_IT_number 2
_symmetry_cell_setting 'triclinic'
loop_
_space_group_symop_operation_xyz
x,y,z
-x,-y,-z
loop_
_atom_site_type_symbol
_atom_site_label
_atom_site_fract_x
_atom_site_fract_y
_atom_site_fract_z
Si Si1 0.577291 0.340459 0.372750
Si Si2 0.902776 0.924653 0.393689
Si Si3 0.845068 0.050059 0.586428
Si Si4 0.618108 0.090557 0.869924
Si Si5 0.827796 0.694848 0.887882
Si Si6 0.242402 0.417106 0.328396
Si Si7 0.309502 0.527584 0.068751
Si Si8 0.986733 0.044803 0.840638
O O1 0.637116 0.216082 0.515400
O O2 0.523511 0.614428 0.252815
O O3 0.401253 0.336682 0.394725
O O4 0.750026 0.195728 0.331562
O O5 0.845741 0.739904 0.542153
O O6 0.909381 0.952707 0.277505
O O7 0.117910 0.824509 0.415140
O O8 0.900338 0.777625 0.742399
O O9 0.000000 0.000000 0.500000
O O10 0.811585 0.015557 0.898402
O O11 0.674772 0.956652 0.836183
O O12 0.500000 0.000000 0.000000
O O13 0.730502 0.568893 0.949653
O O14 0.000000 0.500000 0.000000
O O15 0.331573 0.373853 0.230744
O O16 0.077088 0.706335 0.228211
O O17 0.500000 0.500000 0.000000
O O18 0.141064 0.816367 0.975891
#
# Coordination Sequence:
#
# PCOD8018657 Si02
#       8
#     2   2   2   2   2   2   2   2
#     4  10  24  43  69  97 144 173 233 276 345 407
#     4  11  21  43  71  97 133 181 225 278 348 405
#     4  10  22  40  69 102 128 176 227 286 333 406
#     4  11  26  41  71 104 137 183 225 289 345 401
#     4  12  25  47  73 101 138 182 232 281 349 408
#     4  11  25  44  66 100 139 183 223 282 344 405
#     4  12  26  44  71 102 136 183 232 279 343 417
#     4  11  24  45  69  99 140 178 231 287 340 409
#
# _framework density 21.896542
#
# number of rings (size 3 to 8) (size 9 to 14) (size 15 to 20)
#    0.000    1.000    2.500    3.375    8.750    2.500 
#    2.250    0.000    0.000    0.000    0.000    0.000 
#    0.000    0.000    0.000    0.000    0.000    0.000 
#
# Total GULP energy -198333.913464 kJ/mol
# GULP energy per Si atom -12395.869591 kJ/mol
# Density = 2.184670 g / cm^3
# Si number density = 21.896542 Si / 1000 Ang^3
#
#
#
# Elastic Constant Matrix: (Units=GPa)
#
#
# Indices 1 2 3 4 5 6 
#
# 1 137.8931 30.5953 72.4166 -12.4608 -0.8578 -5.5923
# 2 30.5953 96.6914 36.2178 -15.1441 -8.6024 2.3343
# 3 72.4166 36.2178 148.7388 1.8569 -2.0574 -14.9848
# 4 -12.4608 -15.1441 1.8569 41.3135 -1.4406 -4.1986
# 5 -0.8578 -8.6024 -2.0574 -1.4406 39.1938 1.4212
# 6 -5.5923 2.3343 -14.9848 -4.1986 1.4212 32.8618
#
#
#
# Elastic Compliance Matrix: (Units=1/GPa)
#
#
# Indices 1 2 3 4 5 6 
#
# 1 0.010252 -0.001005 -0.004784 0.002936 -0.000140 0.000016
# 2 -0.001005 0.012700 -0.002811 0.004383 0.002848 -0.001918
# 3 -0.004784 -0.002811 0.010136 -0.002568 -0.000418 0.003697
# 4 0.002936 0.004383 -0.002568 0.027120 0.001801 0.002404
# 5 -0.000140 0.002848 -0.000418 0.001801 0.026228 -0.001321
# 6 0.000016 -0.001918 0.003697 0.002404 -0.001321 0.032620
#
#
# Mechanical properties :
#
#
# Convention : Reuss Voigt Hill
#
# Bulk Modulus (GPa) = 62.94664 73.53141 68.23902
# Shear Modulus (GPa) = 35.32269 38.94672 37.13471
#
# Velocity S-wave (km/s) = 4.02078 4.22200 4.12262
# Velocity P-wave (km/s) = 7.09685 7.57768 7.34120
#
# Compressibility (1/GPa) = 0.01588647
#
# Stress axis : x y z
#
# Youngs Moduli (GPa) = 97.53851 78.74300 98.66175
#
# Poissons Ratio (x) = 0.07916 0.47198
# Poissons Ratio (y) = 0.09805 0.27739
# Poissons Ratio (z) = 0.46660 0.22138
#
# Static dielectric constant tensor:
#      x y z
#    x 4.551140 0.262210 0.570340 
#    y 0.262210 3.916730 -0.063730 
#    z 0.570340 -0.063730 4.263970 
# 
# 
# High freq. dielectric constant tensor:
#      x y z
#    x 1.870520 0.006160 -0.002910 
#    y 0.006160 1.856330 0.002190 
#    z -0.002910 0.002190 1.871050 
# 
# From -- ./inp_files/559535.got.cif
#   From: 2010.06.25/outbox.cif.g09.slc.cpg/sg2_280_cif.got.tgz:559535.got - 2010.06.27 13:26:56.
