data_PCOD8018314
_publ_section_title
;
Structure prediction by ZEFSAII (Michael W. Deem and Ramdas Pophale) SiO2 
 PCOD8018314
Probable space group: P -1
;
_chemical_formula_sum "Si O2"
_cell_formula_units_Z 16
_cell_length_a 6.882838
_cell_length_b 10.709489
_cell_length_c 18.036039
_cell_angle_alpha 50.897509
_cell_angle_beta 134.780316
_cell_angle_gamma 118.513310
_cell_volume 730.984594
_symmetry_space_group_name_H-M "P -1"
_symmetry_group_IT_number 2
_symmetry_cell_setting 'triclinic'
loop_
_space_group_symop_operation_xyz
x,y,z
-x,-y,-z
loop_
_atom_site_type_symbol
_atom_site_label
_atom_site_fract_x
_atom_site_fract_y
_atom_site_fract_z
Si Si1 0.541730 0.673876 0.484753
Si Si2 0.823035 0.947959 0.224983
Si Si3 0.787398 0.134508 0.898476
Si Si4 0.861542 0.366024 0.340865
Si Si5 0.574394 0.541652 0.920392
Si Si6 0.043402 0.725707 0.253267
Si Si7 0.862835 0.262139 0.030252
Si Si8 0.313818 0.838503 0.495135
O O1 0.500000 0.500000 0.500000
O O2 0.351351 0.783885 0.342833
O O3 0.434545 0.699383 0.529290
O O4 0.860755 0.728079 0.557712
O O5 0.517845 0.928931 0.184603
O O6 0.841283 0.848318 0.189873
O O7 0.023616 0.887979 0.365288
O O8 0.895167 0.133135 0.152676
O O9 0.924787 0.271201 0.828777
O O10 0.746181 0.190862 0.949419
O O11 0.000000 0.000000 0.000000
O O12 0.684232 0.372722 0.215741
O O13 0.693660 0.258778 0.394462
O O14 0.942030 0.548415 0.320652
O O15 0.841767 0.658980 0.940444
O O16 0.500000 0.500000 0.000000
O O17 0.634938 0.381167 0.951390
O O18 0.500000 0.000000 0.500000
#
# Coordination Sequence:
#
# PCOD8018314 Si02
#       8
#     2   2   2   2   2   2   2   2
#     4   9  22  41  66  98 133 169 222 273 331 394
#     4  11  24  42  67  96 138 173 221 278 337 395
#     4  12  24  39  68  98 132 173 217 276 334 394
#     4  11  23  42  69  95 132 173 222 273 333 399
#     4  11  26  43  66  94 134 181 223 274 331 399
#     4  10  22  40  65 101 133 170 222 274 336 398
#     4  11  25  43  64  98 134 176 227 270 334 402
#     4  11  25  45  68 100 134 177 222 277 335 400
#
# _framework density 21.888286999999998
#
# number of rings (size 3 to 8) (size 9 to 14) (size 15 to 20)
#    0.000    1.250    1.250    3.375    3.500   12.000 
#    0.000    0.000    0.000    0.000    0.000    0.000 
#    0.000    0.000    0.000    0.000    0.000    0.000 
#
# Total GULP energy -198232.021990 kJ/mol
# GULP energy per Si atom -12389.501374 kJ/mol
# Density = 2.183847 g / cm^3
# Si number density = 21.888287 Si / 1000 Ang^3
#
#
#
# Elastic Constant Matrix: (Units=GPa)
#
#
# Indices 1 2 3 4 5 6 
#
# 1 127.9843 52.0209 63.4206 1.8330 1.5735 8.1630
# 2 52.0209 89.2718 44.9481 -6.5401 -3.9993 9.8065
# 3 63.4206 44.9481 112.3533 5.1575 -11.8042 5.7607
# 4 1.8330 -6.5401 5.1575 37.1810 7.4996 -8.7843
# 5 1.5735 -3.9993 -11.8042 7.4996 46.0335 -4.4605
# 6 8.1630 9.8065 5.7607 -8.7843 -4.4605 26.8737
#
#
#
# Elastic Compliance Matrix: (Units=1/GPa)
#
#
# Indices 1 2 3 4 5 6 
#
# 1 0.012434 -0.004533 -0.005335 -0.000582 -0.002241 -0.001541
# 2 -0.004533 0.016385 -0.004016 0.003050 -0.000218 -0.002780
# 3 -0.005335 -0.004016 0.014102 -0.003280 0.003950 -0.000353
# 4 -0.000582 0.003050 -0.003280 0.031024 -0.004726 0.009124
# 5 -0.002241 -0.000218 0.003950 -0.004726 0.023788 0.002317
# 6 -0.001541 -0.002780 -0.000353 0.009124 0.002317 0.042136
#
#
# Mechanical properties :
#
#
# Convention : Reuss Voigt Hill
#
# Bulk Modulus (GPa) = 65.99684 72.26541 69.13113
# Shear Modulus (GPa) = 28.95379 33.29898 31.12638
#
# Velocity S-wave (km/s) = 3.64097 3.90463 3.77511
# Velocity P-wave (km/s) = 6.92046 7.30859 7.11717
#
# Compressibility (1/GPa) = 0.01515224
#
# Stress axis : x y z
#
# Youngs Moduli (GPa) = 80.42599 61.03278 70.91100
#
# Poissons Ratio (x) = 0.27668 0.37829
# Poissons Ratio (y) = 0.36459 0.28480
# Poissons Ratio (z) = 0.42905 0.24512
#
# Static dielectric constant tensor:
#      x y z
#    x 4.167180 0.037470 0.208310 
#    y 0.037470 3.838440 0.085620 
#    z 0.208310 0.085620 4.281550 
# 
# 
# High freq. dielectric constant tensor:
#      x y z
#    x 1.870790 0.006630 0.011200 
#    y 0.006630 1.846750 0.005720 
#    z 0.011200 0.005720 1.876760 
# 
# From -- ./inp_files/364697.got.cif
#   From: 2010.06.25/outbox.cif.g09.slc.cpg/sg2_183_cif.got.tgz:364697.got - 2010.06.27 13:26:56.
