data_PCOD8018505
_publ_section_title
;
Structure prediction by ZEFSAII (Michael W. Deem and Ramdas Pophale) SiO2 
 PCOD8018505
Probable space group: P -1
;
_chemical_formula_sum "Si O2"
_cell_formula_units_Z 16
_cell_length_a 8.316682
_cell_length_b 14.447044
_cell_length_c 17.290777
_cell_angle_alpha 142.467883
_cell_angle_beta 145.252902
_cell_angle_gamma 44.347939
_cell_volume 709.184836
_symmetry_space_group_name_H-M "P -1"
_symmetry_group_IT_number 2
_symmetry_cell_setting 'triclinic'
loop_
_space_group_symop_operation_xyz
x,y,z
-x,-y,-z
loop_
_atom_site_type_symbol
_atom_site_label
_atom_site_fract_x
_atom_site_fract_y
_atom_site_fract_z
Si Si1 0.030403 0.301801 0.723042
Si Si2 0.902559 0.489548 0.368286
Si Si3 0.913266 0.350178 0.019580
Si Si4 0.351353 0.864931 0.117931
Si Si5 0.535105 0.173093 0.149905
Si Si6 0.056616 0.835667 0.828794
Si Si7 0.751767 0.399352 0.828092
Si Si8 0.270943 0.657968 0.524836
O O1 0.134652 0.465939 0.862522
O O2 0.310428 0.168551 0.754581
O O3 0.831486 0.291682 0.713108
O O4 0.842734 0.269164 0.553750
O O5 0.049092 0.317337 0.282366
O O6 0.560689 0.498753 0.237398
O O7 0.000000 0.500000 0.500000
O O8 0.000049 0.617048 0.437161
O O9 0.246712 0.291442 0.096747
O O10 0.796589 0.269440 0.992983
O O11 0.752613 0.309046 0.850406
O O12 0.279420 0.884492 0.011208
O O13 0.210413 0.029509 0.207911
O O14 0.782044 0.215159 0.221209
O O15 0.611158 0.206697 0.291697
O O16 0.500000 0.000000 0.000000
O O17 0.000000 0.500000 0.000000
O O18 0.500000 0.500000 0.500000
#
# Coordination Sequence:
#
# PCOD8018505 Si02
#       8
#     2   2   2   2   2   2   2   2
#     4  11  21  40  64  97 140 174 233 287 346 406
#     4  12  23  41  69 100 136 180 231 290 345 416
#     4  11  20  39  67  97 133 179 235 283 342 412
#     4  11  23  38  66 100 135 180 226 288 339 420
#     4  12  24  44  67 101 139 188 229 283 352 425
#     4  11  23  42  63 100 138 180 232 278 352 415
#     4  10  22  40  67 100 137 179 232 291 346 412
#     4  12  25  43  70 107 140 180 234 296 354 411
#
# _framework density 22.561115000000001
#
# number of rings (size 3 to 8) (size 9 to 14) (size 15 to 20)
#    0.000    0.750    3.750    6.375    0.000    0.000 
#    0.000    1.875    0.000    3.000    0.000    0.000 
#    0.000    0.000    0.000    0.000    0.000    0.000 
#
# Total GULP energy -198358.440250 kJ/mol
# GULP energy per Si atom -12397.402516 kJ/mol
# Density = 2.250976 g / cm^3
# Si number density = 22.561115 Si / 1000 Ang^3
#
#
#
# Elastic Constant Matrix: (Units=GPa)
#
#
# Indices 1 2 3 4 5 6 
#
# 1 83.8153 28.1881 31.2395 -10.2152 -23.9341 -10.4376
# 2 28.1881 124.7816 56.8661 -26.3315 -5.2568 -22.3859
# 3 31.2395 56.8661 121.8883 -14.3886 -29.3334 -7.6127
# 4 -10.2152 -26.3315 -14.3886 41.3446 6.7797 2.9419
# 5 -23.9341 -5.2568 -29.3334 6.7797 42.2630 -5.8801
# 6 -10.4376 -22.3859 -7.6127 2.9419 -5.8801 33.4157
#
#
#
# Elastic Compliance Matrix: (Units=1/GPa)
#
#
# Indices 1 2 3 4 5 6 
#
# 1 0.016121 -0.001881 -0.000677 0.000703 0.009030 0.005148
# 2 -0.001881 0.013064 -0.005320 0.006131 -0.003305 0.005831
# 3 -0.000677 -0.005320 0.012758 -0.000462 0.007964 0.000573
# 4 0.000703 0.006131 -0.000462 0.028619 -0.003603 0.001068
# 5 0.009030 -0.003305 0.007964 -0.003603 0.035724 0.009024
# 6 0.005148 0.005831 0.000573 0.001068 0.009024 0.037065
#
#
# Mechanical properties :
#
#
# Convention : Reuss Voigt Hill
#
# Bulk Modulus (GPa) = 38.18774 62.56360 50.37567
# Shear Modulus (GPa) = 29.79096 37.68411 33.73754
#
# Velocity S-wave (km/s) = 3.63775 4.09138 3.87122
# Velocity P-wave (km/s) = 5.88281 7.07885 6.50836
#
# Compressibility (1/GPa) = 0.02618642
#
# Stress axis : x y z
#
# Youngs Moduli (GPa) = 62.03085 76.54516 78.38519
#
# Poissons Ratio (x) = 0.14399 0.05304
# Poissons Ratio (y) = 0.11669 0.41704
# Poissons Ratio (z) = 0.04197 0.40725
#
# Static dielectric constant tensor:
#      x y z
#    x 4.478310 0.087370 -0.245760 
#    y 0.087370 4.045080 -0.180440 
#    z -0.245760 -0.180440 4.028320 
# 
# 
# High freq. dielectric constant tensor:
#      x y z
#    x 1.902830 -0.006620 -0.015620 
#    y -0.006620 1.881040 -0.019130 
#    z -0.015620 -0.019130 1.875970 
# 
# From -- ./inp_files/392179.got.cif
#   From: 2010.06.25/outbox.cif.g09.slc.cpg/sg2_197_cif.got.tgz:392179.got - 2010.06.27 13:26:56.
