data_PCOD8018466
_publ_section_title
;
Structure prediction by ZEFSAII (Michael W. Deem and Ramdas Pophale) SiO2 
 PCOD8018466
Probable space group: P -1
;
_chemical_formula_sum "Si O2"
_cell_formula_units_Z 14
_cell_length_a 10.739578
_cell_length_b 13.982686
_cell_length_c 7.945302
_cell_angle_alpha 111.522231
_cell_angle_beta 73.716312
_cell_angle_gamma 50.502966
_cell_volume 598.226356
_symmetry_space_group_name_H-M "P -1"
_symmetry_group_IT_number 2
_symmetry_cell_setting 'triclinic'
loop_
_space_group_symop_operation_xyz
x,y,z
-x,-y,-z
loop_
_atom_site_type_symbol
_atom_site_label
_atom_site_fract_x
_atom_site_fract_y
_atom_site_fract_z
Si Si1 0.851401 0.627087 0.392778
Si Si2 0.379326 0.567506 0.769771
Si Si3 0.659559 0.012331 0.290353
Si Si4 0.838452 0.281440 0.569908
Si Si5 0.001892 0.027967 0.827006
Si Si6 0.934076 0.704576 0.731501
Si Si7 0.016435 0.687171 0.152847
O O1 0.608334 0.784844 0.489842
O O2 0.819340 0.710847 0.632434
O O3 0.034010 0.564466 0.156821
O O4 0.949594 0.448812 0.274134
O O5 0.500000 0.500000 0.500000
O O6 0.569603 0.427970 0.752427
O O7 0.241231 0.761361 0.990743
O O8 0.195402 0.591053 0.865965
O O9 0.782060 0.037746 0.312897
O O10 0.747574 0.877750 0.319571
O O11 0.740897 0.904291 0.016455
O O12 0.878662 0.341579 0.449712
O O13 0.910869 0.272102 0.718211
O O14 0.984179 0.082253 0.362790
O O15 0.000000 0.000000 0.000000
#
# Coordination Sequence:
#
# PCOD8018466 Si02
#       7
#     2   2   2   2   2   2   2
#     4  10  23  43  64  90 129 171 212 266 321 368
#     4  11  22  39  65  93 125 168 215 261 325 380
#     4  11  22  39  64  92 128 169 214 260 321 380
#     4  11  22  42  66  95 137 164 211 272 319 377
#     4  11  22  38  64 100 124 166 218 261 313 387
#     4  10  22  40  66  96 122 166 223 260 307 392
#     4  10  24  43  63  97 133 168 215 268 318 388
#
# _framework density 23.402512000000002
#
# number of rings (size 3 to 8) (size 9 to 14) (size 15 to 20)
#    0.000    1.429    2.857    2.143    2.000    5.143 
#    0.000    4.286    0.000    0.000    0.000    0.000 
#    0.000    0.000    0.000    0.000    0.000    0.000 
#
# Total GULP energy -173490.615951 kJ/mol
# GULP energy per Si atom -12392.186854 kJ/mol
# Density = 2.334925 g / cm^3
# Si number density = 23.402512 Si / 1000 Ang^3
#
#
#
# Elastic Constant Matrix: (Units=GPa)
#
#
# Indices 1 2 3 4 5 6 
#
# 1 98.4580 33.5542 40.7700 13.1779 10.7458 6.1066
# 2 33.5542 120.5673 42.1223 3.2787 -17.1652 7.4167
# 3 40.7700 42.1223 86.8654 11.1380 -13.6011 8.2015
# 4 13.1779 3.2787 11.1380 41.8873 -1.7793 -10.1646
# 5 10.7458 -17.1652 -13.6011 -1.7793 26.8444 6.9201
# 6 6.1066 7.4167 8.2015 -10.1646 6.9201 45.1232
#
#
#
# Elastic Compliance Matrix: (Units=1/GPa)
#
#
# Indices 1 2 3 4 5 6 
#
# 1 0.016437 -0.003782 -0.007686 -0.003123 -0.013394 0.001145
# 2 -0.003782 0.011457 -0.002410 0.000794 0.008189 -0.002010
# 3 -0.007686 -0.002410 0.019010 -0.003041 0.012143 -0.004566
# 4 -0.003123 0.000794 -0.003041 0.027301 0.000233 0.006959
# 5 -0.013394 0.008189 0.012143 0.000233 0.056694 -0.010383
# 6 0.001145 -0.002010 -0.004566 0.006959 -0.010383 0.026327
#
#
# Mechanical properties :
#
#
# Convention : Reuss Voigt Hill
#
# Bulk Modulus (GPa) = 52.22351 59.86484 56.04418
# Shear Modulus (GPa) = 26.12834 35.40059 30.76446
#
# Velocity S-wave (km/s) = 3.34500 3.89354 3.62965
# Velocity P-wave (km/s) = 6.10594 6.77119 6.44715
#
# Compressibility (1/GPa) = 0.01914846
#
# Stress axis : x y z
#
# Youngs Moduli (GPa) = 60.83983 87.28574 52.60298
#
# Poissons Ratio (x) = 0.33008 0.40428
# Poissons Ratio (y) = 0.23008 0.12679
# Poissons Ratio (z) = 0.46759 0.21039
#
# Static dielectric constant tensor:
#      x y z
#    x 4.296760 -0.027990 -0.156150 
#    y -0.027990 4.329490 -0.290560 
#    z -0.156150 -0.290560 3.878800 
# 
# 
# High freq. dielectric constant tensor:
#      x y z
#    x 1.939480 0.001470 0.006550 
#    y 0.001470 1.941900 -0.008480 
#    z 0.006550 -0.008480 1.906650 
# 
# From -- ./inp_files/273630.got.cif
#   From: 2010.06.25/outbox.cif.g09.slc.cpg/sg2_137_cif.got.tgz:273630.got - 2010.06.27 13:26:56.
