data_PCOD8018273
_publ_section_title
;
Structure prediction by ZEFSAII (Michael W. Deem and Ramdas Pophale) SiO2 
 PCOD8018273
Probable space group: P -1
;
_chemical_formula_sum "Si O2"
_cell_formula_units_Z 14
_cell_length_a 12.367851
_cell_length_b 8.507545
_cell_length_c 19.182447
_cell_angle_alpha 135.592308
_cell_angle_beta 32.538808
_cell_angle_gamma 114.798898
_cell_volume 664.055030
_symmetry_space_group_name_H-M "P -1"
_symmetry_group_IT_number 2
_symmetry_cell_setting 'triclinic'
loop_
_space_group_symop_operation_xyz
x,y,z
-x,-y,-z
loop_
_atom_site_type_symbol
_atom_site_label
_atom_site_fract_x
_atom_site_fract_y
_atom_site_fract_z
Si Si1 0.898123 0.344221 0.962678
Si Si2 0.437130 0.675630 0.255197
Si Si3 0.174607 0.091741 0.082241
Si Si4 0.372138 0.070996 0.302561
Si Si5 0.674890 0.451257 0.450151
Si Si6 0.333679 0.896561 0.533894
Si Si7 0.081079 0.501558 0.379545
O O1 0.797794 0.195066 0.017916
O O2 0.711338 0.522372 0.064469
O O3 0.083156 0.131799 0.746425
O O4 0.000000 0.500000 0.000000
O O5 0.356525 0.819587 0.417552
O O6 0.325546 0.493319 0.246164
O O7 0.369429 0.848067 0.278312
O O8 0.123580 0.248711 0.233136
O O9 0.939803 0.271745 0.222873
O O10 0.408605 0.056872 0.909600
O O11 0.395278 0.259006 0.403349
O O12 0.123060 0.228218 0.452150
O O13 0.500000 0.500000 0.500000
O O14 0.629664 0.331070 0.506230
O O15 0.500000 0.000000 0.500000
O O16 0.000000 0.500000 0.500000
#
# Coordination Sequence:
#
# PCOD8018273 Si02
#       7
#     2   2   2   2   2   2   2
#     4  11  23  40  65  95 128 168 220 263 322 389
#     4  12  25  42  66  99 130 174 216 268 329 391
#     4  10  24  44  64  96 131 171 218 270 327 388
#     4  11  25  42  64  98 134 170 218 268 328 392
#     4  10  22  40  64  94 131 174 217 267 327 382
#     4  11  22  40  65  92 131 171 216 268 320 385
#     4  11  24  46  72  94 127 170 223 273 327 392
#
# _framework density 21.082588000000001
#
# number of rings (size 3 to 8) (size 9 to 14) (size 15 to 20)
#    0.000    1.143    1.429    5.571    2.000    8.000 
#    0.000    0.000    0.000    0.000    0.000    0.000 
#    0.000    0.000    0.000    0.000    0.000    0.000 
#
# Total GULP energy -173478.164508 kJ/mol
# GULP energy per Si atom -12391.297465 kJ/mol
# Density = 2.103460 g / cm^3
# Si number density = 21.082588 Si / 1000 Ang^3
#
#
#
# Elastic Constant Matrix: (Units=GPa)
#
#
# Indices 1 2 3 4 5 6 
#
# 1 118.7092 37.3502 30.9375 2.8590 -19.0445 4.0048
# 2 37.3502 114.7407 18.4666 0.8183 -0.5246 5.7434
# 3 30.9375 18.4666 87.8641 0.6329 -12.0113 -8.7089
# 4 2.8590 0.8183 0.6329 32.2948 1.6964 -1.8726
# 5 -19.0445 -0.5246 -12.0113 1.6964 35.2847 -5.0525
# 6 4.0048 5.7434 -8.7089 -1.8726 -5.0525 39.9985
#
#
#
# Elastic Compliance Matrix: (Units=1/GPa)
#
#
# Indices 1 2 3 4 5 6 
#
# 1 0.010900 -0.003071 -0.002575 -0.001133 0.004923 -0.000642
# 2 -0.003071 0.010035 -0.001513 0.000066 -0.002277 -0.001747
# 3 -0.002575 -0.001513 0.013502 0.000031 0.003739 0.003889
# 4 -0.001133 0.000066 0.000031 0.031240 -0.001911 0.001332
# 5 0.004923 -0.002277 0.003739 -0.001911 0.033006 0.004728
# 6 -0.000642 -0.001747 0.003889 0.001332 0.004728 0.026822
#
#
# Mechanical properties :
#
#
# Convention : Reuss Voigt Hill
#
# Bulk Modulus (GPa) = 49.70177 54.98027 52.34102
# Shear Modulus (GPa) = 34.12267 37.15292 35.63779
#
# Velocity S-wave (km/s) = 4.02745 4.20248 4.11590
# Velocity P-wave (km/s) = 6.72705 7.04861 6.88970
#
# Compressibility (1/GPa) = 0.02012001
#
# Stress axis : x y z
#
# Youngs Moduli (GPa) = 91.74227 99.65114 74.06208
#
# Poissons Ratio (x) = 0.30603 0.19071
# Poissons Ratio (y) = 0.28174 0.11203
# Poissons Ratio (z) = 0.23624 0.15074
#
# Static dielectric constant tensor:
#      x y z
#    x 3.663100 0.072810 -0.043350 
#    y 0.072810 3.807190 0.084870 
#    z -0.043350 0.084870 4.050400 
# 
# 
# High freq. dielectric constant tensor:
#      x y z
#    x 1.826570 0.013410 -0.011330 
#    y 0.013410 1.831420 -0.000280 
#    z -0.011330 -0.000280 1.844680 
# 
# From -- ./inp_files/270730.got.cif
#   From: 2010.06.25/outbox.cif.g09.slc.cpg/sg2_136_cif.got.tgz:270730.got - 2010.06.27 13:26:56.
