data_PCOD8018936
_publ_section_title
;
Structure prediction by ZEFSAII (Michael W. Deem and Ramdas Pophale) SiO2 
 PCOD8018936
Probable space group: P -1
;
_chemical_formula_sum "Si O2"
_cell_formula_units_Z 14
_cell_length_a 8.912387
_cell_length_b 15.204294
_cell_length_c 15.122431
_cell_angle_alpha 27.411454
_cell_angle_beta 67.248766
_cell_angle_gamma 48.946619
_cell_volume 586.784495
_symmetry_space_group_name_H-M "P -1"
_symmetry_group_IT_number 2
_symmetry_cell_setting 'triclinic'
loop_
_space_group_symop_operation_xyz
x,y,z
-x,-y,-z
loop_
_atom_site_type_symbol
_atom_site_label
_atom_site_fract_x
_atom_site_fract_y
_atom_site_fract_z
Si Si1 0.004399 0.832690 0.318458
Si Si2 0.713795 0.733477 0.289355
Si Si3 0.596067 0.082615 0.521091
Si Si4 0.519269 0.408865 0.836962
Si Si5 0.861315 0.727354 0.607939
Si Si6 0.718550 0.766863 0.940406
Si Si7 0.356084 0.821073 0.172545
O O1 0.993606 0.766543 0.480532
O O2 0.052556 0.606292 0.441898
O O3 0.205839 0.824466 0.272686
O O4 0.755642 0.142728 0.072948
O O5 0.594474 0.699576 0.271326
O O6 0.524722 0.925113 0.240198
O O7 0.793851 0.865895 0.110114
O O8 0.584267 0.307333 0.355704
O O9 0.328367 0.227068 0.447810
O O10 0.725599 0.963887 0.503414
O O11 0.760331 0.821924 0.785840
O O12 0.573267 0.377211 0.748416
O O13 0.313520 0.432229 0.883175
O O14 0.051241 0.408746 0.890489
#
# Coordination Sequence:
#
# PCOD8018936 Si02
#       7
#     2   2   2   2   2   2   2
#     4  12  23  40  66 105 140 182 223 286 338 416
#     4  10  23  41  68 101 144 178 230 274 346 422
#     4  11  26  51  69 102 139 183 235 300 332 412
#     4  11  25  42  69 105 142 178 240 276 350 411
#     4  11  26  48  75  99 138 186 238 280 361 398
#     4  11  24  49  71 103 138 184 230 290 343 417
#     4  10  22  41  63 100 140 186 223 277 346 414
#
# _framework density 23.858843
#
# number of rings (size 3 to 8) (size 9 to 14) (size 15 to 20)
#    0.000    1.143    1.429    4.714    4.000    4.571 
#    0.000    0.000    0.000    0.000    0.000    0.000 
#    0.000    0.000    0.000    0.000    0.000    0.000 
#
# Total GULP energy -173618.993975 kJ/mol
# GULP energy per Si atom -12401.356713 kJ/mol
# Density = 2.380454 g / cm^3
# Si number density = 23.858843 Si / 1000 Ang^3
#
#
#
# Elastic Constant Matrix: (Units=GPa)
#
#
# Indices 1 2 3 4 5 6 
#
# 1 52.8599 45.6273 31.1033 -3.4075 -33.9406 12.1181
# 2 45.6273 78.3136 26.3049 19.3647 -0.3345 -3.1798
# 3 31.1033 26.3049 100.4955 6.6744 -10.8256 1.6653
# 4 -3.4075 19.3647 6.6744 32.4933 -5.5790 3.4365
# 5 -33.9406 -0.3345 -10.8256 -5.5790 15.7753 7.8128
# 6 12.1181 -3.1798 1.6653 3.4365 7.8128 31.7996
#
#
#
# Elastic Compliance Matrix: (Units=1/GPa)
#
#
# Indices 1 2 3 4 5 6 
#
# 1 -0.007402 0.008121 -0.002189 -0.010998 -0.026858 0.011535
# 2 0.008121 0.008638 -0.002590 0.000295 0.019396 -0.006892
# 3 -0.002189 -0.002590 0.011733 -0.000387 0.003586 -0.000879
# 4 -0.010998 0.000295 -0.000387 0.025889 -0.017624 0.005773
# 5 -0.026858 0.019396 0.003586 -0.017624 -0.005277 0.015188
# 6 0.011535 -0.006892 -0.000879 0.005773 0.015188 0.022053
#
#
# Mechanical properties :
#
#
# Convention : Reuss Voigt Hill
#
# Bulk Modulus (GPa) = 50.88517 48.63777 49.76147
# Shear Modulus (GPa) = 90.08904 24.58920 57.33912
#
# Velocity S-wave (km/s) = 6.15152 3.21380 4.90763
# Velocity P-wave (km/s) = 8.47519 5.84818 7.28114
#
# Compressibility (1/GPa) = 0.01965209
#
# Stress axis : x y z
#
# Youngs Moduli (GPa) = -135.09276 115.76888 85.23200
#
# Poissons Ratio (x) = -0.94015 0.18654
# Poissons Ratio (y) = 1.09708 0.22079
# Poissons Ratio (z) = -0.29566 0.29989
#
# Static dielectric constant tensor:
#      x y z
#    x 4.434780 0.015620 0.057520 
#    y 0.015620 4.158560 0.056810 
#    z 0.057520 0.056810 4.549030 
# 
# 
# High freq. dielectric constant tensor:
#      x y z
#    x 1.945690 0.003350 0.004840 
#    y 0.003350 1.940300 0.003100 
#    z 0.004840 0.003100 1.960740 
# 
# From -- ./inp_files/504933.got.cif
#   From: 2010.06.25/outbox.cif.g09.slc.cpg/sg2_253_cif.got.tgz:504933.got - 2010.06.27 13:26:56.
