data_PCOD8018439
_publ_section_title
;
Structure prediction by ZEFSAII (Michael W. Deem and Ramdas Pophale) SiO2 
 PCOD8018439
Probable space group: P -1
;
_chemical_formula_sum "Si O2"
_cell_formula_units_Z 14
_cell_length_a 17.788119
_cell_length_b 13.078711
_cell_length_c 9.205058
_cell_angle_alpha 36.312135
_cell_angle_beta 130.172997
_cell_angle_gamma 148.734371
_cell_volume 651.508739
_symmetry_space_group_name_H-M "P -1"
_symmetry_group_IT_number 2
_symmetry_cell_setting 'triclinic'
loop_
_space_group_symop_operation_xyz
x,y,z
-x,-y,-z
loop_
_atom_site_type_symbol
_atom_site_label
_atom_site_fract_x
_atom_site_fract_y
_atom_site_fract_z
Si Si1 0.541310 0.493520 0.832905
Si Si2 0.631689 0.957421 0.298312
Si Si3 0.729598 0.760811 0.041098
Si Si4 0.039521 0.582438 0.789820
Si Si5 0.976552 0.653103 0.223924
Si Si6 0.211343 0.541476 0.535481
Si Si7 0.465018 0.045819 0.125096
O O1 0.546301 0.664065 0.535403
O O2 0.380888 0.275709 0.954320
O O3 0.669858 0.684307 0.890692
O O4 0.561759 0.337710 0.955003
O O5 0.569020 0.015340 0.268557
O O6 0.798104 0.131426 0.346786
O O7 0.623140 0.026546 0.048516
O O8 0.739090 0.579628 0.323322
O O9 0.889614 0.048868 0.915110
O O10 0.036464 0.395947 0.909595
O O11 0.930860 0.583043 0.587887
O O12 0.000000 0.500000 0.000000
O O13 0.829508 0.532677 0.258445
O O14 0.000000 0.500000 0.500000
O O15 0.345885 0.848135 0.328144
#
# Coordination Sequence:
#
# PCOD8018439 Si02
#       7
#     2   2   2   2   2   2   2
#     4  11  23  42  68  98 135 180 224 278 335 400
#     4  11  24  44  66 101 136 178 227 277 334 404
#     4  11  24  41  65 101 134 171 230 276 335 403
#     4  11  23  43  68  96 133 177 225 270 336 401
#     4  10  22  40  66  92 134 174 216 272 336 387
#     4  11  22  44  67  99 136 174 219 285 331 399
#     4  11  24  43  71  97 138 177 226 277 337 397
#
# _framework density 21.488582999999998
#
# number of rings (size 3 to 8) (size 9 to 14) (size 15 to 20)
#    0.000    1.143    2.857    4.286    2.000    1.714 
#    0.000    0.714    0.000    0.000    0.000    0.000 
#    0.000    0.000    0.000    0.000    0.000    0.000 
#
# Total GULP energy -173591.243754 kJ/mol
# GULP energy per Si atom -12399.374554 kJ/mol
# Density = 2.143967 g / cm^3
# Si number density = 21.488583 Si / 1000 Ang^3
#
#
#
# Elastic Constant Matrix: (Units=GPa)
#
#
# Indices 1 2 3 4 5 6 
#
# 1 112.5178 45.1724 46.1856 -10.0212 -11.6815 -10.2240
# 2 45.1724 68.6096 31.0576 -16.5582 -11.7350 -7.2086
# 3 46.1856 31.0576 100.8430 -21.3749 4.6848 -1.6294
# 4 -10.0212 -16.5582 -21.3749 40.5900 -3.2373 4.6862
# 5 -11.6815 -11.7350 4.6848 -3.2373 39.8010 -1.2564
# 6 -10.2240 -7.2086 -1.6294 4.6862 -1.2564 31.1878
#
#
#
# Elastic Compliance Matrix: (Units=1/GPa)
#
#
# Indices 1 2 3 4 5 6 
#
# 1 0.013933 -0.006692 -0.004810 -0.001980 0.002621 0.003173
# 2 -0.006692 0.023075 -0.002911 0.006428 0.005776 0.002254
# 3 -0.004810 -0.002911 0.014227 0.005109 -0.003606 -0.002419
# 4 -0.001980 0.006428 0.005109 0.030084 0.003056 -0.003294
# 5 0.002621 0.005776 -0.003606 0.003056 0.028355 0.002689
# 6 0.003173 0.002254 -0.002419 -0.003294 0.002689 0.034102
#
#
# Mechanical properties :
#
#
# Convention : Reuss Voigt Hill
#
# Bulk Modulus (GPa) = 44.62638 58.53352 51.57995
# Shear Modulus (GPa) = 27.76647 32.95274 30.35961
#
# Velocity S-wave (km/s) = 3.59855 3.92024 3.76283
# Velocity P-wave (km/s) = 6.17079 6.91300 6.55241
#
# Compressibility (1/GPa) = 0.02240827
#
# Stress axis : x y z
#
# Youngs Moduli (GPa) = 71.77358 43.33645 70.28686
#
# Poissons Ratio (x) = 0.29001 0.33811
# Poissons Ratio (y) = 0.48031 0.20462
# Poissons Ratio (z) = 0.34526 0.12616
#
# Static dielectric constant tensor:
#      x y z
#    x 4.566370 -0.350750 0.061690 
#    y -0.350750 3.449440 0.451970 
#    z 0.061690 0.451970 3.349340 
# 
# 
# High freq. dielectric constant tensor:
#      x y z
#    x 1.855400 0.005700 -0.000920 
#    y 0.005700 1.836720 -0.007150 
#    z -0.000920 -0.007150 1.839670 
# 
# From -- ./inp_files/332754.got.cif
#   From: 2010.06.25/outbox.cif.g09.slc.cpg/sg2_167_cif.got.tgz:332754.got - 2010.06.27 13:26:56.
