data_PCOD8018360
_publ_section_title
;
Structure prediction by ZEFSAII (Michael W. Deem and Ramdas Pophale) SiO2 
 PCOD8018360
Probable space group: P -1
;
_chemical_formula_sum "Si O2"
_cell_formula_units_Z 16
_cell_length_a 19.226417
_cell_length_b 5.195726
_cell_length_c 9.133355
_cell_angle_alpha 53.201850
_cell_angle_beta 99.987928
_cell_angle_gamma 98.293059
_cell_volume 718.572765
_symmetry_space_group_name_H-M "P -1"
_symmetry_group_IT_number 2
_symmetry_cell_setting 'triclinic'
loop_
_space_group_symop_operation_xyz
x,y,z
-x,-y,-z
loop_
_atom_site_type_symbol
_atom_site_label
_atom_site_fract_x
_atom_site_fract_y
_atom_site_fract_z
Si Si1 0.226032 0.527556 0.017742
Si Si2 0.527388 0.097724 0.814571
Si Si3 0.147384 0.243510 0.345979
Si Si4 0.798028 0.741790 0.216204
Si Si5 0.082213 0.542886 0.487558
Si Si6 0.654722 0.914269 0.761572
Si Si7 0.718618 0.554481 0.512168
Si Si8 0.419567 0.211853 0.504457
O O1 0.206640 0.359563 0.916471
O O2 0.230027 0.908225 0.882633
O O3 0.161995 0.416960 0.138403
O O4 0.304490 0.415127 0.129685
O O5 0.471247 0.007850 0.693723
O O6 0.543117 0.480154 0.670965
O O7 0.598079 0.901485 0.878058
O O8 0.500000 0.000000 0.000000
O O9 0.098289 0.468852 0.348472
O O10 0.223284 0.212016 0.463451
O O11 0.109553 0.897580 0.424409
O O12 0.878466 0.715843 0.310652
O O13 0.745012 0.506789 0.372036
O O14 0.000000 0.500000 0.500000
O O15 0.613420 0.003750 0.566331
O O16 0.714417 0.203556 0.709277
O O17 0.641793 0.693889 0.439638
#
# Coordination Sequence:
#
# PCOD8018360 Si02
#       8
#     2   2   2   2   2   2   2   2
#     4  12  24  40  65 104 138 174 225 293 349 395
#     4  10  24  43  62  94 136 181 233 296 353 431
#     4  11  22  43  70  99 140 184 222 280 345 410
#     4  11  25  40  65 103 139 167 232 289 333 409
#     4  11  24  46  73 100 137 190 231 268 338 425
#     4  11  23  41  66  92 133 184 230 284 363 421
#     4  10  22  40  65  94 129 177 230 283 344 409
#     4  10  22  41  65  92 131 176 237 284 360 418
#
# _framework density 22.266356999999999
#
# number of rings (size 3 to 8) (size 9 to 14) (size 15 to 20)
#    0.000    1.250    1.250    5.250    5.250    0.500 
#    0.000    3.750    0.000    0.000    0.000    0.000 
#    0.000    0.000    0.000    0.000    0.000    0.000 
#
# Total GULP energy -198355.804460 kJ/mol
# GULP energy per Si atom -12397.237779 kJ/mol
# Density = 2.221568 g / cm^3
# Si number density = 22.266357 Si / 1000 Ang^3
#
#
#
# Elastic Constant Matrix: (Units=GPa)
#
#
# Indices 1 2 3 4 5 6 
#
# 1 168.5302 55.3545 70.2703 4.1700 -14.7478 -9.4042
# 2 55.3545 121.7724 37.9123 12.8434 -11.8909 -11.6588
# 3 70.2703 37.9123 114.8418 26.8360 -22.3536 -11.2279
# 4 4.1700 12.8434 26.8360 40.0432 -17.0004 -7.7094
# 5 -14.7478 -11.8909 -22.3536 -17.0004 38.0163 6.1424
# 6 -9.4042 -11.6588 -11.2279 -7.7094 6.1424 37.6536
#
#
#
# Elastic Compliance Matrix: (Units=1/GPa)
#
#
# Indices 1 2 3 4 5 6 
#
# 1 0.009094 -0.002739 -0.005328 0.004153 0.001319 0.000469
# 2 -0.002739 0.010168 -0.001009 -0.001776 0.000451 0.001726
# 3 -0.005328 -0.001009 0.014693 -0.007680 0.002705 0.000724
# 4 0.004153 -0.001776 -0.007680 0.036087 0.012093 0.003613
# 5 0.001319 0.000451 0.002705 0.012093 0.034253 -0.001836
# 6 0.000469 0.001726 0.000724 0.003613 -0.001836 0.028465
#
#
# Mechanical properties :
#
#
# Convention : Reuss Voigt Hill
#
# Bulk Modulus (GPa) = 63.28064 81.35764 72.31914
# Shear Modulus (GPa) = 32.01455 39.24976 35.63216
#
# Velocity S-wave (km/s) = 3.79595 4.20305 4.00468
# Velocity P-wave (km/s) = 6.90607 7.75705 7.34390
#
# Compressibility (1/GPa) = 0.01580262
#
# Stress axis : x y z
#
# Youngs Moduli (GPa) = 109.96613 98.34761 68.06043
#
# Poissons Ratio (x) = 0.26940 0.36260
# Poissons Ratio (y) = 0.30122 0.06867
# Poissons Ratio (z) = 0.58587 0.09924
#
# Static dielectric constant tensor:
#      x y z
#    x 4.130990 -0.068860 -0.076070 
#    y -0.068860 4.031970 0.102080 
#    z -0.076070 0.102080 4.099580 
# 
# 
# High freq. dielectric constant tensor:
#      x y z
#    x 1.877540 -0.010560 -0.011710 
#    y -0.010560 1.886240 0.013760 
#    z -0.011710 0.013760 1.863560 
# 
# From -- ./inp_files/323223.got.cif
#   From: 2010.06.25/outbox.cif.g09.slc.cpg/sg2_162_cif.got.tgz:323223.got - 2010.06.27 13:26:56.
