data_PCOD8018719
_publ_section_title
;
Structure prediction by ZEFSAII (Michael W. Deem and Ramdas Pophale) SiO2 
 PCOD8018719
Probable space group: P -1
;
_chemical_formula_sum "Si O2"
_cell_formula_units_Z 14
_cell_length_a 7.757662
_cell_length_b 9.498710
_cell_length_c 9.836799
_cell_angle_alpha 65.314308
_cell_angle_beta 69.598359
_cell_angle_gamma 104.185448
_cell_volume 548.519020
_symmetry_space_group_name_H-M "P -1"
_symmetry_group_IT_number 2
_symmetry_cell_setting 'triclinic'
loop_
_space_group_symop_operation_xyz
x,y,z
-x,-y,-z
loop_
_atom_site_type_symbol
_atom_site_label
_atom_site_fract_x
_atom_site_fract_y
_atom_site_fract_z
Si Si1 0.365150 0.338738 0.007650
Si Si2 0.966974 0.018393 0.304752
Si Si3 0.416605 0.716989 0.264037
Si Si4 0.694742 0.095902 0.133470
Si Si5 0.362192 0.496962 0.677352
Si Si6 0.439478 0.137768 0.396797
Si Si7 0.960843 0.284335 0.725586
O O1 0.500000 0.500000 0.000000
O O2 0.508535 0.267475 0.920345
O O3 0.267449 0.405593 0.885900
O O4 0.187818 0.185644 0.207644
O O5 0.858238 0.082871 0.195737
O O6 0.814061 0.953516 0.505850
O O7 0.995075 0.856703 0.307874
O O8 0.521176 0.903434 0.227285
O O9 0.479548 0.582440 0.384076
O O10 0.168460 0.646571 0.361929
O O11 0.562881 0.191243 0.197167
O O12 0.815298 0.193290 0.929514
O O13 0.488332 0.702907 0.581908
O O14 0.170700 0.448869 0.648142
O O15 0.500000 0.000000 0.500000
#
# Coordination Sequence:
#
# PCOD8018719 Si02
#       7
#     2   2   2   2   2   2   2
#     4  10  22  40  69  99 136 168 232 279 323 393
#     4  11  21  44  67 103 133 186 215 277 344 395
#     4  10  23  38  70 105 127 171 235 279 317 396
#     4  11  20  43  67 102 134 179 222 280 329 404
#     4  10  23  45  67 100 135 180 217 288 326 394
#     4  10  26  42  69  96 142 179 218 271 355 398
#     4  12  21  39  78  99 130 178 236 268 332 396
#
# _framework density 25.523273
#
# number of rings (size 3 to 8) (size 9 to 14) (size 15 to 20)
#    0.857    0.571    4.286    0.857    2.000    3.429 
#    0.000    3.571    0.000    0.000    0.000    0.000 
#    0.000    0.000    0.000    0.000    0.000    0.000 
#
# Total GULP energy -173543.198316 kJ/mol
# GULP energy per Si atom -12395.942737 kJ/mol
# Density = 2.546518 g / cm^3
# Si number density = 25.523273 Si / 1000 Ang^3
#
#
#
# Elastic Constant Matrix: (Units=GPa)
#
#
# Indices 1 2 3 4 5 6 
#
# 1 124.9102 49.1888 37.7092 -5.2636 -34.2938 -12.2828
# 2 49.1888 166.4873 25.9858 -6.2851 -32.9085 -0.7849
# 3 37.7092 25.9858 95.4342 9.3572 -22.7455 -15.2470
# 4 -5.2636 -6.2851 9.3572 40.0163 1.9622 -13.1069
# 5 -34.2938 -32.9085 -22.7455 1.9622 37.0926 2.7253
# 6 -12.2828 -0.7849 -15.2470 -13.1069 2.7253 37.8383
#
#
#
# Elastic Compliance Matrix: (Units=1/GPa)
#
#
# Indices 1 2 3 4 5 6 
#
# 1 0.011837 -0.001485 -0.002097 0.002489 0.007969 0.003255
# 2 -0.001485 0.007533 -0.000421 0.000627 0.005066 -0.000643
# 3 -0.002097 -0.000421 0.013656 -0.002697 0.005950 0.003450
# 4 0.002489 0.000627 -0.002697 0.029370 -0.001083 0.009986
# 5 0.007969 0.005066 0.005950 -0.001083 0.042405 0.001660
# 6 0.003255 -0.000643 0.003450 0.009986 0.001660 0.032201
#
#
# Mechanical properties :
#
#
# Convention : Reuss Voigt Hill
#
# Bulk Modulus (GPa) = 39.97211 68.06660 54.01936
# Shear Modulus (GPa) = 32.60534 41.25265 36.92899
#
# Velocity S-wave (km/s) = 3.57806 4.02465 3.80791
# Velocity P-wave (km/s) = 5.72407 6.95151 6.36744
#
# Compressibility (1/GPa) = 0.02501744
#
# Stress axis : x y z
#
# Youngs Moduli (GPa) = 84.48377 132.74887 73.22982
#
# Poissons Ratio (x) = 0.19717 0.15360
# Poissons Ratio (y) = 0.12548 0.03084
# Poissons Ratio (z) = 0.17720 0.05591
#
# Static dielectric constant tensor:
#      x y z
#    x 4.701160 -0.098090 -0.268970 
#    y -0.098090 4.563670 0.563990 
#    z -0.268970 0.563990 5.289110 
# 
# 
# High freq. dielectric constant tensor:
#      x y z
#    x 2.034640 -0.004020 0.003060 
#    y -0.004020 2.012340 0.005750 
#    z 0.003060 0.005750 2.044760 
# 
# From -- ./inp_files/378187.got.cif
#   From: 2010.06.25/outbox.cif.g09.slc.cpg/sg2_190_cif.got.tgz:378187.got - 2010.06.27 13:26:56.
