data_PCOD8018580
_publ_section_title
;
Structure prediction by ZEFSAII (Michael W. Deem and Ramdas Pophale) SiO2 
 PCOD8018580
Probable space group: P -1
;
_chemical_formula_sum "Si O2"
_cell_formula_units_Z 16
_cell_length_a 9.101952
_cell_length_b 14.545421
_cell_length_c 8.882711
_cell_angle_alpha 128.111485
_cell_angle_beta 108.313906
_cell_angle_gamma 102.799857
_cell_volume 729.992013
_symmetry_space_group_name_H-M "P -1"
_symmetry_group_IT_number 2
_symmetry_cell_setting 'triclinic'
loop_
_space_group_symop_operation_xyz
x,y,z
-x,-y,-z
loop_
_atom_site_type_symbol
_atom_site_label
_atom_site_fract_x
_atom_site_fract_y
_atom_site_fract_z
Si Si1 0.061993 0.751250 0.907691
Si Si2 0.202376 0.051517 0.175142
Si Si3 0.521941 0.327886 0.429164
Si Si4 0.253534 0.134945 0.616143
Si Si5 0.022273 0.815855 0.292592
Si Si6 0.819673 0.352177 0.753380
Si Si7 0.325402 0.470856 0.592291
Si Si8 0.664145 0.326681 0.990812
O O1 0.189920 0.690480 0.887124
O O2 0.878582 0.653756 0.652677
O O3 0.986107 0.750668 0.048536
O O4 0.196891 0.909058 0.045544
O O5 0.359929 0.160207 0.216041
O O6 0.249875 0.131362 0.430402
O O7 0.000000 0.000000 0.000000
O O8 0.717722 0.358458 0.580227
O O9 0.453454 0.410131 0.588806
O O10 0.567183 0.389808 0.338098
O O11 0.170115 0.225233 0.733077
O O12 0.148197 0.982350 0.499539
O O13 0.452203 0.204210 0.828924
O O14 0.124826 0.759615 0.367750
O O15 0.678785 0.310963 0.802737
O O16 0.000000 0.500000 0.000000
O O17 0.300473 0.523725 0.798745
#
# Coordination Sequence:
#
# PCOD8018580 Si02
#       8
#     2   2   2   2   2   2   2   2
#     4  10  22  42  67  92 129 175 209 270 330 380
#     4  11  22  42  66  94 131 168 218 267 327 384
#     4  11  24  41  64  95 127 175 213 266 327 383
#     4  10  22  40  67  98 122 171 216 266 319 388
#     4   9  22  40  66  91 132 161 213 263 329 379
#     4  11  24  42  65  97 130 167 214 275 323 375
#     4  11  25  42  65  91 136 174 217 259 331 392
#     4  11  24  40  70  94 126 169 225 262 316 392
#
# _framework density 21.918047999999999
#
# number of rings (size 3 to 8) (size 9 to 14) (size 15 to 20)
#    0.000    1.500    2.500    1.875    7.000    4.000 
#    2.250    0.625    0.000    0.000    0.000    0.000 
#    0.000    0.000    0.000    0.000    0.000    0.000 
#
# Total GULP energy -198375.175670 kJ/mol
# GULP energy per Si atom -12398.448479 kJ/mol
# Density = 2.186816 g / cm^3
# Si number density = 21.918048 Si / 1000 Ang^3
#
#
#
# Elastic Constant Matrix: (Units=GPa)
#
#
# Indices 1 2 3 4 5 6 
#
# 1 117.7368 19.6373 37.6582 7.6559 5.7981 -16.9669
# 2 19.6373 83.1242 4.4981 13.4653 6.6432 -8.0922
# 3 37.6582 4.4981 82.5775 11.7220 13.4199 -6.1667
# 4 7.6559 13.4653 11.7220 23.0042 -4.9970 10.8207
# 5 5.7981 6.6432 13.4199 -4.9970 42.9335 4.7442
# 6 -16.9669 -8.0922 -6.1667 10.8207 4.7442 35.0386
#
#
#
# Elastic Compliance Matrix: (Units=1/GPa)
#
#
# Indices 1 2 3 4 5 6 
#
# 1 0.011057 -0.001033 -0.003719 -0.004272 -0.001327 0.005960
# 2 -0.001033 0.016495 0.003985 -0.017737 -0.006874 0.010419
# 3 -0.003719 0.003985 0.017853 -0.015953 -0.008473 0.008335
# 4 -0.004272 -0.017737 -0.015953 0.086567 0.022668 -0.038776
# 5 -0.001327 -0.006874 -0.008473 0.022668 0.031477 -0.014984
# 6 0.005960 0.010419 0.008335 -0.038776 -0.014984 0.049303
#
#
# Mechanical properties :
#
#
# Convention : Reuss Voigt Hill
#
# Bulk Modulus (GPa) = 22.79312 45.22508 34.00910
# Shear Modulus (GPa) = 21.84272 34.97158 28.40715
#
# Velocity S-wave (km/s) = 3.16026 3.99878 3.60399
# Velocity P-wave (km/s) = 4.87218 6.48065 5.73311
#
# Compressibility (1/GPa) = 0.04387289
#
# Stress axis : x y z
#
# Youngs Moduli (GPa) = 90.43725 60.62304 56.01371
#
# Poissons Ratio (x) = 0.06260 0.20832
# Poissons Ratio (y) = 0.09339 -0.22324
# Poissons Ratio (z) = 0.33635 -0.24161
#
# Static dielectric constant tensor:
#      x y z
#    x 4.149060 -0.243320 -0.000960 
#    y -0.243320 3.980640 0.219810 
#    z -0.000960 0.219810 3.749130 
# 
# 
# High freq. dielectric constant tensor:
#      x y z
#    x 1.869330 -0.009060 0.011280 
#    y -0.009060 1.860570 0.012340 
#    z 0.011280 0.012340 1.855410 
# 
# From -- ./inp_files/205532.got.cif
#   From: 2010.06.25/outbox.cif.g09.slc.cpg/sg2_103_cif.got.tgz:205532.got - 2010.06.27 13:26:56.
