data_PCOD8018856
_publ_section_title
;
Structure prediction by ZEFSAII (Michael W. Deem and Ramdas Pophale) SiO2 
 PCOD8018856
Probable space group: P -1
;
_chemical_formula_sum "Si O2"
_cell_formula_units_Z 14
_cell_length_a 9.521487
_cell_length_b 5.454216
_cell_length_c 18.327325
_cell_angle_alpha 126.362606
_cell_angle_beta 65.248932
_cell_angle_gamma 132.797538
_cell_volume 562.186738
_symmetry_space_group_name_H-M "P -1"
_symmetry_group_IT_number 2
_symmetry_cell_setting 'triclinic'
loop_
_space_group_symop_operation_xyz
x,y,z
-x,-y,-z
loop_
_atom_site_type_symbol
_atom_site_label
_atom_site_fract_x
_atom_site_fract_y
_atom_site_fract_z
Si Si1 0.146982 0.767004 0.711080
Si Si2 0.316573 0.453835 0.999194
Si Si3 0.699716 0.455923 0.138307
Si Si4 0.768349 0.560835 0.713031
Si Si5 0.385815 0.006130 0.233423
Si Si6 0.012793 0.598978 0.868279
Si Si7 0.477832 0.755783 0.602705
O O1 0.040098 0.532678 0.766681
O O2 0.259619 0.625864 0.621870
O O3 0.989815 0.718853 0.680902
O O4 0.310713 0.202781 0.775708
O O5 0.370038 0.689870 0.954355
O O6 0.147507 0.034632 0.937442
O O7 0.500000 0.500000 0.000000
O O8 0.214355 0.576326 0.099881
O O9 0.552218 0.090269 0.155735
O O10 0.919524 0.600080 0.129132
O O11 0.753496 0.905983 0.761163
O O12 0.713818 0.413116 0.783868
O O13 0.632060 0.199499 0.625904
O O14 0.484719 0.302557 0.331820
O O15 0.500000 0.500000 0.500000
#
# Coordination Sequence:
#
# PCOD8018856 Si02
#       7
#     2   2   2   2   2   2   2
#     4  11  23  41  68  96 131 177 221 277 333 401
#     4  10  24  40  61  92 130 170 217 279 328 390
#     4  11  21  41  67  90 134 174 222 272 336 394
#     4  10  24  42  65 102 133 174 227 270 336 399
#     4  10  22  43  65  99 132 174 221 273 332 397
#     4  10  22  41  60  94 127 166 225 266 334 393
#     4  10  23  44  68  98 137 174 221 279 336 396
#
# _framework density 24.902754999999999
#
# number of rings (size 3 to 8) (size 9 to 14) (size 15 to 20)
#    0.857    0.857    2.857    0.429    6.000    1.714 
#    0.000    0.714    0.000    0.000    0.000    0.000 
#    0.000    0.000    0.000    0.000    0.000    0.000 
#
# Total GULP energy -173517.484100 kJ/mol
# GULP energy per Si atom -12394.106007 kJ/mol
# Density = 2.484608 g / cm^3
# Si number density = 24.902755 Si / 1000 Ang^3
#
#
#
# Elastic Constant Matrix: (Units=GPa)
#
#
# Indices 1 2 3 4 5 6 
#
# 1 193.6767 27.5871 48.9518 -14.1439 -23.3230 14.5810
# 2 27.5871 79.0432 23.0237 -3.2492 -8.5002 -0.3646
# 3 48.9518 23.0237 119.9316 -4.3855 -33.8382 6.1244
# 4 -14.1439 -3.2492 -4.3855 28.1516 -0.5497 -3.7174
# 5 -23.3230 -8.5002 -33.8382 -0.5497 37.8522 -4.9785
# 6 14.5810 -0.3646 6.1244 -3.7174 -4.9785 49.7573
#
#
#
# Elastic Compliance Matrix: (Units=1/GPa)
#
#
# Indices 1 2 3 4 5 6 
#
# 1 0.006292 -0.001420 -0.001561 0.002627 0.002035 -0.001262
# 2 -0.001420 0.013805 -0.001907 0.000710 0.000645 0.000870
# 3 -0.001561 -0.001907 0.012025 0.001049 0.009372 -0.000021
# 4 0.002627 0.000710 0.001049 0.037455 0.003557 0.002260
# 5 0.002035 0.000645 0.009372 0.003557 0.036533 0.002176
# 6 -0.001262 0.000870 -0.000021 0.002260 0.002176 0.020863
#
#
# Mechanical properties :
#
#
# Convention : Reuss Voigt Hill
#
# Bulk Modulus (GPa) = 44.75131 65.75296 55.25213
# Shear Modulus (GPa) = 34.67438 42.69149 38.68293
#
# Velocity S-wave (km/s) = 3.73552 4.14494 3.94554
# Velocity P-wave (km/s) = 6.05103 7.02627 6.55681
#
# Compressibility (1/GPa) = 0.02234572
#
# Stress axis : x y z
#
# Youngs Moduli (GPa) = 158.93252 72.43728 83.15957
#
# Poissons Ratio (x) = 0.10289 0.12980
# Poissons Ratio (y) = 0.22574 0.15858
# Poissons Ratio (z) = 0.24808 0.13813
#
# Static dielectric constant tensor:
#      x y z
#    x 4.785150 0.160710 0.040810 
#    y 0.160710 4.551870 -0.009240 
#    z 0.040810 -0.009240 4.064840 
# 
# 
# High freq. dielectric constant tensor:
#      x y z
#    x 2.015850 0.015940 -0.004540 
#    y 0.015940 2.000470 0.009680 
#    z -0.004540 0.009680 1.955670 
# 
# From -- ./inp_files/585408.got.cif
#   From: 2010.06.25/outbox.cif.g09.slc.cpg/sg2_293_cif.got.tgz:585408.got - 2010.06.27 13:26:56.
