data_PCOD8018195
_publ_section_title
;
Structure prediction by ZEFSAII (Michael W. Deem and Ramdas Pophale) SiO2 
 PCOD8018195
Probable space group: P -1
;
_chemical_formula_sum "Si O2"
_cell_formula_units_Z 16
_cell_length_a 16.677894
_cell_length_b 9.589462
_cell_length_c 7.383734
_cell_angle_alpha 48.593883
_cell_angle_beta 73.445024
_cell_angle_gamma 56.892465
_cell_volume 736.424976
_symmetry_space_group_name_H-M "P -1"
_symmetry_group_IT_number 2
_symmetry_cell_setting 'triclinic'
loop_
_space_group_symop_operation_xyz
x,y,z
-x,-y,-z
loop_
_atom_site_type_symbol
_atom_site_label
_atom_site_fract_x
_atom_site_fract_y
_atom_site_fract_z
Si Si1 0.280160 0.390530 0.000281
Si Si2 0.731274 0.990407 0.116122
Si Si3 0.573735 0.677251 0.323104
Si Si4 0.773185 0.129756 0.322254
Si Si5 0.123561 0.364309 0.899667
Si Si6 0.607898 0.834938 0.517845
Si Si7 0.967569 0.826814 0.632764
Si Si8 0.369490 0.796462 0.357840
O O1 0.365090 0.264129 0.905994
O O2 0.236633 0.645376 0.807124
O O3 0.194727 0.346427 0.033985
O O4 0.322198 0.297227 0.249832
O O5 0.818907 0.752671 0.219317
O O6 0.643164 0.979463 0.270501
O O7 0.760340 0.120867 0.123670
O O8 0.700722 0.121117 0.838230
O O9 0.609135 0.665641 0.516511
O O10 0.458038 0.845937 0.243354
O O11 0.587510 0.454613 0.436188
O O12 0.693983 0.093983 0.515094
O O13 0.878750 0.934114 0.461204
O O14 0.054720 0.611654 0.673837
O O15 0.063254 0.249252 0.099449
O O16 0.500000 0.000000 0.500000
O O17 0.000000 0.000000 0.500000
#
# Coordination Sequence:
#
# PCOD8018195 Si02
#       8
#     2   2   2   2   2   2   2   2
#     4  11  23  44  65  96 136 183 223 272 338 398
#     4  12  24  40  66 100 132 175 220 277 334 404
#     4  10  22  40  63  94 129 182 224 277 322 408
#     4  11  23  43  71  94 135 176 222 284 339 400
#     4  11  24  43  73 100 135 175 225 284 338 409
#     4  12  25  36  62  98 139 176 228 272 325 394
#     4  11  23  46  74 100 130 175 227 280 352 400
#     4  10  22  41  66  91 133 176 227 271 341 388
#
# _framework density 21.726583999999999
#
# number of rings (size 3 to 8) (size 9 to 14) (size 15 to 20)
#    0.000    1.000    3.750    3.000    1.750    1.500 
#    2.250    5.625    0.000    0.000    0.000    0.000 
#    0.000    0.000    0.000    0.000    0.000    0.000 
#
# Total GULP energy -198391.943021 kJ/mol
# GULP energy per Si atom -12399.496439 kJ/mol
# Density = 2.167713 g / cm^3
# Si number density = 21.726584 Si / 1000 Ang^3
#
#
#
# Elastic Constant Matrix: (Units=GPa)
#
#
# Indices 1 2 3 4 5 6 
#
# 1 102.5295 50.1347 22.7232 4.7549 -0.0134 -6.0170
# 2 50.1347 109.5806 37.7889 11.5544 7.7869 -2.4017
# 3 22.7232 37.7889 82.2455 9.0138 13.2707 -3.7234
# 4 4.7549 11.5544 9.0138 39.5085 4.5757 5.6966
# 5 -0.0134 7.7869 13.2707 4.5757 38.9251 0.0882
# 6 -6.0170 -2.4017 -3.7234 5.6966 0.0882 27.5000
#
#
#
# Elastic Compliance Matrix: (Units=1/GPa)
#
#
# Indices 1 2 3 4 5 6 
#
# 1 0.012845 -0.005527 -0.001136 -0.000163 0.001511 0.002203
# 2 -0.005527 0.013412 -0.004249 -0.002150 -0.000983 -0.000165
# 3 -0.001136 -0.004249 0.015394 -0.001920 -0.004177 0.001876
# 4 -0.000163 -0.002150 -0.001920 0.027536 -0.002138 -0.006181
# 5 0.001511 -0.000983 -0.004177 -0.002138 0.027563 0.000034
# 6 0.002203 -0.000165 0.001876 -0.006181 0.000034 0.038365
#
#
# Mechanical properties :
#
#
# Convention : Reuss Voigt Hill
#
# Bulk Modulus (GPa) = 50.43212 57.29433 53.86323
# Shear Modulus (GPa) = 30.57214 33.43397 32.00305
#
# Velocity S-wave (km/s) = 3.75524 3.92707 3.84212
# Velocity P-wave (km/s) = 6.48576 6.85496 6.67291
#
# Compressibility (1/GPa) = 0.01982863
#
# Stress axis : x y z
#
# Youngs Moduli (GPa) = 77.85418 74.55738 64.96072
#
# Poissons Ratio (x) = 0.41207 0.07377
# Poissons Ratio (y) = 0.43029 0.27600
# Poissons Ratio (z) = 0.08841 0.31677
#
# Static dielectric constant tensor:
#      x y z
#    x 4.205750 -0.193760 -0.074090 
#    y -0.193760 4.145670 0.046080 
#    z -0.074090 0.046080 3.783810 
# 
# 
# High freq. dielectric constant tensor:
#      x y z
#    x 1.861250 -0.004790 -0.003330 
#    y -0.004790 1.867980 -0.006660 
#    z -0.003330 -0.006660 1.840220 
# 
# From -- ./inp_files/106274.got.cif
#   From: 2010.06.25/outbox.cif.g09.slc.cpg/sg2_54_cif.got.tgz:106274.got - 2010.06.27 13:26:56.
