data_PCOD8018792
_publ_section_title
;
Structure prediction by ZEFSAII (Michael W. Deem and Ramdas Pophale) SiO2 
 PCOD8018792
Probable space group: P -1
;
_chemical_formula_sum "Si O2"
_cell_formula_units_Z 10
_cell_length_a 5.535902
_cell_length_b 14.821425
_cell_length_c 8.680578
_cell_angle_alpha 44.224180
_cell_angle_beta 118.103064
_cell_angle_gamma 95.783072
_cell_volume 404.437392
_symmetry_space_group_name_H-M "P -1"
_symmetry_group_IT_number 2
_symmetry_cell_setting 'triclinic'
loop_
_space_group_symop_operation_xyz
x,y,z
-x,-y,-z
loop_
_atom_site_type_symbol
_atom_site_label
_atom_site_fract_x
_atom_site_fract_y
_atom_site_fract_z
Si Si1 0.518532 0.715361 0.702397
Si Si2 0.581575 0.613173 0.301069
Si Si3 0.329761 0.886708 0.740508
Si Si4 0.867434 0.455513 0.272828
Si Si5 0.354049 0.966926 0.150074
O O1 0.435595 0.828854 0.674154
O O2 0.265357 0.652388 0.697788
O O3 0.522459 0.800148 0.443942
O O4 0.831280 0.579866 0.983356
O O5 0.500000 0.500000 0.500000
O O6 0.701503 0.550522 0.249593
O O7 0.807593 0.640095 0.454990
O O8 0.323815 0.764708 0.006113
O O9 0.573932 0.945173 0.799949
O O10 0.000000 0.000000 0.500000
O O11 0.500000 0.000000 0.000000
O O12 0.000000 0.000000 0.000000
#
# Coordination Sequence:
#
# PCOD8018792 Si02
#       5
#     2   2   2   2   2
#     4  10  22  45  71 100 141 188 242 300 365 431
#     4  10  22  40  71  99 138 184 237 298 359 429
#     4  11  25  45  71 108 147 190 242 304 370 438
#     4   9  21  44  69  99 137 184 243 295 357 436
#     4  12  27  46  73 105 150 195 244 304 371 446
#
# _framework density 24.725707
#
# number of rings (size 3 to 8) (size 9 to 14) (size 15 to 20)
#    0.000    1.600    0.000    3.000    5.600    0.000 
#    3.600    3.000    0.000    0.000    0.000    0.000 
#    0.000    0.000    0.000    0.000    0.000    0.000 
#
# Total GULP energy -123882.029908 kJ/mol
# GULP energy per Si atom -12388.202991 kJ/mol
# Density = 2.466943 g / cm^3
# Si number density = 24.725707 Si / 1000 Ang^3
#
#
#
# Elastic Constant Matrix: (Units=GPa)
#
#
# Indices 1 2 3 4 5 6 
#
# 1 96.6699 34.0984 66.7405 2.0381 -5.5897 11.1574
# 2 34.0984 145.4871 43.5826 9.8648 10.7703 27.1551
# 3 66.7405 43.5826 243.8378 -13.2954 -23.6995 6.3154
# 4 2.0381 9.8648 -13.2954 36.1366 15.2637 -0.5908
# 5 -5.5897 10.7703 -23.6995 15.2637 44.4619 -1.2690
# 6 11.1574 27.1551 6.3154 -0.5908 -1.2690 25.7725
#
#
#
# Elastic Compliance Matrix: (Units=1/GPa)
#
#
# Indices 1 2 3 4 5 6 
#
# 1 0.013734 -0.001442 -0.003438 -0.002063 0.000849 -0.003589
# 2 -0.001442 0.009796 -0.001506 -0.002070 -0.002918 -0.009519
# 3 -0.003438 -0.001506 0.005587 0.001683 0.002386 0.001863
# 4 -0.002063 -0.002070 0.001683 0.033339 -0.010223 0.002923
# 5 0.000849 -0.002918 0.002386 -0.010223 0.028179 0.003276
# 6 -0.003589 -0.009519 0.001863 0.002923 0.003276 0.050156
#
#
# Mechanical properties :
#
#
# Convention : Reuss Voigt Hill
#
# Bulk Modulus (GPa) = 61.18603 86.09311 73.63957
# Shear Modulus (GPa) = 31.44419 44.04574 37.74496
#
# Velocity S-wave (km/s) = 3.56999 4.22521 3.91134
# Velocity P-wave (km/s) = 6.46473 7.66147 7.08840
#
# Compressibility (1/GPa) = 0.01634360
#
# Stress axis : x y z
#
# Youngs Moduli (GPa) = 72.81324 102.08589 178.99246
#
# Poissons Ratio (x) = 0.14719 0.61544
# Poissons Ratio (y) = 0.10498 0.26959
# Poissons Ratio (z) = 0.25036 0.15376
#
# Static dielectric constant tensor:
#      x y z
#    x 3.422200 0.209430 -0.363360 
#    y 0.209430 4.654440 0.039350 
#    z -0.363360 0.039350 4.739790 
# 
# 
# High freq. dielectric constant tensor:
#      x y z
#    x 1.942030 0.011560 -0.012340 
#    y 0.011560 2.007430 0.004460 
#    z -0.012340 0.004460 2.024970 
# 
# From -- ./inp_files/18166.got.cif
#   From: 2010.06.25/outbox.cif.g09.slc.cpg/sg2_10_cif.got.tgz:18166.got - 2010.06.27 13:26:56.
