data_PCOD8018831
_publ_section_title
;
Structure prediction by ZEFSAII (Michael W. Deem and Ramdas Pophale) SiO2 
 PCOD8018831
Probable space group: P -1
;
_chemical_formula_sum "Si O2"
_cell_formula_units_Z 14
_cell_length_a 7.894114
_cell_length_b 16.201401
_cell_length_c 8.480365
_cell_angle_alpha 118.664761
_cell_angle_beta 58.767736
_cell_angle_gamma 141.118758
_cell_volume 576.271640
_symmetry_space_group_name_H-M "P -1"
_symmetry_group_IT_number 2
_symmetry_cell_setting 'triclinic'
loop_
_space_group_symop_operation_xyz
x,y,z
-x,-y,-z
loop_
_atom_site_type_symbol
_atom_site_label
_atom_site_fract_x
_atom_site_fract_y
_atom_site_fract_z
Si Si1 0.996441 0.092165 0.987659
Si Si2 0.372446 0.852655 0.999933
Si Si3 0.224335 0.600399 0.853637
Si Si4 0.884228 0.329983 0.322965
Si Si5 0.779596 0.685791 0.675819
Si Si6 0.066495 0.871374 0.422038
Si Si7 0.341773 0.148427 0.588332
O O1 0.235417 0.168215 0.809947
O O2 0.072948 0.199100 0.165105
O O3 0.000000 0.000000 0.000000
O O4 0.686087 0.001249 0.973741
O O5 0.172550 0.847920 0.201168
O O6 0.387822 0.750296 0.966413
O O7 0.233257 0.798226 0.842890
O O8 0.075645 0.568256 0.723958
O O9 0.449278 0.591177 0.723730
O O10 0.000000 0.500000 0.000000
O O11 0.664957 0.279272 0.521225
O O12 0.168721 0.399472 0.345699
O O13 0.951508 0.756787 0.496701
O O14 0.818421 0.862231 0.495625
O O15 0.304974 0.022420 0.511655
#
# Coordination Sequence:
#
# PCOD8018831 Si02
#       7
#     2   2   2   2   2   2   2
#     4  12  21  36  59  95 129 164 201 239 309 368
#     4  10  22  41  57  93 126 165 200 249 309 360
#     4  10  23  47  65  85 121 160 209 266 310 350
#     4  10  23  40  62  94 117 167 204 250 306 363
#     4  12  23  39  65  95 124 160 207 249 306 376
#     4  11  21  35  60  90 130 169 195 243 308 368
#     4  11  21  36  58  88 138 166 191 248 303 370
#
# _framework density 24.294098999999999
#
# number of rings (size 3 to 8) (size 9 to 14) (size 15 to 20)
#    0.857    0.286    4.286    3.429    2.000    3.429 
#    0.000    0.714    0.000    1.714    0.000    0.000 
#    0.000    0.000    0.000    0.000    0.000    0.000 
#
# Total GULP energy -173507.844790 kJ/mol
# GULP energy per Si atom -12393.417485 kJ/mol
# Density = 2.423881 g / cm^3
# Si number density = 24.294099 Si / 1000 Ang^3
#
#
#
# Elastic Constant Matrix: (Units=GPa)
#
#
# Indices 1 2 3 4 5 6 
#
# 1 176.3243 20.5684 32.2122 -38.2193 -2.2525 -10.6325
# 2 20.5684 49.3683 24.2769 -33.7319 3.7811 -8.9736
# 3 32.2122 24.2769 126.7713 -41.7121 -8.2424 1.0002
# 4 -38.2193 -33.7319 -41.7121 46.6970 -4.3039 5.9572
# 5 -2.2525 3.7811 -8.2424 -4.3039 33.9519 -8.1580
# 6 -10.6325 -8.9736 1.0002 5.9572 -8.1580 16.7610
#
#
#
# Elastic Compliance Matrix: (Units=1/GPa)
#
#
# Indices 1 2 3 4 5 6 
#
# 1 0.007310 0.002909 0.000348 0.008042 0.002335 0.004451
# 2 0.002909 0.044038 0.002418 0.034821 0.003839 0.014770
# 3 0.000348 0.002418 0.012006 0.013377 0.003866 -0.002074
# 4 0.008042 0.034821 0.013377 0.065415 0.009198 0.004174
# 5 0.002335 0.003839 0.003866 0.009198 0.035439 0.017285
# 6 0.004451 0.014770 -0.002074 0.004174 0.017285 0.077447
#
#
# Mechanical properties :
#
#
# Convention : Reuss Voigt Hill
#
# Bulk Modulus (GPa) = 13.38617 56.28657 34.83637
# Shear Modulus (GPa) = 19.59201 37.84239 28.71720
#
# Velocity S-wave (km/s) = 2.84289 3.95102 3.44185
# Velocity P-wave (km/s) = 4.03708 6.63576 5.49233
#
# Compressibility (1/GPa) = 0.07470399
#
# Stress axis : x y z
#
# Youngs Moduli (GPa) = 136.80055 22.70757 83.29308
#
# Poissons Ratio (x) = -0.06605 -0.02903
# Poissons Ratio (y) = -0.39789 -0.20140
# Poissons Ratio (z) = -0.04767 -0.05491
#
# Static dielectric constant tensor:
#      x y z
#    x 4.656850 -0.133970 0.045580 
#    y -0.133970 3.787230 -0.136650 
#    z 0.045580 -0.136650 4.190530 
# 
# 
# High freq. dielectric constant tensor:
#      x y z
#    x 1.983480 -0.018770 -0.003820 
#    y -0.018770 1.925910 -0.010990 
#    z -0.003820 -0.010990 1.969820 
# 
# From -- ./inp_files/215468.got.cif
#   From: 2010.06.25/outbox.cif.g09.slc.cpg/sg2_108_cif.got.tgz:215468.got - 2010.06.27 13:26:56.
