data_PCOD8018963
_publ_section_title
;
Structure prediction by ZEFSAII (Michael W. Deem and Ramdas Pophale) SiO2 
 PCOD8018963
Probable space group: P -1
;
_chemical_formula_sum "Si O2"
_cell_formula_units_Z 16
_cell_length_a 18.840169
_cell_length_b 15.715552
_cell_length_c 5.222420
_cell_angle_alpha 83.856935
_cell_angle_beta 79.506121
_cell_angle_gamma 28.061168
_cell_volume 710.384413
_symmetry_space_group_name_H-M "P -1"
_symmetry_group_IT_number 2
_symmetry_cell_setting 'triclinic'
loop_
_space_group_symop_operation_xyz
x,y,z
-x,-y,-z
loop_
_atom_site_type_symbol
_atom_site_label
_atom_site_fract_x
_atom_site_fract_y
_atom_site_fract_z
Si Si1 0.036774 0.560388 0.456163
Si Si2 0.826920 0.208808 0.511304
Si Si3 0.445141 0.322427 0.672767
Si Si4 0.257557 0.831636 0.842905
Si Si5 0.211418 0.042841 0.503459
Si Si6 0.996392 0.836272 0.800600
Si Si7 0.575525 0.545664 0.866942
Si Si8 0.168009 0.498744 0.908502
O O1 0.104266 0.514605 0.701282
O O2 0.000000 0.500000 0.500000
O O3 0.877909 0.776454 0.428889
O O4 0.161517 0.448214 0.185210
O O5 0.738415 0.235880 0.377548
O O6 0.722643 0.327565 0.798575
O O7 0.000000 0.000000 0.500000
O O8 0.844947 0.286588 0.363477
O O9 0.425774 0.383151 0.383843
O O10 0.340370 0.348069 0.775086
O O11 0.621655 0.108309 0.675247
O O12 0.400712 0.439013 0.876988
O O13 0.420433 0.651252 0.935279
O O14 0.242026 0.949934 0.755616
O O15 0.105247 0.979461 0.069354
O O16 0.107513 0.093443 0.374537
O O17 0.058022 0.695346 0.985132
#
# Coordination Sequence:
#
# PCOD8018963 Si02
#       8
#     2   2   2   2   2   2   2   2
#     4  11  24  44  71 103 132 162 204 262 321 388
#     4  12  25  38  61  92 129 170 228 276 318 370
#     4  11  23  42  67  93 126 173 217 259 313 383
#     4  11  22  41  59  88 125 175 217 270 323 373
#     4  10  22  41  63  91 127 169 212 257 324 385
#     4  11  21  40  60  93 120 174 216 267 317 377
#     4  11  25  42  60  90 131 175 219 266 321 369
#     4  11  23  41  70  96 132 165 213 255 317 384
#
# _framework density 22.523019000000001
#
# number of rings (size 3 to 8) (size 9 to 14) (size 15 to 20)
#    0.000    1.000    5.000    1.875    3.500    1.000 
#    0.000    3.750    0.000    0.000    0.000    0.000 
#    0.000    0.000    0.000    0.000    0.000    0.000 
#
# Total GULP energy -198345.973951 kJ/mol
# GULP energy per Si atom -12396.623372 kJ/mol
# Density = 2.247176 g / cm^3
# Si number density = 22.523019 Si / 1000 Ang^3
#
#
#
# Elastic Constant Matrix: (Units=GPa)
#
#
# Indices 1 2 3 4 5 6 
#
# 1 110.5603 43.6751 14.6845 13.6943 -5.9673 -8.2210
# 2 43.6751 80.9894 12.5621 16.0895 -2.4484 -7.0761
# 3 14.6845 12.5621 76.8109 11.5877 -7.8618 -5.1762
# 4 13.6943 16.0895 11.5877 33.1558 -5.7614 -4.5944
# 5 -5.9673 -2.4484 -7.8618 -5.7614 35.3532 2.9853
# 6 -8.2210 -7.0761 -5.1762 -4.5944 2.9853 29.1273
#
#
#
# Elastic Compliance Matrix: (Units=1/GPa)
#
#
# Indices 1 2 3 4 5 6 
#
# 1 0.011782 -0.005786 -0.000896 -0.001364 0.001045 0.001438
# 2 -0.005786 0.016777 -0.000818 -0.005427 -0.001012 0.001545
# 3 -0.000896 -0.000818 0.014187 -0.003624 0.002249 0.001267
# 4 -0.001364 -0.005427 -0.003624 0.035746 0.004172 0.002863
# 5 0.001045 -0.001012 0.002249 0.004172 0.029736 -0.001941
# 6 0.001438 0.001545 0.001267 0.002863 -0.001941 0.035989
#
#
# Mechanical properties :
#
#
# Convention : Reuss Voigt Hill
#
# Bulk Modulus (GPa) = 36.04444 45.57821 40.81133
# Shear Modulus (GPa) = 29.67937 32.68985 31.18461
#
# Velocity S-wave (km/s) = 3.63400 3.81385 3.72501
# Velocity P-wave (km/s) = 5.80052 6.29874 6.05476
#
# Compressibility (1/GPa) = 0.02774353
#
# Stress axis : x y z
#
# Youngs Moduli (GPa) = 84.87504 59.60464 70.48925
#
# Poissons Ratio (x) = 0.34490 0.06319
# Poissons Ratio (y) = 0.49112 0.05768
# Poissons Ratio (z) = 0.07609 0.04877
#
# Static dielectric constant tensor:
#      x y z
#    x 5.717340 -0.777890 -1.176890 
#    y -0.777890 4.540710 0.541050 
#    z -1.176890 0.541050 4.659580 
# 
# 
# High freq. dielectric constant tensor:
#      x y z
#    x 1.876890 -0.021720 -0.015570 
#    y -0.021720 1.887470 0.006530 
#    z -0.015570 0.006530 1.898510 
# 
# From -- ./inp_files/37772.got.cif
#   From: 2010.06.25/outbox.cif.g09.slc.cpg/sg2_19_cif.got.tgz:37772.got - 2010.06.27 13:26:56.
