data_PCOD8018948
_publ_section_title
;
Structure prediction by ZEFSAII (Michael W. Deem and Ramdas Pophale) SiO2 
 PCOD8018948
Probable space group: P -1
;
_chemical_formula_sum "Si O2"
_cell_formula_units_Z 16
_cell_length_a 9.730299
_cell_length_b 9.730354
_cell_length_c 20.694224
_cell_angle_alpha 53.906050
_cell_angle_beta 54.534709
_cell_angle_gamma 29.468680
_cell_volume 767.616864
_symmetry_space_group_name_H-M "P -1"
_symmetry_group_IT_number 2
_symmetry_cell_setting 'triclinic'
loop_
_space_group_symop_operation_xyz
x,y,z
-x,-y,-z
loop_
_atom_site_type_symbol
_atom_site_label
_atom_site_fract_x
_atom_site_fract_y
_atom_site_fract_z
Si Si1 0.022880 0.853889 0.365859
Si Si2 0.966347 0.383040 0.182326
Si Si3 0.311431 0.769087 0.058575
Si Si4 0.574836 0.745448 0.541888
Si Si5 0.355807 0.437856 0.566635
Si Si6 0.335447 0.817789 0.186315
Si Si7 0.892680 0.341773 0.946150
Si Si8 0.845449 0.946569 0.646701
O O1 0.140107 0.563878 0.417505
O O2 0.138510 0.846582 0.271502
O O3 0.683243 0.143058 0.382917
O O4 0.124658 0.875883 0.395263
O O5 0.017052 0.541534 0.127283
O O6 0.640744 0.597120 0.197853
O O7 0.075040 0.223830 0.264884
O O8 0.169064 0.133195 0.142037
O O9 0.358232 0.723066 0.135037
O O10 0.149537 0.729281 0.089496
O O11 0.613724 0.548718 0.006117
O O12 0.137854 0.072597 0.999367
O O13 0.618329 0.689603 0.469779
O O14 0.500000 0.000000 0.500000
O O15 0.500000 0.500000 0.500000
O O16 0.034726 0.729029 0.595605
O O17 0.519243 0.193521 0.644804
#
# Coordination Sequence:
#
# PCOD8018948 Si02
#       8
#     2   2   2   2   2   2   2   2
#     4  11  21  41  62  82 125 158 194 253 309 358
#     4  11  23  39  62  94 126 152 201 264 298 344
#     4  10  22  41  63  89 124 168 202 231 305 374
#     4  12  25  40  58  88 121 156 202 255 301 356
#     4  12  21  38  64  86 111 160 204 247 293 368
#     4  11  23  39  65  92 119 163 204 245 306 367
#     4  10  22  41  63  89 128 161 196 254 295 352
#     4  11  21  38  63  89 116 154 204 249 305 353
#
# _framework density 20.843733
#
# number of rings (size 3 to 8) (size 9 to 14) (size 15 to 20)
#    0.000    1.000    2.500    6.000    0.000    3.000 
#    4.500    0.000    0.000    0.000    0.000    0.000 
#    0.000    0.000    0.000    0.000    0.000    0.000 
#
# Total GULP energy -198310.452654 kJ/mol
# GULP energy per Si atom -12394.403291 kJ/mol
# Density = 2.079629 g / cm^3
# Si number density = 20.843733 Si / 1000 Ang^3
#
#
#
# Elastic Constant Matrix: (Units=GPa)
#
#
# Indices 1 2 3 4 5 6 
#
# 1 62.3795 12.6128 37.6441 -5.6954 10.5042 22.2818
# 2 12.6128 112.9096 20.5762 -12.6159 4.3739 9.3065
# 3 37.6441 20.5762 77.2727 -6.5963 9.7497 13.5864
# 4 -5.6954 -12.6159 -6.5963 31.5093 2.3928 0.8715
# 5 10.5042 4.3739 9.7497 2.3928 26.2214 -3.1295
# 6 22.2818 9.3065 13.5864 0.8715 -3.1295 46.5253
#
#
#
# Elastic Compliance Matrix: (Units=1/GPa)
#
#
# Indices 1 2 3 4 5 6 
#
# 1 0.028112 0.000487 -0.010333 0.004124 -0.009219 -0.011241
# 2 0.000487 0.009799 -0.002003 0.003766 -0.001642 -0.001789
# 3 -0.010333 -0.002003 0.019073 0.001548 -0.002812 -0.000438
# 4 0.004124 0.003766 0.001548 0.034930 -0.006554 -0.004276
# 5 -0.009219 -0.001642 -0.002812 -0.006554 0.044785 0.008700
# 6 -0.011241 -0.001789 -0.000438 -0.004276 0.008700 0.028028
#
#
# Mechanical properties :
#
#
# Convention : Reuss Voigt Hill
#
# Bulk Modulus (GPa) = 30.04348 43.80313 36.92331
# Shear Modulus (GPa) = 25.05991 32.96645 29.01318
#
# Velocity S-wave (km/s) = 3.47115 3.98125 3.73492
# Velocity P-wave (km/s) = 5.52360 6.49572 6.02928
#
# Compressibility (1/GPa) = 0.03328509
#
# Stress axis : x y z
#
# Youngs Moduli (GPa) = 35.57165 102.04874 52.43130
#
# Poissons Ratio (x) = -0.04972 0.54179
# Poissons Ratio (y) = -0.01733 0.10504
# Poissons Ratio (z) = 0.36757 0.20444
#
# Static dielectric constant tensor:
#      x y z
#    x 3.677210 -0.067710 -0.020680 
#    y -0.067710 4.252290 -0.064930 
#    z -0.020680 -0.064930 3.484280 
# 
# 
# High freq. dielectric constant tensor:
#      x y z
#    x 1.799900 0.001140 0.009170 
#    y 0.001140 1.850540 -0.001150 
#    z 0.009170 -0.001150 1.805680 
# 
# From -- ./inp_files/223955.got.cif
#   From: 2010.06.25/outbox.cif.g09.slc.cpg/sg2_112_cif.got.tgz:223955.got - 2010.06.27 13:26:56.
