data_PCOD8018017
_publ_section_title
;
Structure prediction by ZEFSAII (Michael W. Deem and Ramdas Pophale) SiO2 
 PCOD8018017
Probable space group: P -1
;
_chemical_formula_sum "Si O2"
_cell_formula_units_Z 14
_cell_length_a 19.145603
_cell_length_b 7.622883
_cell_length_c 16.809077
_cell_angle_alpha 50.968272
_cell_angle_beta 158.237768
_cell_angle_gamma 138.665479
_cell_volume 577.361181
_symmetry_space_group_name_H-M "P -1"
_symmetry_group_IT_number 2
_symmetry_cell_setting 'triclinic'
loop_
_space_group_symop_operation_xyz
x,y,z
-x,-y,-z
loop_
_atom_site_type_symbol
_atom_site_label
_atom_site_fract_x
_atom_site_fract_y
_atom_site_fract_z
Si Si1 0.282551 0.017400 0.827332
Si Si2 0.434014 0.085669 0.135638
Si Si3 0.896379 0.609948 0.428365
Si Si4 0.622152 0.730250 0.630367
Si Si5 0.879464 0.801452 0.025706
Si Si6 0.247626 0.785639 0.181285
Si Si7 0.737625 0.540508 0.111218
O O1 0.160128 0.167796 0.677476
O O2 0.335566 0.927139 0.992348
O O3 0.510596 0.229368 0.957850
O O4 0.135509 0.742967 0.693383
O O5 0.708153 0.312422 0.352170
O O6 0.366687 0.864782 0.196853
O O7 0.323156 0.248939 0.990026
O O8 0.915143 0.585343 0.357763
O O9 0.500000 0.500000 0.500000
O O10 0.706568 0.618440 0.822027
O O11 0.424006 0.776908 0.429933
O O12 0.851203 0.020889 0.761061
O O13 0.789330 0.990485 0.891789
O O14 0.849802 0.614206 0.121712
O O15 0.000000 0.500000 0.000000
#
# Coordination Sequence:
#
# PCOD8018017 Si02
#       7
#     2   2   2   2   2   2   2
#     4   8  13  25  44  75 107 141 178 227 277 335
#     4   8  16  29  45  75 114 142 181 233 276 329
#     4   8  13  25  46  74 107 142 181 223 281 334
#     4  11  23  41  60  83 119 154 196 245 291 339
#     4  10  22  40  60  87 118 154 194 240 291 343
#     4  11  21  40  61  86 118 156 197 240 286 346
#     4   8  15  28  49  76 110 141 183 230 275 340
#
# _framework density 24.248252999999998
#
# number of rings (size 3 to 8) (size 9 to 14) (size 15 to 20)
#    0.000    2.857    1.429    2.143    0.000    1.143 
#   12.857    0.000    0.000    3.429    0.000    6.000 
#    0.000    0.000    0.000    0.000    0.000    0.000 
#
# Total GULP energy -173527.466301 kJ/mol
# GULP energy per Si atom -12394.819021 kJ/mol
# Density = 2.419306 g / cm^3
# Si number density = 24.248253 Si / 1000 Ang^3
#
#
#
# Elastic Constant Matrix: (Units=GPa)
#
#
# Indices 1 2 3 4 5 6 
#
# 1 120.7345 47.4915 62.9633 25.1320 -23.3196 24.8011
# 2 47.4915 71.2023 51.4910 14.1254 -20.6237 9.6567
# 3 62.9633 51.4910 193.5999 21.9051 -18.5901 12.4147
# 4 25.1320 14.1254 21.9051 40.2103 -13.2975 -2.1360
# 5 -23.3196 -20.6237 -18.5901 -13.2975 39.0794 4.1887
# 6 24.8011 9.6567 12.4147 -2.1360 4.1887 53.1634
#
#
#
# Elastic Compliance Matrix: (Units=1/GPa)
#
#
# Indices 1 2 3 4 5 6 
#
# 1 0.014353 -0.005280 -0.001955 -0.005126 0.003723 -0.005779
# 2 -0.005280 0.022338 -0.003413 -0.000442 0.007011 -0.001368
# 3 -0.001955 -0.003413 0.006856 -0.001373 -0.000162 -0.000111
# 4 -0.005126 -0.000442 -0.001373 0.031251 0.006308 0.003551
# 5 0.003723 0.007011 -0.000162 0.006308 0.034159 -0.005410
# 6 -0.005779 -0.001368 -0.000111 0.003551 -0.005410 0.022349
#
#
# Mechanical properties :
#
#
# Convention : Reuss Voigt Hill
#
# Bulk Modulus (GPa) = 44.94401 78.82536 61.88468
# Shear Modulus (GPa) = 31.24604 41.39668 36.32136
#
# Velocity S-wave (km/s) = 3.59359 4.13631 3.87446
# Velocity P-wave (km/s) = 5.98278 7.44247 6.75219
#
# Compressibility (1/GPa) = 0.02224991
#
# Stress axis : x y z
#
# Youngs Moduli (GPa) = 69.67371 44.76644 145.85819
#
# Poissons Ratio (x) = 0.23636 0.28522
# Poissons Ratio (y) = 0.36786 0.49784
# Poissons Ratio (z) = 0.13624 0.15280
#
# Static dielectric constant tensor:
#      x y z
#    x 4.557400 0.324240 -0.106390 
#    y 0.324240 4.447880 -0.695950 
#    z -0.106390 -0.695950 4.946590 
# 
# 
# High freq. dielectric constant tensor:
#      x y z
#    x 1.977340 -0.022580 0.001400 
#    y -0.022580 1.961860 -0.013660 
#    z 0.001400 -0.013660 1.985890 
# 
# From -- ./inp_files/491053.got.cif
#   From: 2010.06.25/outbox.cif.g09.slc.cpg/sg2_246_cif.got.tgz:491053.got - 2010.06.27 13:26:56.
