data_PCOD8018059
_publ_section_title
;
Structure prediction by ZEFSAII (Michael W. Deem and Ramdas Pophale) SiO2 
 PCOD8018059
Probable space group: P -1
;
_chemical_formula_sum "Si O2"
_cell_formula_units_Z 16
_cell_length_a 17.959320
_cell_length_b 24.045790
_cell_length_c 5.384222
_cell_angle_alpha 110.034143
_cell_angle_beta 115.648598
_cell_angle_gamma 18.380290
_cell_volume 641.632528
_symmetry_space_group_name_H-M "P -1"
_symmetry_group_IT_number 2
_symmetry_cell_setting 'triclinic'
loop_
_space_group_symop_operation_xyz
x,y,z
-x,-y,-z
loop_
_atom_site_type_symbol
_atom_site_label
_atom_site_fract_x
_atom_site_fract_y
_atom_site_fract_z
Si Si1 0.861740 0.030479 0.839666
Si Si2 0.403993 0.131531 0.010827
Si Si3 0.901428 0.633431 0.574729
Si Si4 0.278069 0.841918 0.663264
Si Si5 0.209958 0.711506 0.091314
Si Si6 0.938177 0.811634 0.175979
Si Si7 0.747748 0.498238 0.067698
Si Si8 0.361430 0.504429 0.684675
O O1 0.698859 0.133836 0.511725
O O2 0.690877 0.141121 0.012502
O O3 0.000000 0.000000 0.000000
O O4 0.054135 0.845074 0.840220
O O5 0.224078 0.259183 0.702569
O O6 0.279759 0.238642 0.250582
O O7 0.500000 0.000000 0.000000
O O8 0.641894 0.012442 0.112007
O O9 0.000000 0.500000 0.500000
O O10 0.148419 0.505924 0.787966
O O11 0.545184 0.623103 0.734061
O O12 0.000000 0.000000 0.500000
O O13 0.393174 0.641464 0.349303
O O14 0.019670 0.820950 0.204760
O O15 0.371999 0.545273 0.988798
O O16 0.086726 0.695619 0.462801
O O17 0.014393 0.707766 0.932709
O O18 0.604767 0.581032 0.251672
#
# Coordination Sequence:
#
# PCOD8018059 Si02
#       8
#     2   2   2   2   2   2   2   2
#     4  10  22  40  61  92 135 195 237 285 358 431
#     4  12  26  52  86 113 154 204 268 327 402 480
#     4  12  29  53  82 121 158 198 262 346 408 466
#     4  10  23  39  65  99 139 193 240 292 360 456
#     4  10  23  40  64 102 147 195 251 312 366 454
#     4  11  25  41  76 108 142 201 258 321 379 472
#     4  11  25  44  74 108 146 202 259 310 401 463
#     4  10  22  42  67 102 146 193 252 309 374 451
#
# _framework density 24.936394
#
# number of rings (size 3 to 8) (size 9 to 14) (size 15 to 20)
#    0.000    1.250    1.250    3.375   10.500    1.000 
#    0.000    0.000    0.000    0.000    0.000    0.000 
#    0.000    0.000    0.000    0.000    0.000    0.000 
#
# Total GULP energy -198231.769426 kJ/mol
# GULP energy per Si atom -12389.485589 kJ/mol
# Density = 2.487964 g / cm^3
# Si number density = 24.936394 Si / 1000 Ang^3
#
#
#
# Elastic Constant Matrix: (Units=GPa)
#
#
# Indices 1 2 3 4 5 6 
#
# 1 171.7928 57.2069 66.0737 -9.1973 -1.9679 -13.9567
# 2 57.2069 121.2997 41.8848 -2.8571 -7.1804 -4.5121
# 3 66.0737 41.8848 158.0014 -16.9386 -34.3447 -6.0585
# 4 -9.1973 -2.8571 -16.9386 46.5511 -2.9025 -2.0364
# 5 -1.9679 -7.1804 -34.3447 -2.9025 46.6700 -13.3735
# 6 -13.9567 -4.5121 -6.0585 -2.0364 -13.3735 43.4694
#
#
#
# Elastic Compliance Matrix: (Units=1/GPa)
#
#
# Indices 1 2 3 4 5 6 
#
# 1 0.007977 -0.002811 -0.002911 0.000287 -0.001845 0.001309
# 2 -0.002811 0.010089 -0.001476 -0.000452 0.000324 0.000017
# 3 -0.002911 -0.001476 0.010262 0.003721 0.008314 0.003075
# 4 0.000287 -0.000452 0.003721 0.023320 0.005051 0.003210
# 5 -0.001845 0.000324 0.008314 0.005051 0.030786 0.010308
# 6 0.001309 0.000017 0.003075 0.003210 0.010308 0.027177
#
#
# Mechanical properties :
#
#
# Convention : Reuss Voigt Hill
#
# Bulk Modulus (GPa) = 71.78020 86.82496 79.30258
# Shear Modulus (GPa) = 38.86506 46.40001 42.63253
#
# Velocity S-wave (km/s) = 3.95215 4.31830 4.13928
# Velocity P-wave (km/s) = 7.04797 7.73032 7.39701
#
# Compressibility (1/GPa) = 0.01393142
#
# Stress axis : x y z
#
# Youngs Moduli (GPa) = 125.35836 99.12168 97.44834
#
# Poissons Ratio (x) = 0.27861 0.28367
# Poissons Ratio (y) = 0.35235 0.14387
# Poissons Ratio (z) = 0.36491 0.14634
#
# Static dielectric constant tensor:
#      x y z
#    x 4.703640 -0.180400 -0.430190 
#    y -0.180400 4.805150 0.220320 
#    z -0.430190 0.220320 4.974400 
# 
# 
# High freq. dielectric constant tensor:
#      x y z
#    x 1.987540 -0.000510 -0.022950 
#    y -0.000510 2.003720 0.004840 
#    z -0.022950 0.004840 1.997990 
# 
# From -- ./inp_files/112927.got.cif
#   From: 2010.06.25/outbox.cif.g09.slc.cpg/sg2_57_cif.got.tgz:112927.got - 2010.06.27 13:26:56.
