data_PCOD8018950
_publ_section_title
;
Structure prediction by ZEFSAII (Michael W. Deem and Ramdas Pophale) SiO2 
 PCOD8018950
Probable space group: P -1
;
_chemical_formula_sum "Si O2"
_cell_formula_units_Z 16
_cell_length_a 12.586807
_cell_length_b 12.308166
_cell_length_c 12.402598
_cell_angle_alpha 83.340225
_cell_angle_beta 50.105493
_cell_angle_gamma 124.430552
_cell_volume 795.450449
_symmetry_space_group_name_H-M "P -1"
_symmetry_group_IT_number 2
_symmetry_cell_setting 'triclinic'
loop_
_space_group_symop_operation_xyz
x,y,z
-x,-y,-z
loop_
_atom_site_type_symbol
_atom_site_label
_atom_site_fract_x
_atom_site_fract_y
_atom_site_fract_z
Si Si1 0.729322 0.954381 0.112054
Si Si2 0.840106 0.627742 0.899034
Si Si3 0.600628 0.156087 0.832209
Si Si4 0.713640 0.609363 0.266188
Si Si5 0.120045 0.440752 0.350276
Si Si6 0.622289 0.963260 0.412967
Si Si7 0.240465 0.578986 0.836937
Si Si8 0.462868 0.396632 0.819636
O O1 0.630777 0.975521 0.084574
O O2 0.584972 0.884339 0.327373
O O3 0.672476 0.797641 0.120929
O O4 0.033382 0.153613 0.903234
O O5 0.918711 0.636362 0.731607
O O6 0.720557 0.447070 0.066268
O O7 0.671821 0.627031 0.991074
O O8 0.078385 0.827651 0.790338
O O9 0.699619 0.332533 0.805654
O O10 0.839788 0.272557 0.595834
O O11 0.500000 0.000000 0.000000
O O12 0.500000 0.500000 0.500000
O O13 0.803656 0.542868 0.212471
O O14 0.561117 0.526669 0.263966
O O15 0.253100 0.444974 0.346388
O O16 0.499185 0.810402 0.606075
O O17 0.500000 0.000000 0.500000
O O18 0.000000 0.500000 0.000000
#
# Coordination Sequence:
#
# PCOD8018950 Si02
#       8
#     2   2   2   2   2   2   2   2
#     4  11  22  41  65  94 127 168 214 265 321 375
#     4  11  23  41  62  93 127 165 211 258 317 383
#     4  10  24  43  66  93 124 165 212 262 310 380
#     4  11  23  37  64  97 127 167 212 268 319 377
#     4  10  23  43  65  91 125 169 210 255 317 376
#     4  12  22  39  62  93 129 163 208 263 322 370
#     4  11  23  39  60  93 129 166 210 262 317 380
#     4  10  22  41  63  89 126 168 209 260 315 381
#
# _framework density 20.11439
#
# number of rings (size 3 to 8) (size 9 to 14) (size 15 to 20)
#    0.000    1.250    3.750    2.250    3.500    3.000 
#    0.000    0.000    0.000    4.500    0.000    0.000 
#    0.000    0.000    0.000    0.000    0.000    0.000 
#
# Total GULP energy -198258.702574 kJ/mol
# GULP energy per Si atom -12391.168911 kJ/mol
# Density = 2.006861 g / cm^3
# Si number density = 20.114390 Si / 1000 Ang^3
#
#
#
# Elastic Constant Matrix: (Units=GPa)
#
#
# Indices 1 2 3 4 5 6 
#
# 1 101.5030 36.9188 33.6501 7.2815 -1.9375 -3.7343
# 2 36.9188 91.6192 32.6959 24.5392 5.8857 -5.3942
# 3 33.6501 32.6959 94.0625 8.3434 7.5159 -4.6467
# 4 7.2815 24.5392 8.3434 36.3079 -10.5926 -2.9146
# 5 -1.9375 5.8857 7.5159 -10.5926 32.8855 5.1626
# 6 -3.7343 -5.3942 -4.6467 -2.9146 5.1626 33.2980
#
#
#
# Elastic Compliance Matrix: (Units=1/GPa)
#
#
# Indices 1 2 3 4 5 6 
#
# 1 0.012549 -0.004700 -0.003314 0.002318 0.003099 -0.000094
# 2 -0.004700 0.017623 -0.002695 -0.012254 -0.007072 0.001976
# 3 -0.003314 -0.002695 0.013226 -0.001437 -0.003425 0.001443
# 4 0.002318 -0.012254 -0.001437 0.040215 0.015744 -0.000847
# 5 0.003099 -0.007072 -0.003425 0.015744 0.038635 -0.005888
# 6 -0.000094 0.001976 0.001443 -0.000847 -0.005888 0.031382
#
#
# Mechanical properties :
#
#
# Convention : Reuss Voigt Hill
#
# Bulk Modulus (GPa) = 45.49271 54.85716 50.17493
# Shear Modulus (GPa) = 27.41635 32.75959 30.08797
#
# Velocity S-wave (km/s) = 3.69592 4.04005 3.87181
# Velocity P-wave (km/s) = 6.39368 7.00674 6.70722
#
# Compressibility (1/GPa) = 0.02198154
#
# Stress axis : x y z
#
# Youngs Moduli (GPa) = 79.68582 56.74454 75.61010
#
# Poissons Ratio (x) = 0.26668 0.25055
# Poissons Ratio (y) = 0.37450 0.20375
# Poissons Ratio (z) = 0.26405 0.15292
#
# Static dielectric constant tensor:
#      x y z
#    x 3.649660 0.138570 0.096220 
#    y 0.138570 3.473200 -0.163980 
#    z 0.096220 -0.163980 3.469420 
# 
# 
# High freq. dielectric constant tensor:
#      x y z
#    x 1.789050 -0.011350 -0.011400 
#    y -0.011350 1.793400 0.019730 
#    z -0.011400 0.019730 1.786110 
# 
# From -- ./inp_files/427891.got.cif
#   From: 2010.06.25/outbox.cif.g09.slc.cpg/sg2_214_cif.got.tgz:427891.got - 2010.06.27 13:26:56.
