data_PCOD8018759
_publ_section_title
;
Structure prediction by ZEFSAII (Michael W. Deem and Ramdas Pophale) SiO2 
 PCOD8018759
Probable space group: P -1
;
_chemical_formula_sum "Si O2"
_cell_formula_units_Z 16
_cell_length_a 22.927125
_cell_length_b 9.025809
_cell_length_c 12.560939
_cell_angle_alpha 142.411623
_cell_angle_beta 152.445126
_cell_angle_gamma 47.391359
_cell_volume 730.455605
_symmetry_space_group_name_H-M "P -1"
_symmetry_group_IT_number 2
_symmetry_cell_setting 'triclinic'
loop_
_space_group_symop_operation_xyz
x,y,z
-x,-y,-z
loop_
_atom_site_type_symbol
_atom_site_label
_atom_site_fract_x
_atom_site_fract_y
_atom_site_fract_z
Si Si1 0.498266 0.216684 0.538879
Si Si2 0.259187 0.355355 0.322588
Si Si3 0.335460 0.062090 0.487179
Si Si4 0.928781 0.459485 0.470365
Si Si5 0.972215 0.957537 0.308216
Si Si6 0.670081 0.684827 0.162808
Si Si7 0.789974 0.121687 0.487981
Si Si8 0.098695 0.804913 0.063770
O O1 0.354617 0.291518 0.344841
O O2 0.500000 0.000000 0.500000
O O3 0.550941 0.108049 0.453372
O O4 0.584637 0.455599 0.851252
O O5 0.296900 0.230886 0.423117
O O6 0.273307 0.647125 0.532381
O O7 0.116649 0.281415 0.007579
O O8 0.382708 0.224901 0.758358
O O9 0.216578 0.873127 0.215713
O O10 0.810492 0.616198 0.375736
O O11 0.000000 0.500000 0.500000
O O12 0.889430 0.173886 0.258191
O O13 0.029656 0.542263 0.772849
O O14 0.109004 0.971502 0.482728
O O15 0.000000 0.000000 0.500000
O O16 0.682318 0.902460 0.218436
O O17 0.861092 0.216293 0.762814
O O18 0.000000 0.000000 0.000000
#
# Coordination Sequence:
#
# PCOD8018759 Si02
#       8
#     2   2   2   2   2   2   2   2
#     4  10  23  45  66  96 131 168 224 267 316 385
#     4  11  24  44  63  88 136 171 209 270 329 380
#     4  10  22  40  70  97 124 173 217 268 321 385
#     4  12  20  36  63  95 127 162 210 268 318 382
#     4  12  26  40  62  97 130 168 211 269 333 389
#     4  11  23  41  69 100 126 169 224 262 322 388
#     4  11  24  42  62  96 131 166 213 268 329 391
#     4  11  19  37  64  94 127 166 210 263 330 384
#
# _framework density 21.904136000000001
#
# number of rings (size 3 to 8) (size 9 to 14) (size 15 to 20)
#    0.000    1.000    3.750    4.875    1.750    2.500 
#    2.250    2.500    0.000    0.000    0.000    0.000 
#    0.000    0.000    0.000    0.000    0.000    0.000 
#
# Total GULP energy -198352.807152 kJ/mol
# GULP energy per Si atom -12397.050447 kJ/mol
# Density = 2.185428 g / cm^3
# Si number density = 21.904136 Si / 1000 Ang^3
#
#
#
# Elastic Constant Matrix: (Units=GPa)
#
#
# Indices 1 2 3 4 5 6 
#
# 1 151.8223 39.5221 33.5298 5.2655 0.1326 -16.8276
# 2 39.5221 93.9770 19.2657 22.8505 3.4516 -1.6677
# 3 33.5298 19.2657 74.2968 26.0957 -1.7232 7.6988
# 4 5.2655 22.8505 26.0957 33.2716 -1.1051 1.1370
# 5 0.1326 3.4516 -1.7232 -1.1051 26.6519 1.5552
# 6 -16.8276 -1.6677 7.6988 1.1370 1.5552 37.8885
#
#
#
# Elastic Compliance Matrix: (Units=1/GPa)
#
#
# Indices 1 2 3 4 5 6 
#
# 1 0.009194 -0.003973 -0.005537 0.005452 0.000053 0.004868
# 2 -0.003973 0.014645 0.001908 -0.010959 -0.002144 -0.001091
# 3 -0.005537 0.001908 0.022380 -0.017739 0.000867 -0.006426
# 4 0.005452 -0.010959 -0.017739 0.050568 0.002112 0.003939
# 5 0.000053 -0.002144 0.000867 0.002112 0.038051 -0.001872
# 6 0.004868 -0.001091 -0.006426 0.003939 -0.001872 0.029772
#
#
# Mechanical properties :
#
#
# Convention : Reuss Voigt Hill
#
# Bulk Modulus (GPa) = 32.24193 56.08126 44.16160
# Shear Modulus (GPa) = 26.29478 34.74764 30.52121
#
# Velocity S-wave (km/s) = 3.46851 3.98722 3.73688
# Velocity P-wave (km/s) = 5.54908 6.84514 6.23090
#
# Compressibility (1/GPa) = 0.03101551
#
# Stress axis : x y z
#
# Youngs Moduli (GPa) = 108.76577 68.28457 44.68229
#
# Poissons Ratio (x) = 0.27126 0.24741
# Poissons Ratio (y) = 0.43208 -0.08525
# Poissons Ratio (z) = 0.60225 -0.13028
#
# Static dielectric constant tensor:
#      x y z
#    x 4.298070 -0.198120 0.208360 
#    y -0.198120 4.022460 0.146160 
#    z 0.208360 0.146160 3.903160 
# 
# 
# High freq. dielectric constant tensor:
#      x y z
#    x 1.872020 -0.010700 0.008070 
#    y -0.010700 1.864540 0.022230 
#    z 0.008070 0.022230 1.850250 
# 
# From -- ./inp_files/273179.got.cif
#   From: 2010.06.25/outbox.cif.g09.slc.cpg/sg2_137_cif.got.tgz:273179.got - 2010.06.27 13:26:56.
