data_PCOD8018824
_publ_section_title
;
Structure prediction by ZEFSAII (Michael W. Deem and Ramdas Pophale) SiO2 
 PCOD8018824
Probable space group: P -1
;
_chemical_formula_sum "Si O2"
_cell_formula_units_Z 16
_cell_length_a 9.678721
_cell_length_b 10.962720
_cell_length_c 8.957901
_cell_angle_alpha 111.412967
_cell_angle_beta 57.004091
_cell_angle_gamma 117.466148
_cell_volume 698.984827
_symmetry_space_group_name_H-M "P -1"
_symmetry_group_IT_number 2
_symmetry_cell_setting 'triclinic'
loop_
_space_group_symop_operation_xyz
x,y,z
-x,-y,-z
loop_
_atom_site_type_symbol
_atom_site_label
_atom_site_fract_x
_atom_site_fract_y
_atom_site_fract_z
Si Si1 0.190231 0.397232 0.576814
Si Si2 0.808667 0.364021 0.782150
Si Si3 0.766837 0.609342 0.103385
Si Si4 0.249677 0.944250 0.291083
Si Si5 0.418587 0.640805 0.367081
Si Si6 0.433962 0.904261 0.638948
Si Si7 0.928550 0.873068 0.644352
Si Si8 0.031262 0.856036 0.892353
O O1 0.231925 0.418922 0.735370
O O2 0.345676 0.494946 0.429359
O O3 0.169442 0.241044 0.471881
O O4 0.015007 0.433090 0.661588
O O5 0.769473 0.212989 0.816215
O O6 0.713534 0.338042 0.667787
O O7 0.747890 0.465703 0.967690
O O8 0.597034 0.650073 0.181612
O O9 0.938573 0.737081 0.013726
O O10 0.127929 0.949721 0.507379
O O11 0.449521 0.028591 0.255013
O O12 0.179962 0.018853 0.230137
O O13 0.453455 0.756637 0.526033
O O14 0.235898 0.883337 0.787653
O O15 0.500000 0.000000 0.500000
O O16 0.940820 0.800179 0.761215
O O17 0.000000 0.000000 0.000000
#
# Coordination Sequence:
#
# PCOD8018824 Si02
#       8
#     2   2   2   2   2   2   2   2
#     4  11  24  46  73  97 132 185 231 273 332 413
#     4  11  23  42  69 102 140 170 224 284 347 385
#     4  12  27  45  68 102 142 174 222 292 343 392
#     4  10  22  40  74  98 134 185 223 279 322 416
#     4  12  24  44  75  97 133 184 232 273 332 417
#     4  12  21  44  70 104 133 179 234 271 332 414
#     4  10  22  44  71 100 135 178 234 268 338 406
#     4  12  27  43  70 105 141 174 222 289 351 390
#
# _framework density 22.890338
#
# number of rings (size 3 to 8) (size 9 to 14) (size 15 to 20)
#    0.000    0.750    2.500    5.250    5.250    0.000 
#    0.000    1.875    0.000    0.000    0.000    0.000 
#    0.000    0.000    0.000    0.000    0.000    0.000 
#
# Total GULP energy -198470.277512 kJ/mol
# GULP energy per Si atom -12404.392345 kJ/mol
# Density = 2.283824 g / cm^3
# Si number density = 22.890338 Si / 1000 Ang^3
#
#
#
# Elastic Constant Matrix: (Units=GPa)
#
#
# Indices 1 2 3 4 5 6 
#
# 1 111.9406 40.2316 28.8445 -6.4074 -18.4166 2.7233
# 2 40.2316 116.3321 41.7613 14.3273 -20.5179 0.7803
# 3 28.8445 41.7613 75.0841 8.1848 -24.7713 2.3135
# 4 -6.4074 14.3273 8.1848 47.3571 -2.7331 -3.8718
# 5 -18.4166 -20.5179 -24.7713 -2.7331 39.4322 3.4766
# 6 2.7233 0.7803 2.3135 -3.8718 3.4766 34.6478
#
#
#
# Elastic Compliance Matrix: (Units=1/GPa)
#
#
# Indices 1 2 3 4 5 6 
#
# 1 0.011151 -0.003013 -0.002041 0.002874 0.002612 -0.000613
# 2 -0.003013 0.011981 -0.004574 -0.003161 0.001757 -0.000257
# 3 -0.002041 -0.004574 0.019996 -0.001994 0.009287 -0.002226
# 4 0.002874 -0.003161 -0.001994 0.023005 -0.000188 0.002568
# 5 0.002612 0.001757 0.009287 -0.000188 0.033691 -0.004266
# 6 -0.000613 -0.000257 -0.002226 0.002568 -0.004266 0.029780
#
#
# Mechanical properties :
#
#
# Convention : Reuss Voigt Hill
#
# Bulk Modulus (GPa) = 41.88893 58.33683 50.11288
# Shear Modulus (GPa) = 31.88422 37.12205 34.50313
#
# Velocity S-wave (km/s) = 3.73622 4.03145 3.88664
# Velocity P-wave (km/s) = 6.07882 6.87101 6.48702
#
# Compressibility (1/GPa) = 0.02387265
#
# Stress axis : x y z
#
# Youngs Moduli (GPa) = 89.67720 83.46489 50.00947
#
# Poissons Ratio (x) = 0.25148 0.10206
# Poissons Ratio (y) = 0.27020 0.22875
# Poissons Ratio (z) = 0.18301 0.38177
#
# Static dielectric constant tensor:
#      x y z
#    x 4.178600 0.025410 -0.164290 
#    y 0.025410 4.161400 0.029910 
#    z -0.164290 0.029910 3.991370 
# 
# 
# High freq. dielectric constant tensor:
#      x y z
#    x 1.918200 0.001230 -0.006910 
#    y 0.001230 1.911890 0.008810 
#    z -0.006910 0.008810 1.890690 
# 
# From -- ./inp_files/189050.got.cif
#   From: 2010.06.25/outbox.cif.g09.slc.cpg/sg2_95_cif.got.tgz:189050.got - 2010.06.27 13:26:56.
