data_PCOD8018421
_publ_section_title
;
Structure prediction by ZEFSAII (Michael W. Deem and Ramdas Pophale) SiO2 
 PCOD8018421
Probable space group: P -1
;
_chemical_formula_sum "Si O2"
_cell_formula_units_Z 14
_cell_length_a 21.968461
_cell_length_b 22.686840
_cell_length_c 13.324537
_cell_angle_alpha 30.488171
_cell_angle_beta 159.777261
_cell_angle_gamma 161.933594
_cell_volume 682.751599
_symmetry_space_group_name_H-M "P -1"
_symmetry_group_IT_number 2
_symmetry_cell_setting 'triclinic'
loop_
_space_group_symop_operation_xyz
x,y,z
-x,-y,-z
loop_
_atom_site_type_symbol
_atom_site_label
_atom_site_fract_x
_atom_site_fract_y
_atom_site_fract_z
Si Si1 0.696252 0.121283 0.224453
Si Si2 0.701748 0.999953 0.783031
Si Si3 0.306351 0.215602 0.776723
Si Si4 0.607975 0.816891 0.263495
Si Si5 0.617302 0.621046 0.712112
Si Si6 0.381381 0.529579 0.694374
Si Si7 0.300808 0.088011 0.315902
O O1 0.044887 0.324447 0.438609
O O2 0.656770 0.985260 0.426874
O O3 0.593408 0.176898 0.047366
O O4 0.500000 0.000000 0.000000
O O5 0.500000 0.000000 0.500000
O O6 0.694533 0.972246 0.694864
O O7 0.035552 0.211655 0.024757
O O8 0.583260 0.823007 0.917793
O O9 0.431911 0.252703 0.807473
O O10 0.434331 0.406958 0.725715
O O11 0.948799 0.034825 0.492945
O O12 0.488701 0.655796 0.392767
O O13 0.594782 0.644142 0.759359
O O14 0.414007 0.673033 0.586276
O O15 0.500000 0.500000 0.000000
O O16 0.000000 0.000000 0.000000
#
# Coordination Sequence:
#
# PCOD8018421 Si02
#       7
#     2   2   2   2   2   2   2
#     4  12  26  41  67 100 135 167 227 280 321 391
#     4  11  24  41  65  96 127 170 223 274 322 392
#     4  10  22  40  66  87 130 174 214 269 336 391
#     4  10  23  41  59  95 130 167 215 276 331 385
#     4  11  22  39  65  90 129 171 222 266 335 392
#     4  12  24  41  67  96 129 180 219 267 334 395
#     4  12  24  44  68  94 135 175 218 271 332 395
#
# _framework density 20.505261999999998
#
# number of rings (size 3 to 8) (size 9 to 14) (size 15 to 20)
#    0.000    0.857    2.857    3.857    2.000    5.143 
#    0.000    0.000    0.000    0.000    0.000    0.000 
#    0.000    0.000    0.000    0.000    0.000    0.000 
#
# Total GULP energy -173679.216056 kJ/mol
# GULP energy per Si atom -12405.658290 kJ/mol
# Density = 2.045859 g / cm^3
# Si number density = 20.505262 Si / 1000 Ang^3
#
#
#
# Elastic Constant Matrix: (Units=GPa)
#
#
# Indices 1 2 3 4 5 6 
#
# 1 117.8381 32.1720 53.8622 -13.6203 -7.2936 -1.4019
# 2 32.1720 127.3079 47.9533 -16.9298 -5.4789 -7.9679
# 3 53.8622 47.9533 134.4901 -22.9393 -3.7805 4.1069
# 4 -13.6203 -16.9298 -22.9393 43.2303 1.8976 -5.8379
# 5 -7.2936 -5.4789 -3.7805 1.8976 42.4800 -5.5848
# 6 -1.4019 -7.9679 4.1069 -5.8379 -5.5848 34.9832
#
#
#
# Elastic Compliance Matrix: (Units=1/GPa)
#
#
# Indices 1 2 3 4 5 6 
#
# 1 0.010696 -0.001030 -0.003725 0.001067 0.001462 0.001043
# 2 -0.001030 0.009690 -0.002694 0.002405 0.001129 0.003064
# 3 -0.003725 -0.002694 0.010458 0.003131 -0.000398 -0.001532
# 4 0.001067 0.002405 0.003131 0.026698 0.000199 0.004710
# 5 0.001462 0.001129 -0.000398 0.000199 0.024458 0.004300
# 6 0.001043 0.003064 -0.001532 0.004710 0.004300 0.030977
#
#
# Mechanical properties :
#
#
# Convention : Reuss Voigt Hill
#
# Bulk Modulus (GPa) = 62.71468 71.95680 67.33574
# Shear Modulus (GPa) = 37.53973 40.51527 39.02750
#
# Velocity S-wave (km/s) = 4.28335 4.44987 4.36741
# Velocity P-wave (km/s) = 7.42387 7.84665 7.63819
#
# Compressibility (1/GPa) = 0.01594523
#
# Stress axis : x y z
#
# Youngs Moduli (GPa) = 93.48952 103.19684 95.62228
#
# Poissons Ratio (x) = 0.10627 0.35624
# Poissons Ratio (y) = 0.09628 0.25764
# Poissons Ratio (z) = 0.34829 0.27804
#
# Static dielectric constant tensor:
#      x y z
#    x 4.196710 -0.087060 -0.018670 
#    y -0.087060 3.833190 -0.085060 
#    z -0.018670 -0.085060 3.767590 
# 
# 
# High freq. dielectric constant tensor:
#      x y z
#    x 1.811930 -0.002110 -0.008870 
#    y -0.002110 1.816920 -0.010480 
#    z -0.008870 -0.010480 1.805700 
# 
# From -- ./inp_files/107256.got.cif
#   From: 2010.06.25/outbox.cif.g09.slc.cpg/sg2_54_cif.got.tgz:107256.got - 2010.06.27 13:26:56.
