data_PCOD8018013
_publ_section_title
;
Structure prediction by ZEFSAII (Michael W. Deem and Ramdas Pophale) SiO2 
 PCOD8018013
Probable space group: P -1
;
_chemical_formula_sum "Si O2"
_cell_formula_units_Z 12
_cell_length_a 7.638771
_cell_length_b 11.838990
_cell_length_c 11.258811
_cell_angle_alpha 144.614890
_cell_angle_beta 64.492043
_cell_angle_gamma 101.772333
_cell_volume 510.630829
_symmetry_space_group_name_H-M "P -1"
_symmetry_group_IT_number 2
_symmetry_cell_setting 'triclinic'
loop_
_space_group_symop_operation_xyz
x,y,z
-x,-y,-z
loop_
_atom_site_type_symbol
_atom_site_label
_atom_site_fract_x
_atom_site_fract_y
_atom_site_fract_z
Si Si1 0.644377 0.878091 0.026999
Si Si2 0.554511 0.263677 0.249055
Si Si3 0.170856 0.433541 0.797899
Si Si4 0.403285 0.664382 0.071758
Si Si5 0.987404 0.231129 0.023481
Si Si6 0.729065 0.959587 0.442151
O O1 0.554356 0.790287 0.091115
O O2 0.549676 0.123209 0.246554
O O3 0.612474 0.763822 0.818559
O O4 0.883337 0.821341 0.938826
O O5 0.500000 0.500000 0.500000
O O6 0.779949 0.170645 0.050270
O O7 0.254699 0.193048 0.580669
O O8 0.079694 0.522211 0.772248
O O9 0.334119 0.556346 0.887630
O O10 0.000000 0.500000 0.000000
O O11 0.229426 0.836276 0.339768
O O12 0.500000 0.500000 0.000000
O O13 0.109295 0.114405 0.773795
O O14 0.500000 0.000000 0.500000
#
# Coordination Sequence:
#
# PCOD8018013 Si02
#       6
#     2   2   2   2   2   2
#     4  11  25  47  70 102 140 179 243 286 344 420
#     4  11  27  49  73  97 137 190 238 294 341 406
#     4  10  22  40  60 103 143 176 233 276 339 424
#     4  12  22  40  70 103 139 184 224 280 354 415
#     4  11  23  44  70 104 141 177 236 286 346 424
#     4  11  22  40  70 104 143 184 220 287 355 414
#
# _framework density 23.500343999999998
#
# number of rings (size 3 to 8) (size 9 to 14) (size 15 to 20)
#    0.000    1.000    5.000    1.500    2.333    4.667 
#    0.000    6.667    0.000    0.000    0.000    0.000 
#    0.000    0.000    0.000    0.000    0.000    0.000 
#
# Total GULP energy -148671.309930 kJ/mol
# GULP energy per Si atom -12389.275828 kJ/mol
# Density = 2.344686 g / cm^3
# Si number density = 23.500344 Si / 1000 Ang^3
#
#
#
# Elastic Constant Matrix: (Units=GPa)
#
#
# Indices 1 2 3 4 5 6 
#
# 1 96.7410 37.6375 34.2807 6.5693 0.1447 -25.4582
# 2 37.6375 145.9090 52.0309 32.3985 -10.4818 -21.4743
# 3 34.2807 52.0309 136.3040 35.4240 2.8635 -15.2753
# 4 6.5693 32.3985 35.4240 49.5640 0.0507 -15.0656
# 5 0.1447 -10.4818 2.8635 0.0507 28.3070 -0.3011
# 6 -25.4582 -21.4743 -15.2753 -15.0656 -0.3011 53.7747
#
#
#
# Elastic Compliance Matrix: (Units=1/GPa)
#
#
# Indices 1 2 3 4 5 6 
#
# 1 0.013512 -0.002522 -0.002701 0.003490 -0.000676 0.005596
# 2 -0.002522 0.009522 -0.001864 -0.004289 0.003745 0.000899
# 3 -0.002701 -0.001864 0.010226 -0.005974 -0.001709 -0.000802
# 4 0.003490 -0.004289 -0.005974 0.028695 -0.000986 0.006276
# 5 -0.000676 0.003745 -0.001709 -0.000986 0.036898 0.000620
# 6 0.005596 0.000899 -0.000802 0.006276 0.000620 0.023139
#
#
# Mechanical properties :
#
#
# Convention : Reuss Voigt Hill
#
# Bulk Modulus (GPa) = 52.39455 69.65024 61.02240
# Shear Modulus (GPa) = 35.08047 43.32949 39.20498
#
# Velocity S-wave (km/s) = 3.86782 4.29859 4.08888
# Velocity P-wave (km/s) = 6.50310 7.37153 6.95089
#
# Compressibility (1/GPa) = 0.01908595
#
# Stress axis : x y z
#
# Youngs Moduli (GPa) = 74.00795 105.01511 97.78858
#
# Poissons Ratio (x) = 0.26486 0.26415
# Poissons Ratio (y) = 0.18666 0.18228
# Poissons Ratio (z) = 0.19991 0.19575
#
# Static dielectric constant tensor:
#      x y z
#    x 4.362450 0.015670 -0.177130 
#    y 0.015670 5.214890 0.904350 
#    z -0.177130 0.904350 4.455300 
# 
# 
# High freq. dielectric constant tensor:
#      x y z
#    x 1.931660 -0.008130 -0.009590 
#    y -0.008130 1.949390 0.022530 
#    z -0.009590 0.022530 1.909480 
# 
# From -- ./inp_files/184663.got.cif
#   From: 2010.06.25/outbox.cif.g09.slc.cpg/sg2_93_cif.got.tgz:184663.got - 2010.06.27 13:26:56.
