data_PCOD8018772
_publ_section_title
;
Structure prediction by ZEFSAII (Michael W. Deem and Ramdas Pophale) SiO2 
 PCOD8018772
Probable space group: P -1
;
_chemical_formula_sum "Si O2"
_cell_formula_units_Z 16
_cell_length_a 9.638198
_cell_length_b 11.423724
_cell_length_c 19.885336
_cell_angle_alpha 27.775404
_cell_angle_beta 137.681470
_cell_angle_gamma 127.612161
_cell_volume 680.160533
_symmetry_space_group_name_H-M "P -1"
_symmetry_group_IT_number 2
_symmetry_cell_setting 'triclinic'
loop_
_space_group_symop_operation_xyz
x,y,z
-x,-y,-z
loop_
_atom_site_type_symbol
_atom_site_label
_atom_site_fract_x
_atom_site_fract_y
_atom_site_fract_z
Si Si1 0.029894 0.308144 0.284770
Si Si2 0.402421 0.572403 0.305338
Si Si3 0.748409 0.816049 0.250930
Si Si4 0.009643 0.781581 0.837312
Si Si5 0.336720 0.983189 0.310664
Si Si6 0.845630 0.162340 0.811455
Si Si7 0.947150 0.473770 0.383872
Si Si8 0.734440 0.206088 0.336269
O O1 0.169914 0.538099 0.213021
O O2 0.983741 0.210103 0.244688
O O3 0.814752 0.369577 0.219870
O O4 0.167111 0.086540 0.488557
O O5 0.509549 0.767099 0.197879
O O6 0.553723 0.306302 0.497051
O O7 0.370738 0.719648 0.290171
O O8 0.823168 0.704878 0.262697
O O9 0.886401 0.690005 0.426223
O O10 0.780971 0.113060 0.114258
O O11 0.809661 0.964107 0.702990
O O12 0.000000 0.500000 0.000000
O O13 0.200302 0.012471 0.179009
O O14 0.486603 0.200379 0.248845
O O15 0.940004 0.410726 0.696052
O O16 0.000000 0.000000 0.000000
O O17 0.787873 0.305738 0.378382
#
# Coordination Sequence:
#
# PCOD8018772 Si02
#       8
#     2   2   2   2   2   2   2   2
#     4  10  23  40  65 105 141 178 227 289 351 392
#     4  11  24  42  77 104 132 183 242 291 326 423
#     4  11  23  42  72 101 134 184 240 284 336 419
#     4  12  27  46  67  98 152 184 220 291 359 417
#     4  11  25  45  72 106 134 190 238 277 346 418
#     4  12  26  45  69 104 150 177 223 295 360 405
#     4  11  21  44  70 102 139 181 233 292 341 401
#     4  10  22  40  71 101 134 178 237 289 329 410
#
# _framework density 23.523859000000002
#
# number of rings (size 3 to 8) (size 9 to 14) (size 15 to 20)
#    0.000    1.000    5.000    1.125    5.250    1.000 
#    2.250    2.500    0.000    0.000    0.000    0.000 
#    0.000    0.000    0.000    0.000    0.000    0.000 
#
# Total GULP energy -198340.507076 kJ/mol
# GULP energy per Si atom -12396.281692 kJ/mol
# Density = 2.347032 g / cm^3
# Si number density = 23.523859 Si / 1000 Ang^3
#
#
#
# Elastic Constant Matrix: (Units=GPa)
#
#
# Indices 1 2 3 4 5 6 
#
# 1 118.8964 44.9920 8.3064 -9.6178 6.4580 5.5582
# 2 44.9920 162.5511 8.6357 -6.4766 0.2570 21.7010
# 3 8.3064 8.6357 44.1362 -9.3997 -1.9107 -2.3412
# 4 -9.6178 -6.4766 -9.3997 29.2110 1.9911 -5.4751
# 5 6.4580 0.2570 -1.9107 1.9911 16.0740 -2.8383
# 6 5.5582 21.7010 -2.3412 -5.4751 -2.8383 54.9034
#
#
#
# Elastic Compliance Matrix: (Units=1/GPa)
#
#
# Indices 1 2 3 4 5 6 
#
# 1 0.009909 -0.002579 -0.000979 0.002677 -0.004385 0.000015
# 2 -0.002579 0.007273 -0.001087 -0.000106 0.000335 -0.002653
# 3 -0.000979 -0.001087 0.024961 0.007745 0.002862 0.002513
# 4 0.002677 -0.000106 0.007745 0.038574 -0.004273 0.003727
# 5 -0.004385 0.000335 0.002862 -0.004273 0.065437 0.003390
# 6 0.000015 -0.002653 0.002513 0.003727 0.003390 0.019915
#
#
# Mechanical properties :
#
#
# Convention : Reuss Voigt Hill
#
# Bulk Modulus (GPa) = 30.43841 49.93909 40.18875
# Shear Modulus (GPa) = 26.83716 37.61433 32.22575
#
# Velocity S-wave (km/s) = 3.38131 4.00307 3.70526
# Velocity P-wave (km/s) = 5.31148 6.53003 5.95202
#
# Compressibility (1/GPa) = 0.03285323
#
# Stress axis : x y z
#
# Youngs Moduli (GPa) = 100.91714 137.49629 40.06316
#
# Poissons Ratio (x) = 0.35461 0.03923
# Poissons Ratio (y) = 0.26027 0.04353
# Poissons Ratio (z) = 0.09881 0.14939
#
# Static dielectric constant tensor:
#      x y z
#    x 4.565260 0.233500 -0.026320 
#    y 0.233500 4.744990 -0.155340 
#    z -0.026320 -0.155340 3.701640 
# 
# 
# High freq. dielectric constant tensor:
#      x y z
#    x 1.949150 0.001830 -0.005180 
#    y 0.001830 1.952350 -0.012570 
#    z -0.005180 -0.012570 1.882390 
# 
# From -- ./inp_files/448197.got.cif
#   From: 2010.06.25/outbox.cif.g09.slc.cpg/sg2_225_cif.got.tgz:448197.got - 2010.06.27 13:26:56.
