data_PCOD8018885
_publ_section_title
;
Structure prediction by ZEFSAII (Michael W. Deem and Ramdas Pophale) SiO2 
 PCOD8018885
Probable space group: P -1
;
_chemical_formula_sum "Si O2"
_cell_formula_units_Z 16
_cell_length_a 11.990895
_cell_length_b 12.545499
_cell_length_c 21.134544
_cell_angle_alpha 26.935714
_cell_angle_beta 28.919432
_cell_angle_gamma 35.829570
_cell_volume 689.701754
_symmetry_space_group_name_H-M "P -1"
_symmetry_group_IT_number 2
_symmetry_cell_setting 'triclinic'
loop_
_space_group_symop_operation_xyz
x,y,z
-x,-y,-z
loop_
_atom_site_type_symbol
_atom_site_label
_atom_site_fract_x
_atom_site_fract_y
_atom_site_fract_z
Si Si1 0.878525 0.288595 0.696669
Si Si2 0.990077 0.485546 0.785252
Si Si3 0.621361 0.289597 0.145273
Si Si4 0.353681 0.476060 0.860730
Si Si5 0.820508 0.894536 0.571155
Si Si6 0.860648 0.766654 0.279340
Si Si7 0.018071 0.863455 0.760603
Si Si8 0.420117 0.614349 0.544543
O O1 0.606149 0.343655 0.786672
O O2 0.000000 0.500000 0.500000
O O3 0.927101 0.287210 0.748600
O O4 0.991896 0.042986 0.737984
O O5 0.996560 0.744115 0.611976
O O6 0.047946 0.278755 0.813728
O O7 0.191466 0.481573 0.743486
O O8 0.738845 0.479323 0.944740
O O9 0.641218 0.345275 0.178920
O O10 0.347746 0.297410 0.264484
O O11 0.768220 0.039985 0.188462
O O12 0.240147 0.654140 0.767350
O O13 0.209750 0.264482 0.061676
O O14 0.954705 0.989429 0.394673
O O15 0.662928 0.106764 0.572151
O O16 0.646976 0.604040 0.483924
O O17 0.500000 0.500000 0.500000
#
# Coordination Sequence:
#
# PCOD8018885 Si02
#       8
#     2   2   2   2   2   2   2   2
#     4  12  25  43  71 104 136 178 231 280 338 411
#     4  11  21  40  64  98 131 175 228 274 341 402
#     4  11  22  40  65  95 135 180 219 279 340 401
#     4  11  25  44  71  99 138 182 227 280 343 404
#     4  11  23  40  68  96 133 176 226 277 339 404
#     4  10  22  41  61  97 132 177 224 272 341 401
#     4  11  25  47  68 102 141 179 227 284 339 403
#     4   9  21  39  62  89 132 173 218 273 336 401
#
# _framework density 23.198433000000001
#
# number of rings (size 3 to 8) (size 9 to 14) (size 15 to 20)
#    0.000    1.250    1.250    4.500    3.500    1.000 
#    0.000    5.000    0.000    0.000    0.000    0.000 
#    0.000    0.000    0.000    0.000    0.000    0.000 
#
# Total GULP energy -198222.651311 kJ/mol
# GULP energy per Si atom -12388.915707 kJ/mol
# Density = 2.314563 g / cm^3
# Si number density = 23.198433 Si / 1000 Ang^3
#
#
#
# Elastic Constant Matrix: (Units=GPa)
#
#
# Indices 1 2 3 4 5 6 
#
# 1 62.0158 5.0967 17.8195 6.3971 -11.4053 -12.5409
# 2 5.0967 96.4787 6.5767 -5.0826 -4.1603 -1.2575
# 3 17.8195 6.5767 119.8497 15.3521 -12.2471 -16.4719
# 4 6.3971 -5.0826 15.3521 30.4210 -1.1250 -10.0913
# 5 -11.4053 -4.1603 -12.2471 -1.1250 39.0625 1.8167
# 6 -12.5409 -1.2575 -16.4719 -10.0913 1.8167 32.0340
#
#
#
# Elastic Compliance Matrix: (Units=1/GPa)
#
#
# Indices 1 2 3 4 5 6 
#
# 1 0.018754 -0.000688 -0.001288 -0.001247 0.004684 0.005994
# 2 -0.000688 0.010615 -0.000640 0.002451 0.000774 0.000546
# 3 -0.001288 -0.000640 0.009710 -0.003588 0.002348 0.003200
# 4 -0.001247 0.002451 -0.003588 0.038640 -0.000579 0.009968
# 5 0.004684 0.000774 0.002348 -0.000579 0.027708 0.001318
# 6 0.005994 0.000546 0.003200 0.009968 0.001318 0.038296
#
#
# Mechanical properties :
#
#
# Convention : Reuss Voigt Hill
#
# Bulk Modulus (GPa) = 29.54689 37.48114 33.51402
# Shear Modulus (GPa) = 31.20387 36.89359 34.04873
#
# Velocity S-wave (km/s) = 3.67152 3.99224 3.83524
# Velocity P-wave (km/s) = 5.54415 6.11903 5.83867
#
# Compressibility (1/GPa) = 0.03384450
#
# Stress axis : x y z
#
# Youngs Moduli (GPa) = 53.32249 94.20998 102.98945
#
# Poissons Ratio (x) = 0.06486 0.13270
# Poissons Ratio (y) = 0.03671 0.06590
# Poissons Ratio (z) = 0.06870 0.06028
#
# Static dielectric constant tensor:
#      x y z
#    x 7.556290 0.456690 -0.246300 
#    y 0.456690 4.610900 0.140610 
#    z -0.246300 0.140610 4.462150 
# 
# 
# High freq. dielectric constant tensor:
#      x y z
#    x 1.916340 0.008900 -0.033560 
#    y 0.008900 1.931860 -0.001000 
#    z -0.033560 -0.001000 1.910930 
# 
# From -- ./inp_files/471246.got.cif
#   From: 2010.06.25/outbox.cif.g09.slc.cpg/sg2_236_cif.got.tgz:471246.got - 2010.06.27 13:26:56.
