data_PCOD8018204
_publ_section_title
;
Structure prediction by ZEFSAII (Michael W. Deem and Ramdas Pophale) SiO2 
 PCOD8018204
Probable space group: P -1
;
_chemical_formula_sum "Si O2"
_cell_formula_units_Z 14
_cell_length_a 9.182044
_cell_length_b 6.996044
_cell_length_c 19.071765
_cell_angle_alpha 125.851917
_cell_angle_beta 43.135513
_cell_angle_gamma 126.609890
_cell_volume 646.622274
_symmetry_space_group_name_H-M "P -1"
_symmetry_group_IT_number 2
_symmetry_cell_setting 'triclinic'
loop_
_space_group_symop_operation_xyz
x,y,z
-x,-y,-z
loop_
_atom_site_type_symbol
_atom_site_label
_atom_site_fract_x
_atom_site_fract_y
_atom_site_fract_z
Si Si1 0.874399 0.977182 0.611628
Si Si2 0.278645 0.280631 0.909489
Si Si3 0.939590 0.146310 0.338057
Si Si4 0.300919 0.329445 0.754284
Si Si5 0.917726 0.300725 0.149614
Si Si6 0.742503 0.444993 0.552886
Si Si7 0.223952 0.524962 0.220805
O O1 0.770723 0.198392 0.702300
O O2 0.693264 0.704225 0.610248
O O3 0.000000 0.000000 0.500000
O O4 0.022104 0.979411 0.629628
O O5 0.270940 0.387876 0.857885
O O6 0.523991 0.432154 0.885694
O O7 0.230974 0.985190 0.859063
O O8 0.100011 0.353469 0.035268
O O9 0.739846 0.273104 0.448467
O O10 0.163617 0.354200 0.275455
O O11 0.871335 0.937456 0.258627
O O12 0.248316 0.539596 0.771181
O O13 0.548868 0.309154 0.646513
O O14 0.044075 0.387612 0.196784
O O15 0.000000 0.500000 0.500000
#
# Coordination Sequence:
#
# PCOD8018204 Si02
#       7
#     2   2   2   2   2   2   2
#     4  11  22  39  65  92 132 170 218 265 315 395
#     4  11  25  43  72  96 131 177 220 283 330 383
#     4  11  23  41  64  98 134 174 216 265 327 398
#     4  12  23  44  67  95 138 174 216 279 329 388
#     4  11  25  47  66 101 130 171 234 270 332 394
#     4  10  22  40  63  95 130 173 217 257 325 398
#     4  12  23  45  70  97 137 175 219 274 331 388
#
# _framework density 21.650970999999998
#
# number of rings (size 3 to 8) (size 9 to 14) (size 15 to 20)
#    0.000    0.857    4.286    3.857    2.000    0.000 
#    0.000    2.143    0.000    0.000    0.000    0.000 
#    0.000    0.000    0.000    0.000    0.000    0.000 
#
# Total GULP energy -173486.383235 kJ/mol
# GULP energy per Si atom -12391.884517 kJ/mol
# Density = 2.160169 g / cm^3
# Si number density = 21.650971 Si / 1000 Ang^3
#
#
#
# Elastic Constant Matrix: (Units=GPa)
#
#
# Indices 1 2 3 4 5 6 
#
# 1 80.7781 26.3108 25.0648 -13.3318 -2.6559 -3.4668
# 2 26.3108 96.9426 23.0254 -7.6297 -11.7838 -2.3524
# 3 25.0648 23.0254 95.5759 -16.5918 -3.1975 2.9334
# 4 -13.3318 -7.6297 -16.5918 46.0162 0.9067 0.5095
# 5 -2.6559 -11.7838 -3.1975 0.9067 30.8727 -7.3433
# 6 -3.4668 -2.3524 2.9334 0.5095 -7.3433 18.2316
#
#
#
# Elastic Compliance Matrix: (Units=1/GPa)
#
#
# Indices 1 2 3 4 5 6 
#
# 1 0.014817 -0.003021 -0.002755 0.002756 0.000464 0.002981
# 2 -0.003021 0.012342 -0.002066 0.000290 0.005029 0.003368
# 3 -0.002755 -0.002066 0.012341 0.003355 -0.000584 -0.003105
# 4 0.002756 0.000290 0.003355 0.023799 -0.000173 -0.000713
# 5 0.000464 0.005029 -0.000584 -0.000173 0.038149 0.016202
# 6 0.002981 0.003368 -0.003105 -0.000713 0.016202 0.062896
#
#
# Mechanical properties :
#
#
# Convention : Reuss Voigt Hill
#
# Bulk Modulus (GPa) = 41.98998 46.89985 44.44491
# Shear Modulus (GPa) = 26.60036 32.28381 29.44209
#
# Velocity S-wave (km/s) = 3.50894 3.86567 3.69162
# Velocity P-wave (km/s) = 5.98774 6.45239 6.22440
#
# Compressibility (1/GPa) = 0.02381520
#
# Stress axis : x y z
#
# Youngs Moduli (GPa) = 67.49149 81.02468 81.02865
#
# Poissons Ratio (x) = 0.24479 0.22326
# Poissons Ratio (y) = 0.20391 0.16739
# Poissons Ratio (z) = 0.18596 0.16738
#
# Static dielectric constant tensor:
#      x y z
#    x 3.765280 0.032100 0.047250 
#    y 0.032100 4.457140 0.235230 
#    z 0.047250 0.235230 4.144580 
# 
# 
# High freq. dielectric constant tensor:
#      x y z
#    x 1.828580 0.005250 0.011080 
#    y 0.005250 1.867560 -0.000610 
#    z 0.011080 -0.000610 1.860410 
# 
# From -- ./inp_files/452244.got.cif
#   From: 2010.06.25/outbox.cif.g09.slc.cpg/sg2_227_cif.got.tgz:452244.got - 2010.06.27 13:26:56.
