data_PCOD8018871
_publ_section_title
;
Structure prediction by ZEFSAII (Michael W. Deem and Ramdas Pophale) SiO2 
 PCOD8018871
Probable space group: P -1
;
_chemical_formula_sum "Si O2"
_cell_formula_units_Z 16
_cell_length_a 14.694695
_cell_length_b 12.363361
_cell_length_c 15.516922
_cell_angle_alpha 40.158467
_cell_angle_beta 151.548843
_cell_angle_gamma 122.555443
_cell_volume 779.615555
_symmetry_space_group_name_H-M "P -1"
_symmetry_group_IT_number 2
_symmetry_cell_setting 'triclinic'
loop_
_space_group_symop_operation_xyz
x,y,z
-x,-y,-z
loop_
_atom_site_type_symbol
_atom_site_label
_atom_site_fract_x
_atom_site_fract_y
_atom_site_fract_z
Si Si1 0.758032 0.571336 0.121022
Si Si2 0.654697 0.676380 0.475053
Si Si3 0.224630 0.443409 0.539237
Si Si4 0.823868 0.168289 0.800901
Si Si5 0.192011 0.723158 0.088759
Si Si6 0.538664 0.985882 0.640537
Si Si7 0.523991 0.352723 0.997182
Si Si8 0.226144 0.051434 0.484600
O O1 0.672759 0.568111 0.147929
O O2 0.011388 0.449085 0.401196
O O3 0.716780 0.779110 0.934460
O O4 0.635491 0.492582 0.001465
O O5 0.739298 0.662825 0.456587
O O6 0.409314 0.721311 0.239346
O O7 0.783650 0.486646 0.751886
O O8 0.680851 0.844388 0.438745
O O9 0.213198 0.645675 0.392368
O O10 0.425216 0.336319 0.833765
O O11 0.887246 0.170058 0.951813
O O12 0.609186 0.142193 0.635941
O O13 0.000000 0.000000 0.000000
O O14 0.025700 0.830778 0.809120
O O15 0.500000 0.000000 0.500000
O O16 0.322187 0.027350 0.483683
O O17 0.710404 0.152218 0.299690
#
# Coordination Sequence:
#
# PCOD8018871 Si02
#       8
#     2   2   2   2   2   2   2   2
#     4  10  22  42  60  90 126 161 199 250 310 356
#     4  10  23  41  62  91 121 161 207 248 304 363
#     4  11  23  40  64  89 126 163 203 254 300 361
#     4  11  20  36  63  97 123 154 200 253 314 364
#     4  10  22  41  61  90 128 157 198 253 309 363
#     4  11  21  36  62  96 126 150 199 256 310 370
#     4  10  24  42  61  91 122 163 209 248 301 363
#     4  11  23  41  64  86 122 167 200 249 305 361
#
# _framework density 20.522936999999999
#
# number of rings (size 3 to 8) (size 9 to 14) (size 15 to 20)
#    0.000    1.500    2.500    2.250    1.750    4.500 
#    0.000    1.250    0.000    0.000    0.000    0.000 
#    0.000    0.000    0.000    0.000    0.000    0.000 
#
# Total GULP energy -198443.279624 kJ/mol
# GULP energy per Si atom -12402.704977 kJ/mol
# Density = 2.047623 g / cm^3
# Si number density = 20.522937 Si / 1000 Ang^3
#
#
#
# Elastic Constant Matrix: (Units=GPa)
#
#
# Indices 1 2 3 4 5 6 
#
# 1 64.9160 24.5629 39.9550 -4.9854 -2.6713 0.2479
# 2 24.5629 91.0282 18.4803 -0.9243 -5.6535 2.4097
# 3 39.9550 18.4803 97.0431 14.1782 2.6828 0.9289
# 4 -4.9854 -0.9243 14.1782 28.2566 -6.5657 5.0846
# 5 -2.6713 -5.6535 2.6828 -6.5657 24.5887 0.4524
# 6 0.2479 2.4097 0.9289 5.0846 0.4524 29.1228
#
#
#
# Elastic Compliance Matrix: (Units=1/GPa)
#
#
# Indices 1 2 3 4 5 6 
#
# 1 0.025121 -0.003892 -0.011488 0.011832 0.006278 -0.001689
# 2 -0.003892 0.012460 -0.001000 0.001106 0.002869 -0.001204
# 3 -0.011488 -0.001000 0.017239 -0.012631 -0.006767 0.001941
# 4 0.011832 0.001106 -0.012631 0.049169 0.016206 -0.008626
# 5 0.006278 0.002869 -0.006767 0.016206 0.047143 -0.003637
# 6 -0.001689 -0.001204 0.001941 -0.008626 -0.003637 0.035952
#
#
# Mechanical properties :
#
#
# Convention : Reuss Voigt Hill
#
# Bulk Modulus (GPa) = 45.32850 46.55373 45.94111
# Shear Modulus (GPa) = 22.00732 27.72623 24.86678
#
# Velocity S-wave (km/s) = 3.27819 3.67957 3.48466
# Velocity P-wave (km/s) = 6.03850 6.38633 6.21485
#
# Compressibility (1/GPa) = 0.02206118
#
# Stress axis : x y z
#
# Youngs Moduli (GPa) = 39.80698 80.25710 58.00822
#
# Poissons Ratio (x) = 0.31233 0.66640
# Poissons Ratio (y) = 0.15491 0.05800
# Poissons Ratio (z) = 0.45730 0.08025
#
# Static dielectric constant tensor:
#      x y z
#    x 3.736760 -0.023260 0.147100 
#    y -0.023260 3.790460 -0.012070 
#    z 0.147100 -0.012070 3.614600 
# 
# 
# High freq. dielectric constant tensor:
#      x y z
#    x 1.801300 -0.000740 0.006110 
#    y -0.000740 1.811130 0.000920 
#    z 0.006110 0.000920 1.794520 
# 
# From -- ./inp_files/454328.got.cif
#   From: 2010.06.25/outbox.cif.g09.slc.cpg/sg2_228_cif.got.tgz:454328.got - 2010.06.27 13:26:56.
