data_PCOD8018469
_publ_section_title
;
Structure prediction by ZEFSAII (Michael W. Deem and Ramdas Pophale) SiO2 
 PCOD8018469
Probable space group: P -1
;
_chemical_formula_sum "Si O2"
_cell_formula_units_Z 16
_cell_length_a 6.601289
_cell_length_b 7.745112
_cell_length_c 16.689107
_cell_angle_alpha 92.724035
_cell_angle_beta 69.722942
_cell_angle_gamma 63.959569
_cell_volume 698.671356
_symmetry_space_group_name_H-M "P -1"
_symmetry_group_IT_number 2
_symmetry_cell_setting 'triclinic'
loop_
_space_group_symop_operation_xyz
x,y,z
-x,-y,-z
loop_
_atom_site_type_symbol
_atom_site_label
_atom_site_fract_x
_atom_site_fract_y
_atom_site_fract_z
Si Si1 0.193277 0.436282 0.843587
Si Si2 0.650329 0.755088 0.894118
Si Si3 0.784616 0.957457 0.549556
Si Si4 0.099272 0.408981 0.397917
Si Si5 0.746469 0.784125 0.386710
Si Si6 0.086504 0.112374 0.780138
Si Si7 0.546421 0.330662 0.237971
Si Si8 0.423563 0.819837 0.091020
O O1 0.202157 0.250175 0.793615
O O2 0.346746 0.518235 0.774240
O O3 0.324294 0.353643 0.909349
O O4 0.916087 0.615632 0.894850
O O5 0.604540 0.649171 0.822559
O O6 0.626007 0.962410 0.872764
O O7 0.444997 0.795984 0.991322
O O8 0.865534 0.812422 0.612814
O O9 0.732499 0.848065 0.481650
O O10 0.526864 0.153665 0.608325
O O11 0.000000 0.000000 0.500000
O O12 0.364243 0.391720 0.340696
O O13 0.000000 0.500000 0.500000
O O14 0.905580 0.544166 0.358689
O O15 0.883116 0.884931 0.320480
O O16 0.803277 0.208700 0.847979
O O17 0.233776 0.893627 0.790615
#
# Coordination Sequence:
#
# PCOD8018469 Si02
#       8
#     2   2   2   2   2   2   2   2
#     4  12  25  45  73 100 136 189 231 282 352 407
#     4  11  25  45  71 104 138 185 235 282 352 407
#     4  10  22  40  66  96 127 171 220 277 339 407
#     4  10  22  43  67  94 132 171 220 278 336 404
#     4  10  22  42  63  92 133 170 218 279 337 399
#     4  12  25  45  71 102 142 186 231 286 346 411
#     4  12  25  47  71 101 142 182 233 289 343 420
#     4  11  25  45  71 104 140 182 234 290 340 418
#
# _framework density 22.900608999999999
#
# number of rings (size 3 to 8) (size 9 to 14) (size 15 to 20)
#    0.000    1.000    3.750    2.625    0.000    8.000 
#    2.250    0.000    0.000    0.000    0.000    0.000 
#    0.000    0.000    0.000    0.000    0.000    0.000 
#
# Total GULP energy -198361.014246 kJ/mol
# GULP energy per Si atom -12397.563390 kJ/mol
# Density = 2.284849 g / cm^3
# Si number density = 22.900609 Si / 1000 Ang^3
#
#
#
# Elastic Constant Matrix: (Units=GPa)
#
#
# Indices 1 2 3 4 5 6 
#
# 1 87.9713 56.6922 32.2083 -5.7025 -29.3334 -7.8345
# 2 56.6922 167.2255 24.1179 -23.1251 -22.6279 -23.7141
# 3 32.2083 24.1179 105.2342 -2.4524 -27.1039 -4.7609
# 4 -5.7025 -23.1251 -2.4524 35.4540 2.1534 -4.5492
# 5 -29.3334 -22.6279 -27.1039 2.1534 39.6582 1.5471
# 6 -7.8345 -23.7141 -4.7609 -4.5492 1.5471 45.5967
#
#
#
# Elastic Compliance Matrix: (Units=1/GPa)
#
#
# Indices 1 2 3 4 5 6 
#
# 1 0.018277 -0.004727 -0.002099 -0.000854 0.009431 0.000057
# 2 -0.004727 0.009182 0.000003 0.005729 0.001258 0.004492
# 3 -0.002099 0.000003 0.011857 0.000176 0.006518 0.000676
# 4 -0.000854 0.005729 0.000176 0.032550 0.000752 0.006073
# 5 0.009431 0.001258 0.006518 0.000752 0.037254 0.001766
# 6 0.000057 0.004492 0.000676 0.006073 0.001766 0.024894
#
#
# Mechanical properties :
#
#
# Convention : Reuss Voigt Hill
#
# Bulk Modulus (GPa) = 38.95523 65.16306 52.05915
# Shear Modulus (GPa) = 32.00705 40.63595 36.32150
#
# Velocity S-wave (km/s) = 3.74257 4.21699 3.98684
# Velocity P-wave (km/s) = 5.97690 7.22684 6.63138
#
# Compressibility (1/GPa) = 0.02567049
#
# Stress axis : x y z
#
# Youngs Moduli (GPa) = 54.71490 108.91402 84.33497
#
# Poissons Ratio (x) = 0.51486 0.17699
# Poissons Ratio (y) = 0.25865 -0.00028
# Poissons Ratio (z) = 0.11483 -0.00037
#
# Static dielectric constant tensor:
#      x y z
#    x 3.963140 -0.430530 -0.104900 
#    y -0.430530 5.052350 -0.195140 
#    z -0.104900 -0.195140 4.139620 
# 
# 
# High freq. dielectric constant tensor:
#      x y z
#    x 1.873960 -0.016660 -0.016210 
#    y -0.016660 1.931880 -0.010180 
#    z -0.016210 -0.010180 1.911920 
# 
# From -- ./inp_files/505089.got.cif
#   From: 2010.06.25/outbox.cif.g09.slc.cpg/sg2_253_cif.got.tgz:505089.got - 2010.06.27 13:26:56.
