data_PCOD8018895
_publ_section_title
;
Structure prediction by ZEFSAII (Michael W. Deem and Ramdas Pophale) SiO2 
 PCOD8018895
Probable space group: P -1
;
_chemical_formula_sum "Si O2"
_cell_formula_units_Z 16
_cell_length_a 13.243422
_cell_length_b 27.740896
_cell_length_c 9.120766
_cell_angle_alpha 30.665696
_cell_angle_beta 139.286800
_cell_angle_gamma 152.336145
_cell_volume 793.362946
_symmetry_space_group_name_H-M "P -1"
_symmetry_group_IT_number 2
_symmetry_cell_setting 'triclinic'
loop_
_space_group_symop_operation_xyz
x,y,z
-x,-y,-z
loop_
_atom_site_type_symbol
_atom_site_label
_atom_site_fract_x
_atom_site_fract_y
_atom_site_fract_z
Si Si1 0.393245 0.364346 0.913317
Si Si2 0.021920 0.918829 0.839406
Si Si3 0.513841 0.082517 0.925086
Si Si4 0.700773 0.361142 0.410953
Si Si5 0.176583 0.614074 0.187770
Si Si6 0.065716 0.124786 0.814494
Si Si7 0.717242 0.128773 0.329727
Si Si8 0.526650 0.386629 0.671753
O O1 0.495861 0.374369 0.845217
O O2 0.414187 0.483566 0.655003
O O3 0.525349 0.366978 0.176437
O O4 0.136963 0.231869 0.000283
O O5 0.267300 0.990596 0.945976
O O6 0.000000 0.000000 0.500000
O O7 0.932738 0.902246 0.943997
O O8 0.612343 0.223971 0.607535
O O9 0.672773 0.113470 0.146937
O O10 0.500000 0.000000 0.000000
O O11 0.720817 0.368506 0.588854
O O12 0.922125 0.481082 0.256872
O O13 0.284023 0.602897 0.200714
O O14 0.213835 0.740925 0.868318
O O15 0.306892 0.259697 0.680770
O O16 0.909212 0.140371 0.548563
O O17 0.000000 0.000000 0.000000
O O18 0.500000 0.000000 0.500000
#
# Coordination Sequence:
#
# PCOD8018895 Si02
#       8
#     2   2   2   2   2   2   2   2
#     4  10  22  41  62  88 125 158 207 248 302 366
#     4  11  23  42  62  91 127 162 200 258 301 368
#     4  11  25  40  62  92 126 163 206 250 310 361
#     4  10  22  42  60  88 123 162 203 253 297 368
#     4  10  23  41  63  89 124 158 204 252 309 357
#     4  11  24  40  67  93 122 161 206 252 311 363
#     4  11  22  42  64  90 126 160 203 258 302 366
#     4  10  23  40  62  92 120 161 203 252 305 365
#
# _framework density 20.167313
#
# number of rings (size 3 to 8) (size 9 to 14) (size 15 to 20)
#    0.000    1.500    2.500    1.500    5.250    2.000 
#    0.000    0.000    0.000    0.000    0.000    0.000 
#    0.000    0.000    0.000    0.000    0.000    0.000 
#
# Total GULP energy -198388.324250 kJ/mol
# GULP energy per Si atom -12399.270266 kJ/mol
# Density = 2.012141 g / cm^3
# Si number density = 20.167313 Si / 1000 Ang^3
#
#
#
# Elastic Constant Matrix: (Units=GPa)
#
#
# Indices 1 2 3 4 5 6 
#
# 1 72.6461 27.1681 33.0857 -17.3003 18.7062 -2.5587
# 2 27.1681 131.5531 55.9134 -28.9017 9.5198 5.6366
# 3 33.0857 55.9134 139.0176 -16.5786 14.5779 -4.9230
# 4 -17.3003 -28.9017 -16.5786 51.4530 -3.0230 0.7393
# 5 18.7062 9.5198 14.5779 -3.0230 28.0424 -8.3020
# 6 -2.5587 5.6366 -4.9230 0.7393 -8.3020 31.0566
#
#
#
# Elastic Compliance Matrix: (Units=1/GPa)
#
#
# Indices 1 2 3 4 5 6 
#
# 1 0.019161 -0.001040 -0.002506 0.004420 -0.011158 -0.001718
# 2 -0.001040 0.010459 -0.003383 0.004389 -0.001522 -0.003032
# 3 -0.002506 -0.003383 0.009391 0.000167 -0.001611 0.001462
# 4 0.004420 0.004389 0.000167 0.023318 -0.002494 -0.001628
# 5 -0.011158 -0.001522 -0.001611 -0.002494 0.047717 0.011916
# 6 -0.001718 -0.003032 0.001462 -0.001628 0.011916 0.036064
#
#
# Mechanical properties :
#
#
# Convention : Reuss Voigt Hill
#
# Bulk Modulus (GPa) = 39.75708 63.95011 51.85359
# Shear Modulus (GPa) = 29.69998 37.24707 33.47352
#
# Velocity S-wave (km/s) = 3.84171 4.30222 4.07847
# Velocity P-wave (km/s) = 6.27971 7.51382 6.92431
#
# Compressibility (1/GPa) = 0.02515275
#
# Stress axis : x y z
#
# Youngs Moduli (GPa) = 52.19021 95.61569 106.48397
#
# Poissons Ratio (x) = 0.09944 0.26680
# Poissons Ratio (y) = 0.05428 0.36026
# Poissons Ratio (z) = 0.13076 0.32349
#
# Static dielectric constant tensor:
#      x y z
#    x 3.606670 0.006550 0.115730 
#    y 0.006550 4.256830 -0.338950 
#    z 0.115730 -0.338950 3.871810 
# 
# 
# High freq. dielectric constant tensor:
#      x y z
#    x 1.770210 0.001740 -0.001090 
#    y 0.001740 1.811690 -0.010200 
#    z -0.001090 -0.010200 1.800550 
# 
# From -- ./inp_files/175033.got.cif
#   From: 2010.06.25/outbox.cif.g09.slc.cpg/sg2_88_cif.got.tgz:175033.got - 2010.06.27 13:26:56.
