data_PCOD8018874
_publ_section_title
;
Structure prediction by ZEFSAII (Michael W. Deem and Ramdas Pophale) SiO2 
 PCOD8018874
Probable space group: P -1
;
_chemical_formula_sum "Si O2"
_cell_formula_units_Z 14
_cell_length_a 13.552368
_cell_length_b 15.021277
_cell_length_c 7.853351
_cell_angle_alpha 104.166598
_cell_angle_beta 83.631576
_cell_angle_gamma 33.479072
_cell_volume 690.998295
_symmetry_space_group_name_H-M "P -1"
_symmetry_group_IT_number 2
_symmetry_cell_setting 'triclinic'
loop_
_space_group_symop_operation_xyz
x,y,z
-x,-y,-z
loop_
_atom_site_type_symbol
_atom_site_label
_atom_site_fract_x
_atom_site_fract_y
_atom_site_fract_z
Si Si1 0.596062 0.133327 0.849040
Si Si2 0.624109 0.393297 0.174745
Si Si3 0.393410 0.386891 0.697465
Si Si4 0.496272 0.316121 0.285993
Si Si5 0.147275 0.802044 0.291815
Si Si6 0.867097 0.519996 0.988795
Si Si7 0.980837 0.280170 0.592899
O O1 0.560787 0.243259 0.762113
O O2 0.372838 0.255430 0.943055
O O3 0.627574 0.152173 0.037655
O O4 0.807934 0.896267 0.655481
O O5 0.684274 0.445147 0.254870
O O6 0.608486 0.325277 0.286694
O O7 0.383851 0.597287 0.235247
O O8 0.814795 0.205749 0.917190
O O9 0.513620 0.252298 0.437736
O O10 0.179514 0.501199 0.839805
O O11 0.237923 0.533136 0.391000
O O12 0.023556 0.806880 0.331026
O O13 0.000000 0.000000 0.500000
O O14 0.005785 0.346335 0.744517
O O15 0.000000 0.500000 0.000000
#
# Coordination Sequence:
#
# PCOD8018874 Si02
#       7
#     2   2   2   2   2   2   2
#     4   9  20  37  56  79 109 141 179 223 270 321
#     4  10  17  30  47  78 110 142 179 211 258 320
#     4  10  19  37  55  78 111 145 179 224 265 317
#     4  10  20  34  54  82 114 142 177 219 265 324
#     4  10  17  27  53  77 108 146 175 211 264 315
#     4   9  20  38  60  79 103 141 185 228 271 313
#     4  10  18  36  56  80 112 142 179 224 266 321
#
# _framework density 20.260542999999998
#
# number of rings (size 3 to 8) (size 9 to 14) (size 15 to 20)
#    0.857    1.429    1.429    3.857    0.000    0.571 
#    2.571    2.857    0.000    7.714    0.000    0.000 
#    0.000    0.000    0.000    0.000    0.000    0.000 
#
# Total GULP energy -173438.221610 kJ/mol
# GULP energy per Si atom -12388.444401 kJ/mol
# Density = 2.021443 g / cm^3
# Si number density = 20.260543 Si / 1000 Ang^3
#
#
#
# Elastic Constant Matrix: (Units=GPa)
#
#
# Indices 1 2 3 4 5 6 
#
# 1 131.5394 6.9172 47.0498 0.4793 10.6100 1.8603
# 2 6.9172 15.4448 38.3821 -5.1607 1.4286 1.7382
# 3 47.0498 38.3821 181.1972 1.3909 3.1083 6.1279
# 4 0.4793 -5.1607 1.3909 44.6736 0.7783 -4.5123
# 5 10.6100 1.4286 3.1083 0.7783 24.7710 0.5979
# 6 1.8603 1.7382 6.1279 -4.5123 0.5979 9.9674
#
#
#
# Elastic Compliance Matrix: (Units=1/GPa)
#
#
# Indices 1 2 3 4 5 6 
#
# 1 0.008794 0.004487 -0.003177 0.000588 -0.003646 0.000014
# 2 0.004487 0.153437 -0.033766 0.019079 -0.007188 0.002232
# 3 -0.003177 -0.033766 0.013642 -0.004744 0.001846 -0.004164
# 4 0.000588 0.019079 -0.004744 0.025905 -0.001844 0.011318
# 5 -0.003646 -0.007188 0.001846 -0.001844 0.042234 -0.002569
# 6 0.000014 0.002232 -0.004164 0.011318 -0.002569 0.107773
#
#
# Mechanical properties :
#
#
# Convention : Reuss Voigt Hill
#
# Bulk Modulus (GPa) = 9.01197 56.98663 32.99930
# Shear Modulus (GPa) = 11.02091 31.60455 21.31273
#
# Velocity S-wave (km/s) = 2.33482 3.95385 3.24687
# Velocity P-wave (km/s) = 3.42436 7.00228 5.51172
#
# Compressibility (1/GPa) = 0.11096351
#
# Stress axis : x y z
#
# Youngs Moduli (GPa) = 113.71088 6.51733 73.30482
#
# Poissons Ratio (x) = -0.02925 0.23285
# Poissons Ratio (y) = -0.51027 2.47519
# Poissons Ratio (z) = 0.36120 0.22006
#
# Static dielectric constant tensor:
#      x y z
#    x 3.433770 0.029070 -0.129650 
#    y 0.029070 3.280860 -0.009740 
#    z -0.129650 -0.009740 3.970800 
# 
# 
# High freq. dielectric constant tensor:
#      x y z
#    x 1.763780 -0.007130 -0.007000 
#    y -0.007130 1.742990 -0.001540 
#    z -0.007000 -0.001540 1.813670 
# 
# From -- ./inp_files/317285.got.cif
#   From: 2010.06.25/outbox.cif.g09.slc.cpg/sg2_159_cif.got.tgz:317285.got - 2010.06.27 13:26:56.
