data_PCOD8018189
_publ_section_title
;
Structure prediction by ZEFSAII (Michael W. Deem and Ramdas Pophale) SiO2 
 PCOD8018189
Probable space group: P -1
;
_chemical_formula_sum "Si O2"
_cell_formula_units_Z 16
_cell_length_a 14.318923
_cell_length_b 12.128253
_cell_length_c 14.346020
_cell_angle_alpha 40.028396
_cell_angle_beta 29.210618
_cell_angle_gamma 51.499868
_cell_volume 773.610974
_symmetry_space_group_name_H-M "P -1"
_symmetry_group_IT_number 2
_symmetry_cell_setting 'triclinic'
loop_
_space_group_symop_operation_xyz
x,y,z
-x,-y,-z
loop_
_atom_site_type_symbol
_atom_site_label
_atom_site_fract_x
_atom_site_fract_y
_atom_site_fract_z
Si Si1 0.748903 0.900991 0.874125
Si Si2 0.156668 0.182776 0.612768
Si Si3 0.750169 0.100435 0.936786
Si Si4 0.382514 0.936510 0.466882
Si Si5 0.413985 0.322328 0.446315
Si Si6 0.367587 0.522242 0.187267
Si Si7 0.573219 0.412419 0.582670
Si Si8 0.822832 0.147454 0.486462
O O1 0.948331 0.835530 0.714636
O O2 0.774609 0.031481 0.855614
O O3 0.700758 0.007730 0.754474
O O4 0.590990 0.733931 0.136883
O O5 0.223384 0.191577 0.658637
O O6 0.173360 0.381926 0.432663
O O7 0.942837 0.090592 0.836305
O O8 0.323215 0.093405 0.475414
O O9 0.688978 0.290180 0.866082
O O10 0.589345 0.973649 0.212763
O O11 0.405720 0.776414 0.618920
O O12 0.223032 0.894729 0.553600
O O13 0.485766 0.461352 0.212437
O O14 0.350842 0.432074 0.515556
O O15 0.500000 0.500000 0.000000
O O16 0.500000 0.500000 0.500000
O O17 0.764004 0.332516 0.442003
#
# Coordination Sequence:
#
# PCOD8018189 Si02
#       8
#     2   2   2   2   2   2   2   2
#     4  11  25  40  67  99 123 174 218 270 321 378
#     4  10  24  40  66  92 129 163 214 259 314 382
#     4  12  21  41  68  93 128 165 217 262 319 378
#     4  12  22  43  67  92 130 170 211 264 318 385
#     4  10  24  42  62  96 133 169 209 260 323 381
#     4  10  22  40  63  93 127 166 208 261 316 372
#     4  12  23  44  67  94 135 168 214 267 327 382
#     4  11  24  42  64  97 128 168 223 265 321 381
#
# _framework density 20.682230000000001
#
# number of rings (size 3 to 8) (size 9 to 14) (size 15 to 20)
#    0.750    0.250    5.000    1.875    1.750    1.000 
#    0.000    1.250    0.000    0.000    0.000    0.000 
#    0.000    0.000    0.000    0.000    0.000    0.000 
#
# Total GULP energy -198256.280526 kJ/mol
# GULP energy per Si atom -12391.017533 kJ/mol
# Density = 2.063516 g / cm^3
# Si number density = 20.682230 Si / 1000 Ang^3
#
#
#
# Elastic Constant Matrix: (Units=GPa)
#
#
# Indices 1 2 3 4 5 6 
#
# 1 129.7042 38.2975 4.5700 -1.2468 10.8594 1.1230
# 2 38.2975 126.6375 11.2817 2.2150 10.7466 0.5309
# 3 4.5700 11.2817 34.7364 9.5240 4.4145 -8.0678
# 4 -1.2468 2.2150 9.5240 22.3525 2.1439 2.8474
# 5 10.8594 10.7466 4.4145 2.1439 30.0588 -6.4695
# 6 1.1230 0.5309 -8.0678 2.8474 -6.4695 38.6534
#
#
#
# Elastic Compliance Matrix: (Units=1/GPa)
#
#
# Indices 1 2 3 4 5 6 
#
# 1 0.008659 -0.002374 -0.000618 0.001328 -0.002469 -0.000859
# 2 -0.002374 0.009041 -0.002708 0.000471 -0.002232 -0.001029
# 3 -0.000618 -0.002708 0.036358 -0.016252 -0.001127 0.008652
# 4 0.001328 0.000471 -0.016252 0.053067 -0.003763 -0.007976
# 5 -0.002469 -0.002232 -0.001127 -0.003763 0.036747 0.006295
# 6 -0.000859 -0.001029 0.008652 -0.007976 0.006295 0.029357
#
#
# Mechanical properties :
#
#
# Convention : Reuss Voigt Hill
#
# Bulk Modulus (GPa) = 23.44241 44.37516 33.90879
# Shear Modulus (GPa) = 25.14466 34.00818 29.57642
#
# Velocity S-wave (km/s) = 3.49056 4.05942 3.78569
# Velocity P-wave (km/s) = 5.25400 6.59349 5.96149
#
# Compressibility (1/GPa) = 0.04265773
#
# Stress axis : x y z
#
# Youngs Moduli (GPa) = 115.48103 110.60443 27.50427
#
# Poissons Ratio (x) = 0.26256 0.01700
# Poissons Ratio (y) = 0.27413 0.07449
# Poissons Ratio (z) = 0.07138 0.29957
#
# Static dielectric constant tensor:
#      x y z
#    x 4.173030 -0.086570 0.071740 
#    y -0.086570 3.901580 -0.015740 
#    z 0.071740 -0.015740 3.514620 
# 
# 
# High freq. dielectric constant tensor:
#      x y z
#    x 1.821690 0.002030 0.009360 
#    y 0.002030 1.829830 -0.001940 
#    z 0.009360 -0.001940 1.781710 
# 
# From -- ./inp_files/532312.got.cif
#   From: 2010.06.25/outbox.cif.g09.slc.cpg/sg2_267_cif.got.tgz:532312.got - 2010.06.27 13:26:56.
