data_PCOD8018641
_publ_section_title
;
Structure prediction by ZEFSAII (Michael W. Deem and Ramdas Pophale) SiO2 
 PCOD8018641
Probable space group: P -1
;
_chemical_formula_sum "Si O2"
_cell_formula_units_Z 16
_cell_length_a 8.389610
_cell_length_b 12.655227
_cell_length_c 11.325047
_cell_angle_alpha 92.102617
_cell_angle_beta 37.106029
_cell_angle_gamma 96.434981
_cell_volume 718.042617
_symmetry_space_group_name_H-M "P -1"
_symmetry_group_IT_number 2
_symmetry_cell_setting 'triclinic'
loop_
_space_group_symop_operation_xyz
x,y,z
-x,-y,-z
loop_
_atom_site_type_symbol
_atom_site_label
_atom_site_fract_x
_atom_site_fract_y
_atom_site_fract_z
Si Si1 0.242899 0.221271 0.251691
Si Si2 0.586608 0.106522 0.881536
Si Si3 0.313951 0.922839 0.434540
Si Si4 0.602983 0.563232 0.220204
Si Si5 0.754279 0.533813 0.771968
Si Si6 0.786898 0.843348 0.483829
Si Si7 0.504865 0.259261 0.549561
Si Si8 0.882581 0.446270 0.242114
O O1 0.171561 0.339214 0.280366
O O2 0.358754 0.210996 0.314789
O O3 0.992372 0.129233 0.396380
O O4 0.448820 0.201034 0.025793
O O5 0.511590 0.087244 0.787853
O O6 0.898815 0.139832 0.696170
O O7 0.500000 0.000000 0.000000
O O8 0.440976 0.859692 0.458929
O O9 0.326573 0.045752 0.467254
O O10 0.324033 0.518499 0.313452
O O11 0.578880 0.683179 0.279656
O O12 0.655859 0.502468 0.310092
O O13 0.858982 0.559814 0.989479
O O14 0.008155 0.497346 0.694210
O O15 0.500000 0.500000 0.000000
O O16 0.727574 0.758789 0.409926
O O17 0.761127 0.326085 0.339869
#
# Coordination Sequence:
#
# PCOD8018641 Si02
#       8
#     2   2   2   2   2   2   2   2
#     4  11  21  43  68  93 132 168 218 271 333 386
#     4  11  21  41  71  91 127 172 220 273 318 395
#     4  11  23  41  64  98 130 169 218 268 326 398
#     4  10  24  44  63  97 134 173 233 265 330 401
#     4  10  22  40  68  98 127 175 221 273 330 388
#     4  11  24  41  64  99 129 175 216 265 337 395
#     4  12  25  41  64  95 135 173 214 268 333 398
#     4  10  22  44  65  90 139 176 212 288 324 385
#
# _framework density 22.282799000000001
#
# number of rings (size 3 to 8) (size 9 to 14) (size 15 to 20)
#    0.000    1.250    3.750    2.250    3.500    4.500 
#    2.250    0.625    0.000    0.000    0.000    0.000 
#    0.000    0.000    0.000    0.000    0.000    0.000 
#
# Total GULP energy -198236.294787 kJ/mol
# GULP energy per Si atom -12389.768424 kJ/mol
# Density = 2.223208 g / cm^3
# Si number density = 22.282799 Si / 1000 Ang^3
#
#
#
# Elastic Constant Matrix: (Units=GPa)
#
#
# Indices 1 2 3 4 5 6 
#
# 1 155.1650 36.5566 17.6554 3.2656 11.1638 9.1799
# 2 36.5566 67.5106 6.5244 -0.4547 10.6265 1.6586
# 3 17.6554 6.5244 72.4945 0.7586 26.3343 4.6948
# 4 3.2656 -0.4547 0.7586 38.9607 1.8731 7.9541
# 5 11.1638 10.6265 26.3343 1.8731 18.9438 3.9949
# 6 9.1799 1.6586 4.6948 7.9541 3.9949 36.9144
#
#
#
# Elastic Compliance Matrix: (Units=1/GPa)
#
#
# Indices 1 2 3 4 5 6 
#
# 1 0.007633 -0.003970 -0.001420 -0.000361 0.000048 -0.001466
# 2 -0.003970 0.018856 0.004644 0.000987 -0.014994 0.000959
# 3 -0.001420 0.004644 0.029112 0.001504 -0.042538 0.000722
# 4 -0.000361 0.000987 0.001504 0.026999 -0.003934 -0.005538
# 5 0.000048 -0.014994 -0.042538 -0.003934 0.122018 -0.006286
# 6 -0.001466 0.000959 0.000722 -0.005538 -0.006286 0.029193
#
#
# Mechanical properties :
#
#
# Convention : Reuss Voigt Hill
#
# Bulk Modulus (GPa) = 18.48138 46.29364 32.38751
# Shear Modulus (GPa) = 19.73632 34.59270 27.16451
#
# Velocity S-wave (km/s) = 2.97933 3.94438 3.49532
# Velocity P-wave (km/s) = 4.48857 6.44707 5.55482
#
# Compressibility (1/GPa) = 0.05410853
#
# Stress axis : x y z
#
# Youngs Moduli (GPa) = 131.01851 53.03230 34.34994
#
# Poissons Ratio (x) = 0.21052 0.04879
# Poissons Ratio (y) = 0.52011 -0.15952
# Poissons Ratio (z) = 0.18610 -0.24627
#
# Static dielectric constant tensor:
#      x y z
#    x 4.686770 -0.043290 0.356990 
#    y -0.043290 3.962550 -0.114970 
#    z 0.356990 -0.114970 4.135290 
# 
# 
# High freq. dielectric constant tensor:
#      x y z
#    x 1.889430 -0.003970 0.017770 
#    y -0.003970 1.870720 -0.010200 
#    z 0.017770 -0.010200 1.880690 
# 
# From -- ./inp_files/390152.got.cif
#   From: 2010.06.25/outbox.cif.g09.slc.cpg/sg2_196_cif.got.tgz:390152.got - 2010.06.27 13:26:56.
