data_PCOD8018591
_publ_section_title
;
Structure prediction by ZEFSAII (Michael W. Deem and Ramdas Pophale) SiO2 
 PCOD8018591
Probable space group: P -1
;
_chemical_formula_sum "Si O2"
_cell_formula_units_Z 14
_cell_length_a 16.117029
_cell_length_b 11.184929
_cell_length_c 6.472280
_cell_angle_alpha 69.853546
_cell_angle_beta 45.126184
_cell_angle_gamma 49.489131
_cell_volume 614.415896
_symmetry_space_group_name_H-M "P -1"
_symmetry_group_IT_number 2
_symmetry_cell_setting 'triclinic'
loop_
_space_group_symop_operation_xyz
x,y,z
-x,-y,-z
loop_
_atom_site_type_symbol
_atom_site_label
_atom_site_fract_x
_atom_site_fract_y
_atom_site_fract_z
Si Si1 0.668869 0.867244 0.803703
Si Si2 0.358942 0.336564 0.296306
Si Si3 0.060780 0.210151 0.197467
Si Si4 0.807757 0.621277 0.051259
Si Si5 0.290350 0.914713 0.204698
Si Si6 0.886767 0.170549 0.202301
Si Si7 0.831559 0.392914 0.836883
O O1 0.715066 0.748150 0.600996
O O2 0.740984 0.960392 0.630585
O O3 0.691161 0.784560 0.033718
O O4 0.500000 0.000000 0.000000
O O5 0.282525 0.406945 0.610727
O O6 0.309101 0.479402 0.137317
O O7 0.536170 0.217800 0.072831
O O8 0.975470 0.220468 0.139858
O O9 0.967400 0.254431 0.544259
O O10 0.207483 0.024598 0.080390
O O11 0.082946 0.348690 0.049359
O O12 0.885768 0.476506 0.833556
O O13 0.223976 0.825030 0.447121
O O14 0.789639 0.303982 0.115444
O O15 0.000000 0.000000 0.000000
#
# Coordination Sequence:
#
# PCOD8018591 Si02
#       7
#     2   2   2   2   2   2   2
#     4   8  18  36  61  95 131 162 208 262 316 379
#     4  10  22  42  66  98 134 163 214 273 326 381
#     4  11  24  43  69  96 130 170 219 270 313 386
#     4  10  22  40  68 100 128 170 210 268 336 373
#     4  10  22  43  65  97 131 169 216 267 318 387
#     4  12  26  43  67  94 129 179 220 258 324 384
#     4  11  24  44  65  96 134 168 220 265 319 388
#
# _framework density 22.785868000000001
#
# number of rings (size 3 to 8) (size 9 to 14) (size 15 to 20)
#    0.000    1.714    1.429    1.714    2.000    9.143 
#    5.143    2.857    0.000    0.000    0.000    0.000 
#    0.000    0.000    0.000    0.000    0.000    0.000 
#
# Total GULP energy -173478.315317 kJ/mol
# GULP energy per Si atom -12391.308237 kJ/mol
# Density = 2.273401 g / cm^3
# Si number density = 22.785868 Si / 1000 Ang^3
#
#
#
# Elastic Constant Matrix: (Units=GPa)
#
#
# Indices 1 2 3 4 5 6 
#
# 1 84.9071 28.5743 24.8856 7.7285 6.1049 -2.9695
# 2 28.5743 97.8610 17.7436 -12.3618 5.6081 -10.2488
# 3 24.8856 17.7436 73.9267 -1.8514 9.1278 -0.9315
# 4 7.7285 -12.3618 -1.8514 34.5723 2.4873 3.8001
# 5 6.1049 5.6081 9.1278 2.4873 28.6229 2.8609
# 6 -2.9695 -10.2488 -0.9315 3.8001 2.8609 24.4388
#
#
#
# Elastic Compliance Matrix: (Units=1/GPa)
#
#
# Indices 1 2 3 4 5 6 
#
# 1 0.014894 -0.004129 -0.004051 -0.005059 -0.000716 0.000794
# 2 -0.004129 0.012872 -0.001255 0.005139 -0.002117 0.004297
# 3 -0.004051 -0.001255 0.015727 0.001610 -0.004025 -0.000198
# 4 -0.005059 0.005139 0.001610 0.032534 -0.002958 -0.003111
# 5 -0.000716 -0.002117 -0.004025 -0.002958 0.037551 -0.005064
# 6 0.000794 0.004297 -0.000198 -0.003111 -0.005064 0.043886
#
#
# Mechanical properties :
#
#
# Convention : Reuss Voigt Hill
#
# Bulk Modulus (GPa) = 40.61392 44.34465 42.47929
# Shear Modulus (GPa) = 27.09386 29.89288 28.49337
#
# Velocity S-wave (km/s) = 3.45202 3.62595 3.54006
# Velocity P-wave (km/s) = 5.80960 6.08554 5.94917
#
# Compressibility (1/GPa) = 0.02462210
#
# Stress axis : x y z
#
# Youngs Moduli (GPa) = 67.14007 77.68566 63.58607
#
# Poissons Ratio (x) = 0.32079 0.25759
# Poissons Ratio (y) = 0.27724 0.07982
# Poissons Ratio (z) = 0.27198 0.09752
#
# Static dielectric constant tensor:
#      x y z
#    x 6.268860 1.298000 1.032220 
#    y 1.298000 5.089340 0.401140 
#    z 1.032220 0.401140 4.054370 
# 
# 
# High freq. dielectric constant tensor:
#      x y z
#    x 1.897030 -0.004120 0.014780 
#    y -0.004120 1.919500 -0.005280 
#    z 0.014780 -0.005280 1.868910 
# 
# From -- ./inp_files/71088.got.cif
#   From: 2010.06.25/outbox.cif.g09.slc.cpg/sg2_36_cif.got.tgz:71088.got - 2010.06.27 13:26:56.
