data_PCOD8018212
_publ_section_title
;
Structure prediction by ZEFSAII (Michael W. Deem and Ramdas Pophale) SiO2 
 PCOD8018212
Probable space group: P -1
;
_chemical_formula_sum "Si O2"
_cell_formula_units_Z 16
_cell_length_a 5.411129
_cell_length_b 19.041432
_cell_length_c 18.983707
_cell_angle_alpha 27.251827
_cell_angle_beta 122.457827
_cell_angle_gamma 130.888279
_cell_volume 671.295000
_symmetry_space_group_name_H-M "P -1"
_symmetry_group_IT_number 2
_symmetry_cell_setting 'triclinic'
loop_
_space_group_symop_operation_xyz
x,y,z
-x,-y,-z
loop_
_atom_site_type_symbol
_atom_site_label
_atom_site_fract_x
_atom_site_fract_y
_atom_site_fract_z
Si Si1 0.472913 0.702221 0.368708
Si Si2 0.586053 0.214126 0.566543
Si Si3 0.445491 0.325168 0.233143
Si Si4 0.794987 0.465680 0.659331
Si Si5 0.855935 0.964268 0.825452
Si Si6 0.407504 0.672453 0.100231
Si Si7 0.880506 0.700105 0.651874
Si Si8 0.169029 0.281942 0.081610
O O1 0.301863 0.741627 0.374172
O O2 0.537602 0.542337 0.543577
O O3 0.226939 0.646357 0.313923
O O4 0.800091 0.874898 0.245454
O O5 0.213613 0.187449 0.518780
O O6 0.843116 0.374625 0.415367
O O7 0.590536 0.036095 0.707786
O O8 0.188086 0.245956 0.329109
O O9 0.245528 0.235766 0.211974
O O10 0.754079 0.279173 0.324508
O O11 0.550442 0.528761 0.067400
O O12 0.699818 0.337113 0.826207
O O13 0.861293 0.868104 0.841108
O O14 0.763963 0.832440 0.995634
O O15 0.396919 0.494293 0.233774
O O16 0.171269 0.708433 0.979014
#
# Coordination Sequence:
#
# PCOD8018212 Si02
#       8
#     2   2   2   2   2   2   2   2
#     4  10  22  42  64  98 132 175 225 279 341 401
#     4  11  22  42  67  94 135 180 223 281 341 406
#     4  10  23  39  70 101 133 171 241 283 330 406
#     4  10  22  40  69  97 127 176 235 277 326 406
#     4  11  24  40  64  95 141 180 213 278 356 399
#     4  11  22  40  69  97 133 175 226 278 334 410
#     4  11  22  41  70 102 127 179 235 284 331 406
#     4  10  22  40  63  96 136 176 218 280 345 397
#
# _framework density 23.834527999999999
#
# number of rings (size 3 to 8) (size 9 to 14) (size 15 to 20)
#    0.000    1.500    2.500    2.625    3.500    2.000 
#    0.000    3.750    0.000    0.000    0.000    0.000 
#    0.000    0.000    0.000    0.000    0.000    0.000 
#
# Total GULP energy -198349.596099 kJ/mol
# GULP energy per Si atom -12396.849756 kJ/mol
# Density = 2.378028 g / cm^3
# Si number density = 23.834528 Si / 1000 Ang^3
#
#
#
# Elastic Constant Matrix: (Units=GPa)
#
#
# Indices 1 2 3 4 5 6 
#
# 1 73.1225 -5.5265 10.5768 8.6581 5.3172 -16.0230
# 2 -5.5265 60.8640 10.4000 11.4291 -3.7445 -11.2209
# 3 10.5768 10.4000 57.3745 -2.1072 -7.7835 3.1728
# 4 8.6581 11.4291 -2.1072 31.5088 -4.3886 -2.0325
# 5 5.3172 -3.7445 -7.7835 -4.3886 44.2569 3.2400
# 6 -16.0230 -11.2209 3.1728 -2.0325 3.2400 32.4205
#
#
#
# Elastic Compliance Matrix: (Units=1/GPa)
#
#
# Indices 1 2 3 4 5 6 
#
# 1 0.018906 0.006157 -0.006157 -0.007687 -0.004477 0.012043
# 2 0.006157 0.021724 -0.006253 -0.009538 -0.001734 0.010749
# 3 -0.006157 -0.006253 0.020991 0.005582 0.004998 -0.007411
# 4 -0.007687 -0.009538 0.005582 0.038046 0.005295 -0.005790
# 5 -0.004477 -0.001734 0.004998 0.005295 0.024789 -0.005448
# 6 0.012043 0.010749 -0.007411 -0.005790 -0.005448 0.041424
#
#
# Mechanical properties :
#
#
# Convention : Reuss Voigt Hill
#
# Bulk Modulus (GPa) = 20.36033 24.69573 22.52803
# Shear Modulus (GPa) = 25.67300 33.36463 29.51881
#
# Velocity S-wave (km/s) = 3.28553 3.74551 3.52304
# Velocity P-wave (km/s) = 4.79102 5.39342 5.10112
#
# Compressibility (1/GPa) = 0.04911513
#
# Stress axis : x y z
#
# Youngs Moduli (GPa) = 52.89240 46.03294 47.64017
#
# Poissons Ratio (x) = -0.28343 0.29332
# Poissons Ratio (y) = -0.32566 0.29788
# Poissons Ratio (z) = 0.32566 0.28783
#
# Static dielectric constant tensor:
#      x y z
#    x 4.166390 -0.143640 0.017060 
#    y -0.143640 4.267570 0.033570 
#    z 0.017060 0.033570 4.312400 
# 
# 
# High freq. dielectric constant tensor:
#      x y z
#    x 1.943690 -0.013790 0.000510 
#    y -0.013790 1.932440 0.002020 
#    z 0.000510 0.002020 1.939700 
# 
# From -- ./inp_files/39018.got.cif
#   From: 2010.06.25/outbox.cif.g09.slc.cpg/sg2_20_cif.got.tgz:39018.got - 2010.06.27 13:26:56.
