data_PCOD8018711
_publ_section_title
;
Structure prediction by ZEFSAII (Michael W. Deem and Ramdas Pophale) SiO2 
 PCOD8018711
Probable space group: P -1
;
_chemical_formula_sum "Si O2"
_cell_formula_units_Z 16
_cell_length_a 14.968769
_cell_length_b 7.849692
_cell_length_c 8.270757
_cell_angle_alpha 117.745673
_cell_angle_beta 59.647351
_cell_angle_gamma 123.273839
_cell_volume 676.823378
_symmetry_space_group_name_H-M "P -1"
_symmetry_group_IT_number 2
_symmetry_cell_setting 'triclinic'
loop_
_space_group_symop_operation_xyz
x,y,z
-x,-y,-z
loop_
_atom_site_type_symbol
_atom_site_label
_atom_site_fract_x
_atom_site_fract_y
_atom_site_fract_z
Si Si1 0.016764 0.919821 0.208278
Si Si2 0.300032 0.247806 0.822057
Si Si3 0.259693 0.237655 0.215115
Si Si4 0.855100 0.532161 0.384517
Si Si5 0.377520 0.983936 0.153653
Si Si6 0.295692 0.632809 0.835574
Si Si7 0.912093 0.168331 0.227490
Si Si8 0.471294 0.134930 0.454416
O O1 0.946939 0.755868 0.337248
O O2 0.967700 0.098290 0.298112
O O3 0.142585 0.032867 0.213046
O O4 0.011149 0.802727 0.990791
O O5 0.255639 0.393437 0.824594
O O6 0.423602 0.281385 0.659558
O O7 0.213635 0.006774 0.770606
O O8 0.313561 0.320526 0.027645
O O9 0.238700 0.425531 0.405948
O O10 0.350577 0.180452 0.206389
O O11 0.793744 0.374947 0.222446
O O12 0.909774 0.394947 0.372555
O O13 0.373811 0.980982 0.351321
O O14 0.287199 0.773550 0.056471
O O15 0.500000 0.000000 0.000000
O O16 0.421186 0.720200 0.684558
O O17 0.500000 0.000000 0.500000
#
# Coordination Sequence:
#
# PCOD8018711 Si02
#       8
#     2   2   2   2   2   2   2   2
#     4  10  22  44  67 103 142 187 235 291 341 415
#     4  11  22  42  63  97 140 181 232 290 341 416
#     4  11  25  44  66 103 143 183 237 289 346 416
#     4  12  23  43  71 105 142 193 233 284 351 411
#     4  10  23  45  68 100 134 177 232 288 349 419
#     4  11  23  41  68 101 133 184 230 282 358 407
#     4  10  22  40  69  97 142 184 237 286 348 409
#     4  11  23  43  70  96 132 179 229 290 354 416
#
# _framework density 23.639845999999999
#
# number of rings (size 3 to 8) (size 9 to 14) (size 15 to 20)
#    0.000    1.250    1.250    5.625    0.000    3.500 
#    0.000    3.750    0.000    0.000    0.000    0.000 
#    0.000    0.000    0.000    0.000    0.000    0.000 
#
# Total GULP energy -198410.515441 kJ/mol
# GULP energy per Si atom -12400.657215 kJ/mol
# Density = 2.358604 g / cm^3
# Si number density = 23.639846 Si / 1000 Ang^3
#
#
#
# Elastic Constant Matrix: (Units=GPa)
#
#
# Indices 1 2 3 4 5 6 
#
# 1 115.3508 31.4096 37.7715 6.1836 -4.0642 -29.0168
# 2 31.4096 93.8631 43.0109 3.9847 -5.7706 -31.9472
# 3 37.7715 43.0109 118.6772 2.7078 0.8866 -18.6101
# 4 6.1836 3.9847 2.7078 31.2817 -8.4845 -3.7454
# 5 -4.0642 -5.7706 0.8866 -8.4845 41.5473 13.0459
# 6 -29.0168 -31.9472 -18.6101 -3.7454 13.0459 43.7520
#
#
#
# Elastic Compliance Matrix: (Units=1/GPa)
#
#
# Indices 1 2 3 4 5 6 
#
# 1 0.011199 -0.000557 -0.002338 -0.001519 -0.001207 0.006256
# 2 -0.000557 0.016016 -0.004064 -0.000663 -0.000965 0.009828
# 3 -0.002338 -0.004064 0.010716 -0.000224 -0.001185 0.000374
# 4 -0.001519 -0.000663 -0.000224 0.034175 0.006976 -0.000741
# 5 -0.001207 -0.000965 -0.001185 0.006976 0.028366 -0.009870
# 6 0.006256 0.009828 0.000374 -0.000741 -0.009870 0.037220
#
#
# Mechanical properties :
#
#
# Convention : Reuss Voigt Hill
#
# Bulk Modulus (GPa) = 41.64219 61.36389 51.50304
# Shear Modulus (GPa) = 31.32568 37.69612 34.51090
#
# Velocity S-wave (km/s) = 3.64417 3.99758 3.82496
# Velocity P-wave (km/s) = 5.94644 6.87908 6.42969
#
# Compressibility (1/GPa) = 0.02401411
#
# Stress axis : x y z
#
# Youngs Moduli (GPa) = 89.29403 62.43687 93.32006
#
# Poissons Ratio (x) = 0.03475 0.21817
# Poissons Ratio (y) = 0.04970 0.37925
# Poissons Ratio (z) = 0.20876 0.25374
#
# Static dielectric constant tensor:
#      x y z
#    x 4.542090 0.017680 -0.097600 
#    y 0.017680 3.983120 -0.051890 
#    z -0.097600 -0.051890 4.905640 
# 
# 
# High freq. dielectric constant tensor:
#      x y z
#    x 1.944960 -0.012260 -0.001450 
#    y -0.012260 1.916600 0.000650 
#    z -0.001450 0.000650 1.942270 
# 
# From -- ./inp_files/299471.got.cif
#   From: 2010.06.25/outbox.cif.g09.slc.cpg/sg2_150_cif.got.tgz:299471.got - 2010.06.27 13:26:56.
