data_PCOD8018453
_publ_section_title
;
Structure prediction by ZEFSAII (Michael W. Deem and Ramdas Pophale) SiO2 
 PCOD8018453
Probable space group: P -1
;
_chemical_formula_sum "Si O2"
_cell_formula_units_Z 14
_cell_length_a 15.673610
_cell_length_b 15.025637
_cell_length_c 9.063963
_cell_angle_alpha 112.533744
_cell_angle_beta 130.455661
_cell_angle_gamma 27.112666
_cell_volume 613.087029
_symmetry_space_group_name_H-M "P -1"
_symmetry_group_IT_number 2
_symmetry_cell_setting 'triclinic'
loop_
_space_group_symop_operation_xyz
x,y,z
-x,-y,-z
loop_
_atom_site_type_symbol
_atom_site_label
_atom_site_fract_x
_atom_site_fract_y
_atom_site_fract_z
Si Si1 0.804585 0.380841 0.515077
Si Si2 0.656419 0.382644 0.948889
Si Si3 0.166748 0.017441 0.435289
Si Si4 0.532503 0.791058 0.454781
Si Si5 0.121104 0.322912 0.126499
Si Si6 0.701130 0.007968 0.987108
Si Si7 0.384542 0.378565 0.093019
O O1 0.508988 0.558886 0.308978
O O2 0.752767 0.534729 0.571290
O O3 0.964929 0.238701 0.451592
O O4 0.996406 0.194689 0.747526
O O5 0.660210 0.487507 0.957095
O O6 0.500000 0.500000 0.000000
O O7 0.971350 0.104439 0.164531
O O8 0.335258 0.956941 0.480381
O O9 0.377300 0.789567 0.624486
O O10 0.689169 0.770233 0.600103
O O11 0.359559 0.900818 0.184363
O O12 0.304353 0.104417 0.097768
O O13 0.000000 0.500000 0.000000
O O14 0.895031 0.436457 0.028158
O O15 0.473484 0.223888 0.983043
#
# Coordination Sequence:
#
# PCOD8018453 Si02
#       7
#     2   2   2   2   2   2   2
#     4  10  23  42  64  96 132 170 215 270 318 387
#     4  10  22  42  68  98 133 168 216 270 317 389
#     4  10  22  40  66  94 130 174 213 259 327 383
#     4  12  24  43  67  97 133 171 220 268 323 387
#     4  12  24  45  68  94 136 168 218 279 317 382
#     4  11  24  40  67  98 126 173 220 261 330 384
#     4  11  24  44  68  98 131 173 217 265 328 385
#
# _framework density 22.835256999999999
#
# number of rings (size 3 to 8) (size 9 to 14) (size 15 to 20)
#    0.000    1.143    2.857    3.000    0.000    9.143 
#    0.000    7.857    0.000    0.000    0.000    0.000 
#    0.000    0.000    0.000    0.000    0.000    0.000 
#
# Total GULP energy -173520.276235 kJ/mol
# GULP energy per Si atom -12394.305445 kJ/mol
# Density = 2.278328 g / cm^3
# Si number density = 22.835257 Si / 1000 Ang^3
#
#
#
# Elastic Constant Matrix: (Units=GPa)
#
#
# Indices 1 2 3 4 5 6 
#
# 1 116.2320 15.1564 40.6137 -8.0531 -4.4794 -4.0905
# 2 15.1564 56.0288 20.4771 1.3913 1.0130 -6.2088
# 3 40.6137 20.4771 157.9980 -7.5702 -2.4456 -12.8903
# 4 -8.0531 1.3913 -7.5702 30.3741 3.1530 2.2333
# 5 -4.4794 1.0130 -2.4456 3.1530 43.4249 -0.6354
# 6 -4.0905 -6.2088 -12.8903 2.2333 -0.6354 25.1319
#
#
#
# Elastic Compliance Matrix: (Units=1/GPa)
#
#
# Indices 1 2 3 4 5 6 
#
# 1 0.009781 -0.001938 -0.002165 0.002073 0.000779 -0.000162
# 2 -0.001938 0.019519 -0.001835 -0.002083 -0.000553 0.003737
# 3 -0.002165 -0.001835 0.007417 0.001125 0.000198 0.002904
# 4 0.002073 -0.002083 0.001125 0.034276 -0.002202 -0.002702
# 5 0.000779 -0.000553 0.000198 -0.002202 0.023305 0.000877
# 6 -0.000162 0.003737 0.002904 -0.002702 0.000877 0.042439
#
#
# Mechanical properties :
#
#
# Convention : Reuss Voigt Hill
#
# Bulk Modulus (GPa) = 40.25610 53.63922 46.94766
# Shear Modulus (GPa) = 31.86906 36.72027 34.29467
#
# Velocity S-wave (km/s) = 3.73984 4.01440 3.87955
# Velocity P-wave (km/s) = 6.02625 6.71028 6.37744
#
# Compressibility (1/GPa) = 0.02484096
#
# Stress axis : x y z
#
# Youngs Moduli (GPa) = 102.24326 51.23304 134.81966
#
# Poissons Ratio (x) = 0.09929 0.29185
# Poissons Ratio (y) = 0.19816 0.24739
# Poissons Ratio (z) = 0.22133 0.09401
#
# Static dielectric constant tensor:
#      x y z
#    x 3.784080 -0.064640 -0.046120 
#    y -0.064640 4.124390 -0.093410 
#    z -0.046120 -0.093410 5.042080 
# 
# 
# High freq. dielectric constant tensor:
#      x y z
#    x 1.878620 -0.002260 -0.013250 
#    y -0.002260 1.899160 -0.008810 
#    z -0.013250 -0.008810 1.931620 
# 
# From -- ./inp_files/314621.got.cif
#   From: 2010.06.25/outbox.cif.g09.slc.cpg/sg2_158_cif.got.tgz:314621.got - 2010.06.27 13:26:56.
