data_PCOD8018616
_publ_section_title
;
Structure prediction by ZEFSAII (Michael W. Deem and Ramdas Pophale) SiO2 
 PCOD8018616
Probable space group: P -1
;
_chemical_formula_sum "Si O2"
_cell_formula_units_Z 14
_cell_length_a 9.669228
_cell_length_b 8.274516
_cell_length_c 11.677704
_cell_angle_alpha 61.527727
_cell_angle_beta 114.451104
_cell_angle_gamma 125.475584
_cell_volume 656.433764
_symmetry_space_group_name_H-M "P -1"
_symmetry_group_IT_number 2
_symmetry_cell_setting 'triclinic'
loop_
_space_group_symop_operation_xyz
x,y,z
-x,-y,-z
loop_
_atom_site_type_symbol
_atom_site_label
_atom_site_fract_x
_atom_site_fract_y
_atom_site_fract_z
Si Si1 0.924364 0.537254 0.075223
Si Si2 0.172092 0.887932 0.203880
Si Si3 0.047772 0.171861 0.623628
Si Si4 0.853755 0.152622 0.338616
Si Si5 0.629790 0.634552 0.903499
Si Si6 0.483165 0.793301 0.364548
Si Si7 0.560943 0.501483 0.346877
O O1 0.882926 0.358315 0.214121
O O2 0.048063 0.757694 0.102265
O O3 0.756536 0.537720 0.968283
O O4 0.000000 0.500000 0.000000
O O5 0.066028 0.875328 0.285952
O O6 0.307357 0.804625 0.303406
O O7 0.270601 0.122490 0.110574
O O8 0.955012 0.221042 0.470209
O O9 0.232189 0.375200 0.636849
O O10 0.072583 0.971345 0.671011
O O11 0.649813 0.020475 0.337940
O O12 0.524226 0.611339 0.760693
O O13 0.500000 0.500000 0.000000
O O14 0.484768 0.656088 0.303500
O O15 0.500301 0.685820 0.521354
#
# Coordination Sequence:
#
# PCOD8018616 Si02
#       7
#     2   2   2   2   2   2   2
#     4  12  26  43  64  90 128 171 209 250 307 380
#     4  12  25  42  65  95 123 161 213 264 311 359
#     4  10  22  41  70  97 125 157 208 269 311 361
#     4  10  22  43  66  94 126 167 207 252 316 370
#     4  12  26  42  62  90 129 167 206 254 307 374
#     4  10  22  40  68  94 123 160 208 264 312 363
#     4  10  22  43  64  92 126 165 206 253 315 370
#
# _framework density 21.327362000000001
#
# number of rings (size 3 to 8) (size 9 to 14) (size 15 to 20)
#    0.000    1.143    0.000    5.571    0.000   12.571 
#    0.000    5.000    0.000    0.000    0.000    0.000 
#    0.000    0.000    0.000    0.000    0.000    0.000 
#
# Total GULP energy -173672.702007 kJ/mol
# GULP energy per Si atom -12405.193001 kJ/mol
# Density = 2.127882 g / cm^3
# Si number density = 21.327362 Si / 1000 Ang^3
#
#
#
# Elastic Constant Matrix: (Units=GPa)
#
#
# Indices 1 2 3 4 5 6 
#
# 1 119.3452 34.5064 16.5484 9.9404 -16.4900 14.3596
# 2 34.5064 132.1368 49.0639 -5.7595 -23.8015 14.7617
# 3 16.5484 49.0639 74.7249 6.0840 -15.3595 4.0194
# 4 9.9404 -5.7595 6.0840 41.2504 2.3569 0.3505
# 5 -16.4900 -23.8015 -15.3595 2.3569 33.0557 -2.9520
# 6 14.3596 14.7617 4.0194 0.3505 -2.9520 24.5180
#
#
#
# Elastic Compliance Matrix: (Units=1/GPa)
#
#
# Indices 1 2 3 4 5 6 
#
# 1 0.010129 -0.001621 0.000058 -0.002850 0.003716 -0.004478
# 2 -0.001621 0.011780 -0.006527 0.002807 0.004027 -0.004628
# 3 0.000058 -0.006527 0.018825 -0.003970 0.004485 0.001407
# 4 -0.002850 0.002807 -0.003970 0.026086 -0.003116 -0.000118
# 5 0.003716 0.004027 0.004485 -0.003116 0.037239 -0.000808
# 6 -0.004478 -0.004628 0.001407 -0.000118 -0.000808 0.045869
#
#
# Mechanical properties :
#
#
# Convention : Reuss Voigt Hill
#
# Bulk Modulus (GPa) = 40.72917 58.49382 49.61150
# Shear Modulus (GPa) = 28.68734 34.83736 31.76235
#
# Velocity S-wave (km/s) = 3.67153 4.04599 3.86330
# Velocity P-wave (km/s) = 6.09197 7.02232 6.57362
#
# Compressibility (1/GPa) = 0.02455243
#
# Stress axis : x y z
#
# Youngs Moduli (GPa) = 98.72263 84.89174 53.12143
#
# Poissons Ratio (x) = 0.13765 -0.00309
# Poissons Ratio (y) = 0.16007 0.34674
# Poissons Ratio (z) = -0.00574 0.55412
#
# Static dielectric constant tensor:
#      x y z
#    x 3.228320 -0.077790 0.032300 
#    y -0.077790 4.049050 0.050990 
#    z 0.032300 0.050990 3.838580 
# 
# 
# High freq. dielectric constant tensor:
#      x y z
#    x 1.852680 0.006040 0.002850 
#    y 0.006040 1.849390 -0.000620 
#    z 0.002850 -0.000620 1.843690 
# 
# From -- ./inp_files/186234.got.cif
#   From: 2010.06.25/outbox.cif.g09.slc.cpg/sg2_94_cif.got.tgz:186234.got - 2010.06.27 13:26:56.
