data_PCOD8018627
_publ_section_title
;
Structure prediction by ZEFSAII (Michael W. Deem and Ramdas Pophale) SiO2 
 PCOD8018627
Probable space group: P -1
;
_chemical_formula_sum "Si O2"
_cell_formula_units_Z 16
_cell_length_a 11.609832
_cell_length_b 17.349702
_cell_length_c 13.865043
_cell_angle_alpha 149.948144
_cell_angle_beta 53.260218
_cell_angle_gamma 145.453566
_cell_volume 725.456005
_symmetry_space_group_name_H-M "P -1"
_symmetry_group_IT_number 2
_symmetry_cell_setting 'triclinic'
loop_
_space_group_symop_operation_xyz
x,y,z
-x,-y,-z
loop_
_atom_site_type_symbol
_atom_site_label
_atom_site_fract_x
_atom_site_fract_y
_atom_site_fract_z
Si Si1 0.343972 0.209587 0.617190
Si Si2 0.300703 0.399639 0.289912
Si Si3 0.403780 0.165410 0.271245
Si Si4 0.323923 0.991692 0.570406
Si Si5 0.995813 0.177648 0.782201
Si Si6 0.972689 0.495088 0.120277
Si Si7 0.208214 0.980579 0.831187
Si Si8 0.480520 0.056225 0.929141
O O1 0.569001 0.416565 0.666884
O O2 0.227712 0.279844 0.767319
O O3 0.409985 0.189756 0.665541
O O4 0.159073 0.952630 0.377891
O O5 0.430098 0.555166 0.491859
O O6 0.300256 0.216070 0.081672
O O7 0.049658 0.255028 0.269608
O O8 0.158400 0.018706 0.268794
O O9 0.505515 0.108651 0.223281
O O10 0.369782 0.080306 0.088084
O O11 0.098740 0.739126 0.367985
O O12 0.500000 0.000000 0.500000
O O13 0.265381 0.021322 0.733707
O O14 0.055480 0.401211 0.022696
O O15 0.000000 0.500000 0.000000
O O16 0.719799 0.323520 0.083350
O O17 0.338168 0.948851 0.785939
#
# Coordination Sequence:
#
# PCOD8018627 Si02
#       8
#     2   2   2   2   2   2   2   2
#     4  10  22  43  66  96 130 170 222 266 327 387
#     4  10  24  44  65  92 133 176 216 268 325 397
#     4   9  20  42  66 100 122 165 225 272 325 378
#     4  12  27  43  64 101 138 173 215 271 334 398
#     4   9  20  38  70  96 122 164 219 278 316 379
#     4  11  21  39  67  93 127 167 218 270 323 380
#     4  11  26  44  62  96 136 177 216 265 335 389
#     4  10  22  40  68  95 129 167 220 276 321 389
#
# _framework density 22.055092999999999
#
# number of rings (size 3 to 8) (size 9 to 14) (size 15 to 20)
#    0.000    1.750    1.250    1.500    7.000    4.500 
#    6.750    0.000    0.000    0.000    0.000    0.000 
#    0.000    0.000    0.000    0.000    0.000    0.000 
#
# Total GULP energy -198358.792019 kJ/mol
# GULP energy per Si atom -12397.424501 kJ/mol
# Density = 2.200489 g / cm^3
# Si number density = 22.055093 Si / 1000 Ang^3
#
#
#
# Elastic Constant Matrix: (Units=GPa)
#
#
# Indices 1 2 3 4 5 6 
#
# 1 79.0653 35.7971 -3.9410 1.4009 3.7500 -10.2440
# 2 35.7971 125.3041 18.7425 -5.1001 2.1607 1.2213
# 3 -3.9410 18.7425 75.4113 -0.5766 2.3727 -3.5940
# 4 1.4009 -5.1001 -0.5766 36.4633 -3.3194 1.4311
# 5 3.7500 2.1607 2.3727 -3.3194 17.4454 -5.7198
# 6 -10.2440 1.2213 -3.5940 1.4311 -5.7198 29.3557
#
#
#
# Elastic Compliance Matrix: (Units=1/GPa)
#
#
# Indices 1 2 3 4 5 6 
#
# 1 0.015882 -0.004991 0.002383 -0.001638 -0.001522 0.005825
# 2 -0.004991 0.009927 -0.002831 0.001609 -0.000333 -0.002645
# 3 0.002383 -0.002831 0.014245 -0.000485 -0.001389 0.002447
# 4 -0.001638 0.001609 -0.000485 0.028224 0.005244 -0.001052
# 5 -0.001522 -0.000333 -0.001389 0.005244 0.062564 0.011248
# 6 0.005825 -0.002645 0.002447 -0.001052 0.011248 0.038750
#
#
# Mechanical properties :
#
#
# Convention : Reuss Voigt Hill
#
# Bulk Modulus (GPa) = 34.27376 42.33088 38.30232
# Shear Modulus (GPa) = 26.28866 31.93168 29.11017
#
# Velocity S-wave (km/s) = 3.45621 3.80914 3.63696
# Velocity P-wave (km/s) = 5.61258 6.21136 5.91955
#
# Compressibility (1/GPa) = 0.02917684
#
# Stress axis : x y z
#
# Youngs Moduli (GPa) = 62.96376 100.73641 70.19782
#
# Poissons Ratio (x) = 0.50277 -0.16731
# Poissons Ratio (y) = 0.31425 0.19875
# Poissons Ratio (z) = -0.15007 0.28521
#
# Static dielectric constant tensor:
#      x y z
#    x 3.668970 -0.047510 -0.022100 
#    y -0.047510 4.189410 0.007090 
#    z -0.022100 0.007090 4.408330 
# 
# 
# High freq. dielectric constant tensor:
#      x y z
#    x 1.844850 0.002310 -0.005180 
#    y 0.002310 1.885030 -0.006390 
#    z -0.005180 -0.006390 1.870290 
# 
# From -- ./inp_files/523472.got.cif
#   From: 2010.06.25/outbox.cif.g09.slc.cpg/sg2_262_cif.got.tgz:523472.got - 2010.06.27 13:26:56.
