data_PCOD8018135
_publ_section_title
;
Structure prediction by ZEFSAII (Michael W. Deem and Ramdas Pophale) SiO2 
 PCOD8018135
Probable space group: P -1
;
_chemical_formula_sum "Si O2"
_cell_formula_units_Z 16
_cell_length_a 11.613267
_cell_length_b 8.659433
_cell_length_c 21.016948
_cell_angle_alpha 51.732682
_cell_angle_beta 145.390231
_cell_angle_gamma 138.282907
_cell_volume 798.784052
_symmetry_space_group_name_H-M "P -1"
_symmetry_group_IT_number 2
_symmetry_cell_setting 'triclinic'
loop_
_space_group_symop_operation_xyz
x,y,z
-x,-y,-z
loop_
_atom_site_type_symbol
_atom_site_label
_atom_site_fract_x
_atom_site_fract_y
_atom_site_fract_z
Si Si1 0.216195 0.762986 0.257672
Si Si2 0.413856 0.747590 0.731817
Si Si3 0.299129 0.416832 0.877243
Si Si4 0.698580 0.947276 0.121908
Si Si5 0.597911 0.622438 0.272082
Si Si6 0.964463 0.772700 0.509783
Si Si7 0.214732 0.385784 0.262797
Si Si8 0.567187 0.376886 0.510160
O O1 0.205618 0.566486 0.258999
O O2 0.380730 0.803470 0.385136
O O3 0.951236 0.685917 0.175649
O O4 0.334416 0.007205 0.212478
O O5 0.355812 0.635119 0.803886
O O6 0.433389 0.587346 0.730163
O O7 0.217550 0.802437 0.605514
O O8 0.292126 0.218795 0.882798
O O9 0.500000 0.500000 0.000000
O O10 0.631673 0.830816 0.190523
O O11 0.951760 0.186227 0.175543
O O12 0.500000 0.000000 0.000000
O O13 0.360710 0.527812 0.230633
O O14 0.836394 0.731007 0.394680
O O15 0.814154 0.558022 0.542599
O O16 0.000000 0.000000 0.500000
O O17 0.351494 0.269205 0.387873
O O18 0.500000 0.500000 0.500000
#
# Coordination Sequence:
#
# PCOD8018135 Si02
#       8
#     2   2   2   2   2   2   2   2
#     4  11  22  39  66  93 129 166 209 263 309 375
#     4  11  23  41  62  93 129 166 206 259 320 372
#     4  11  25  45  65  92 126 166 217 263 312 377
#     4  11  25  43  67  91 122 170 211 263 315 369
#     4  10  24  41  60  93 130 162 208 258 315 378
#     4  11  21  36  62  93 129 167 208 255 312 376
#     4  10  22  40  62  95 126 164 210 257 313 370
#     4   9  19  35  56  94 126 160 204 250 306 367
#
# _framework density 20.030445
#
# number of rings (size 3 to 8) (size 9 to 14) (size 15 to 20)
#    0.000    1.500    1.250    4.125    5.250    4.000 
#    0.000    1.875    0.000    0.000    0.000    0.000 
#    0.000    0.000    0.000    0.000    0.000    0.000 
#
# Total GULP energy -198418.424452 kJ/mol
# GULP energy per Si atom -12401.151528 kJ/mol
# Density = 1.998486 g / cm^3
# Si number density = 20.030445 Si / 1000 Ang^3
#
#
#
# Elastic Constant Matrix: (Units=GPa)
#
#
# Indices 1 2 3 4 5 6 
#
# 1 116.2533 44.7301 61.6063 1.1761 9.1175 24.5500
# 2 44.7301 119.5215 67.4404 7.0283 1.1896 18.6934
# 3 61.6063 67.4404 142.0404 8.7453 8.0399 20.1899
# 4 1.1761 7.0283 8.7453 31.5838 -0.8730 3.8700
# 5 9.1175 1.1896 8.0399 -0.8730 34.9086 4.5844
# 6 24.5500 18.6934 20.1899 3.8700 4.5844 33.5251
#
#
#
# Elastic Compliance Matrix: (Units=1/GPa)
#
#
# Indices 1 2 3 4 5 6 
#
# 1 0.012667 -0.001719 -0.003843 0.001666 -0.001537 -0.005986
# 2 -0.001719 0.012098 -0.004624 -0.000966 0.001444 -0.002788
# 3 -0.003843 -0.004624 0.011231 -0.001856 -0.001344 -0.000973
# 4 0.001666 -0.000966 -0.001856 0.032797 0.001309 -0.003529
# 5 -0.001537 0.001444 -0.001344 0.001309 0.029746 -0.003089
# 6 -0.005986 -0.002788 -0.000973 -0.003529 -0.003089 0.037182
#
#
# Mechanical properties :
#
#
# Convention : Reuss Voigt Hill
#
# Bulk Modulus (GPa) = 64.00296 80.59655 72.29976
# Shear Modulus (GPa) = 30.99769 33.60605 32.30187
#
# Velocity S-wave (km/s) = 3.93813 4.10048 4.02012
# Velocity P-wave (km/s) = 7.25953 7.92104 7.59749
#
# Compressibility (1/GPa) = 0.01562428
#
# Stress axis : x y z
#
# Youngs Moduli (GPa) = 78.94278 82.65958 89.03688
#
# Poissons Ratio (x) = 0.14208 0.34215
# Poissons Ratio (y) = 0.13569 0.41175
# Poissons Ratio (z) = 0.30336 0.38226
#
# Static dielectric constant tensor:
#      x y z
#    x 3.841620 0.159930 -0.034570 
#    y 0.159930 3.638720 -0.051750 
#    z -0.034570 -0.051750 3.956390 
# 
# 
# High freq. dielectric constant tensor:
#      x y z
#    x 1.797510 0.010780 0.002500 
#    y 0.010780 1.782680 0.000500 
#    z 0.002500 0.000500 1.784430 
# 
# From -- ./inp_files/278072.got.cif
#   From: 2010.06.25/outbox.cif.g09.slc.cpg/sg2_140_cif.got.tgz:278072.got - 2010.06.27 13:26:56.
