data_PCOD8018692
_publ_section_title
;
Structure prediction by ZEFSAII (Michael W. Deem and Ramdas Pophale) SiO2 
 PCOD8018692
Probable space group: P -1
;
_chemical_formula_sum "Si O2"
_cell_formula_units_Z 16
_cell_length_a 9.030912
_cell_length_b 24.123670
_cell_length_c 8.672906
_cell_angle_alpha 48.609822
_cell_angle_beta 49.963289
_cell_angle_gamma 30.977665
_cell_volume 715.182253
_symmetry_space_group_name_H-M "P -1"
_symmetry_group_IT_number 2
_symmetry_cell_setting 'triclinic'
loop_
_space_group_symop_operation_xyz
x,y,z
-x,-y,-z
loop_
_atom_site_type_symbol
_atom_site_label
_atom_site_fract_x
_atom_site_fract_y
_atom_site_fract_z
Si Si1 0.717344 0.379149 0.153901
Si Si2 0.578079 0.649221 0.121209
Si Si3 0.828532 0.151482 0.198508
Si Si4 0.819318 0.053010 0.867591
Si Si5 0.873940 0.425002 0.245760
Si Si6 0.747549 0.726463 0.454152
Si Si7 0.203546 0.175751 0.001839
Si Si8 0.499484 0.706417 0.419285
O O1 0.776973 0.385383 0.277876
O O2 0.592734 0.332483 0.332396
O O3 0.500000 0.500000 0.000000
O O4 0.010745 0.288879 0.022330
O O5 0.599791 0.557804 0.219593
O O6 0.573238 0.654112 0.299151
O O7 0.295967 0.765783 0.015026
O O8 0.872673 0.605231 0.956728
O O9 0.567230 0.198523 0.394999
O O10 0.988983 0.033393 0.242650
O O11 0.062454 0.134632 0.166947
O O12 0.528884 0.084946 0.026367
O O13 0.744780 0.158860 0.679485
O O14 0.000000 0.000000 0.000000
O O15 0.983171 0.361103 0.451324
O O16 0.764688 0.804405 0.232515
O O17 0.777312 0.662366 0.404651
#
# Coordination Sequence:
#
# PCOD8018692 Si02
#       8
#     2   2   2   2   2   2   2   2
#     4  12  27  45  68 102 145 179 234 286 342 419
#     4  10  22  40  69  94 137 175 232 278 347 411
#     4  11  22  46  70  98 141 178 234 286 339 415
#     4  11  24  46  72 100 136 186 229 291 346 403
#     4  10  23  40  67 100 131 183 225 285 344 412
#     4  10  24  42  70 103 138 182 233 283 350 414
#     4  11  25  45  70 102 140 184 231 285 348 411
#     4  11  24  44  65 100 136 180 224 290 341 408
#
# _framework density 22.371918999999998
#
# number of rings (size 3 to 8) (size 9 to 14) (size 15 to 20)
#    0.000    1.250    2.500    2.625    8.750    3.000 
#    2.250    0.625    0.000    0.000    0.000    0.000 
#    0.000    0.000    0.000    0.000    0.000    0.000 
#
# Total GULP energy -198371.503283 kJ/mol
# GULP energy per Si atom -12398.218955 kJ/mol
# Density = 2.232100 g / cm^3
# Si number density = 22.371919 Si / 1000 Ang^3
#
#
#
# Elastic Constant Matrix: (Units=GPa)
#
#
# Indices 1 2 3 4 5 6 
#
# 1 100.9673 34.0540 29.6509 -9.4850 12.6610 8.2943
# 2 34.0540 97.2898 18.9093 -9.4107 3.4363 13.4149
# 3 29.6509 18.9093 80.3412 -11.5643 11.7251 1.9401
# 4 -9.4850 -9.4107 -11.5643 35.4653 1.9171 4.9963
# 5 12.6610 3.4363 11.7251 1.9171 36.0909 -5.5172
# 6 8.2943 13.4149 1.9401 4.9963 -5.5172 39.4700
#
#
#
# Elastic Compliance Matrix: (Units=1/GPa)
#
#
# Indices 1 2 3 4 5 6 
#
# 1 0.012716 -0.003229 -0.003059 0.002049 -0.003603 -0.002187
# 2 -0.003229 0.012445 -0.001211 0.002611 -0.000390 -0.003877
# 3 -0.003059 -0.001211 0.015059 0.004097 -0.004039 -0.000769
# 4 0.002049 0.002611 0.004097 0.031922 -0.004950 -0.006252
# 5 -0.003603 -0.000390 -0.004039 -0.004950 0.031519 0.006121
# 6 -0.002187 -0.003877 -0.000769 -0.006252 0.006121 0.028798
#
#
# Mechanical properties :
#
#
# Convention : Reuss Voigt Hill
#
# Bulk Modulus (GPa) = 39.65001 49.31408 44.48205
# Shear Modulus (GPa) = 32.07915 35.27086 33.67500
#
# Velocity S-wave (km/s) = 3.79080 3.97491 3.88395
# Velocity P-wave (km/s) = 6.07633 6.56942 6.32768
#
# Compressibility (1/GPa) = 0.02522068
#
# Stress axis : x y z
#
# Youngs Moduli (GPa) = 78.64307 80.35281 66.40638
#
# Poissons Ratio (x) = 0.25947 0.20316
# Poissons Ratio (y) = 0.25395 0.08042
# Poissons Ratio (z) = 0.24059 0.09730
#
# Static dielectric constant tensor:
#      x y z
#    x 4.182620 0.098640 0.129600 
#    y 0.098640 4.079050 0.027990 
#    z 0.129600 0.027990 4.058750 
# 
# 
# High freq. dielectric constant tensor:
#      x y z
#    x 1.891240 0.007230 0.005480 
#    y 0.007230 1.877670 0.004120 
#    z 0.005480 0.004120 1.885300 
# 
# From -- ./inp_files/226095.got.cif
#   From: 2010.06.25/outbox.cif.g09.slc.cpg/sg2_114_cif.got.tgz:226095.got - 2010.06.27 13:26:56.
