data_PCOD8018459
_publ_section_title
;
Structure prediction by ZEFSAII (Michael W. Deem and Ramdas Pophale) SiO2 
 PCOD8018459
Probable space group: P -1
;
_chemical_formula_sum "Si O2"
_cell_formula_units_Z 16
_cell_length_a 12.802508
_cell_length_b 15.459363
_cell_length_c 9.451190
_cell_angle_alpha 47.140123
_cell_angle_beta 134.723733
_cell_angle_gamma 143.031577
_cell_volume 768.184791
_symmetry_space_group_name_H-M "P -1"
_symmetry_group_IT_number 2
_symmetry_cell_setting 'triclinic'
loop_
_space_group_symop_operation_xyz
x,y,z
-x,-y,-z
loop_
_atom_site_type_symbol
_atom_site_label
_atom_site_fract_x
_atom_site_fract_y
_atom_site_fract_z
Si Si1 0.131954 0.760639 0.180666
Si Si2 0.920946 0.226846 0.478794
Si Si3 0.589198 0.490269 0.732505
Si Si4 0.003022 0.635670 0.894071
Si Si5 0.317070 0.030830 0.249180
Si Si6 0.281482 0.266197 0.870263
Si Si7 0.271122 0.682676 0.632637
Si Si8 0.715276 0.588222 0.026527
O O1 0.186304 0.663640 0.416290
O O2 0.937332 0.718840 0.097949
O O3 0.281271 0.931179 0.187638
O O4 0.128629 0.733318 0.040650
O O5 0.883312 0.339003 0.382535
O O6 0.917953 0.239101 0.292326
O O7 0.121835 0.273443 0.655104
O O8 0.768042 0.062704 0.581683
O O9 0.500000 0.500000 0.500000
O O10 0.785624 0.536299 0.827642
O O11 0.436637 0.321115 0.834740
O O12 0.628863 0.596822 0.786682
O O13 0.000000 0.500000 0.000000
O O14 0.537440 0.150692 0.348196
O O15 0.215757 0.106357 0.039062
O O16 0.377214 0.385175 0.961354
O O17 0.311177 0.566575 0.826608
#
# Coordination Sequence:
#
# PCOD8018459 Si02
#       8
#     2   2   2   2   2   2   2   2
#     4  10  22  40  66  95 128 168 216 264 325 385
#     4  11  22  41  68  92 128 174 213 260 329 385
#     4  11  23  41  60  95 133 165 207 274 321 378
#     4  11  25  43  67  95 133 171 216 264 331 387
#     4  11  24  43  66  95 133 170 216 272 319 383
#     4  12  23  41  67  96 131 167 221 267 322 384
#     4  11  22  41  68  97 128 165 225 277 312 369
#     4  11  22  39  67  98 125 168 225 270 321 373
#
# _framework density 20.828322
#
# number of rings (size 3 to 8) (size 9 to 14) (size 15 to 20)
#    0.000    1.000    5.000    4.125    1.750    0.000 
#    0.000    4.375    0.000    0.000    0.000    0.000 
#    0.000    0.000    0.000    0.000    0.000    0.000 
#
# Total GULP energy -198214.195850 kJ/mol
# GULP energy per Si atom -12388.387241 kJ/mol
# Density = 2.078092 g / cm^3
# Si number density = 20.828322 Si / 1000 Ang^3
#
#
#
# Elastic Constant Matrix: (Units=GPa)
#
#
# Indices 1 2 3 4 5 6 
#
# 1 125.5235 38.1927 72.7744 0.0066 -19.5865 -3.6094
# 2 38.1927 80.8569 42.6600 5.0428 -16.9905 -6.8402
# 3 72.7744 42.6600 147.4127 17.1648 -28.6704 -15.6139
# 4 0.0066 5.0428 17.1648 39.9425 -0.4380 1.5133
# 5 -19.5865 -16.9905 -28.6704 -0.4380 36.4262 3.3445
# 6 -3.6094 -6.8402 -15.6139 1.5133 3.3445 31.8317
#
#
#
# Elastic Compliance Matrix: (Units=1/GPa)
#
#
# Indices 1 2 3 4 5 6 
#
# 1 0.012165 -0.002986 -0.005500 0.002833 0.001056 -0.002206
# 2 -0.002986 0.015916 -0.002027 -0.001158 0.004051 0.001717
# 3 -0.005500 -0.002027 0.012178 -0.005094 0.005198 0.004610
# 4 0.002833 -0.001158 -0.005094 0.027477 -0.002376 -0.003483
# 5 0.001056 0.004051 0.005198 -0.002376 0.033965 0.000084
# 6 -0.002206 0.001717 0.004610 -0.003483 0.000084 0.033952
#
#
# Mechanical properties :
#
#
# Convention : Reuss Voigt Hill
#
# Bulk Modulus (GPa) = 51.99302 73.44971 62.72137
# Shear Modulus (GPa) = 30.65807 34.98449 32.82128
#
# Velocity S-wave (km/s) = 3.84075 4.10281 3.97394
# Velocity P-wave (km/s) = 6.68471 7.60164 7.15787
#
# Compressibility (1/GPa) = 0.01923335
#
# Stress axis : x y z
#
# Youngs Moduli (GPa) = 82.20424 62.82875 82.11732
#
# Poissons Ratio (x) = 0.18760 0.45160
# Poissons Ratio (y) = 0.24545 0.16648
# Poissons Ratio (z) = 0.45208 0.12738
#
# Static dielectric constant tensor:
#      x y z
#    x 4.050810 0.196980 -0.269720 
#    y 0.196980 3.725720 0.116160 
#    z -0.269720 0.116160 4.175470 
# 
# 
# High freq. dielectric constant tensor:
#      x y z
#    x 1.819060 0.017800 0.006090 
#    y 0.017800 1.810340 0.018500 
#    z 0.006090 0.018500 1.827750 
# 
# From -- ./inp_files/206370.got.cif
#   From: 2010.06.25/outbox.cif.g09.slc.cpg/sg2_104_cif.got.tgz:206370.got - 2010.06.27 13:26:56.
