data_PCOD8018283
_publ_section_title
;
Structure prediction by ZEFSAII (Michael W. Deem and Ramdas Pophale) SiO2 
 PCOD8018283
Probable space group: P -1
;
_chemical_formula_sum "Si O2"
_cell_formula_units_Z 16
_cell_length_a 14.537152
_cell_length_b 10.018393
_cell_length_c 12.852211
_cell_angle_alpha 59.923347
_cell_angle_beta 28.650709
_cell_angle_gamma 71.603097
_cell_volume 741.012815
_symmetry_space_group_name_H-M "P -1"
_symmetry_group_IT_number 2
_symmetry_cell_setting 'triclinic'
loop_
_space_group_symop_operation_xyz
x,y,z
-x,-y,-z
loop_
_atom_site_type_symbol
_atom_site_label
_atom_site_fract_x
_atom_site_fract_y
_atom_site_fract_z
Si Si1 0.965457 0.233584 0.637532
Si Si2 0.823511 0.022147 0.429315
Si Si3 0.533217 0.132133 0.005562
Si Si4 0.856941 0.394467 0.880595
Si Si5 0.375601 0.417382 0.056922
Si Si6 0.327323 0.574062 0.662954
Si Si7 0.046509 0.635274 0.757007
Si Si8 0.326663 0.861980 0.672342
O O1 0.943152 0.354165 0.702775
O O2 0.143887 0.327543 0.348687
O O3 0.761792 0.172520 0.798292
O O4 0.022189 0.082034 0.689073
O O5 0.925672 0.173798 0.344516
O O6 0.797008 0.070362 0.317179
O O7 0.608171 0.926806 0.730110
O O8 0.481425 0.291863 0.950458
O O9 0.500000 0.000000 0.000000
O O10 0.646788 0.441680 0.054693
O O11 0.024377 0.553739 0.697360
O O12 0.822952 0.240781 0.050867
O O13 0.500000 0.500000 0.000000
O O14 0.500000 0.500000 0.500000
O O15 0.244206 0.610361 0.621209
O O16 0.424252 0.740539 0.563604
O O17 0.153665 0.450931 0.947734
O O18 0.500000 0.000000 0.500000
#
# Coordination Sequence:
#
# PCOD8018283 Si02
#       8
#     2   2   2   2   2   2   2   2
#     4  11  25  43  68  96 132 175 219 273 332 385
#     4  10  24  43  65  96 137 169 218 279 320 395
#     4  11  26  44  69 100 129 175 226 268 333 390
#     4  11  23  42  67  96 132 173 216 271 331 390
#     4  11  25  45  68  96 135 168 223 281 321 387
#     4   9  19  39  59  88 125 173 215 260 315 385
#     4   9  21  38  59  90 130 163 215 268 315 383
#     4  10  22  40  64  95 134 169 214 268 324 396
#
# _framework density 21.592071000000001
#
# number of rings (size 3 to 8) (size 9 to 14) (size 15 to 20)
#    0.000    1.750    1.250    1.875    5.250    5.500 
#    6.750    0.000    0.000    0.000    0.000    0.000 
#    0.000    0.000    0.000    0.000    0.000    0.000 
#
# Total GULP energy -198355.903110 kJ/mol
# GULP energy per Si atom -12397.243944 kJ/mol
# Density = 2.154293 g / cm^3
# Si number density = 21.592071 Si / 1000 Ang^3
#
#
#
# Elastic Constant Matrix: (Units=GPa)
#
#
# Indices 1 2 3 4 5 6 
#
# 1 115.0373 59.6534 44.8786 6.5763 -14.5250 8.2242
# 2 59.6534 144.6061 34.1082 10.4813 -26.9715 1.8175
# 3 44.8786 34.1082 56.6024 -0.1927 -15.7938 -7.9010
# 4 6.5763 10.4813 -0.1927 37.1994 -1.6275 -6.4179
# 5 -14.5250 -26.9715 -15.7938 -1.6275 34.7049 -8.5681
# 6 8.2242 1.8175 -7.9010 -6.4179 -8.5681 53.6768
#
#
#
# Elastic Compliance Matrix: (Units=1/GPa)
#
#
# Indices 1 2 3 4 5 6 
#
# 1 0.015197 -0.003962 -0.011174 -0.002562 -0.003068 -0.004635
# 2 -0.003962 0.010010 -0.001198 -0.001741 0.005690 0.000792
# 3 -0.011174 -0.001198 0.031584 0.004466 0.011126 0.008712
# 4 -0.002562 -0.001741 0.004466 0.028788 0.002166 0.004897
# 5 -0.003068 0.005690 0.011126 0.002166 0.039198 0.008431
# 6 -0.004635 0.000792 0.008712 0.004897 0.008431 0.022527
#
#
# Mechanical properties :
#
#
# Convention : Reuss Voigt Hill
#
# Bulk Modulus (GPa) = 41.45401 65.94736 53.70068
# Shear Modulus (GPa) = 26.59385 36.95659 31.77522
#
# Velocity S-wave (km/s) = 3.51329 4.14161 3.84033
# Velocity P-wave (km/s) = 5.97478 7.31296 6.67748
#
# Compressibility (1/GPa) = 0.02412312
#
# Stress axis : x y z
#
# Youngs Moduli (GPa) = 65.80349 99.90240 31.66127
#
# Poissons Ratio (x) = 0.39579 0.35377
# Poissons Ratio (y) = 0.26070 0.03794
# Poissons Ratio (z) = 0.73526 0.11973
#
# Static dielectric constant tensor:
#      x y z
#    x 4.114120 -0.047980 0.072570 
#    y -0.047980 4.340320 -0.200670 
#    z 0.072570 -0.200670 3.653410 
# 
# 
# High freq. dielectric constant tensor:
#      x y z
#    x 1.859590 0.000170 -0.001980 
#    y 0.000170 1.868170 -0.011820 
#    z -0.001980 -0.011820 1.828100 
# 
# From -- ./inp_files/447059.got.cif
#   From: 2010.06.25/outbox.cif.g09.slc.cpg/sg2_224_cif.got.tgz:447059.got - 2010.06.27 13:26:56.
