data_PCOD8018399
_publ_section_title
;
Structure prediction by ZEFSAII (Michael W. Deem and Ramdas Pophale) SiO2 
 PCOD8018399
Probable space group: P -1
;
_chemical_formula_sum "Si O2"
_cell_formula_units_Z 14
_cell_length_a 5.129595
_cell_length_b 11.536999
_cell_length_c 12.348564
_cell_angle_alpha 113.864452
_cell_angle_beta 71.197643
_cell_angle_gamma 101.664162
_cell_volume 630.468784
_symmetry_space_group_name_H-M "P -1"
_symmetry_group_IT_number 2
_symmetry_cell_setting 'triclinic'
loop_
_space_group_symop_operation_xyz
x,y,z
-x,-y,-z
loop_
_atom_site_type_symbol
_atom_site_label
_atom_site_fract_x
_atom_site_fract_y
_atom_site_fract_z
Si Si1 0.700572 0.847815 0.752894
Si Si2 0.598833 0.120743 0.608015
Si Si3 0.901334 0.717316 0.030938
Si Si4 0.660588 0.638228 0.254344
Si Si5 0.258126 0.008284 0.804116
Si Si6 0.798378 0.815628 0.484708
Si Si7 0.503830 0.646417 0.871813
O O1 0.703617 0.787641 0.609294
O O2 0.684124 0.732016 0.794745
O O3 0.428818 0.927153 0.835257
O O4 0.984586 0.932000 0.766863
O O5 0.584124 0.269815 0.699036
O O6 0.487049 0.037136 0.692230
O O7 0.410792 0.092778 0.513527
O O8 0.911646 0.102381 0.530510
O O9 0.875401 0.662382 0.135355
O O10 0.835791 0.863862 0.081179
O O11 0.684622 0.635804 0.952260
O O12 0.215615 0.705629 0.951931
O O13 0.802142 0.682950 0.367248
O O14 0.546320 0.493265 0.224684
#
# Coordination Sequence:
#
# PCOD8018399 Si02
#       7
#     2   2   2   2   2   2   2
#     4  12  26  41  62  98 128 176 198 248 320 392
#     4   9  21  39  65  95 122 162 202 268 308 352
#     4  11  25  43  68  93 119 170 214 269 304 357
#     4   9  24  42  69  96 123 159 213 271 308 362
#     4  11  24  43  65  92 132 159 218 256 312 368
#     4  10  22  40  65  99 126 158 212 252 328 363
#     4  12  26  42  66  92 132 166 211 251 318 376
#
# _framework density 22.205701000000001
#
# number of rings (size 3 to 8) (size 9 to 14) (size 15 to 20)
#    0.857    0.571    0.000    4.286    6.000    7.429 
#    0.000    0.714    0.000    0.000    0.000    0.000 
#    0.000    0.000    0.000    0.000    0.000    0.000 
#
# Total GULP energy -173583.647498 kJ/mol
# GULP energy per Si atom -12398.831964 kJ/mol
# Density = 2.215516 g / cm^3
# Si number density = 22.205701 Si / 1000 Ang^3
#
#
#
# Elastic Constant Matrix: (Units=GPa)
#
#
# Indices 1 2 3 4 5 6 
#
# 1 114.6961 9.1648 29.6848 -2.1057 2.1313 14.5989
# 2 9.1648 98.9177 35.1382 6.2488 2.1798 11.4003
# 3 29.6848 35.1382 86.6700 9.5565 0.3067 10.0391
# 4 -2.1057 6.2488 9.5565 22.5598 5.3913 6.6202
# 5 2.1313 2.1798 0.3067 5.3913 29.7276 3.6023
# 6 14.5989 11.4003 10.0391 6.6202 3.6023 25.4822
#
#
#
# Elastic Compliance Matrix: (Units=1/GPa)
#
#
# Indices 1 2 3 4 5 6 
#
# 1 0.010448 0.000763 -0.003673 0.004238 -0.000825 -0.005864
# 2 0.000763 0.012190 -0.004740 -0.000038 -0.000413 -0.003955
# 3 -0.003673 -0.004740 0.015414 -0.005766 0.001567 -0.000571
# 4 0.004238 -0.000038 -0.005766 0.052886 -0.008293 -0.012706
# 5 -0.000825 -0.000413 0.001567 -0.008293 0.035559 -0.002832
# 6 -0.005864 -0.003955 -0.000571 -0.012706 -0.002832 0.048299
#
#
# Mechanical properties :
#
#
# Convention : Reuss Voigt Hill
#
# Bulk Modulus (GPa) = 43.95076 49.80661 46.87869
# Shear Modulus (GPa) = 25.29360 30.64031 27.96696
#
# Velocity S-wave (km/s) = 3.37866 3.71865 3.55272
# Velocity P-wave (km/s) = 5.92081 6.39657 6.16328
#
# Compressibility (1/GPa) = 0.02275274
#
# Stress axis : x y z
#
# Youngs Moduli (GPa) = 95.71324 82.03664 64.87620
#
# Poissons Ratio (x) = -0.06260 0.23828
# Poissons Ratio (y) = -0.07303 0.30749
# Poissons Ratio (z) = 0.35154 0.38882
#
# Static dielectric constant tensor:
#      x y z
#    x 3.948850 -0.056910 0.031550 
#    y -0.056910 3.841990 0.177940 
#    z 0.031550 0.177940 4.074810 
# 
# 
# High freq. dielectric constant tensor:
#      x y z
#    x 1.882850 0.000320 -0.001390 
#    y 0.000320 1.868640 0.014680 
#    z -0.001390 0.014680 1.884150 
# 
# From -- ./inp_files/364957.got.cif
#   From: 2010.06.25/outbox.cif.g09.slc.cpg/sg2_183_cif.got.tgz:364957.got - 2010.06.27 13:26:56.
