data_PCOD8018690
_publ_section_title
;
Structure prediction by ZEFSAII (Michael W. Deem and Ramdas Pophale) SiO2 
 PCOD8018690
Probable space group: P -1
;
_chemical_formula_sum "Si O2"
_cell_formula_units_Z 12
_cell_length_a 5.174532
_cell_length_b 22.515607
_cell_length_c 8.912425
_cell_angle_alpha 29.413478
_cell_angle_beta 79.129022
_cell_angle_gamma 75.713915
_cell_volume 493.422431
_symmetry_space_group_name_H-M "P -1"
_symmetry_group_IT_number 2
_symmetry_cell_setting 'triclinic'
loop_
_space_group_symop_operation_xyz
x,y,z
-x,-y,-z
loop_
_atom_site_type_symbol
_atom_site_label
_atom_site_fract_x
_atom_site_fract_y
_atom_site_fract_z
Si Si1 0.477320 0.292777 0.703958
Si Si2 0.239652 0.952688 0.689876
Si Si3 0.110122 0.348098 0.877407
Si Si4 0.894673 0.874922 0.416535
Si Si5 0.538227 0.440434 0.825974
Si Si6 0.535806 0.216256 0.534144
O O1 0.191459 0.307703 0.787489
O O2 0.576946 0.424046 0.396182
O O3 0.428563 0.243105 0.654011
O O4 0.696315 0.195752 0.984386
O O5 0.500000 0.000000 0.500000
O O6 0.174636 0.997040 0.769901
O O7 0.000000 0.000000 0.500000
O O8 0.355991 0.404810 0.792283
O O9 0.831999 0.443584 0.713178
O O10 0.063951 0.228557 0.233830
O O11 0.662004 0.859234 0.361656
O O12 0.172247 0.869000 0.309470
O O13 0.548300 0.346573 0.168744
#
# Coordination Sequence:
#
# PCOD8018690 Si02
#       6
#     2   2   2   2   2   2
#     4  12  25  42  70 103 132 176 225 270 333 391
#     4  12  27  44  70  98 132 173 228 281 314 391
#     4  10  22  40  69  94 135 173 220 272 324 393
#     4  10  22  46  64  94 136 177 216 267 337 379
#     4  10  23  43  65 101 136 173 213 274 335 395
#     4  10  24  42  70  97 138 172 212 275 333 403
#
# _framework density 24.319932000000001
#
# number of rings (size 3 to 8) (size 9 to 14) (size 15 to 20)
#    0.000    1.333    1.667    2.500    4.667    6.667 
#    0.000    5.000    0.000    0.000    0.000    0.000 
#    0.000    0.000    0.000    0.000    0.000    0.000 
#
# Total GULP energy -148862.929667 kJ/mol
# GULP energy per Si atom -12405.244139 kJ/mol
# Density = 2.426458 g / cm^3
# Si number density = 24.319932 Si / 1000 Ang^3
#
#
#
# Elastic Constant Matrix: (Units=GPa)
#
#
# Indices 1 2 3 4 5 6 
#
# 1 157.6151 53.5293 45.5142 4.6798 1.2545 -6.3405
# 2 53.5293 155.2425 33.7384 12.2256 -1.4524 -20.7259
# 3 45.5142 33.7384 56.3584 -3.1226 16.4106 -11.0413
# 4 4.6798 12.2256 -3.1226 49.6042 -6.9142 2.6648
# 5 1.2545 -1.4524 16.4106 -6.9142 32.1344 -4.7320
# 6 -6.3405 -20.7259 -11.0413 2.6648 -4.7320 29.9936
#
#
#
# Elastic Compliance Matrix: (Units=1/GPa)
#
#
# Indices 1 2 3 4 5 6 
#
# 1 0.008986 -0.001596 -0.007513 -0.000416 0.003112 -0.001441
# 2 -0.001596 0.008666 -0.003846 -0.002115 0.002677 0.004845
# 3 -0.007513 -0.003846 0.031499 0.001291 -0.014971 0.004873
# 4 -0.000416 -0.002115 0.001291 0.021421 0.003514 -0.002423
# 5 0.003112 0.002677 -0.014971 0.003514 0.039961 0.002989
# 6 -0.001441 0.004845 0.004873 -0.002423 0.002989 0.038864
#
#
# Mechanical properties :
#
#
# Convention : Reuss Voigt Hill
#
# Bulk Modulus (GPa) = 43.02830 70.53107 56.77968
# Shear Modulus (GPa) = 27.31430 38.10873 32.71151
#
# Velocity S-wave (km/s) = 3.35494 3.96280 3.67147
# Velocity P-wave (km/s) = 5.72176 7.07126 6.43200
#
# Compressibility (1/GPa) = 0.02324052
#
# Stress axis : x y z
#
# Youngs Moduli (GPa) = 111.28773 115.38991 31.74713
#
# Poissons Ratio (x) = 0.18418 0.23851
# Poissons Ratio (y) = 0.17763 0.12211
# Poissons Ratio (z) = 0.83608 0.44382
#
# Static dielectric constant tensor:
#      x y z
#    x 4.289580 -0.262330 0.156600 
#    y -0.262330 4.365180 -0.141480 
#    z 0.156600 -0.141480 4.736060 
# 
# 
# High freq. dielectric constant tensor:
#      x y z
#    x 1.960200 -0.010080 0.005430 
#    y -0.010080 1.968230 -0.003280 
#    z 0.005430 -0.003280 1.997490 
# 
# From -- ./inp_files/141945.got.cif
#   From: 2010.06.25/outbox.cif.g09.slc.cpg/sg2_71_cif.got.tgz:141945.got - 2010.06.27 13:26:56.
