data_PCOD8018387
_publ_section_title
;
Structure prediction by ZEFSAII (Michael W. Deem and Ramdas Pophale) SiO2 
 PCOD8018387
Probable space group: P -1
;
_chemical_formula_sum "Si O2"
_cell_formula_units_Z 16
_cell_length_a 12.068400
_cell_length_b 9.002665
_cell_length_c 15.398933
_cell_angle_alpha 79.005999
_cell_angle_beta 155.477443
_cell_angle_gamma 101.518162
_cell_volume 680.253428
_symmetry_space_group_name_H-M "P -1"
_symmetry_group_IT_number 2
_symmetry_cell_setting 'triclinic'
loop_
_space_group_symop_operation_xyz
x,y,z
-x,-y,-z
loop_
_atom_site_type_symbol
_atom_site_label
_atom_site_fract_x
_atom_site_fract_y
_atom_site_fract_z
Si Si1 0.771032 0.931730 0.782964
Si Si2 0.782456 0.593944 0.790243
Si Si3 0.240542 0.454112 0.419757
Si Si4 0.736838 0.344870 0.265051
Si Si5 0.152433 0.374669 0.778925
Si Si6 0.550422 0.104990 0.278138
Si Si7 0.022354 0.063447 0.789665
Si Si8 0.912775 0.850253 0.584412
O O1 0.863609 0.769902 0.837316
O O2 0.767863 0.031417 0.679619
O O3 0.500505 0.916145 0.651209
O O4 0.000000 0.000000 0.000000
O O5 0.488064 0.557113 0.625458
O O6 0.766033 0.535892 0.688081
O O7 0.000000 0.500000 0.000000
O O8 0.281798 0.284672 0.500636
O O9 0.957284 0.514026 0.239352
O O10 0.867833 0.521533 0.336300
O O11 0.894569 0.219414 0.340263
O O12 0.691793 0.273672 0.337686
O O13 0.458297 0.346196 0.015668
O O14 0.982373 0.211921 0.683346
O O15 0.737388 0.972202 0.397931
O O16 0.280559 0.087772 0.031892
O O17 0.065670 0.927880 0.768245
#
# Coordination Sequence:
#
# PCOD8018387 Si02
#       8
#     2   2   2   2   2   2   2   2
#     4  10  23  41  64 100 131 168 214 259 335 392
#     4  11  25  41  65  94 135 175 214 265 325 394
#     4  10  24  41  63  97 130 171 221 261 327 386
#     4   9  20  42  65  91 128 173 220 268 325 369
#     4   9  20  40  66  90 127 169 214 275 311 385
#     4  10  23  38  66  93 133 167 215 268 321 392
#     4  10  22  40  65  96 128 169 218 265 333 379
#     4  11  22  40  67  94 128 172 218 274 318 384
#
# _framework density 23.520645999999999
#
# number of rings (size 3 to 8) (size 9 to 14) (size 15 to 20)
#    0.000    2.000    1.250    0.375   10.500    3.500 
#    0.000    0.625    2.750    0.000    0.000    0.000 
#    0.000    0.000    0.000    0.000    0.000    0.000 
#
# Total GULP energy -198217.438845 kJ/mol
# GULP energy per Si atom -12388.589928 kJ/mol
# Density = 2.346711 g / cm^3
# Si number density = 23.520646 Si / 1000 Ang^3
#
#
#
# Elastic Constant Matrix: (Units=GPa)
#
#
# Indices 1 2 3 4 5 6 
#
# 1 106.0593 51.0177 44.0756 -16.7160 4.6007 33.9833
# 2 51.0177 164.1617 36.5655 -15.6115 2.3502 39.6288
# 3 44.0756 36.5655 52.7140 -19.6562 0.5946 18.5219
# 4 -16.7160 -15.6115 -19.6562 36.1470 -1.6169 0.9234
# 5 4.6007 2.3502 0.5946 -1.6169 35.3333 -5.6042
# 6 33.9833 39.6288 18.5219 0.9234 -5.6042 43.9769
#
#
#
# Elastic Compliance Matrix: (Units=1/GPa)
#
#
# Indices 1 2 3 4 5 6 
#
# 1 0.017289 -0.000720 -0.009840 0.002414 -0.003362 -0.009047
# 2 -0.000720 0.008615 -0.002227 0.002281 -0.001367 -0.006491
# 3 -0.009840 -0.002227 0.036118 0.014302 0.000551 -0.005832
# 4 0.002414 0.002281 0.014302 0.037789 -0.000695 -0.010827
# 5 -0.003362 -0.001367 0.000551 -0.000695 0.029968 0.007431
# 6 -0.009047 -0.006491 -0.005832 -0.010827 0.007431 0.039210
#
#
# Mechanical properties :
#
#
# Convention : Reuss Voigt Hill
#
# Bulk Modulus (GPa) = 27.43572 65.13917 46.28744
# Shear Modulus (GPa) = 24.18823 35.84318 30.01570
#
# Velocity S-wave (km/s) = 3.21032 3.90795 3.57619
# Velocity P-wave (km/s) = 5.04295 6.93667 6.06419
#
# Compressibility (1/GPa) = 0.03644884
#
# Stress axis : x y z
#
# Youngs Moduli (GPa) = 57.83978 116.08014 27.68686
#
# Poissons Ratio (x) = 0.08355 0.27243
# Poissons Ratio (y) = 0.04163 0.06166
# Poissons Ratio (z) = 0.56913 0.25852
#
# Static dielectric constant tensor:
#      x y z
#    x 4.631150 0.691300 0.111480 
#    y 0.691300 4.975310 0.219120 
#    z 0.111480 0.219120 4.271980 
# 
# 
# High freq. dielectric constant tensor:
#      x y z
#    x 1.933900 0.026230 0.004690 
#    y 0.026230 1.950930 -0.002930 
#    z 0.004690 -0.002930 1.929390 
# 
# From -- ./inp_files/515468.got.cif
#   From: 2010.06.25/outbox.cif.g09.slc.cpg/sg2_258_cif.got.tgz:515468.got - 2010.06.27 13:26:56.
