data_PCOD8018486
_publ_section_title
;
Structure prediction by ZEFSAII (Michael W. Deem and Ramdas Pophale) SiO2 
 PCOD8018486
Probable space group: P -1
;
_chemical_formula_sum "Si O2"
_cell_formula_units_Z 12
_cell_length_a 9.584264
_cell_length_b 8.701199
_cell_length_c 9.256984
_cell_angle_alpha 135.558571
_cell_angle_beta 68.883197
_cell_angle_gamma 92.364955
_cell_volume 475.870875
_symmetry_space_group_name_H-M "P -1"
_symmetry_group_IT_number 2
_symmetry_cell_setting 'triclinic'
loop_
_space_group_symop_operation_xyz
x,y,z
-x,-y,-z
loop_
_atom_site_type_symbol
_atom_site_label
_atom_site_fract_x
_atom_site_fract_y
_atom_site_fract_z
Si Si1 0.352112 0.722730 0.227145
Si Si2 0.965887 0.077781 0.904055
Si Si3 0.539943 0.975590 0.799979
Si Si4 0.758342 0.572662 0.290946
Si Si5 0.295503 0.113459 0.733995
Si Si6 0.983845 0.228224 0.569631
O O1 0.335666 0.890602 0.203568
O O2 0.204678 0.632426 0.255300
O O3 0.382058 0.877565 0.452632
O O4 0.500000 0.500000 0.000000
O O5 0.800751 0.294221 0.096207
O O6 0.110931 0.149877 0.839406
O O7 0.000000 0.000000 0.000000
O O8 0.956310 0.852352 0.669361
O O9 0.379899 0.092849 0.844298
O O10 0.623640 0.702285 0.546215
O O11 0.500000 0.000000 0.000000
O O12 0.697659 0.664457 0.214327
O O13 0.922868 0.615790 0.294567
O O14 0.000000 0.000000 0.500000
#
# Coordination Sequence:
#
# PCOD8018486 Si02
#       6
#     2   2   2   2   2   2
#     4  10  22  40  66  98 131 178 223 272 325 410
#     4  11  26  42  68 104 136 172 224 286 340 394
#     4  11  25  43  65 101 137 173 222 281 347 393
#     4  11  23  47  70  96 137 185 221 281 331 404
#     4  10  23  45  64  97 135 177 229 269 336 411
#     4  11  22  41  69 100 130 174 238 262 330 411
#
# _framework density 25.216926000000001
#
# number of rings (size 3 to 8) (size 9 to 14) (size 15 to 20)
#    0.000    1.333    5.000    2.500    4.667    4.667 
#    0.000    1.667    0.000    0.000    0.000    0.000 
#    0.000    0.000    0.000    0.000    0.000    0.000 
#
# Total GULP energy -148755.870040 kJ/mol
# GULP energy per Si atom -12396.322503 kJ/mol
# Density = 2.515953 g / cm^3
# Si number density = 25.216926 Si / 1000 Ang^3
#
#
#
# Elastic Constant Matrix: (Units=GPa)
#
#
# Indices 1 2 3 4 5 6 
#
# 1 91.0118 12.5766 28.2599 -2.2269 10.4100 -24.9297
# 2 12.5766 82.6649 61.4960 -17.3231 3.5545 -30.5694
# 3 28.2599 61.4960 174.8695 -10.7173 -14.9443 -35.3400
# 4 -2.2269 -17.3231 -10.7173 48.7988 -21.7520 1.2743
# 5 10.4100 3.5545 -14.9443 -21.7520 33.6284 -1.1169
# 6 -24.9297 -30.5694 -35.3400 1.2743 -1.1169 37.5873
#
#
#
# Elastic Compliance Matrix: (Units=1/GPa)
#
#
# Indices 1 2 3 4 5 6 
#
# 1 0.014695 0.002860 -0.002061 -0.002038 -0.006753 0.010003
# 2 0.002860 0.022248 -0.004942 0.006113 -0.000977 0.015109
# 3 -0.002061 -0.004942 0.009391 0.003585 0.007771 0.003553
# 4 -0.002038 0.006113 0.003585 0.033704 0.023596 0.006549
# 5 -0.006753 -0.000977 0.007771 0.023596 0.050738 0.002740
# 6 0.010003 0.015109 0.003553 0.006549 0.002740 0.048727
#
#
# Mechanical properties :
#
#
# Convention : Reuss Voigt Hill
#
# Bulk Modulus (GPa) = 26.28184 61.46790 43.87487
# Shear Modulus (GPa) = 24.94106 40.41714 32.67910
#
# Velocity S-wave (km/s) = 3.14834 4.00781 3.60379
# Velocity P-wave (km/s) = 4.86426 6.77092 5.89518
#
# Compressibility (1/GPa) = 0.03804908
#
# Stress axis : x y z
#
# Youngs Moduli (GPa) = 68.05069 44.94695 106.48055
#
# Poissons Ratio (x) = -0.12854 0.21946
# Poissons Ratio (y) = -0.19462 0.52619
# Poissons Ratio (z) = 0.14026 0.22211
#
# Static dielectric constant tensor:
#      x y z
#    x 19.251440 0.011130 18.033680 
#    y 0.011130 4.452530 -0.437220 
#    z 18.033680 -0.437220 29.042700 
# 
# 
# High freq. dielectric constant tensor:
#      x y z
#    x 2.016370 -0.014110 -0.006870 
#    y -0.014110 1.963850 0.003900 
#    z -0.006870 0.003900 2.031330 
# 
# From -- ./inp_files/241217.got.cif
#   From: 2010.06.25/outbox.cif.g09.slc.cpg/sg2_121_cif.got.tgz:241217.got - 2010.06.27 13:26:56.
