data_PCOD8018728
_publ_section_title
;
Structure prediction by ZEFSAII (Michael W. Deem and Ramdas Pophale) SiO2 
 PCOD8018728
Probable space group: P -1
;
_chemical_formula_sum "Si O2"
_cell_formula_units_Z 14
_cell_length_a 5.260972
_cell_length_b 13.616229
_cell_length_c 7.732554
_cell_angle_alpha 73.419313
_cell_angle_beta 97.397952
_cell_angle_gamma 67.160544
_cell_volume 470.929247
_symmetry_space_group_name_H-M "P -1"
_symmetry_group_IT_number 2
_symmetry_cell_setting 'triclinic'
loop_
_space_group_symop_operation_xyz
x,y,z
-x,-y,-z
loop_
_atom_site_type_symbol
_atom_site_label
_atom_site_fract_x
_atom_site_fract_y
_atom_site_fract_z
Si Si1 0.770460 0.621692 0.993142
Si Si2 0.302982 0.056811 0.683888
Si Si3 0.976299 0.251063 0.829542
Si Si4 0.030168 0.058711 0.145678
Si Si5 0.837388 0.738631 0.638812
Si Si6 0.377821 0.530738 0.757850
Si Si7 0.640874 0.605677 0.465497
O O1 0.652169 0.722610 0.787767
O O2 0.523224 0.579386 0.044343
O O3 0.000000 0.500000 0.000000
O O4 0.873312 0.668501 0.144575
O O5 0.209043 0.131897 0.458063
O O6 0.197296 0.142422 0.794434
O O7 0.642653 0.991494 0.741639
O O8 0.161956 0.968420 0.715485
O O9 0.689713 0.323665 0.661058
O O10 0.911985 0.195237 0.028224
O O11 0.000000 0.000000 0.000000
O O12 0.758694 0.697968 0.468028
O O13 0.165768 0.653762 0.754467
O O14 0.639902 0.540930 0.680630
O O15 0.199218 0.492303 0.617001
#
# Coordination Sequence:
#
# PCOD8018728 Si02
#       7
#     2   2   2   2   2   2   2
#     4  10  25  42  61  91 142 176 215 268 340 410
#     4  11  22  41  72 101 129 174 234 286 339 398
#     4  11  22  43  66  99 131 172 222 281 337 397
#     4  10  22  40  70 102 132 165 231 296 340 391
#     4  11  22  42  61  91 136 173 219 274 338 400
#     4  10  23  38  61  92 128 170 228 270 331 390
#     4  11  23  37  68  93 124 175 232 276 330 396
#
# _framework density 29.728456000000001
#
# number of rings (size 3 to 8) (size 9 to 14) (size 15 to 20)
#    0.000    1.429    1.429    4.714    8.000    1.714 
#    2.571    1.429    0.000    0.000    0.000    1.000 
#    0.000    0.000    0.000    0.000    0.000    0.000 
#
# Total GULP energy -173440.855141 kJ/mol
# GULP energy per Si atom -12388.632510 kJ/mol
# Density = 2.966079 g / cm^3
# Si number density = 29.728456 Si / 1000 Ang^3
#
#
#
# Elastic Constant Matrix: (Units=GPa)
#
#
# Indices 1 2 3 4 5 6 
#
# 1 110.1645 38.7719 47.1214 -20.9201 -12.8398 30.6461
# 2 38.7719 111.3465 22.1484 -14.2537 -0.0241 22.1182
# 3 47.1214 22.1484 121.4848 -57.1566 -21.8842 -2.6393
# 4 -20.9201 -14.2537 -57.1566 55.0084 21.2705 -14.9461
# 5 -12.8398 -0.0241 -21.8842 21.2705 52.8025 -12.4100
# 6 30.6461 22.1182 -2.6393 -14.9461 -12.4100 36.2678
#
#
#
# Elastic Compliance Matrix: (Units=1/GPa)
#
#
# Indices 1 2 3 4 5 6 
#
# 1 0.019116 -0.001086 -0.014257 -0.013504 -0.001102 -0.022470
# 2 -0.001086 0.011325 -0.003206 -0.001932 -0.002674 -0.007934
# 3 -0.014257 -0.003206 0.031460 0.033637 0.003379 0.031310
# 4 -0.013504 -0.001932 0.033637 0.059530 -0.004376 0.038072
# 5 -0.001102 -0.002674 0.003379 -0.004376 0.023999 0.009217
# 6 -0.022470 -0.007934 0.031310 0.038072 0.009217 0.072520
#
#
# Mechanical properties :
#
#
# Convention : Reuss Voigt Hill
#
# Bulk Modulus (GPa) = 40.31778 62.11990 51.21884
# Shear Modulus (GPa) = 18.98865 44.47935 31.73400
#
# Velocity S-wave (km/s) = 2.53007 3.87226 3.27075
# Velocity P-wave (km/s) = 4.70387 6.39794 5.61516
#
# Compressibility (1/GPa) = 0.02480295
#
# Stress axis : x y z
#
# Youngs Moduli (GPa) = 52.31328 88.30063 31.78595
#
# Poissons Ratio (x) = 0.09587 0.45317
# Poissons Ratio (y) = 0.05680 0.10192
# Poissons Ratio (z) = 0.74582 0.28313
#
# Static dielectric constant tensor:
#      x y z
#    x 5.559630 0.575190 -0.924210 
#    y 0.575190 5.882740 -0.148900 
#    z -0.924210 -0.148900 6.696020 
# 
# 
# High freq. dielectric constant tensor:
#      x y z
#    x 2.199790 0.026150 -0.017200 
#    y 0.026150 2.217310 -0.003200 
#    z -0.017200 -0.003200 2.240630 
# 
# From -- ./inp_files/134089.got.cif
#   From: 2010.06.25/outbox.cif.g09.slc.cpg/sg2_68_cif.got.tgz:134089.got - 2010.06.27 13:26:56.
