data_PCOD8018112
_publ_section_title
;
Structure prediction by ZEFSAII (Michael W. Deem and Ramdas Pophale) SiO2 
 PCOD8018112
Probable space group: P -1
;
_chemical_formula_sum "Si O2"
_cell_formula_units_Z 16
_cell_length_a 12.827227
_cell_length_b 10.407185
_cell_length_c 18.893139
_cell_angle_alpha 145.486705
_cell_angle_beta 34.326780
_cell_angle_gamma 144.363388
_cell_volume 733.587325
_symmetry_space_group_name_H-M "P -1"
_symmetry_group_IT_number 2
_symmetry_cell_setting 'triclinic'
loop_
_space_group_symop_operation_xyz
x,y,z
-x,-y,-z
loop_
_atom_site_type_symbol
_atom_site_label
_atom_site_fract_x
_atom_site_fract_y
_atom_site_fract_z
Si Si1 0.729601 0.035437 0.966888
Si Si2 0.715461 0.125520 0.176038
Si Si3 0.272722 0.674471 0.032186
Si Si4 0.281463 0.163774 0.824640
Si Si5 0.983639 0.665058 0.305220
Si Si6 0.012629 0.781951 0.696942
Si Si7 0.284734 0.752206 0.407653
Si Si8 0.281314 0.036352 0.409147
O O1 0.883926 0.923974 0.799599
O O2 0.750561 0.270780 0.012898
O O3 0.501818 0.826635 0.998180
O O4 0.791728 0.113657 0.048678
O O5 0.878164 0.367588 0.233645
O O6 0.498616 0.139313 0.295347
O O7 0.698480 0.888309 0.126326
O O8 0.121357 0.758391 0.199798
O O9 0.208890 0.383609 0.951911
O O10 0.495757 0.247568 0.701966
O O11 0.114911 0.908998 0.770419
O O12 0.803505 0.754775 0.449415
O O13 0.128682 0.778343 0.342167
O O14 0.192864 0.788640 0.548908
O O15 0.858827 0.497583 0.666574
O O16 0.313642 0.986949 0.449803
#
# Coordination Sequence:
#
# PCOD8018112 Si02
#       8
#     2   2   2   2   2   2   2   2
#     4  11  24  43  65  93 127 167 212 260 313 372
#     4  11  24  42  66  96 127 164 210 259 313 375
#     4  11  24  43  65  93 127 167 212 260 313 372
#     4  11  24  42  66  96 127 164 210 259 313 375
#     4  11  22  40  65  92 124 169 210 256 307 378
#     4  11  22  40  65  92 124 169 210 256 307 378
#     4  10  22  40  62  92 128 165 206 259 312 367
#     4  10  22  40  62  92 128 165 206 259 312 367
#
# _framework density 21.810627
#
# number of rings (size 3 to 8) (size 9 to 14) (size 15 to 20)
#    0.000    1.250    2.500    3.000    0.000    6.500 
#    0.000    1.250    0.000    0.000    0.000    0.000 
#    0.000    0.000    0.000    0.000    0.000    0.000 
#
# Total GULP energy -198406.956551 kJ/mol
# GULP energy per Si atom -12400.434784 kJ/mol
# Density = 2.176099 g / cm^3
# Si number density = 21.810627 Si / 1000 Ang^3
#
#
#
# Elastic Constant Matrix: (Units=GPa)
#
#
# Indices 1 2 3 4 5 6 
#
# 1 75.0036 31.3726 39.0375 -0.7507 6.1451 -12.2059
# 2 31.3726 66.8452 34.3801 9.0358 -5.0555 -5.8436
# 3 39.0375 34.3801 108.4797 -6.7165 -9.9777 -6.2417
# 4 -0.7507 9.0358 -6.7165 24.8086 17.7916 -2.9175
# 5 6.1451 -5.0555 -9.9777 17.7916 20.4033 -1.2570
# 6 -12.2059 -5.8436 -6.2417 -2.9175 -1.2570 40.4760
#
#
#
# Elastic Compliance Matrix: (Units=1/GPa)
#
#
# Indices 1 2 3 4 5 6 
#
# 1 0.038583 -0.029615 -0.007326 0.071478 -0.084329 0.008763
# 2 -0.029615 0.049115 -0.001732 -0.091236 0.099455 -0.005595
# 3 -0.007326 -0.001732 0.013232 -0.005212 0.012768 -0.000398
# 4 0.071478 -0.091236 -0.005212 0.291435 -0.299624 0.019281
# 5 -0.084329 0.099455 0.012768 -0.299624 0.365375 -0.019353
# 6 0.008763 -0.005595 -0.000398 0.019281 -0.019353 0.027268
#
#
# Mechanical properties :
#
#
# Convention : Reuss Voigt Hill
#
# Bulk Modulus (GPa) = 42.39696 51.10102 46.74899
# Shear Modulus (GPa) = 5.74570 26.84013 16.29292
#
# Velocity S-wave (km/s) = 1.62483 3.51179 2.73613
# Velocity P-wave (km/s) = 4.79593 6.31853 5.60914
#
# Compressibility (1/GPa) = 0.02358659
#
# Stress axis : x y z
#
# Youngs Moduli (GPa) = 25.91787 20.36021 75.57280
#
# Poissons Ratio (x) = 0.60296 0.55362
# Poissons Ratio (y) = 0.76755 0.13090
# Poissons Ratio (z) = 0.18986 0.03527
#
# Static dielectric constant tensor:
#      x y z
#    x 3.781560 0.202190 -0.142320 
#    y 0.202190 3.837840 -0.144480 
#    z -0.142320 -0.144480 3.980200 
# 
# 
# High freq. dielectric constant tensor:
#      x y z
#    x 1.855770 0.014280 -0.012220 
#    y 0.014280 1.859330 -0.012420 
#    z -0.012220 -0.012420 1.861260 
# 
# From -- ./inp_files/567035.got.cif
#   From: 2010.06.25/outbox.cif.g09.slc.cpg/sg2_284_cif.got.tgz:567035.got - 2010.06.27 13:26:56.
