data_PCOD8018087
_publ_section_title
;
Structure prediction by ZEFSAII (Michael W. Deem and Ramdas Pophale) SiO2 
 PCOD8018087
Probable space group: P -1
;
_chemical_formula_sum "Si O2"
_cell_formula_units_Z 10
_cell_length_a 14.167947
_cell_length_b 11.576616
_cell_length_c 12.261199
_cell_angle_alpha 30.195799
_cell_angle_beta 31.239417
_cell_angle_gamma 20.144681
_cell_volume 337.141483
_symmetry_space_group_name_H-M "P -1"
_symmetry_group_IT_number 2
_symmetry_cell_setting 'triclinic'
loop_
_space_group_symop_operation_xyz
x,y,z
-x,-y,-z
loop_
_atom_site_type_symbol
_atom_site_label
_atom_site_fract_x
_atom_site_fract_y
_atom_site_fract_z
Si Si1 0.222553 0.967646 0.661448
Si Si2 0.530531 0.740860 0.978080
Si Si3 0.619835 0.124488 0.663356
Si Si4 0.001925 0.227269 0.226723
Si Si5 0.585714 0.675057 0.742542
O O1 0.231822 0.687839 0.911851
O O2 0.359790 0.843575 0.509275
O O3 0.392569 0.946431 0.607837
O O4 0.911343 0.370217 0.634946
O O5 0.222087 0.925311 0.162774
O O6 0.530500 0.864274 0.757730
O O7 0.596267 0.866895 0.904075
O O8 0.327073 0.531096 0.666416
O O9 0.890701 0.944226 0.615520
O O10 0.000000 0.500000 0.000000
O O11 0.500000 0.500000 0.000000
#
# Coordination Sequence:
#
# PCOD8018087 Si02
#       5
#     2   2   2   2   2
#     4  11  24  40  61  91 120 153 201 244 290 355
#     4  10  22  40  64  84 122 162 190 246 300 338
#     4  11  24  40  61  91 120 153 201 244 290 355
#     4  10  22  40  62  89 119 156 200 241 292 355
#     4  10  22  40  62  89 119 156 200 241 292 355
#
# _framework density 29.661137
#
# number of rings (size 3 to 8) (size 9 to 14) (size 15 to 20)
#    0.000    1.600    0.000    6.000    0.000   17.600 
#    0.000    0.000    0.000    0.000    0.000    0.000 
#    0.000    0.000    0.000    0.000    0.000    0.000 
#
# Total GULP energy -124046.444264 kJ/mol
# GULP energy per Si atom -12404.644426 kJ/mol
# Density = 2.959363 g / cm^3
# Si number density = 29.661137 Si / 1000 Ang^3
#
#
#
# Elastic Constant Matrix: (Units=GPa)
#
#
# Indices 1 2 3 4 5 6 
#
# 1 203.6362 88.2023 35.4716 2.8803 7.7699 -14.3078
# 2 88.2023 187.4790 49.4311 16.4015 12.1735 -22.9958
# 3 35.4716 49.4311 76.1495 -1.4012 26.9700 -13.1025
# 4 2.8803 16.4015 -1.4012 57.5753 5.0456 -0.3113
# 5 7.7699 12.1735 26.9700 5.0456 60.1422 3.6788
# 6 -14.3078 -22.9958 -13.1025 -0.3113 3.6788 57.4415
#
#
#
# Elastic Compliance Matrix: (Units=1/GPa)
#
#
# Indices 1 2 3 4 5 6 
#
# 1 0.006274 -0.002648 -0.001246 0.000390 0.000239 0.000205
# 2 -0.002648 0.007967 -0.003911 -0.002274 0.000577 0.001589
# 3 -0.001246 -0.003911 0.019789 0.002404 -0.008318 0.003184
# 4 0.000390 -0.002274 0.002404 0.018248 -0.002198 -0.000025
# 5 0.000239 0.000577 -0.008318 -0.002198 0.020574 -0.002936
# 6 0.000205 0.001589 0.003184 -0.000025 -0.002936 0.019010
#
#
# Mechanical properties :
#
#
# Convention : Reuss Voigt Hill
#
# Bulk Modulus (GPa) = 54.28591 90.38610 72.33600
# Shear Modulus (GPa) = 44.00884 54.64243 49.32563
#
# Velocity S-wave (km/s) = 3.85609 4.29677 4.08238
# Velocity P-wave (km/s) = 6.17800 7.42667 6.83092
#
# Compressibility (1/GPa) = 0.01842099
#
# Stress axis : x y z
#
# Youngs Moduli (GPa) = 159.37690 125.51383 50.53198
#
# Poissons Ratio (x) = 0.33234 0.06296
# Poissons Ratio (y) = 0.42200 0.19764
# Poissons Ratio (z) = 0.19858 0.49092
#
# Static dielectric constant tensor:
#      x y z
#    x 6.387610 0.213670 -0.060380 
#    y 0.213670 5.893420 0.279920 
#    z -0.060380 0.279920 7.082790 
# 
# 
# High freq. dielectric constant tensor:
#      x y z
#    x 2.235820 0.015010 -0.016970 
#    y 0.015010 2.203980 -0.025030 
#    z -0.016970 -0.025030 2.271590 
# 
# From -- ./inp_files/16174.got.cif
#   From: 2010.06.25/outbox.cif.g09.slc.cpg/sg2_9_cif.got.tgz:16174.got - 2010.06.27 13:26:56.
