data_PCOD8018526
_publ_section_title
;
Structure prediction by ZEFSAII (Michael W. Deem and Ramdas Pophale) SiO2 
 PCOD8018526
Probable space group: P -1
;
_chemical_formula_sum "Si O2"
_cell_formula_units_Z 12
_cell_length_a 15.104782
_cell_length_b 9.216134
_cell_length_c 14.155851
_cell_angle_alpha 113.064637
_cell_angle_beta 19.964620
_cell_angle_gamma 105.227479
_cell_volume 583.052723
_symmetry_space_group_name_H-M "P -1"
_symmetry_group_IT_number 2
_symmetry_cell_setting 'triclinic'
loop_
_space_group_symop_operation_xyz
x,y,z
-x,-y,-z
loop_
_atom_site_type_symbol
_atom_site_label
_atom_site_fract_x
_atom_site_fract_y
_atom_site_fract_z
Si Si1 0.763439 0.978120 0.167731
Si Si2 0.098526 0.002680 0.507208
Si Si3 0.279206 0.804128 0.913931
Si Si4 0.852010 0.682524 0.388151
Si Si5 0.613079 0.338982 0.780787
Si Si6 0.893399 0.650175 0.834427
O O1 0.690918 0.120431 0.197367
O O2 0.500000 0.000000 0.500000
O O3 0.860513 0.795242 0.979367
O O4 0.000000 0.000000 0.000000
O O5 0.229805 0.150762 0.421543
O O6 0.841851 0.044919 0.849700
O O7 0.000000 0.000000 0.500000
O O8 0.329359 0.826552 0.255829
O O9 0.577176 0.676932 0.612330
O O10 0.073590 0.695092 0.089717
O O11 0.982957 0.523999 0.281080
O O12 0.900113 0.339907 0.451605
O O13 0.500000 0.500000 0.000000
O O14 0.400337 0.337354 0.911449
#
# Coordination Sequence:
#
# PCOD8018526 Si02
#       6
#     2   2   2   2   2   2
#     4  12  25  45  73  97 125 179 230 278 341 386
#     4  10  23  40  65  94 134 177 218 258 334 396
#     4  10  22  44  62  94 131 168 214 275 324 394
#     4  10  22  40  67  89 137 167 212 264 342 376
#     4  12  25  41  67 100 141 178 223 264 330 401
#     4  12  24  46  65 100 137 172 223 288 318 400
#
# _framework density 20.581329
#
# number of rings (size 3 to 8) (size 9 to 14) (size 15 to 20)
#    1.000    0.000    1.667    5.500    2.333    0.667 
#    0.000    5.000    0.000    0.000    0.000    0.000 
#    0.000    0.000    0.000    0.000    0.000    0.000 
#
# Total GULP energy -148787.032085 kJ/mol
# GULP energy per Si atom -12398.919340 kJ/mol
# Density = 2.053448 g / cm^3
# Si number density = 20.581329 Si / 1000 Ang^3
#
#
#
# Elastic Constant Matrix: (Units=GPa)
#
#
# Indices 1 2 3 4 5 6 
#
# 1 113.5930 35.2653 42.3501 6.9030 -10.4125 -11.1506
# 2 35.2653 106.1903 35.6932 26.5138 -7.6398 -4.6965
# 3 42.3501 35.6932 111.9894 -2.5944 -14.6820 -4.6619
# 4 6.9030 26.5138 -2.5944 46.7857 -6.8193 -8.7160
# 5 -10.4125 -7.6398 -14.6820 -6.8193 48.8194 4.9840
# 6 -11.1506 -4.6965 -4.6619 -8.7160 4.9840 37.8224
#
#
#
# Elastic Compliance Matrix: (Units=1/GPa)
#
#
# Indices 1 2 3 4 5 6 
#
# 1 0.011067 -0.002483 -0.003183 0.000178 0.000784 0.002500
# 2 -0.002483 0.013266 -0.003579 -0.007647 -0.000473 -0.001226
# 3 -0.003183 -0.003579 0.011741 0.003651 0.002746 0.000544
# 4 0.000178 -0.007647 0.003651 0.027364 0.003206 0.005436
# 5 0.000784 -0.000473 0.002746 0.003206 0.022019 -0.001652
# 6 0.002500 -0.001226 0.000544 0.005436 -0.001652 0.028561
#
#
# Mechanical properties :
#
#
# Convention : Reuss Voigt Hill
#
# Bulk Modulus (GPa) = 56.86982 62.04331 59.45656
# Shear Modulus (GPa) = 36.13470 41.24979 38.69224
#
# Velocity S-wave (km/s) = 4.19466 4.48172 4.34056
# Velocity P-wave (km/s) = 7.15206 7.54930 7.35336
#
# Compressibility (1/GPa) = 0.01758402
#
# Stress axis : x y z
#
# Youngs Moduli (GPa) = 90.35605 75.38124 85.17054
#
# Poissons Ratio (x) = 0.18717 0.27109
# Poissons Ratio (y) = 0.22435 0.30486
# Poissons Ratio (z) = 0.28759 0.26982
#
# Static dielectric constant tensor:
#      x y z
#    x 3.635720 -0.011080 -0.075390 
#    y -0.011080 3.829790 -0.080010 
#    z -0.075390 -0.080010 3.762020 
# 
# 
# High freq. dielectric constant tensor:
#      x y z
#    x 1.800050 -0.010180 -0.011020 
#    y -0.010180 1.814530 -0.001290 
#    z -0.011020 -0.001290 1.814660 
# 
# From -- ./inp_files/40543.got.cif
#   From: 2010.06.25/outbox.cif.g09.slc.cpg/sg2_21_cif.got.tgz:40543.got - 2010.06.27 13:26:56.
