data_PCOD8018477
_publ_section_title
;
Structure prediction by ZEFSAII (Michael W. Deem and Ramdas Pophale) SiO2 
 PCOD8018477
Probable space group: P -1
;
_chemical_formula_sum "Si O2"
_cell_formula_units_Z 16
_cell_length_a 15.261046
_cell_length_b 8.875982
_cell_length_c 26.934877
_cell_angle_alpha 51.253361
_cell_angle_beta 161.956699
_cell_angle_gamma 118.774245
_cell_volume 777.562858
_symmetry_space_group_name_H-M "P -1"
_symmetry_group_IT_number 2
_symmetry_cell_setting 'triclinic'
loop_
_space_group_symop_operation_xyz
x,y,z
-x,-y,-z
loop_
_atom_site_type_symbol
_atom_site_label
_atom_site_fract_x
_atom_site_fract_y
_atom_site_fract_z
Si Si1 0.654336 0.678728 0.292579
Si Si2 0.081311 0.971196 0.347197
Si Si3 0.530789 0.260285 0.066613
Si Si4 0.168517 0.131666 0.082703
Si Si5 0.327485 0.964265 0.707058
Si Si6 0.329888 0.039062 0.295356
Si Si7 0.840928 0.965942 0.110806
Si Si8 0.348451 0.457176 0.232118
O O1 0.412764 0.581969 0.195382
O O2 0.000000 0.500000 0.500000
O O3 0.686826 0.807523 0.331324
O O4 0.501918 0.837004 0.130736
O O5 0.289772 0.706913 0.518680
O O6 0.333967 0.068142 0.471063
O O7 0.818371 0.084205 0.224506
O O8 0.917761 0.022927 0.194702
O O9 0.589669 0.195328 0.168928
O O10 0.500000 0.500000 0.000000
O O11 0.207417 0.252277 0.874281
O O12 0.403943 0.152237 0.165850
O O13 0.369144 0.990864 0.267825
O O14 0.882741 0.376013 0.886322
O O15 0.000000 0.000000 0.000000
O O16 0.000000 0.000000 0.500000
O O17 0.180068 0.307242 0.157359
O O18 0.108473 0.948480 0.219433
#
# Coordination Sequence:
#
# PCOD8018477 Si02
#       8
#     2   2   2   2   2   2   2   2
#     4  11  23  40  67 101 131 169 224 277 327 395
#     4  10  24  43  67  97 132 178 225 269 329 404
#     4  11  25  47  63  93 135 177 220 278 330 391
#     4  12  21  41  66  99 138 173 214 277 334 394
#     4  11  25  41  65  96 131 169 220 271 336 392
#     4  10  23  41  67  98 138 166 224 272 329 395
#     4  11  22  44  68  97 132 173 227 270 331 402
#     4  10  22  40  66  97 133 172 220 271 333 386
#
# _framework density 20.577114999999999
#
# number of rings (size 3 to 8) (size 9 to 14) (size 15 to 20)
#    0.750    0.500    2.500    4.125    1.750    3.000 
#    2.250    0.625    0.000    0.000    0.000    0.000 
#    0.000    0.000    0.000    0.000    0.000    0.000 
#
# Total GULP energy -198274.133557 kJ/mol
# GULP energy per Si atom -12392.133347 kJ/mol
# Density = 2.053028 g / cm^3
# Si number density = 20.577115 Si / 1000 Ang^3
#
#
#
# Elastic Constant Matrix: (Units=GPa)
#
#
# Indices 1 2 3 4 5 6 
#
# 1 164.0624 61.3809 69.6748 9.7762 14.4830 -4.5122
# 2 61.3809 130.8549 61.7302 23.8626 6.8982 8.2846
# 3 69.6748 61.7302 102.8240 18.3488 7.4161 -9.9511
# 4 9.7762 23.8626 18.3488 35.1027 -9.3608 0.0864
# 5 14.4830 6.8982 7.4161 -9.3608 41.6377 10.3290
# 6 -4.5122 8.2846 -9.9511 0.0864 10.3290 35.4124
#
#
#
# Elastic Compliance Matrix: (Units=1/GPa)
#
#
# Indices 1 2 3 4 5 6 
#
# 1 0.009071 -0.002093 -0.004825 0.000893 -0.001961 0.000859
# 2 -0.002093 0.012508 -0.005616 -0.005059 -0.000324 -0.004664
# 3 -0.004825 -0.005616 0.018239 -0.005334 -0.003543 0.006871
# 4 0.000893 -0.005059 -0.005334 0.037333 0.010719 -0.003419
# 5 -0.001961 -0.000324 -0.003543 0.010719 0.030281 -0.010028
# 6 0.000859 -0.004664 0.006871 -0.003419 -0.010028 0.034303
#
#
# Mechanical properties :
#
#
# Convention : Reuss Voigt Hill
#
# Bulk Modulus (GPa) = 67.79681 87.03478 77.41580
# Shear Modulus (GPa) = 29.11709 36.09426 32.60568
#
# Velocity S-wave (km/s) = 3.76576 4.19274 3.98497
# Velocity P-wave (km/s) = 7.20605 8.11341 7.67315
#
# Compressibility (1/GPa) = 0.01474996
#
# Stress axis : x y z
#
# Youngs Moduli (GPa) = 110.24383 79.94738 54.82791
#
# Poissons Ratio (x) = 0.16730 0.26454
# Poissons Ratio (y) = 0.23070 0.30794
# Poissons Ratio (z) = 0.53191 0.44902
#
# Static dielectric constant tensor:
#      x y z
#    x 3.718790 0.204840 0.170250 
#    y 0.204840 4.395880 0.745170 
#    z 0.170250 0.745170 4.372140 
# 
# 
# High freq. dielectric constant tensor:
#      x y z
#    x 1.807680 0.003700 0.005030 
#    y 0.003700 1.809170 0.023980 
#    z 0.005030 0.023980 1.805370 
# 
# From -- ./inp_files/619258.got.cif
#   From: 2010.06.25/outbox.cif.g09.slc.cpg/sg2_310_cif.got.tgz:619258.got - 2010.06.27 13:26:56.
