data_PCOD8018557
_publ_section_title
;
Structure prediction by ZEFSAII (Michael W. Deem and Ramdas Pophale) SiO2 
 PCOD8018557
Probable space group: P -1
;
_chemical_formula_sum "Si O2"
_cell_formula_units_Z 12
_cell_length_a 8.895988
_cell_length_b 11.577905
_cell_length_c 9.073882
_cell_angle_alpha 140.056394
_cell_angle_beta 116.062337
_cell_angle_gamma 60.724736
_cell_volume 519.920412
_symmetry_space_group_name_H-M "P -1"
_symmetry_group_IT_number 2
_symmetry_cell_setting 'triclinic'
loop_
_space_group_symop_operation_xyz
x,y,z
-x,-y,-z
loop_
_atom_site_type_symbol
_atom_site_label
_atom_site_fract_x
_atom_site_fract_y
_atom_site_fract_z
Si Si1 0.811265 0.607582 0.194922
Si Si2 0.520935 0.834002 0.461218
Si Si3 0.229842 0.758236 0.092301
Si Si4 0.979364 0.105088 0.439768
Si Si5 0.482384 0.362520 0.139404
Si Si6 0.581554 0.230415 0.356497
O O1 0.709476 0.696027 0.385239
O O2 0.969062 0.699486 0.325255
O O3 0.880083 0.388627 0.051502
O O4 0.680846 0.651885 0.042888
O O5 0.371718 0.731016 0.257695
O O6 0.490362 0.899045 0.683209
O O7 0.500000 0.000000 0.500000
O O8 0.333723 0.714914 0.941448
O O9 0.103555 0.967868 0.241093
O O10 0.786123 0.154027 0.343903
O O11 0.000000 0.000000 0.500000
O O12 0.487199 0.235727 0.164185
O O13 0.469963 0.569438 0.390577
#
# Coordination Sequence:
#
# PCOD8018557 Si02
#       6
#     2   2   2   2   2   2
#     4  11  21  41  71  91 124 175 220 256 319 391
#     4  11  18  38  66  90 122 171 216 251 308 388
#     4  11  21  40  67  95 126 172 219 258 320 389
#     4  12  24  40  66  99 129 162 219 276 316 373
#     4  10  22  40  67  94 131 170 214 264 323 387
#     4  11  22  41  64  99 132 163 214 276 319 373
#
# _framework density 23.080454
#
# number of rings (size 3 to 8) (size 9 to 14) (size 15 to 20)
#    0.000    1.000    6.667    1.000    0.000    3.333 
#    0.000    8.333    3.667    2.000    0.000    0.000 
#    0.000    0.000    0.000    0.000    0.000    0.000 
#
# Total GULP energy -148728.469348 kJ/mol
# GULP energy per Si atom -12394.039112 kJ/mol
# Density = 2.302792 g / cm^3
# Si number density = 23.080454 Si / 1000 Ang^3
#
#
#
# Elastic Constant Matrix: (Units=GPa)
#
#
# Indices 1 2 3 4 5 6 
#
# 1 85.6431 32.7868 27.7091 -11.1029 -11.5808 14.6463
# 2 32.7868 87.8119 32.2585 -16.0455 -9.8447 28.7057
# 3 27.7091 32.2585 70.1916 3.5753 -7.7383 7.3053
# 4 -11.1029 -16.0455 3.5753 36.2632 7.7227 -2.4168
# 5 -11.5808 -9.8447 -7.7383 7.7227 43.3978 9.2651
# 6 14.6463 28.7057 7.3053 -2.4168 9.2651 47.1715
#
#
#
# Elastic Compliance Matrix: (Units=1/GPa)
#
#
# Indices 1 2 3 4 5 6 
#
# 1 0.015336 -0.002022 -0.004650 0.003433 0.002877 -0.003200
# 2 -0.002022 0.020167 -0.007314 0.007511 0.003712 -0.010857
# 3 -0.004650 -0.007314 0.019701 -0.006737 0.001335 0.002236
# 4 0.003433 0.007511 -0.006737 0.033343 -0.004069 -0.002086
# 5 0.002877 0.003712 0.001335 -0.004069 0.027531 -0.008975
# 6 -0.003200 -0.010857 0.002236 -0.002086 -0.008975 0.030109
#
#
# Mechanical properties :
#
#
# Convention : Reuss Voigt Hill
#
# Bulk Modulus (GPa) = 36.71860 47.68396 42.20128
# Shear Modulus (GPa) = 27.28723 35.42599 31.35661
#
# Velocity S-wave (km/s) = 3.44214 3.92202 3.68989
# Velocity P-wave (km/s) = 5.63394 6.41984 6.03969
#
# Compressibility (1/GPa) = 0.02723416
#
# Stress axis : x y z
#
# Youngs Moduli (GPa) = 65.20512 49.58488 50.75882
#
# Poissons Ratio (x) = 0.10026 0.23600
# Poissons Ratio (y) = 0.13184 0.37124
# Poissons Ratio (z) = 0.30317 0.36265
#
# Static dielectric constant tensor:
#      x y z
#    x 4.361380 0.227840 -0.356600 
#    y 0.227840 4.250060 0.238000 
#    z -0.356600 0.238000 4.438230 
# 
# 
# High freq. dielectric constant tensor:
#      x y z
#    x 1.913120 0.018910 -0.020800 
#    y 0.018910 1.901460 0.023880 
#    z -0.020800 0.023880 1.902710 
# 
# From -- ./inp_files/173734.got.cif
#   From: 2010.06.25/outbox.cif.g09.slc.cpg/sg2_87_cif.got.tgz:173734.got - 2010.06.27 13:26:56.
