data_PCOD8018051
_publ_section_title
;
Structure prediction by ZEFSAII (Michael W. Deem and Ramdas Pophale) SiO2 
 PCOD8018051
Probable space group: P -1
;
_chemical_formula_sum "Si O2"
_cell_formula_units_Z 14
_cell_length_a 8.201397
_cell_length_b 12.856991
_cell_length_c 8.858198
_cell_angle_alpha 111.278266
_cell_angle_beta 131.384868
_cell_angle_gamma 76.677664
_cell_volume 652.973316
_symmetry_space_group_name_H-M "P -1"
_symmetry_group_IT_number 2
_symmetry_cell_setting 'triclinic'
loop_
_space_group_symop_operation_xyz
x,y,z
-x,-y,-z
loop_
_atom_site_type_symbol
_atom_site_label
_atom_site_fract_x
_atom_site_fract_y
_atom_site_fract_z
Si Si1 0.694603 0.284800 0.889708
Si Si2 0.034924 0.235946 0.565143
Si Si3 0.536023 0.885688 0.155406
Si Si4 0.566174 0.141230 0.262766
Si Si5 0.998676 0.388237 0.348415
Si Si6 0.901775 0.388478 0.810722
Si Si7 0.440579 0.337265 0.494342
O O1 0.775287 0.376820 0.110683
O O2 0.659787 0.166461 0.889621
O O3 0.877935 0.288559 0.870240
O O4 0.469202 0.316977 0.684417
O O5 0.236085 0.155275 0.662716
O O6 0.017086 0.279251 0.406602
O O7 0.822419 0.164413 0.441524
O O8 0.052628 0.343863 0.744924
O O9 0.516764 0.017538 0.227701
O O10 0.517093 0.843466 0.950197
O O11 0.434700 0.223231 0.334381
O O12 0.206362 0.394507 0.364265
O O13 0.000000 0.500000 0.500000
O O14 0.652240 0.411734 0.610224
O O15 0.000000 0.500000 0.000000
#
# Coordination Sequence:
#
# PCOD8018051 Si02
#       7
#     2   2   2   2   2   2   2
#     4  10  22  40  61  90 124 157 209 248 298 368
#     4  11  21  41  61  91 127 157 204 256 298 367
#     4  11  22  41  66  91 123 162 199 258 308 356
#     4  10  23  42  64  92 122 160 206 249 313 365
#     4  12  24  40  63  92 123 166 207 247 304 363
#     4   9  20  40  60  87 121 159 202 248 304 353
#     4   9  23  42  60  89 126 160 199 258 300 361
#
# _framework density 21.440384999999999
#
# number of rings (size 3 to 8) (size 9 to 14) (size 15 to 20)
#    0.857    0.857    2.857    1.286    2.000    2.286 
#    0.000    2.857    0.000    0.000    0.000    0.000 
#    0.000    0.000    0.000    0.000    0.000    0.000 
#
# Total GULP energy -173442.939253 kJ/mol
# GULP energy per Si atom -12388.781375 kJ/mol
# Density = 2.139159 g / cm^3
# Si number density = 21.440385 Si / 1000 Ang^3
#
#
#
# Elastic Constant Matrix: (Units=GPa)
#
#
# Indices 1 2 3 4 5 6 
#
# 1 88.2702 33.6196 16.3983 8.6219 1.8579 3.7489
# 2 33.6196 35.0671 16.7830 9.3890 11.9089 1.0678
# 3 16.3983 16.7830 104.5012 15.2577 3.4026 -6.2026
# 4 8.6219 9.3890 15.2577 34.5755 4.7980 -4.2809
# 5 1.8579 11.9089 3.4026 4.7980 22.9435 1.7026
# 6 3.7489 1.0678 -6.2026 -4.2809 1.7026 40.4219
#
#
#
# Elastic Compliance Matrix: (Units=1/GPa)
#
#
# Indices 1 2 3 4 5 6 
#
# 1 0.019650 -0.022133 0.000122 -0.000559 0.010123 -0.001705
# 2 -0.022133 0.063518 -0.004963 -0.005436 -0.029324 0.000273
# 3 0.000122 -0.004963 0.010893 -0.003543 0.001592 0.001349
# 4 -0.000559 -0.005436 -0.003543 0.033033 -0.003761 0.003309
# 5 0.010123 -0.029324 0.001592 -0.003761 0.058744 -0.002793
# 6 -0.001705 0.000273 0.001349 0.003309 -0.002793 0.025565
#
#
# Mechanical properties :
#
#
# Convention : Reuss Voigt Hill
#
# Bulk Modulus (GPa) = 24.93059 40.16005 32.54532
# Shear Modulus (GPa) = 17.93902 30.32402 24.13152
#
# Velocity S-wave (km/s) = 2.89570 3.76485 3.35851
# Velocity P-wave (km/s) = 4.77841 6.13763 5.50017
#
# Compressibility (1/GPa) = 0.04011137
#
# Stress axis : x y z
#
# Youngs Moduli (GPa) = 50.89024 15.74368 91.80371
#
# Poissons Ratio (x) = 0.34846 -0.01120
# Poissons Ratio (y) = 1.12638 0.45564
# Poissons Ratio (z) = -0.00621 0.07814
#
# Static dielectric constant tensor:
#      x y z
#    x 3.948630 0.297210 -0.042240 
#    y 0.297210 3.533840 -0.075120 
#    z -0.042240 -0.075120 4.157490 
# 
# 
# High freq. dielectric constant tensor:
#      x y z
#    x 1.840660 0.024350 0.000790 
#    y 0.024350 1.809920 -0.001000 
#    z 0.000790 -0.001000 1.860980 
# 
# From -- ./inp_files/37521.got.cif
#   From: 2010.06.25/outbox.cif.g09.slc.cpg/sg2_19_cif.got.tgz:37521.got - 2010.06.27 13:26:56.
