data_PCOD8018050
_publ_section_title
;
Structure prediction by ZEFSAII (Michael W. Deem and Ramdas Pophale) SiO2 
 PCOD8018050
Probable space group: P -1
;
_chemical_formula_sum "Si O2"
_cell_formula_units_Z 16
_cell_length_a 12.107913
_cell_length_b 11.500812
_cell_length_c 6.585943
_cell_angle_alpha 103.447190
_cell_angle_beta 95.101803
_cell_angle_gamma 118.730332
_cell_volume 760.180566
_symmetry_space_group_name_H-M "P -1"
_symmetry_group_IT_number 2
_symmetry_cell_setting 'triclinic'
loop_
_space_group_symop_operation_xyz
x,y,z
-x,-y,-z
loop_
_atom_site_type_symbol
_atom_site_label
_atom_site_fract_x
_atom_site_fract_y
_atom_site_fract_z
Si Si1 0.866391 0.590204 0.997996
Si Si2 0.959683 0.428141 0.678408
Si Si3 0.703254 0.128562 0.546611
Si Si4 0.961124 0.900280 0.144986
Si Si5 0.536119 0.950268 0.784615
Si Si6 0.401722 0.276870 0.388941
Si Si7 0.584073 0.503305 0.824045
Si Si8 0.805221 0.937055 0.457825
O O1 0.929880 0.529559 0.838598
O O2 0.710487 0.505714 0.932131
O O3 0.922254 0.748311 0.999557
O O4 0.917556 0.581163 0.226012
O O5 0.833364 0.275108 0.599849
O O6 0.000000 0.500000 0.500000
O O7 0.589099 0.128529 0.408930
O O8 0.656759 0.088777 0.757656
O O9 0.719800 0.004074 0.410098
O O10 0.839163 0.892367 0.234111
O O11 0.072388 0.948112 0.349393
O O12 0.000000 0.000000 0.000000
O O13 0.573376 0.832414 0.773506
O O14 0.500000 0.000000 0.000000
O O15 0.513722 0.371692 0.607608
O O16 0.377354 0.360690 0.246753
O O17 0.271439 0.198348 0.468372
O O18 0.500000 0.500000 0.000000
#
# Coordination Sequence:
#
# PCOD8018050 Si02
#       8
#     2   2   2   2   2   2   2   2
#     4  11  25  43  64 101 129 172 232 264 330 407
#     4  11  26  44  67  93 140 182 217 279 333 403
#     4  10  22  43  62  96 130 171 224 273 328 399
#     4  11  23  38  66  94 124 167 212 269 323 394
#     4  10  23  40  69  93 130 173 222 277 332 393
#     4  10  23  42  62  98 129 174 215 276 337 388
#     4  11  24  42  70  95 135 172 227 282 333 406
#     4  10  22  40  61  89 132 162 211 272 325 382
#
# _framework density 21.047632
#
# number of rings (size 3 to 8) (size 9 to 14) (size 15 to 20)
#    0.000    1.500    1.250    2.250    1.750   13.000 
#    0.000    0.000    0.000    0.000    0.000    0.000 
#    0.000    0.000    0.000    0.000    0.000    0.000 
#
# Total GULP energy -198387.754626 kJ/mol
# GULP energy per Si atom -12399.234664 kJ/mol
# Density = 2.099973 g / cm^3
# Si number density = 21.047632 Si / 1000 Ang^3
#
#
#
# Elastic Constant Matrix: (Units=GPa)
#
#
# Indices 1 2 3 4 5 6 
#
# 1 119.7205 45.0350 41.7892 -11.0971 -6.2222 6.3836
# 2 45.0350 128.3133 60.7237 -10.5806 -16.9160 8.1094
# 3 41.7892 60.7237 86.6380 -15.3552 -16.0452 -0.8763
# 4 -11.0971 -10.5806 -15.3552 31.8872 5.5706 -1.6292
# 5 -6.2222 -16.9160 -16.0452 5.5706 39.4912 3.6986
# 6 6.3836 8.1094 -0.8763 -1.6292 3.6986 31.9064
#
#
#
# Elastic Compliance Matrix: (Units=1/GPa)
#
#
# Indices 1 2 3 4 5 6 
#
# 1 0.010498 -0.001811 -0.003701 0.001304 -0.000660 -0.001599
# 2 -0.001811 0.012493 -0.007604 -0.000735 0.002393 -0.003337
# 3 -0.003701 -0.007604 0.020286 0.005536 0.003328 0.003127
# 4 0.001304 -0.000735 0.005536 0.034870 -0.002985 0.002205
# 5 -0.000660 0.002393 0.003328 -0.002985 0.028375 -0.003826
# 6 -0.001599 -0.003337 0.003127 0.002205 -0.003826 0.033152
#
#
# Mechanical properties :
#
#
# Convention : Reuss Voigt Hill
#
# Bulk Modulus (GPa) = 58.66935 69.97418 64.32177
# Shear Modulus (GPa) = 29.13954 33.13189 31.13571
#
# Velocity S-wave (km/s) = 3.72487 3.97185 3.85034
# Velocity P-wave (km/s) = 6.81429 7.37237 7.09882
#
# Compressibility (1/GPa) = 0.01704467
#
# Stress axis : x y z
#
# Youngs Moduli (GPa) = 95.25693 80.04315 49.29497
#
# Poissons Ratio (x) = 0.14499 0.18246
# Poissons Ratio (y) = 0.17254 0.37482
# Poissons Ratio (z) = 0.35258 0.60861
#
# Static dielectric constant tensor:
#      x y z
#    x 4.049410 -0.000360 0.042100 
#    y -0.000360 3.887400 -0.015160 
#    z 0.042100 -0.015160 3.800850 
# 
# 
# High freq. dielectric constant tensor:
#      x y z
#    x 1.840300 -0.003280 0.000060 
#    y -0.003280 1.835330 0.001500 
#    z 0.000060 0.001500 1.819550 
# 
# From -- ./inp_files/69988.got.cif
#   From: 2010.06.25/outbox.cif.g09.slc.cpg/sg2_35_cif.got.tgz:69988.got - 2010.06.27 13:26:56.
