data_PCOD8018552
_publ_section_title
;
Structure prediction by ZEFSAII (Michael W. Deem and Ramdas Pophale) SiO2 
 PCOD8018552
Probable space group: P -1
;
_chemical_formula_sum "Si O2"
_cell_formula_units_Z 16
_cell_length_a 11.823872
_cell_length_b 8.831185
_cell_length_c 13.316516
_cell_angle_alpha 78.746781
_cell_angle_beta 51.209821
_cell_angle_gamma 46.296142
_cell_volume 710.383657
_symmetry_space_group_name_H-M "P -1"
_symmetry_group_IT_number 2
_symmetry_cell_setting 'triclinic'
loop_
_space_group_symop_operation_xyz
x,y,z
-x,-y,-z
loop_
_atom_site_type_symbol
_atom_site_label
_atom_site_fract_x
_atom_site_fract_y
_atom_site_fract_z
Si Si1 0.434515 0.922326 0.260634
Si Si2 0.245256 0.592449 0.835913
Si Si3 0.288367 0.535266 0.584401
Si Si4 0.386039 0.671472 0.914006
Si Si5 0.264044 0.893804 0.543949
Si Si6 0.818156 0.372409 0.804056
Si Si7 0.786630 0.864666 0.023772
Si Si8 0.870001 0.687104 0.780200
O O1 0.563796 0.665682 0.194509
O O2 0.291052 0.003117 0.429023
O O3 0.612073 0.916309 0.185134
O O4 0.287796 0.082929 0.227751
O O5 0.248647 0.612632 0.712690
O O6 0.288959 0.722567 0.849255
O O7 0.014770 0.694225 0.978308
O O8 0.261772 0.721702 0.518574
O O9 0.527075 0.269282 0.475555
O O10 0.114536 0.550435 0.640417
O O11 0.649485 0.473463 0.793198
O O12 0.292797 0.900071 0.985822
O O13 0.299053 0.594748 0.035220
O O14 0.042738 0.104204 0.697877
O O15 0.860206 0.519929 0.772054
O O16 0.803909 0.758272 0.923419
#
# Coordination Sequence:
#
# PCOD8018552 Si02
#       8
#     2   2   2   2   2   2   2   2
#     4  11  23  39  65  97 126 169 208 256 315 383
#     4  10  22  40  67  94 122 164 215 261 313 368
#     4   9  22  46  67  92 124 167 209 260 315 378
#     4  11  24  40  67  96 126 164 214 262 316 364
#     4  10  23  45  63  92 131 165 213 252 318 379
#     4  11  24  41  64  97 130 164 207 267 311 371
#     4  11  22  42  65  95 132 162 210 265 311 372
#     4  11  23  41  68  94 127 166 211 263 315 363
#
# _framework density 22.523040000000002
#
# number of rings (size 3 to 8) (size 9 to 14) (size 15 to 20)
#    0.000    1.500    1.250    3.375    5.250    3.500 
#    4.500    0.000    0.000    0.000    0.000    0.000 
#    0.000    0.000    0.000    0.000    0.000    0.000 
#
# Total GULP energy -198369.320373 kJ/mol
# GULP energy per Si atom -12398.082523 kJ/mol
# Density = 2.247178 g / cm^3
# Si number density = 22.523040 Si / 1000 Ang^3
#
#
#
# Elastic Constant Matrix: (Units=GPa)
#
#
# Indices 1 2 3 4 5 6 
#
# 1 133.7646 36.0606 50.9533 9.6899 -31.2923 -0.6902
# 2 36.0606 98.5586 38.3570 8.5353 -11.4457 -1.2389
# 3 50.9533 38.3570 86.6783 12.8878 -37.2740 -2.3730
# 4 9.6899 8.5353 12.8878 41.2194 -0.3916 -15.9262
# 5 -31.2923 -11.4457 -37.2740 -0.3916 36.2400 0.0074
# 6 -0.6902 -1.2389 -2.3730 -15.9262 0.0074 22.5997
#
#
#
# Elastic Compliance Matrix: (Units=1/GPa)
#
#
# Indices 1 2 3 4 5 6 
#
# 1 0.010456 -0.002031 -0.002576 -0.001653 0.005720 -0.001229
# 2 -0.002031 0.012859 -0.006194 -0.000398 -0.004068 -0.000287
# 3 -0.002576 -0.006194 0.026859 -0.007369 0.023366 -0.002799
# 4 -0.001653 -0.000398 -0.007369 0.036589 -0.008742 0.024941
# 5 0.005720 -0.004068 0.023366 -0.008742 0.055188 -0.003773
# 6 -0.001229 -0.000287 -0.002799 0.024941 -0.003773 0.061479
#
#
# Mechanical properties :
#
#
# Convention : Reuss Voigt Hill
#
# Bulk Modulus (GPa) = 34.99992 63.30483 49.15237
# Shear Modulus (GPa) = 21.31690 32.92051 27.11870
#
# Velocity S-wave (km/s) = 3.07978 3.82728 3.47370
# Velocity P-wave (km/s) = 5.31225 6.90641 6.16111
#
# Compressibility (1/GPa) = 0.02857150
#
# Stress axis : x y z
#
# Youngs Moduli (GPa) = 95.63802 77.76948 37.23108
#
# Poissons Ratio (x) = 0.15797 0.09590
# Poissons Ratio (y) = 0.19427 0.23061
# Poissons Ratio (z) = 0.24634 0.48171
#
# Static dielectric constant tensor:
#      x y z
#    x 4.050360 -0.105400 -0.523930 
#    y -0.105400 4.063930 0.030440 
#    z -0.523930 0.030440 4.118330 
# 
# 
# High freq. dielectric constant tensor:
#      x y z
#    x 1.879690 -0.002950 -0.035560 
#    y -0.002950 1.894890 0.000370 
#    z -0.035560 0.000370 1.881920 
# 
# From -- ./inp_files/515517.got.cif
#   From: 2010.06.25/outbox.cif.g09.slc.cpg/sg2_258_cif.got.tgz:515517.got - 2010.06.27 13:26:56.
