data_PCOD8018577
_publ_section_title
;
Structure prediction by ZEFSAII (Michael W. Deem and Ramdas Pophale) SiO2 
 PCOD8018577
Probable space group: P -1
;
_chemical_formula_sum "Si O2"
_cell_formula_units_Z 12
_cell_length_a 6.544135
_cell_length_b 9.456027
_cell_length_c 12.504849
_cell_angle_alpha 63.637503
_cell_angle_beta 65.096050
_cell_angle_gamma 48.085076
_cell_volume 506.874324
_symmetry_space_group_name_H-M "P -1"
_symmetry_group_IT_number 2
_symmetry_cell_setting 'triclinic'
loop_
_space_group_symop_operation_xyz
x,y,z
-x,-y,-z
loop_
_atom_site_type_symbol
_atom_site_label
_atom_site_fract_x
_atom_site_fract_y
_atom_site_fract_z
Si Si1 0.668701 0.886186 0.692679
Si Si2 0.934084 0.383928 0.475718
Si Si3 0.748171 0.180342 0.110127
Si Si4 0.042698 0.309824 0.098807
Si Si5 0.405308 0.854619 0.061133
Si Si6 0.454836 0.719403 0.328719
O O1 0.377342 0.913788 0.763632
O O2 0.907407 0.721911 0.775437
O O3 0.782268 0.802269 0.577183
O O4 0.619998 0.091574 0.652620
O O5 0.731913 0.527937 0.378811
O O6 0.800951 0.296090 0.601111
O O7 0.000000 0.500000 0.500000
O O8 0.751857 0.339379 0.125686
O O9 0.587457 0.266798 0.003827
O O10 0.081273 0.030625 0.075945
O O11 0.343927 0.122416 0.039601
O O12 0.000000 0.500000 0.000000
O O13 0.510440 0.727750 0.188492
#
# Coordination Sequence:
#
# PCOD8018577 Si02
#       6
#     2   2   2   2   2   2
#     4  11  25  45  70 100 134 181 229 276 340 402
#     4  11  28  48  69 100 132 176 236 290 338 393
#     4  10  23  39  68 102 133 175 219 265 333 413
#     4  11  23  40  65 101 141 175 216 276 331 406
#     4  10  22  40  67  97 135 172 219 262 332 403
#     4  11  25  46  72  97 135 183 223 284 337 397
#
# _framework density 23.674506999999998
#
# number of rings (size 3 to 8) (size 9 to 14) (size 15 to 20)
#    0.000    1.333    1.667    2.000    7.000    8.667 
#    0.000    0.000    0.000    0.000    0.000    0.000 
#    0.000    0.000    0.000    0.000    0.000    0.000 
#
# Total GULP energy -148681.315620 kJ/mol
# GULP energy per Si atom -12390.109635 kJ/mol
# Density = 2.362062 g / cm^3
# Si number density = 23.674507 Si / 1000 Ang^3
#
#
#
# Elastic Constant Matrix: (Units=GPa)
#
#
# Indices 1 2 3 4 5 6 
#
# 1 175.4609 25.0073 51.0726 9.1925 -32.6760 32.2978
# 2 25.0073 58.6121 11.1921 2.5930 -21.8007 11.6973
# 3 51.0726 11.1921 106.0011 10.4914 -14.7486 9.4544
# 4 9.1925 2.5930 10.4914 41.4623 1.4959 -0.4489
# 5 -32.6760 -21.8007 -14.7486 1.4959 33.7963 -12.7992
# 6 32.2978 11.6973 9.4544 -0.4489 -12.7992 40.8749
#
#
#
# Elastic Compliance Matrix: (Units=1/GPa)
#
#
# Indices 1 2 3 4 5 6 
#
# 1 0.008362 -0.000191 -0.002767 -0.001375 0.005185 -0.004304
# 2 -0.000191 0.022775 -0.000021 -0.001897 0.013801 -0.002061
# 3 -0.002767 -0.000021 0.011316 -0.002334 0.002476 0.000325
# 4 -0.001375 -0.001897 -0.002334 0.025299 -0.004272 0.001110
# 5 0.005185 0.013801 0.002476 -0.004272 0.047075 0.006075
# 6 -0.004304 -0.002061 0.000325 0.001110 0.006075 0.030295
#
#
# Mechanical properties :
#
#
# Convention : Reuss Voigt Hill
#
# Bulk Modulus (GPa) = 27.40107 57.17979 42.29043
# Shear Modulus (GPa) = 30.62889 40.08016 35.35453
#
# Velocity S-wave (km/s) = 3.60078 4.11903 3.86859
# Velocity P-wave (km/s) = 5.37463 6.84301 6.15278
#
# Compressibility (1/GPa) = 0.03649493
#
# Stress axis : x y z
#
# Youngs Moduli (GPa) = 119.59058 43.90699 88.37132
#
# Poissons Ratio (x) = 0.00838 0.24455
# Poissons Ratio (y) = 0.02284 0.00184
# Poissons Ratio (z) = 0.33094 0.00092
#
# Static dielectric constant tensor:
#      x y z
#    x 5.526010 0.231940 0.025650 
#    y 0.231940 4.416790 0.315990 
#    z 0.025650 0.315990 4.248880 
# 
# 
# High freq. dielectric constant tensor:
#      x y z
#    x 1.969300 0.007120 -0.006260 
#    y 0.007120 1.942850 0.010580 
#    z -0.006260 0.010580 1.931550 
# 
# From -- ./inp_files/28777.got.cif
#   From: 2010.06.25/outbox.cif.g09.slc.cpg/sg2_15_cif.got.tgz:28777.got - 2010.06.27 13:26:56.
