data_PCOD8018290
_publ_section_title
;
Structure prediction by ZEFSAII (Michael W. Deem and Ramdas Pophale) SiO2 
 PCOD8018290
Probable space group: P -1
;
_chemical_formula_sum "Si O2"
_cell_formula_units_Z 14
_cell_length_a 14.067106
_cell_length_b 11.042116
_cell_length_c 5.364805
_cell_angle_alpha 81.011873
_cell_angle_beta 101.031460
_cell_angle_gamma 138.545270
_cell_volume 541.381056
_symmetry_space_group_name_H-M "P -1"
_symmetry_group_IT_number 2
_symmetry_cell_setting 'triclinic'
loop_
_space_group_symop_operation_xyz
x,y,z
-x,-y,-z
loop_
_atom_site_type_symbol
_atom_site_label
_atom_site_fract_x
_atom_site_fract_y
_atom_site_fract_z
Si Si1 0.109124 0.266678 0.390062
Si Si2 0.657627 0.658444 0.761279
Si Si3 0.283244 0.664574 0.272042
Si Si4 0.536823 0.731284 0.322296
Si Si5 0.190165 0.028807 0.916476
Si Si6 0.950410 0.260542 0.669440
Si Si7 0.827243 0.333838 0.266574
O O1 0.229592 0.273607 0.428072
O O2 0.173520 0.448991 0.230934
O O3 0.068338 0.266196 0.654126
O O4 0.962461 0.082121 0.247523
O O5 0.560711 0.680014 0.608337
O O6 0.555012 0.446693 0.849410
O O7 0.749519 0.786005 0.004577
O O8 0.448067 0.771152 0.321136
O O9 0.257342 0.700398 0.517036
O O10 0.266473 0.745140 0.008035
O O11 0.690258 0.913991 0.227600
O O12 0.171475 0.909682 0.160977
O O13 0.875916 0.238897 0.378215
O O14 0.026595 0.449117 0.774529
#
# Coordination Sequence:
#
# PCOD8018290 Si02
#       7
#     2   2   2   2   2   2   2
#     4  10  22  40  64  96 131 166 220 270 329 389
#     4  10  23  43  62  92 126 180 216 268 327 398
#     4  10  22  43  70  98 129 177 222 267 325 395
#     4  10  24  42  64  90 133 171 221 266 327 398
#     4  12  22  38  63  96 131 169 214 278 325 390
#     4  10  23  38  66  97 133 162 217 277 330 384
#     4  10  22  42  71  98 131 174 221 270 330 389
#
# _framework density 25.859788999999999
#
# number of rings (size 3 to 8) (size 9 to 14) (size 15 to 20)
#    0.000    1.714    1.429    1.714    4.000    5.143 
#    5.143    1.429    0.000    0.000    0.000    0.000 
#    0.000    0.000    0.000    0.000    0.000    0.000 
#
# Total GULP energy -173584.022239 kJ/mol
# GULP energy per Si atom -12398.858731 kJ/mol
# Density = 2.580093 g / cm^3
# Si number density = 25.859789 Si / 1000 Ang^3
#
#
#
# Elastic Constant Matrix: (Units=GPa)
#
#
# Indices 1 2 3 4 5 6 
#
# 1 95.2512 9.8535 10.8808 -8.0620 8.1375 30.3013
# 2 9.8535 78.4896 6.1501 2.2469 -5.6677 21.4586
# 3 10.8808 6.1501 76.7669 -13.2029 -2.9715 14.9145
# 4 -8.0620 2.2469 -13.2029 32.1249 1.7904 -5.7035
# 5 8.1375 -5.6677 -2.9715 1.7904 31.1714 3.1284
# 6 30.3013 21.4586 14.9145 -5.7035 3.1284 34.5578
#
#
#
# Elastic Compliance Matrix: (Units=1/GPa)
#
#
# Indices 1 2 3 4 5 6 
#
# 1 0.015047 0.001702 0.000644 0.001548 -0.002234 -0.014071
# 2 0.001702 0.016341 0.000570 -0.002968 0.004030 -0.012740
# 3 0.000644 0.000570 0.015143 0.005043 0.001770 -0.006783
# 4 0.001548 -0.002968 0.005043 0.034722 -0.002889 0.004301
# 5 -0.002234 0.004030 0.001770 -0.002889 0.034221 -0.004883
# 6 -0.014071 -0.012740 -0.006783 0.004301 -0.004883 0.053265
#
#
# Mechanical properties :
#
#
# Convention : Reuss Voigt Hill
#
# Bulk Modulus (GPa) = 19.09700 33.80849 26.45275
# Shear Modulus (GPa) = 27.72222 34.47903 31.10063
#
# Velocity S-wave (km/s) = 3.27772 3.65541 3.47171
# Velocity P-wave (km/s) = 4.66106 5.56041 5.13048
#
# Compressibility (1/GPa) = 0.05236424
#
# Stress axis : x y z
#
# Youngs Moduli (GPa) = 66.45853 61.19471 66.03742
#
# Poissons Ratio (x) = -0.10414 -0.04256
# Poissons Ratio (y) = -0.11309 -0.03766
# Poissons Ratio (z) = -0.04283 -0.03490
#
# Static dielectric constant tensor:
#      x y z
#    x 4.775460 0.134010 -0.035330 
#    y 0.134010 4.606590 -0.059340 
#    z -0.035330 -0.059340 4.261420 
# 
# 
# High freq. dielectric constant tensor:
#      x y z
#    x 2.038600 0.006320 -0.004710 
#    y 0.006320 2.028460 -0.004300 
#    z -0.004710 -0.004300 2.013910 
# 
# From -- ./inp_files/27108.got.cif
#   From: 2010.06.25/outbox.cif.g09.slc.cpg/sg2_14_cif.got.tgz:27108.got - 2010.06.27 13:26:56.
