data_PCOD8018373
_publ_section_title
;
Structure prediction by ZEFSAII (Michael W. Deem and Ramdas Pophale) SiO2 
 PCOD8018373
Probable space group: P -1
;
_chemical_formula_sum "Si O2"
_cell_formula_units_Z 14
_cell_length_a 5.030283
_cell_length_b 25.027388
_cell_length_c 4.906435
_cell_angle_alpha 110.988518
_cell_angle_beta 97.011946
_cell_angle_gamma 71.723099
_cell_volume 547.585107
_symmetry_space_group_name_H-M "P -1"
_symmetry_group_IT_number 2
_symmetry_cell_setting 'triclinic'
loop_
_space_group_symop_operation_xyz
x,y,z
-x,-y,-z
loop_
_atom_site_type_symbol
_atom_site_label
_atom_site_fract_x
_atom_site_fract_y
_atom_site_fract_z
Si Si1 0.123595 0.121941 0.257891
Si Si2 0.672345 0.720573 0.047119
Si Si3 0.789391 0.489312 0.169698
Si Si4 0.142716 0.633427 0.191496
Si Si5 0.708804 0.613170 0.521873
Si Si6 0.199851 0.040977 0.617083
Si Si7 0.483191 0.798998 0.656545
O O1 0.098838 0.098523 0.515345
O O2 0.370359 0.152640 0.340767
O O3 0.830380 0.168920 0.225098
O O4 0.201333 0.064935 0.966061
O O5 0.598433 0.659476 0.842071
O O6 0.657063 0.763714 0.867976
O O7 0.993877 0.698326 0.157703
O O8 0.472231 0.754134 0.326708
O O9 0.766138 0.542048 0.494112
O O10 0.500000 0.500000 0.000000
O O11 0.000000 0.500000 0.000000
O O12 0.876621 0.418429 0.133597
O O13 0.975150 0.624902 0.427374
O O14 0.459116 0.628345 0.295930
O O15 0.500000 0.000000 0.500000
O O16 0.000000 0.000000 0.500000
#
# Coordination Sequence:
#
# PCOD8018373 Si02
#       7
#     2   2   2   2   2   2   2
#     4  12  26  49  70 108 150 189 230 281 338 399
#     4  12  26  46  68 100 132 191 246 294 342 418
#     4   8  16  35  60  90 125 165 211 292 372 442
#     4  10  22  40  65  95 130 170 231 294 369 427
#     4  10  22  40  65  95 130 170 231 294 369 427
#     4  12  24  45  80 114 146 183 230 279 338 399
#     4  12  28  45  70  97 146 194 240 281 340 401
#
# _framework density 25.566803
#
# number of rings (size 3 to 8) (size 9 to 14) (size 15 to 20)
#    0.000    1.143    1.429    4.286    2.000    4.000 
#    0.000    0.000    0.000   10.286    0.000    0.000 
#    0.000    0.000    0.000    0.000    0.000    0.000 
#
# Total GULP energy -173584.017387 kJ/mol
# GULP energy per Si atom -12398.858385 kJ/mol
# Density = 2.550861 g / cm^3
# Si number density = 25.566803 Si / 1000 Ang^3
#
#
#
# Elastic Constant Matrix: (Units=GPa)
#
#
# Indices 1 2 3 4 5 6 
#
# 1 109.2555 9.9126 22.6729 19.5996 -4.9548 -5.4120
# 2 9.9126 115.4587 21.7722 5.5908 -10.8868 -6.7550
# 3 22.6729 21.7722 133.7395 31.7844 -9.0289 3.0235
# 4 19.5996 5.5908 31.7844 50.2553 5.4653 -9.0912
# 5 -4.9548 -10.8868 -9.0289 5.4653 23.4817 9.5821
# 6 -5.4120 -6.7550 3.0235 -9.0912 9.5821 20.6386
#
#
#
# Elastic Compliance Matrix: (Units=1/GPa)
#
#
# Indices 1 2 3 4 5 6 
#
# 1 0.010112 -0.000334 -0.000501 -0.003998 0.002921 -0.000502
# 2 -0.000334 0.009324 -0.001242 -0.000176 0.003163 0.001600
# 3 -0.000501 -0.001242 0.011083 -0.009885 0.010536 -0.011407
# 4 -0.003998 -0.000176 -0.009885 0.035207 -0.023921 0.026957
# 5 0.002921 0.003163 0.010536 -0.023921 0.072152 -0.043778
# 6 -0.000502 0.001600 -0.011407 0.026957 -0.043778 0.082716
#
#
# Mechanical properties :
#
#
# Convention : Reuss Voigt Hill
#
# Bulk Modulus (GPa) = 37.92965 51.90768 44.91867
# Shear Modulus (GPa) = 21.40985 39.14818 30.27901
#
# Velocity S-wave (km/s) = 2.89694 3.91731 3.44511
# Velocity P-wave (km/s) = 5.10464 6.38806 5.78207
#
# Compressibility (1/GPa) = 0.02636460
#
# Stress axis : x y z
#
# Youngs Moduli (GPa) = 98.89223 107.24557 90.22934
#
# Poissons Ratio (x) = 0.03581 0.04522
# Poissons Ratio (y) = 0.03302 0.11208
# Poissons Ratio (z) = 0.04956 0.13322
#
# Static dielectric constant tensor:
#      x y z
#    x 4.260070 0.084580 0.325020 
#    y 0.084580 4.497450 0.134030 
#    z 0.325020 0.134030 4.738110 
# 
# 
# High freq. dielectric constant tensor:
#      x y z
#    x 2.022810 -0.016220 0.008150 
#    y -0.016220 2.033940 0.010760 
#    z 0.008150 0.010760 2.032020 
# 
# From -- ./inp_files/14198.got.cif
#   From: 2010.06.25/outbox.cif.g09.slc.cpg/sg2_8_cif.got.tgz:14198.got - 2010.06.27 13:26:56.
