data_PCOD8018482
_publ_section_title
;
Structure prediction by ZEFSAII (Michael W. Deem and Ramdas Pophale) SiO2 
 PCOD8018482
Probable space group: P -1
;
_chemical_formula_sum "Si O2"
_cell_formula_units_Z 16
_cell_length_a 23.794826
_cell_length_b 7.477399
_cell_length_c 7.885764
_cell_angle_alpha 47.281414
_cell_angle_beta 47.135132
_cell_angle_gamma 42.479220
_cell_volume 648.744534
_symmetry_space_group_name_H-M "P -1"
_symmetry_group_IT_number 2
_symmetry_cell_setting 'triclinic'
loop_
_space_group_symop_operation_xyz
x,y,z
-x,-y,-z
loop_
_atom_site_type_symbol
_atom_site_label
_atom_site_fract_x
_atom_site_fract_y
_atom_site_fract_z
Si Si1 0.849306 0.222953 0.718802
Si Si2 0.537642 0.200064 0.917969
Si Si3 0.739414 0.114785 0.254564
Si Si4 0.439512 0.343002 0.694325
Si Si5 0.762593 0.603203 0.338070
Si Si6 0.895649 0.664937 0.448035
Si Si7 0.911771 0.633060 0.825041
Si Si8 0.586599 0.620035 0.637534
O O1 0.800651 0.363483 0.554802
O O2 0.905657 0.359602 0.584797
O O3 0.906731 0.883148 0.792167
O O4 0.774990 0.289947 0.968745
O O5 0.507148 0.348740 0.695015
O O6 0.596564 0.307598 0.820186
O O7 0.453465 0.255384 0.175419
O O8 0.591181 0.858100 0.016133
O O9 0.722710 0.916729 0.291584
O O10 0.808004 0.926298 0.381085
O O11 0.644326 0.345909 0.375676
O O12 0.476202 0.220533 0.504881
O O13 0.681271 0.594065 0.422159
O O14 0.843456 0.534258 0.088102
O O15 0.889181 0.736568 0.612213
O O16 0.986329 0.633434 0.202510
#
# Coordination Sequence:
#
# PCOD8018482 Si02
#       8
#     2   2   2   2   2   2   2   2
#     4  10  22  40  66  97 138 180 228 283 342 398
#     4  10  25  46  68 101 132 174 232 275 346 412
#     4  10  24  43  66 100 137 175 226 280 344 405
#     4  11  24  43  71  98 135 178 222 285 339 414
#     4  10  24  43  66 100 137 175 226 280 344 405
#     4  10  23  42  67  98 137 183 233 281 337 409
#     4  10  23  42  67  98 137 183 233 281 337 409
#     4  11  24  43  71  98 135 178 222 285 339 414
#
# _framework density 24.663024
#
# number of rings (size 3 to 8) (size 9 to 14) (size 15 to 20)
#    0.000    1.750    0.000    1.875    3.500   14.500 
#    0.000    2.500    0.000    0.000    0.000    0.000 
#    0.000    0.000    0.000    0.000    0.000    0.000 
#
# Total GULP energy -198322.485113 kJ/mol
# GULP energy per Si atom -12395.155320 kJ/mol
# Density = 2.460689 g / cm^3
# Si number density = 24.663024 Si / 1000 Ang^3
#
#
#
# Elastic Constant Matrix: (Units=GPa)
#
#
# Indices 1 2 3 4 5 6 
#
# 1 112.1136 36.9454 35.4772 10.1556 -9.3027 2.6656
# 2 36.9454 62.9737 27.1871 2.5610 1.1810 -14.7312
# 3 35.4772 27.1871 115.1044 21.7643 -10.4206 -10.5933
# 4 10.1556 2.5610 21.7643 29.5706 3.0684 1.9528
# 5 -9.3027 1.1810 -10.4206 3.0684 46.0365 5.6930
# 6 2.6656 -14.7312 -10.5933 1.9528 5.6930 28.0289
#
#
#
# Elastic Compliance Matrix: (Units=1/GPa)
#
#
# Indices 1 2 3 4 5 6 
#
# 1 0.012915 -0.008327 -0.001924 -0.002196 0.003383 -0.006866
# 2 -0.008327 0.025291 -0.003062 0.002523 -0.004892 0.013745
# 3 -0.001924 -0.003062 0.012143 -0.008495 0.002606 0.003226
# 4 -0.002196 0.002523 -0.008495 0.041334 -0.004742 -0.003592
# 5 0.003383 -0.004892 0.002606 -0.004742 0.024241 -0.006501
# 6 -0.006866 0.013745 0.003226 -0.003592 -0.006501 0.046344
#
#
# Mechanical properties :
#
#
# Convention : Reuss Voigt Hill
#
# Bulk Modulus (GPa) = 42.15335 54.37901 48.26618
# Shear Modulus (GPa) = 25.40607 33.43267 29.41937
#
# Velocity S-wave (km/s) = 3.21304 3.68581 3.45752
# Velocity P-wave (km/s) = 5.55821 6.34116 5.96255
#
# Compressibility (1/GPa) = 0.02372291
#
# Stress axis : x y z
#
# Youngs Moduli (GPa) = 77.42775 39.53954 82.35071
#
# Poissons Ratio (x) = 0.32923 0.15848
# Poissons Ratio (y) = 0.64471 0.25218
# Poissons Ratio (z) = 0.14901 0.12108
#
# Static dielectric constant tensor:
#      x y z
#    x 4.388140 0.280050 -0.035280 
#    y 0.280050 4.244330 -0.087480 
#    z -0.035280 -0.087480 4.696880 
# 
# 
# High freq. dielectric constant tensor:
#      x y z
#    x 1.984190 0.021650 0.001060 
#    y 0.021650 1.966750 -0.005920 
#    z 0.001060 -0.005920 2.005000 
# 
# From -- ./inp_files/356333.got.cif
#   From: 2010.06.25/outbox.cif.g09.slc.cpg/sg2_179_cif.got.tgz:356333.got - 2010.06.27 13:26:56.
