data_PCOD8018976
_publ_section_title
;
Structure prediction by ZEFSAII (Michael W. Deem and Ramdas Pophale) SiO2 
 PCOD8018976
Probable space group: P -1
;
_chemical_formula_sum "Si O2"
_cell_formula_units_Z 16
_cell_length_a 8.721069
_cell_length_b 11.881255
_cell_length_c 15.222707
_cell_angle_alpha 137.210933
_cell_angle_beta 43.379237
_cell_angle_gamma 115.187508
_cell_volume 716.007477
_symmetry_space_group_name_H-M "P -1"
_symmetry_group_IT_number 2
_symmetry_cell_setting 'triclinic'
loop_
_space_group_symop_operation_xyz
x,y,z
-x,-y,-z
loop_
_atom_site_type_symbol
_atom_site_label
_atom_site_fract_x
_atom_site_fract_y
_atom_site_fract_z
Si Si1 0.622872 0.550414 0.560193
Si Si2 0.195281 0.659311 0.901696
Si Si3 0.864283 0.995131 0.299237
Si Si4 0.147162 0.637119 0.497110
Si Si5 0.546238 0.486721 0.122720
Si Si6 0.637450 0.926905 0.527587
Si Si7 0.389846 0.729132 0.183270
Si Si8 0.084647 0.381406 0.666612
O O1 0.500000 0.500000 0.500000
O O2 0.437006 0.685015 0.773905
O O3 0.699082 0.379485 0.488277
O O4 0.839734 0.616752 0.467861
O O5 0.252317 0.557486 0.913368
O O6 0.069593 0.558179 0.827331
O O7 0.032163 0.844553 0.090799
O O8 0.974412 0.162656 0.350134
O O9 0.615756 0.054136 0.392848
O O10 0.825413 0.935617 0.379481
O O11 0.299902 0.569887 0.311471
O O12 0.000000 0.500000 0.500000
O O13 0.580147 0.629578 0.118179
O O14 0.528661 0.318822 0.978168
O O15 0.713101 0.749227 0.442790
O O16 0.642941 0.071267 0.679775
O O17 0.152725 0.672148 0.263223
#
# Coordination Sequence:
#
# PCOD8018976 Si02
#       8
#     2   2   2   2   2   2   2   2
#     4   9  20  41  64  89 123 170 213 258 313 378
#     4  10  23  41  66  93 130 173 218 259 316 391
#     4  11  24  41  66  99 125 171 218 258 326 381
#     4  11  22  44  69  89 128 172 214 263 319 381
#     4  10  22  41  63  92 131 166 213 260 325 373
#     4  11  24  41  65  95 138 164 211 270 316 393
#     4  11  23  38  66  96 130 165 217 266 315 378
#     4  11  23  41  67  95 129 175 211 263 330 373
#
# _framework density 22.346135
#
# number of rings (size 3 to 8) (size 9 to 14) (size 15 to 20)
#    0.000    1.500    1.250    4.125    5.250    1.000 
#    2.250    4.375    0.000    0.000    0.000    0.000 
#    0.000    0.000    0.000    0.000    0.000    0.000 
#
# Total GULP energy -198231.804348 kJ/mol
# GULP energy per Si atom -12389.487772 kJ/mol
# Density = 2.229527 g / cm^3
# Si number density = 22.346135 Si / 1000 Ang^3
#
#
#
# Elastic Constant Matrix: (Units=GPa)
#
#
# Indices 1 2 3 4 5 6 
#
# 1 32.9291 11.7255 9.3525 -9.0876 6.5576 -6.3100
# 2 11.7255 74.1346 39.3195 7.3286 4.3646 -5.1313
# 3 9.3525 39.3195 136.7723 16.7226 10.1919 -8.5463
# 4 -9.0876 7.3286 16.7226 24.1996 -4.2912 13.2145
# 5 6.5576 4.3646 10.1919 -4.2912 34.7014 2.5760
# 6 -6.3100 -5.1313 -8.5463 13.2145 2.5760 36.4239
#
#
#
# Elastic Compliance Matrix: (Units=1/GPa)
#
#
# Indices 1 2 3 4 5 6 
#
# 1 0.039069 -0.006365 -0.002999 0.018888 -0.003258 -0.001454
# 2 -0.006365 0.017289 -0.003354 -0.007296 -0.001132 0.003273
# 3 -0.002999 -0.003354 0.010515 -0.011261 -0.003925 0.005838
# 4 0.018888 -0.007296 -0.011261 0.076408 0.012256 -0.028985
# 5 -0.003258 -0.001132 -0.003925 0.012256 0.032869 -0.008416
# 6 -0.001454 0.003273 0.005838 -0.028985 -0.008416 0.040144
#
#
# Mechanical properties :
#
#
# Convention : Reuss Voigt Hill
#
# Bulk Modulus (GPa) = 24.13303 40.51455 32.32379
# Shear Modulus (GPa) = 19.56626 31.29422 25.43024
#
# Velocity S-wave (km/s) = 2.96226 3.74629 3.37711
# Velocity P-wave (km/s) = 4.74585 6.07312 5.45004
#
# Compressibility (1/GPa) = 0.04143699
#
# Stress axis : x y z
#
# Youngs Moduli (GPa) = 25.59566 57.84007 95.10356
#
# Poissons Ratio (x) = 0.36813 0.28524
# Poissons Ratio (y) = 0.16291 0.31899
# Poissons Ratio (z) = 0.07677 0.19400
#
# Static dielectric constant tensor:
#      x y z
#    x 4.174140 0.443560 0.141150 
#    y 0.443560 2.893380 -0.844200 
#    z 0.141150 -0.844200 4.482570 
# 
# 
# High freq. dielectric constant tensor:
#      x y z
#    x 1.894920 -0.014530 0.004570 
#    y -0.014530 1.862900 -0.010930 
#    z 0.004570 -0.010930 1.884800 
# 
# From -- ./inp_files/500942.got.cif
#   From: 2010.06.25/outbox.cif.g09.slc.cpg/sg2_251_cif.got.tgz:500942.got - 2010.06.27 13:26:56.
