data_PCOD8018072
_publ_section_title
;
Structure prediction by ZEFSAII (Michael W. Deem and Ramdas Pophale) SiO2 
 PCOD8018072
Probable space group: P -1
;
_chemical_formula_sum "Si O2"
_cell_formula_units_Z 14
_cell_length_a 11.924804
_cell_length_b 14.320892
_cell_length_c 11.546410
_cell_angle_alpha 139.254088
_cell_angle_beta 129.561627
_cell_angle_gamma 29.649991
_cell_volume 635.276173
_symmetry_space_group_name_H-M "P -1"
_symmetry_group_IT_number 2
_symmetry_cell_setting 'triclinic'
loop_
_space_group_symop_operation_xyz
x,y,z
-x,-y,-z
loop_
_atom_site_type_symbol
_atom_site_label
_atom_site_fract_x
_atom_site_fract_y
_atom_site_fract_z
Si Si1 0.305800 0.222545 0.508424
Si Si2 0.358165 0.154797 0.218303
Si Si3 0.051716 0.009301 0.171365
Si Si4 0.022728 0.747777 0.055696
Si Si5 0.070042 0.623785 0.447149
Si Si6 0.112151 0.265007 0.821172
Si Si7 0.549373 0.629834 0.144750
O O1 0.303587 0.164724 0.324658
O O2 0.348614 0.364120 0.670357
O O3 0.065367 0.377227 0.555776
O O4 0.500000 0.000000 0.500000
O O5 0.306653 0.359167 0.337894
O O6 0.621202 0.923991 0.153075
O O7 0.198047 0.170745 0.055559
O O8 0.889717 0.254382 0.348316
O O9 0.303037 0.888054 0.207563
O O10 0.034625 0.893094 0.141293
O O11 0.000000 0.000000 0.000000
O O12 0.998170 0.772574 0.202178
O O13 0.263816 0.485097 0.941427
O O14 0.937104 0.745384 0.352598
O O15 0.000000 0.500000 0.000000
O O16 0.500000 0.500000 0.000000
#
# Coordination Sequence:
#
# PCOD8018072 Si02
#       7
#     2   2   2   2   2   2   2
#     4  12  21  40  67  98 133 174 221 286 343 386
#     4  12  25  42  71 101 134 174 237 278 335 407
#     4  11  25  44  67 102 139 173 228 285 345 403
#     4  11  25  42  68  99 136 186 221 279 339 404
#     4  12  25  43  69 101 134 181 227 284 336 402
#     4  12  25  46  70  99 140 178 233 278 333 407
#     4  10  22  40  61  96 130 171 216 277 343 388
#
# _framework density 22.037659999999999
#
# number of rings (size 3 to 8) (size 9 to 14) (size 15 to 20)
#    0.000    0.571    5.714    1.714    4.000    0.571 
#    0.000    0.714    0.000    0.000    0.000    0.000 
#    0.000    0.000    0.000    0.000    0.000    0.000 
#
# Total GULP energy -173480.414621 kJ/mol
# GULP energy per Si atom -12391.458187 kJ/mol
# Density = 2.198750 g / cm^3
# Si number density = 22.037660 Si / 1000 Ang^3
#
#
#
# Elastic Constant Matrix: (Units=GPa)
#
#
# Indices 1 2 3 4 5 6 
#
# 1 122.4405 38.8345 41.4751 -2.0072 -15.4635 1.4133
# 2 38.8345 109.3757 28.5894 22.5351 -3.9755 -11.5628
# 3 41.4751 28.5894 121.8195 5.5161 7.9114 -1.6440
# 4 -2.0072 22.5351 5.5161 32.7650 5.7090 -4.2297
# 5 -15.4635 -3.9755 7.9114 5.7090 34.4135 5.6124
# 6 1.4133 -11.5628 -1.6440 -4.2297 5.6124 30.5947
#
#
#
# Elastic Compliance Matrix: (Units=1/GPa)
#
#
# Indices 1 2 3 4 5 6 
#
# 1 0.011288 -0.003711 -0.003479 0.002518 0.005477 -0.002767
# 2 -0.003711 0.013037 -0.001421 -0.008661 0.001009 0.003640
# 3 -0.003479 -0.001421 0.010013 -0.000078 -0.004166 0.000915
# 4 0.002518 -0.008661 -0.000078 0.038214 -0.006699 0.003118
# 5 0.005477 0.001009 -0.004166 -0.006699 0.034916 -0.007427
# 6 -0.002767 0.003640 0.000915 0.003118 -0.007427 0.036032
#
#
# Mechanical properties :
#
#
# Convention : Reuss Voigt Hill
#
# Bulk Modulus (GPa) = 58.41968 63.49264 60.95616
# Shear Modulus (GPa) = 30.04324 35.87044 32.95684
#
# Velocity S-wave (km/s) = 3.69625 4.03884 3.87134
# Velocity P-wave (km/s) = 6.69201 7.11499 6.90674
#
# Compressibility (1/GPa) = 0.01711752
#
# Stress axis : x y z
#
# Youngs Moduli (GPa) = 88.59327 76.70207 99.86784
#
# Poissons Ratio (x) = 0.28460 0.34746
# Poissons Ratio (y) = 0.32873 0.14187
# Poissons Ratio (z) = 0.30824 0.10896
#
# Static dielectric constant tensor:
#      x y z
#    x 4.173730 -0.101900 -0.144300 
#    y -0.101900 4.363600 0.163730 
#    z -0.144300 0.163730 4.199610 
# 
# 
# High freq. dielectric constant tensor:
#      x y z
#    x 1.855280 -0.001060 -0.005070 
#    y -0.001060 1.876230 0.008720 
#    z -0.005070 0.008720 1.874720 
# 
# From -- ./inp_files/419246.got.cif
#   From: 2010.06.25/outbox.cif.g09.slc.cpg/sg2_210_cif.got.tgz:419246.got - 2010.06.27 13:26:56.
