data_PCOD8018626
_publ_section_title
;
Structure prediction by ZEFSAII (Michael W. Deem and Ramdas Pophale) SiO2 
 PCOD8018626
Probable space group: P -1
;
_chemical_formula_sum "Si O2"
_cell_formula_units_Z 16
_cell_length_a 10.489523
_cell_length_b 11.745749
_cell_length_c 7.056263
_cell_angle_alpha 64.738485
_cell_angle_beta 107.513598
_cell_angle_gamma 92.424195
_cell_volume 746.049648
_symmetry_space_group_name_H-M "P -1"
_symmetry_group_IT_number 2
_symmetry_cell_setting 'triclinic'
loop_
_space_group_symop_operation_xyz
x,y,z
-x,-y,-z
loop_
_atom_site_type_symbol
_atom_site_label
_atom_site_fract_x
_atom_site_fract_y
_atom_site_fract_z
Si Si1 0.981560 0.040891 0.252061
Si Si2 0.960660 0.607588 0.246837
Si Si3 0.721906 0.479394 0.096917
Si Si4 0.839207 0.298063 0.992945
Si Si5 0.517801 0.533408 0.269033
Si Si6 0.532648 0.984445 0.745744
Si Si7 0.167210 0.108878 0.980084
Si Si8 0.571655 0.192614 0.900086
O O1 0.859443 0.969967 0.164599
O O2 0.956565 0.190351 0.151881
O O3 0.000000 0.000000 0.500000
O O4 0.112398 0.026012 0.186853
O O5 0.835023 0.575458 0.085952
O O6 0.910671 0.750765 0.192277
O O7 0.000000 0.500000 0.500000
O O8 0.097215 0.601222 0.186988
O O9 0.655253 0.467660 0.283552
O O10 0.795966 0.347920 0.147767
O O11 0.605277 0.519837 0.862605
O O12 0.713535 0.242410 0.875926
O O13 0.500000 0.500000 0.500000
O O14 0.525353 0.684844 0.160653
O O15 0.500000 0.000000 0.500000
O O16 0.524963 0.124300 0.737111
O O17 0.673264 0.898238 0.910611
O O18 0.420377 0.907643 0.851267
#
# Coordination Sequence:
#
# PCOD8018626 Si02
#       8
#     2   2   2   2   2   2   2   2
#     4  10  22  40  68  95 127 178 215 277 343 385
#     4  11  25  42  69 101 139 184 220 281 344 394
#     4  10  23  42  65  98 136 171 234 270 329 410
#     4  10  22  44  65  98 140 169 230 280 324 421
#     4  10  23  44  69  98 133 183 220 286 339 393
#     4  11  24  42  70  99 133 177 219 285 344 393
#     4  10  23  44  62  98 137 164 233 276 321 422
#     4  10  23  42  64  98 134 165 232 277 327 415
#
# _framework density 21.446292
#
# number of rings (size 3 to 8) (size 9 to 14) (size 15 to 20)
#    0.000    1.750    1.250    1.125    7.000    4.000 
#    0.000    0.000    0.000    0.000    0.000    0.000 
#    0.000    0.000    0.000    0.000    0.000    0.000 
#
# Total GULP energy -198221.046467 kJ/mol
# GULP energy per Si atom -12388.815404 kJ/mol
# Density = 2.139748 g / cm^3
# Si number density = 21.446292 Si / 1000 Ang^3
#
#
#
# Elastic Constant Matrix: (Units=GPa)
#
#
# Indices 1 2 3 4 5 6 
#
# 1 124.0154 51.6069 51.1286 10.0839 -16.0250 10.0689
# 2 51.6069 121.7570 57.9779 9.9947 -14.8221 3.8956
# 3 51.1286 57.9779 148.7783 13.6546 -24.2590 7.3985
# 4 10.0839 9.9947 13.6546 32.0248 -3.7701 -1.1319
# 5 -16.0250 -14.8221 -24.2590 -3.7701 29.4948 1.0767
# 6 10.0689 3.8956 7.3985 -1.1319 1.0767 43.7711
#
#
#
# Elastic Compliance Matrix: (Units=1/GPa)
#
#
# Indices 1 2 3 4 5 6 
#
# 1 0.010751 -0.003206 -0.001787 -0.001380 0.002657 -0.001987
# 2 -0.003206 0.011228 -0.002971 -0.001067 0.001315 0.000180
# 3 -0.001787 -0.002971 0.009583 -0.002024 0.005200 -0.001125
# 4 -0.001380 -0.001067 -0.002024 0.033055 0.001217 0.001579
# 5 0.002657 0.001315 0.005200 0.001217 0.040535 -0.002573
# 6 -0.001987 0.000180 -0.001125 0.001579 -0.002573 0.023581
#
#
# Mechanical properties :
#
#
# Convention : Reuss Voigt Hill
#
# Bulk Modulus (GPa) = 63.95569 79.55305 71.75437
# Shear Modulus (GPa) = 33.36190 36.64730 35.00460
#
# Velocity S-wave (km/s) = 3.94839 4.13824 4.04443
# Velocity P-wave (km/s) = 7.11846 7.74648 7.43910
#
# Compressibility (1/GPa) = 0.01563583
#
# Stress axis : x y z
#
# Youngs Moduli (GPa) = 93.01464 89.06141 104.35548
#
# Poissons Ratio (x) = 0.28551 0.18645
# Poissons Ratio (y) = 0.29818 0.30999
# Poissons Ratio (z) = 0.16619 0.26456
#
# Static dielectric constant tensor:
#      x y z
#    x 4.061270 -0.122020 -0.105500 
#    y -0.122020 4.382700 0.036380 
#    z -0.105500 0.036380 3.589090 
# 
# 
# High freq. dielectric constant tensor:
#      x y z
#    x 1.854710 -0.000750 -0.014280 
#    y -0.000750 1.854860 0.011410 
#    z -0.014280 0.011410 1.815610 
# 
# From -- ./inp_files/69364.got.cif
#   From: 2010.06.25/outbox.cif.g09.slc.cpg/sg2_35_cif.got.tgz:69364.got - 2010.06.27 13:26:56.
