data_PCOD8018218
_publ_section_title
;
Structure prediction by ZEFSAII (Michael W. Deem and Ramdas Pophale) SiO2 
 PCOD8018218
Probable space group: P -1
;
_chemical_formula_sum "Si O2"
_cell_formula_units_Z 16
_cell_length_a 25.466447
_cell_length_b 5.045781
_cell_length_c 15.223287
_cell_angle_alpha 66.636512
_cell_angle_beta 27.263485
_cell_angle_gamma 84.762636
_cell_volume 644.647026
_symmetry_space_group_name_H-M "P -1"
_symmetry_group_IT_number 2
_symmetry_cell_setting 'triclinic'
loop_
_space_group_symop_operation_xyz
x,y,z
-x,-y,-z
loop_
_atom_site_type_symbol
_atom_site_label
_atom_site_fract_x
_atom_site_fract_y
_atom_site_fract_z
Si Si1 0.381287 0.663333 0.897218
Si Si2 0.836680 0.050549 0.130941
Si Si3 0.383482 0.590858 0.195831
Si Si4 0.647386 0.949678 0.572607
Si Si5 0.866303 0.750414 0.955583
Si Si6 0.628016 0.703966 0.211552
Si Si7 0.843153 0.459501 0.360813
Si Si8 0.805897 0.826439 0.613160
O O1 0.523880 0.945266 0.709306
O O2 0.429278 0.553547 0.755461
O O3 0.323348 0.890873 0.930637
O O4 0.250422 0.272242 0.189538
O O5 0.838516 0.366144 0.040159
O O6 0.984616 0.220946 0.943010
O O7 0.814897 0.776340 0.124581
O O8 0.708296 0.830775 0.422147
O O9 0.434284 0.347454 0.184339
O O10 0.234295 0.384340 0.502698
O O11 0.326082 0.556588 0.187660
O O12 0.500000 0.000000 0.000000
O O13 0.779850 0.331282 0.372020
O O14 0.772631 0.763503 0.019761
O O15 0.037542 0.086935 0.639908
O O16 0.500000 0.500000 0.500000
O O17 0.808649 0.141344 0.520872
#
# Coordination Sequence:
#
# PCOD8018218 Si02
#       8
#     2   2   2   2   2   2   2   2
#     4  12  27  43  72  98 132 174 226 274 326 406
#     4  11  23  42  70  99 134 177 224 267 336 402
#     4  11  22  39  66  91 142 176 219 271 326 390
#     4  11  25  39  63 103 133 181 223 272 325 399
#     4  11  24  46  71  94 137 176 216 289 335 388
#     4  12  27  48  70  99 131 171 224 283 341 387
#     4  10  22  40  63  97 139 178 213 274 325 395
#     4  10  24  43  64 102 132 175 225 263 338 396
#
# _framework density 24.819787000000002
#
# number of rings (size 3 to 8) (size 9 to 14) (size 15 to 20)
#    0.000    1.000    1.250    4.500    7.000    3.500 
#    0.000    0.000    0.000    0.000    0.000    0.000 
#    0.000    0.000    0.000    0.000    0.000    0.000 
#
# Total GULP energy -198362.623410 kJ/mol
# GULP energy per Si atom -12397.663963 kJ/mol
# Density = 2.476330 g / cm^3
# Si number density = 24.819787 Si / 1000 Ang^3
#
#
#
# Elastic Constant Matrix: (Units=GPa)
#
#
# Indices 1 2 3 4 5 6 
#
# 1 131.8816 22.0565 36.2756 7.0827 -5.1793 -11.7690
# 2 22.0565 50.9397 -24.5851 6.8951 -2.2424 -5.6319
# 3 36.2756 -24.5851 68.6287 13.3866 -2.4801 -11.2089
# 4 7.0827 6.8951 13.3866 29.9672 3.1533 1.7398
# 5 -5.1793 -2.2424 -2.4801 3.1533 41.9163 3.5225
# 6 -11.7690 -5.6319 -11.2089 1.7398 3.5225 40.9740
#
#
#
# Elastic Compliance Matrix: (Units=1/GPa)
#
#
# Indices 1 2 3 4 5 6 
#
# 1 0.012665 -0.012500 -0.012555 0.005605 -0.000122 -0.001742
# 2 -0.012500 0.042243 0.027417 -0.019924 0.002970 0.010307
# 3 -0.012555 0.027417 0.036964 -0.020777 0.002748 0.010920
# 4 0.005605 -0.019924 -0.020777 0.046865 -0.004420 -0.008422
# 5 -0.000122 0.002970 0.002748 -0.004420 0.024563 -0.000799
# 6 -0.001742 0.010307 0.010920 -0.008422 -0.000799 0.028736
#
#
# Mechanical properties :
#
#
# Convention : Reuss Voigt Hill
#
# Bulk Modulus (GPa) = 10.35225 35.43821 22.89523
# Shear Modulus (GPa) = 22.77802 37.08504 29.93153
#
# Velocity S-wave (km/s) = 3.03270 3.86965 3.47645
# Velocity P-wave (km/s) = 4.05501 5.85446 5.03576
#
# Compressibility (1/GPa) = 0.09659734
#
# Stress axis : x y z
#
# Youngs Moduli (GPa) = 78.95712 23.67269 27.05301
#
# Poissons Ratio (x) = 0.29590 0.33964
# Poissons Ratio (y) = 0.98695 -0.74171
# Poissons Ratio (z) = 0.99127 -0.64903
#
# Static dielectric constant tensor:
#      x y z
#    x 4.663920 -0.133630 -0.091400 
#    y -0.133630 4.519140 0.369890 
#    z -0.091400 0.369890 4.574080 
# 
# 
# High freq. dielectric constant tensor:
#      x y z
#    x 1.995840 -0.007290 0.001760 
#    y -0.007290 1.985630 0.016830 
#    z 0.001760 0.016830 2.001610 
# 
# From -- ./inp_files/77189.got.cif
#   From: 2010.06.25/outbox.cif.g09.slc.cpg/sg2_39_cif.got.tgz:77189.got - 2010.06.27 13:26:56.
