data_PCOD8018894
_publ_section_title
;
Structure prediction by ZEFSAII (Michael W. Deem and Ramdas Pophale) SiO2 
 PCOD8018894
Probable space group: P -1
;
_chemical_formula_sum "Si O2"
_cell_formula_units_Z 16
_cell_length_a 9.340450
_cell_length_b 14.732832
_cell_length_c 9.071063
_cell_angle_alpha 51.145927
_cell_angle_beta 133.793689
_cell_angle_gamma 108.515643
_cell_volume 686.432747
_symmetry_space_group_name_H-M "P -1"
_symmetry_group_IT_number 2
_symmetry_cell_setting 'triclinic'
loop_
_space_group_symop_operation_xyz
x,y,z
-x,-y,-z
loop_
_atom_site_type_symbol
_atom_site_label
_atom_site_fract_x
_atom_site_fract_y
_atom_site_fract_z
Si Si1 0.959434 0.117127 0.950053
Si Si2 0.048610 0.632648 0.034098
Si Si3 0.242144 0.525138 0.983458
Si Si4 0.752684 0.234387 0.415191
Si Si5 0.313607 0.193967 0.530086
Si Si6 0.454690 0.607133 0.473908
Si Si7 0.601978 0.868761 0.663639
Si Si8 0.076234 0.041694 0.664220
O O1 0.815832 0.219740 0.647926
O O2 0.163623 0.163714 0.088585
O O3 0.857506 0.076935 0.066987
O O4 0.000000 0.000000 0.000000
O O5 0.212086 0.663983 0.237196
O O6 0.908764 0.556588 0.100779
O O7 0.170620 0.560771 0.061126
O O8 0.911513 0.749994 0.748421
O O9 0.241217 0.632549 0.763786
O O10 0.468988 0.443251 0.256318
O O11 0.520365 0.219148 0.250766
O O12 0.897422 0.137966 0.514896
O O13 0.422148 0.290524 0.586826
O O14 0.436692 0.135539 0.535227
O O15 0.275806 0.097740 0.722946
O O16 0.500000 0.500000 0.500000
O O17 0.500000 0.000000 0.500000
O O18 0.000000 0.000000 0.500000
#
# Coordination Sequence:
#
# PCOD8018894 Si02
#       8
#     2   2   2   2   2   2   2   2
#     4  10  22  41  62  87 130 174 218 263 323 395
#     4   9  18  37  61  95 132 159 212 277 322 379
#     4   9  18  36  64  92 126 169 210 268 327 388
#     4  11  23  40  65  93 129 178 215 260 341 394
#     4  11  22  39  67  98 131 173 215 277 329 374
#     4   9  20  38  63 103 133 157 214 278 332 387
#     4  12  23  43  62  89 136 178 216 271 326 387
#     4  11  20  40  66  93 128 170 227 272 317 384
#
# _framework density 23.308910000000001
#
# number of rings (size 3 to 8) (size 9 to 14) (size 15 to 20)
#    0.000    1.750    5.000    0.750    0.000    2.000 
#    6.750    4.375    0.000    4.500    0.000    0.000 
#    0.000    0.000    0.000    0.000    0.000    0.000 
#
# Total GULP energy -198298.282867 kJ/mol
# GULP energy per Si atom -12393.642679 kJ/mol
# Density = 2.325586 g / cm^3
# Si number density = 23.308910 Si / 1000 Ang^3
#
#
#
# Elastic Constant Matrix: (Units=GPa)
#
#
# Indices 1 2 3 4 5 6 
#
# 1 92.9466 45.9622 41.6696 3.6441 -16.1134 35.1643
# 2 45.9622 118.4700 48.4446 16.5817 -16.6938 41.5382
# 3 41.6696 48.4446 147.5883 1.8809 -10.6066 42.5629
# 4 3.6441 16.5817 1.8809 34.5237 8.5475 -7.1619
# 5 -16.1134 -16.6938 -10.6066 8.5475 40.1999 -3.7426
# 6 35.1643 41.5382 42.5629 -7.1619 -3.7426 47.1923
#
#
#
# Elastic Compliance Matrix: (Units=1/GPa)
#
#
# Indices 1 2 3 4 5 6 
#
# 1 0.017282 -0.000353 -0.000650 -0.005838 0.006702 -0.012335
# 2 -0.000353 0.017589 -0.000103 -0.013961 0.008562 -0.016565
# 3 -0.000650 -0.000103 0.009560 -0.002617 0.002004 -0.008285
# 4 -0.005838 -0.013961 -0.002617 0.045555 -0.016222 0.024626
# 5 0.006702 0.008562 0.002004 -0.016222 0.033781 -0.014120
# 6 -0.012335 -0.016565 -0.008285 0.024626 -0.014120 0.055051
#
#
# Mechanical properties :
#
#
# Convention : Reuss Voigt Hill
#
# Bulk Modulus (GPa) = 23.68649 70.12865 46.90757
# Shear Modulus (GPa) = 25.62757 39.24508 32.43632
#
# Velocity S-wave (km/s) = 3.31943 4.10774 3.73444
# Velocity P-wave (km/s) = 4.98754 7.25603 6.22597
#
# Compressibility (1/GPa) = 0.04221815
#
# Stress axis : x y z
#
# Youngs Moduli (GPa) = 57.86300 56.85483 104.60549
#
# Poissons Ratio (x) = 0.02004 0.06803
# Poissons Ratio (y) = 0.02040 0.01081
# Poissons Ratio (z) = 0.03763 0.00587
#
# Static dielectric constant tensor:
#      x y z
#    x 4.456290 0.509690 0.184450 
#    y 0.509690 5.512490 0.637930 
#    z 0.184450 0.637930 4.840330 
# 
# 
# High freq. dielectric constant tensor:
#      x y z
#    x 1.913090 0.004900 0.011550 
#    y 0.004900 1.939150 0.001660 
#    z 0.011550 0.001660 1.909360 
# 
# From -- ./inp_files/214593.got.cif
#   From: 2010.06.25/outbox.cif.g09.slc.cpg/sg2_108_cif.got.tgz:214593.got - 2010.06.27 13:26:56.
