data_PCOD8018744
_publ_section_title
;
Structure prediction by ZEFSAII (Michael W. Deem and Ramdas Pophale) SiO2 
 PCOD8018744
Probable space group: P -1
;
_chemical_formula_sum "Si O2"
_cell_formula_units_Z 12
_cell_length_a 9.412946
_cell_length_b 8.317197
_cell_length_c 12.188137
_cell_angle_alpha 69.442112
_cell_angle_beta 143.121892
_cell_angle_gamma 107.465830
_cell_volume 535.849166
_symmetry_space_group_name_H-M "P -1"
_symmetry_group_IT_number 2
_symmetry_cell_setting 'triclinic'
loop_
_space_group_symop_operation_xyz
x,y,z
-x,-y,-z
loop_
_atom_site_type_symbol
_atom_site_label
_atom_site_fract_x
_atom_site_fract_y
_atom_site_fract_z
Si Si1 0.172455 0.336418 0.276180
Si Si2 0.299030 0.129699 0.971129
Si Si3 0.555179 0.577085 0.379684
Si Si4 0.646893 0.250731 0.985592
Si Si5 0.788335 0.214535 0.614929
Si Si6 0.648682 0.915745 0.734865
O O1 0.286612 0.521881 0.264537
O O2 0.316402 0.287971 0.488655
O O3 0.208811 0.196055 0.238543
O O4 0.895017 0.357607 0.125685
O O5 0.524749 0.232476 0.033576
O O6 0.063817 0.209469 0.756158
O O7 0.297285 0.151695 0.095068
O O8 0.301617 0.931605 0.990243
O O9 0.539032 0.656284 0.230183
O O10 0.713845 0.409659 0.521146
O O11 0.633079 0.107413 0.454241
O O12 0.737052 0.114687 0.723907
#
# Coordination Sequence:
#
# PCOD8018744 Si02
#       6
#     2   2   2   2   2   2
#     4  10  22  42  68  97 122 167 211 264 313 368
#     4  11  25  41  65  93 133 169 207 256 315 383
#     4  10  24  40  67  96 128 159 212 269 312 363
#     4  11  25  42  62  97 131 170 204 256 324 378
#     4  10  22  41  65  98 120 167 214 263 308 364
#     4  10  22  40  70  93 123 166 221 257 304 372
#
# _framework density 22.394362999999998
#
# number of rings (size 3 to 8) (size 9 to 14) (size 15 to 20)
#    0.000    1.667    1.667    1.000    9.333    4.667 
#    0.000    9.167    0.000    3.000    0.000    0.000 
#    0.000    0.000    0.000    0.000    0.000    0.000 
#
# Total GULP energy -148747.777787 kJ/mol
# GULP energy per Si atom -12395.648149 kJ/mol
# Density = 2.234339 g / cm^3
# Si number density = 22.394363 Si / 1000 Ang^3
#
#
#
# Elastic Constant Matrix: (Units=GPa)
#
#
# Indices 1 2 3 4 5 6 
#
# 1 104.7226 63.2869 81.4543 1.8430 9.7630 6.1325
# 2 63.2869 63.2858 44.6076 -3.5553 3.9806 -0.8683
# 3 81.4543 44.6076 126.2403 -0.8471 7.3624 8.1512
# 4 1.8430 -3.5553 -0.8471 31.5391 4.4966 0.8711
# 5 9.7630 3.9806 7.3624 4.4966 37.0762 1.8445
# 6 6.1325 -0.8683 8.1512 0.8711 1.8445 16.2297
#
#
#
# Elastic Compliance Matrix: (Units=1/GPa)
#
#
# Indices 1 2 3 4 5 6 
#
# 1 0.039450 -0.029594 -0.014281 -0.005315 -0.003299 -0.008657
# 2 -0.029594 0.043841 0.002825 0.006257 0.001187 0.011638
# 3 -0.014281 0.002825 0.016318 0.001645 0.000154 -0.002754
# 4 -0.005315 0.006257 0.001645 0.033282 -0.003642 0.000144
# 5 -0.003299 0.001187 0.000154 -0.003642 0.028212 -0.001778
# 6 -0.008657 0.011638 -0.002754 0.000144 -0.001778 0.067087
#
#
# Mechanical properties :
#
#
# Convention : Reuss Voigt Hill
#
# Bulk Modulus (GPa) = 57.11756 74.77182 65.94469
# Shear Modulus (GPa) = 15.81639 23.96232 19.88936
#
# Velocity S-wave (km/s) = 2.66045 3.27466 2.98340
# Velocity P-wave (km/s) = 5.91591 6.91079 6.43261
#
# Compressibility (1/GPa) = 0.01750775
#
# Stress axis : x y z
#
# Youngs Moduli (GPa) = 25.34861 22.80952 61.28212
#
# Poissons Ratio (x) = 0.67503 0.87520
# Poissons Ratio (y) = 0.75017 -0.17311
# Poissons Ratio (z) = 0.36201 -0.06443
#
# Static dielectric constant tensor:
#      x y z
#    x 3.891690 0.142510 0.051540 
#    y 0.142510 3.938570 0.141880 
#    z 0.051540 0.141880 4.164930 
# 
# 
# High freq. dielectric constant tensor:
#      x y z
#    x 1.859680 0.002160 0.006180 
#    y 0.002160 1.876610 0.003000 
#    z 0.006180 0.003000 1.891790 
# 
# From -- ./inp_files/277282.got.cif
#   From: 2010.06.25/outbox.cif.g09.slc.cpg/sg2_139_cif.got.tgz:277282.got - 2010.06.27 13:26:56.
