data_PCOD8018328
_publ_section_title
;
Structure prediction by ZEFSAII (Michael W. Deem and Ramdas Pophale) SiO2 
 PCOD8018328
Probable space group: P -1
;
_chemical_formula_sum "Si O2"
_cell_formula_units_Z 14
_cell_length_a 5.367538
_cell_length_b 5.011117
_cell_length_c 19.903505
_cell_angle_alpha 67.184234
_cell_angle_beta 86.731686
_cell_angle_gamma 88.809875
_cell_volume 492.660814
_symmetry_space_group_name_H-M "P -1"
_symmetry_group_IT_number 2
_symmetry_cell_setting 'triclinic'
loop_
_space_group_symop_operation_xyz
x,y,z
-x,-y,-z
loop_
_atom_site_type_symbol
_atom_site_label
_atom_site_fract_x
_atom_site_fract_y
_atom_site_fract_z
Si Si1 0.315978 0.710517 0.710833
Si Si2 0.353671 0.181778 0.424969
Si Si3 0.513861 0.557753 0.915161
Si Si4 0.528954 0.092944 0.780351
Si Si5 0.060888 0.647685 0.321171
Si Si6 0.010333 0.327872 0.948054
Si Si7 0.885012 0.789014 0.444047
O O1 0.409429 0.873790 0.623392
O O2 0.323554 0.945908 0.747723
O O3 0.045144 0.583044 0.708900
O O4 0.477123 0.433292 0.760688
O O5 0.375309 0.157379 0.510869
O O6 0.287928 0.514780 0.374869
O O7 0.092058 0.032563 0.426709
O O8 0.522373 0.902682 0.867007
O O9 0.269883 0.410227 0.898179
O O10 0.770012 0.411401 0.897707
O O11 0.500000 0.500000 0.000000
O O12 0.809094 0.080229 0.745659
O O13 0.844942 0.758171 0.366496
O O14 0.000000 0.500000 0.000000
O O15 0.000000 0.000000 0.000000
O O16 0.000000 0.500000 0.500000
#
# Coordination Sequence:
#
# PCOD8018328 Si02
#       7
#     2   2   2   2   2   2   2
#     4  11  25  42  67  95 134 176 228 272 348 418
#     4   9  19  38  59  93 128 168 222 280 331 405
#     4  10  24  47  74 105 144 186 238 299 357 426
#     4  11  26  44  65  99 134 175 228 283 345 417
#     4  10  22  40  65  88 134 175 220 278 343 411
#     4  10  22  42  71 103 140 179 226 286 355 418
#     4   9  17  35  63  88 128 168 217 283 333 396
#
# _framework density 28.417114999999999
#
# number of rings (size 3 to 8) (size 9 to 14) (size 15 to 20)
#    0.000    2.000    1.429    0.429    4.000    5.143 
#    2.571    6.429    0.000    0.000    0.000    0.000 
#    0.000    0.000    0.000    0.000    0.000    0.000 
#
# Total GULP energy -173450.793607 kJ/mol
# GULP energy per Si atom -12389.342401 kJ/mol
# Density = 2.835244 g / cm^3
# Si number density = 28.417115 Si / 1000 Ang^3
#
#
#
# Elastic Constant Matrix: (Units=GPa)
#
#
# Indices 1 2 3 4 5 6 
#
# 1 121.6361 10.1451 13.7929 -11.9648 -12.8450 23.5354
# 2 10.1451 86.4297 3.4713 -9.9116 -11.8553 10.4066
# 3 13.7929 3.4713 158.7102 -38.3309 -5.3881 3.7735
# 4 -11.9648 -9.9116 -38.3309 50.4995 1.4242 -0.9383
# 5 -12.8450 -11.8553 -5.3881 1.4242 36.2812 -7.3151
# 6 23.5354 10.4066 3.7735 -0.9383 -7.3151 41.6267
#
#
#
# Elastic Compliance Matrix: (Units=1/GPa)
#
#
# Indices 1 2 3 4 5 6 
#
# 1 0.009645 0.000024 -0.000155 0.002014 0.002314 -0.004993
# 2 0.000024 0.012663 0.000575 0.002778 0.003612 -0.002534
# 3 -0.000155 0.000575 0.007782 0.005947 0.000963 -0.000458
# 4 0.002014 0.002778 0.005947 0.025275 0.001191 -0.001594
# 5 0.002314 0.003612 0.000963 0.001191 0.030273 0.003048
# 6 -0.004993 -0.002534 -0.000458 -0.001594 0.003048 0.028021
#
#
# Mechanical properties :
#
#
# Convention : Reuss Voigt Hill
#
# Bulk Modulus (GPa) = 32.28166 46.84386 39.56276
# Shear Modulus (GPa) = 40.61791 48.30592 44.46192
#
# Velocity S-wave (km/s) = 3.78477 4.12744 3.95982
# Velocity P-wave (km/s) = 5.52123 6.26375 5.90417
#
# Compressibility (1/GPa) = 0.03097735
#
# Stress axis : x y z
#
# Youngs Moduli (GPa) = 103.67547 78.96783 128.50931
#
# Poissons Ratio (x) = -0.00187 0.01992
# Poissons Ratio (y) = -0.00245 -0.07388
# Poissons Ratio (z) = 0.01607 -0.04540
#
# Static dielectric constant tensor:
#      x y z
#    x 5.343250 -0.589410 -0.385610 
#    y -0.589410 5.474350 -0.558880 
#    z -0.385610 -0.558880 5.968430 
# 
# 
# High freq. dielectric constant tensor:
#      x y z
#    x 2.165640 -0.016680 0.005470 
#    y -0.016680 2.142960 -0.031210 
#    z 0.005470 -0.031210 2.169770 
# 
# From -- ./inp_files/7988.got.cif
#   From: 2010.06.25/outbox.cif.g09.slc.cpg/sg2_4_cif.got.tgz:7988.got - 2010.06.27 13:26:56.
