data_PCOD8018785
_publ_section_title
;
Structure prediction by ZEFSAII (Michael W. Deem and Ramdas Pophale) SiO2 
 PCOD8018785
Probable space group: P -1
;
_chemical_formula_sum "Si O2"
_cell_formula_units_Z 16
_cell_length_a 21.543690
_cell_length_b 9.299792
_cell_length_c 20.051182
_cell_angle_alpha 145.472776
_cell_angle_beta 159.237629
_cell_angle_gamma 33.082485
_cell_volume 760.221182
_symmetry_space_group_name_H-M "P -1"
_symmetry_group_IT_number 2
_symmetry_cell_setting 'triclinic'
loop_
_space_group_symop_operation_xyz
x,y,z
-x,-y,-z
loop_
_atom_site_type_symbol
_atom_site_label
_atom_site_fract_x
_atom_site_fract_y
_atom_site_fract_z
Si Si1 0.898043 0.840445 0.919177
Si Si2 0.642848 0.211948 0.014352
Si Si3 0.035249 0.809345 0.766346
Si Si4 0.651049 0.790736 0.380361
Si Si5 0.485193 0.153242 0.475302
Si Si6 0.751706 0.371260 0.886732
Si Si7 0.652544 0.202902 0.165366
Si Si8 0.733240 0.687186 0.115978
O O1 0.731048 0.717804 0.715625
O O2 0.820648 0.088043 0.885885
O O3 0.076750 0.610970 0.979572
O O4 0.954073 0.939884 0.083670
O O5 0.528857 0.085558 0.801116
O O6 0.500000 0.500000 0.000000
O O7 0.830602 0.228228 0.176425
O O8 0.696554 0.062154 0.082177
O O9 0.086498 0.538594 0.759854
O O10 0.825879 0.856216 0.549151
O O11 0.709415 0.469148 0.328404
O O12 0.604216 0.935096 0.459005
O O13 0.579666 0.383209 0.669184
O O14 0.500000 0.000000 0.500000
O O15 0.681731 0.608112 0.960448
O O16 0.760392 0.977759 0.242970
O O17 0.432282 0.292072 0.991485
#
# Coordination Sequence:
#
# PCOD8018785 Si02
#       8
#     2   2   2   2   2   2   2   2
#     4   9  16  28  48  79 106 133 165 228 269 306
#     4  10  20  37  54  78 108 146 185 225 262 312
#     4  11  19  33  58  83 109 138 181 229 267 317
#     4  11  20  33  57  84 109 140 184 223 270 320
#     4  10  17  27  50  81 108 132 172 227 272 309
#     4   9  17  29  49  78 106 133 172 219 272 311
#     4  10  21  38  56  75 113 153 175 220 273 320
#     4  10  20  37  56  79 114 144 178 221 274 325
#
# _framework density 21.046506000000001
#
# number of rings (size 3 to 8) (size 9 to 14) (size 15 to 20)
#    0.000    2.000    5.000    1.500    1.750    2.500 
#    0.000    0.000    0.000    1.500    0.000    0.000 
#    0.000    0.000    0.000    0.000    0.000    0.000 
#
# Total GULP energy -198267.894782 kJ/mol
# GULP energy per Si atom -12391.743424 kJ/mol
# Density = 2.099860 g / cm^3
# Si number density = 21.046506 Si / 1000 Ang^3
#
#
#
# Elastic Constant Matrix: (Units=GPa)
#
#
# Indices 1 2 3 4 5 6 
#
# 1 133.4952 18.6344 46.4375 1.2893 18.8858 -21.7209
# 2 18.6344 16.2995 9.6077 1.6722 4.7874 -2.8077
# 3 46.4375 9.6077 141.2215 -0.8481 28.2679 -7.4785
# 4 1.2893 1.6722 -0.8481 12.6760 -9.3808 -1.0176
# 5 18.8858 4.7874 28.2679 -9.3808 30.6031 -3.8318
# 6 -21.7209 -2.8077 -7.4785 -1.0176 -3.8318 19.8497
#
#
#
# Elastic Compliance Matrix: (Units=1/GPa)
#
#
# Indices 1 2 3 4 5 6 
#
# 1 0.011545 -0.009244 -0.002049 -0.001530 -0.003016 0.009893
# 2 -0.009244 0.077007 0.000034 -0.018592 -0.012392 -0.002556
# 3 -0.002049 0.000034 0.009607 -0.006375 -0.009671 -0.000811
# 4 -0.001530 -0.018592 -0.006375 0.116012 0.046327 0.008184
# 5 -0.003016 -0.012392 -0.009671 0.046327 0.060275 0.005313
# 6 0.009893 -0.002556 -0.000811 0.008184 0.005313 0.061983
#
#
# Mechanical properties :
#
#
# Convention : Reuss Voigt Hill
#
# Bulk Modulus (GPa) = 13.22029 48.93058 31.07543
# Shear Modulus (GPa) = 13.01540 27.04821 20.03181
#
# Velocity S-wave (km/s) = 2.48949 3.58881 3.08845
# Velocity P-wave (km/s) = 3.81556 6.36176 5.24550
#
# Compressibility (1/GPa) = 0.07564132
#
# Stress axis : x y z
#
# Youngs Moduli (GPa) = 86.61535 12.98585 104.09098
#
# Poissons Ratio (x) = 0.12004 0.21328
# Poissons Ratio (y) = 0.80070 -0.00358
# Poissons Ratio (z) = 0.17748 -0.00045
#
# Static dielectric constant tensor:
#      x y z
#    x 4.326640 -0.014780 -0.173110 
#    y -0.014780 3.419900 -0.185460 
#    z -0.173110 -0.185460 4.434210 
# 
# 
# High freq. dielectric constant tensor:
#      x y z
#    x 1.836040 -0.022610 0.007310 
#    y -0.022610 1.772680 -0.001490 
#    z 0.007310 -0.001490 1.820750 
# 
# From -- ./inp_files/542787.got.cif
#   From: 2010.06.25/outbox.cif.g09.slc.cpg/sg2_272_cif.got.tgz:542787.got - 2010.06.27 13:26:56.
