data_PCOD8018311
_publ_section_title
;
Structure prediction by ZEFSAII (Michael W. Deem and Ramdas Pophale) SiO2 
 PCOD8018311
Probable space group: P -1
;
_chemical_formula_sum "Si O2"
_cell_formula_units_Z 12
_cell_length_a 14.150758
_cell_length_b 13.047561
_cell_length_c 11.867904
_cell_angle_alpha 42.614182
_cell_angle_beta 159.551951
_cell_angle_gamma 136.995841
_cell_volume 510.162165
_symmetry_space_group_name_H-M "P -1"
_symmetry_group_IT_number 2
_symmetry_cell_setting 'triclinic'
loop_
_space_group_symop_operation_xyz
x,y,z
-x,-y,-z
loop_
_atom_site_type_symbol
_atom_site_label
_atom_site_fract_x
_atom_site_fract_y
_atom_site_fract_z
Si Si1 0.240819 0.445553 0.882339
Si Si2 0.263033 0.185750 0.557745
Si Si3 0.158726 0.827003 0.709870
Si Si4 0.392002 0.960642 0.288254
Si Si5 0.197961 0.229160 0.207474
Si Si6 0.680347 0.722828 0.106006
O O1 0.333504 0.314223 0.013139
O O2 0.000000 0.500000 0.500000
O O3 0.148202 0.372561 0.958939
O O4 0.488367 0.585900 0.068194
O O5 0.259845 0.286430 0.358814
O O6 0.019214 0.215631 0.341501
O O7 0.216941 0.009319 0.607692
O O8 0.553389 0.232919 0.908182
O O9 0.990977 0.739638 0.488030
O O10 0.541391 0.838605 0.491682
O O11 0.500000 0.000000 0.500000
O O12 0.070352 0.899882 0.990813
O O13 0.429763 0.116781 0.128906
#
# Coordination Sequence:
#
# PCOD8018311 Si02
#       6
#     2   2   2   2   2   2
#     4  11  27  45  68  96 142 182 218 276 349 404
#     4  10  22  40  65 100 131 172 221 281 328 386
#     4  10  22  40  66  96 135 171 222 274 335 391
#     4  12  24  40  69 102 134 170 228 280 334 395
#     4  12  25  44  68 103 136 172 225 286 328 395
#     4  11  25  44  66 101 133 184 221 274 343 406
#
# _framework density 23.521932
#
# number of rings (size 3 to 8) (size 9 to 14) (size 15 to 20)
#    0.000    1.000    3.333    2.500   11.667    0.000 
#    0.000    1.667    0.000    0.000    0.000    0.000 
#    0.000    0.000    0.000    0.000    0.000    0.000 
#
# Total GULP energy -148845.157566 kJ/mol
# GULP energy per Si atom -12403.763131 kJ/mol
# Density = 2.346839 g / cm^3
# Si number density = 23.521932 Si / 1000 Ang^3
#
#
#
# Elastic Constant Matrix: (Units=GPa)
#
#
# Indices 1 2 3 4 5 6 
#
# 1 75.4153 21.1484 19.3965 -6.5834 -16.2440 28.0337
# 2 21.1484 106.1836 51.3928 10.8028 -14.9331 19.2839
# 3 19.3965 51.3928 121.2663 15.4449 -16.9716 17.1516
# 4 -6.5834 10.8028 15.4449 46.0904 1.4488 -7.1283
# 5 -16.2440 -14.9331 -16.9716 1.4488 47.1615 -3.4689
# 6 28.0337 19.2839 17.1516 -7.1283 -3.4689 21.8224
#
#
#
# Elastic Compliance Matrix: (Units=1/GPa)
#
#
# Indices 1 2 3 4 5 6 
#
# 1 0.028403 0.002219 0.001713 -0.003422 0.008295 -0.039594
# 2 0.002219 0.013865 -0.003436 -0.003918 0.003068 -0.013194
# 3 0.001713 -0.003436 0.011762 -0.004438 0.003183 -0.009352
# 4 -0.003422 -0.003918 -0.004438 0.026742 -0.003400 0.019541
# 5 0.008295 0.003068 0.003183 -0.003400 0.025329 -0.012953
# 6 -0.039594 -0.013194 -0.009352 0.019541 -0.012953 0.120023
#
#
# Mechanical properties :
#
#
# Convention : Reuss Voigt Hill
#
# Bulk Modulus (GPa) = 18.17440 54.08229 36.12834
# Shear Modulus (GPa) = 20.53608 37.07669 28.80638
#
# Velocity S-wave (km/s) = 2.95797 3.97452 3.50331
# Velocity P-wave (km/s) = 4.40561 6.64113 5.63534
#
# Compressibility (1/GPa) = 0.05502245
#
# Stress axis : x y z
#
# Youngs Moduli (GPa) = 35.20737 72.12286 85.01841
#
# Poissons Ratio (x) = -0.16005 -0.14566
# Poissons Ratio (y) = -0.07813 0.29216
# Poissons Ratio (z) = -0.06032 0.24785
#
# Static dielectric constant tensor:
#      x y z
#    x 4.396960 0.131430 0.020260 
#    y 0.131430 4.153190 0.152190 
#    z 0.020260 0.152190 4.584030 
# 
# 
# High freq. dielectric constant tensor:
#      x y z
#    x 1.933190 0.010610 -0.007530 
#    y 0.010610 1.911060 0.014300 
#    z -0.007530 0.014300 1.941380 
# 
# From -- ./inp_files/30814.got.cif
#   From: 2010.06.25/outbox.cif.g09.slc.cpg/sg2_16_cif.got.tgz:30814.got - 2010.06.27 13:26:56.
