data_PCOD8018533
_publ_section_title
;
Structure prediction by ZEFSAII (Michael W. Deem and Ramdas Pophale) SiO2 
 PCOD8018533
Probable space group: P -1
;
_chemical_formula_sum "Si O2"
_cell_formula_units_Z 14
_cell_length_a 20.231052
_cell_length_b 8.755385
_cell_length_c 7.945723
_cell_angle_alpha 97.676907
_cell_angle_beta 128.794250
_cell_angle_gamma 42.474958
_cell_volume 578.709300
_symmetry_space_group_name_H-M "P -1"
_symmetry_group_IT_number 2
_symmetry_cell_setting 'triclinic'
loop_
_space_group_symop_operation_xyz
x,y,z
-x,-y,-z
loop_
_atom_site_type_symbol
_atom_site_label
_atom_site_fract_x
_atom_site_fract_y
_atom_site_fract_z
Si Si1 0.376301 0.751082 0.671790
Si Si2 0.125193 0.874913 0.904134
Si Si3 0.519093 0.227164 0.869056
Si Si4 0.169684 0.342271 0.894669
Si Si5 0.110920 0.021903 0.538894
Si Si6 0.125358 0.193667 0.074404
Si Si7 0.338292 0.324060 0.351109
O O1 0.495312 0.428566 0.763523
O O2 0.253083 0.865053 0.627179
O O3 0.291082 0.953886 0.404685
O O4 0.472972 0.743404 0.915016
O O5 0.976646 0.987792 0.689896
O O6 0.170381 0.870208 0.791695
O O7 0.285690 0.548356 0.182196
O O8 0.073055 0.095502 0.976534
O O9 0.372954 0.337130 0.598099
O O10 0.684606 0.890171 0.036249
O O11 0.145683 0.210019 0.914141
O O12 0.204660 0.397442 0.124376
O O13 0.015801 0.642117 0.594422
O O14 0.000000 0.500000 0.000000
O O15 0.500000 0.000000 0.500000
#
# Coordination Sequence:
#
# PCOD8018533 Si02
#       7
#     2   2   2   2   2   2   2
#     4  11  23  40  60  92 130 157 204 254 310 357
#     4  10  22  40  67  91 121 162 213 248 310 370
#     4  10  22  41  61  86 123 169 199 250 304 368
#     4  10  22  40  68  88 124 162 208 253 307 364
#     4  10  22  42  66  93 119 163 207 262 302 360
#     4  12  24  38  61  99 125 160 204 257 308 368
#     4   9  19  42  64  88 118 162 211 250 297 369
#
# _framework density 24.191763999999999
#
# number of rings (size 3 to 8) (size 9 to 14) (size 15 to 20)
#    0.000    1.714    2.857    0.857    2.000    3.429 
#   10.286    0.714    0.000    0.000    0.000    0.000 
#    0.000    0.000    0.000    0.000    0.000    0.000 
#
# Total GULP energy -173440.356456 kJ/mol
# GULP energy per Si atom -12388.596890 kJ/mol
# Density = 2.413670 g / cm^3
# Si number density = 24.191764 Si / 1000 Ang^3
#
#
#
# Elastic Constant Matrix: (Units=GPa)
#
#
# Indices 1 2 3 4 5 6 
#
# 1 46.7104 1.1919 6.5913 -10.8909 -10.0356 6.3720
# 2 1.1919 125.8861 37.6917 -9.0610 -1.3831 26.8200
# 3 6.5913 37.6917 124.1531 -8.4693 -20.2173 14.6317
# 4 -10.8909 -9.0610 -8.4693 52.7236 11.3951 2.3425
# 5 -10.0356 -1.3831 -20.2173 11.3951 22.6273 -4.7811
# 6 6.3720 26.8200 14.6317 2.3425 -4.7811 28.4844
#
#
#
# Elastic Compliance Matrix: (Units=1/GPa)
#
#
# Indices 1 2 3 4 5 6 
#
# 1 0.024814 0.001200 0.000659 0.003870 0.008468 -0.005916
# 2 0.001200 0.011204 -0.002851 0.003309 -0.005216 -0.010501
# 3 0.000659 -0.002851 0.010550 -0.000688 0.009635 -0.001208
# 4 0.003870 0.003309 -0.000688 0.023140 -0.011942 -0.007536
# 5 0.008468 -0.005216 0.009635 -0.011942 0.064335 0.009848
# 6 -0.005916 -0.010501 -0.001208 -0.007536 0.009848 0.049211
#
#
# Mechanical properties :
#
#
# Convention : Reuss Voigt Hill
#
# Bulk Modulus (GPa) = 22.43072 43.07772 32.75422
# Shear Modulus (GPa) = 24.98756 37.51872 31.25314
#
# Velocity S-wave (km/s) = 3.21736 3.94240 3.59819
# Velocity P-wave (km/s) = 4.80562 6.21038 5.55260
#
# Compressibility (1/GPa) = 0.04458171
#
# Stress axis : x y z
#
# Youngs Moduli (GPa) = 40.30036 89.25303 94.79003
#
# Poissons Ratio (x) = -0.10709 -0.06242
# Poissons Ratio (y) = -0.04836 0.27027
# Poissons Ratio (z) = -0.02654 0.25448
#
# Static dielectric constant tensor:
#      x y z
#    x 4.293220 0.612360 -0.081510 
#    y 0.612360 4.760970 0.155070 
#    z -0.081510 0.155070 5.096550 
# 
# 
# High freq. dielectric constant tensor:
#      x y z
#    x 1.899360 0.028510 0.001290 
#    y 0.028510 1.983280 0.001840 
#    z 0.001290 0.001840 1.988350 
# 
# From -- ./inp_files/167534.got.cif
#   From: 2010.06.25/outbox.cif.g09.slc.cpg/sg2_84_cif.got.tgz:167534.got - 2010.06.27 13:26:56.
