data_PCOD8018585
_publ_section_title
;
Structure prediction by ZEFSAII (Michael W. Deem and Ramdas Pophale) SiO2 
 PCOD8018585
Probable space group: P -1
;
_chemical_formula_sum "Si O2"
_cell_formula_units_Z 14
_cell_length_a 14.674024
_cell_length_b 9.245335
_cell_length_c 21.429159
_cell_angle_alpha 29.277908
_cell_angle_beta 150.359819
_cell_angle_gamma 149.556667
_cell_volume 634.796202
_symmetry_space_group_name_H-M "P -1"
_symmetry_group_IT_number 2
_symmetry_cell_setting 'triclinic'
loop_
_space_group_symop_operation_xyz
x,y,z
-x,-y,-z
loop_
_atom_site_type_symbol
_atom_site_label
_atom_site_fract_x
_atom_site_fract_y
_atom_site_fract_z
Si Si1 0.704694 0.665872 0.098457
Si Si2 0.665476 0.005473 0.370142
Si Si3 0.040945 0.261193 0.001463
Si Si4 0.233282 0.836321 0.234694
Si Si5 0.049610 0.252360 0.580108
Si Si6 0.808781 0.660024 0.501173
Si Si7 0.711266 0.040249 0.082426
O O1 0.767730 0.380249 0.264885
O O2 0.657511 0.844913 0.060276
O O3 0.500000 0.500000 0.000000
O O4 0.885370 0.935178 0.065688
O O5 0.832183 0.981770 0.526313
O O6 0.459849 0.920951 0.316060
O O7 0.624566 0.740826 0.388936
O O8 0.219647 0.178905 0.109995
O O9 0.145591 0.574763 0.990453
O O10 0.927801 0.359659 0.841375
O O11 0.180526 0.634888 0.343065
O O12 0.201707 0.427892 0.545545
O O13 0.000000 0.500000 0.500000
O O14 0.165083 0.089094 0.750052
O O15 0.000000 0.000000 0.500000
O O16 0.500000 0.000000 0.000000
#
# Coordination Sequence:
#
# PCOD8018585 Si02
#       7
#     2   2   2   2   2   2   2
#     4  12  25  46  74 101 144 190 243 299 363 430
#     4  11  22  44  71 104 139 188 243 294 356 428
#     4  11  24  42  70 106 147 187 240 295 362 423
#     4  11  23  41  71 107 145 185 239 296 354 434
#     4  11  24  45  72  99 146 188 232 299 358 419
#     4  10  22  40  67  98 136 179 234 282 352 418
#     4  12  28  46  72 106 146 188 241 299 364 428
#
# _framework density 22.054321000000002
#
# number of rings (size 3 to 8) (size 9 to 14) (size 15 to 20)
#    0.000    0.857    2.857    5.143    4.000    0.000 
#    0.000    2.143    0.000    0.000    0.000    0.000 
#    0.000    0.000    0.000    0.000    0.000    0.000 
#
# Total GULP energy -173551.160936 kJ/mol
# GULP energy per Si atom -12396.511495 kJ/mol
# Density = 2.200412 g / cm^3
# Si number density = 22.054321 Si / 1000 Ang^3
#
#
#
# Elastic Constant Matrix: (Units=GPa)
#
#
# Indices 1 2 3 4 5 6 
#
# 1 161.1637 53.0296 60.4264 8.7795 6.7079 -12.8602
# 2 53.0296 106.8994 58.3240 -0.9708 -2.8112 -8.9185
# 3 60.4264 58.3240 117.1660 5.3054 14.3610 2.4112
# 4 8.7795 -0.9708 5.3054 31.2301 8.2369 0.0339
# 5 6.7079 -2.8112 14.3610 8.2369 36.8358 -1.3278
# 6 -12.8602 -8.9185 2.4112 0.0339 -1.3278 45.1927
#
#
#
# Elastic Compliance Matrix: (Units=1/GPa)
#
#
# Indices 1 2 3 4 5 6 
#
# 1 0.008415 -0.002291 -0.003160 -0.001910 0.000028 0.002113
# 2 -0.002291 0.014419 -0.006584 0.001174 0.003918 0.002659
# 3 -0.003160 -0.006584 0.014194 -0.000270 -0.005513 -0.003118
# 4 -0.001910 0.001174 -0.000270 0.034539 -0.007200 -0.000535
# 5 0.000028 0.003918 -0.005513 -0.007200 0.031273 0.001999
# 6 0.002113 0.002659 -0.003118 -0.000535 0.001999 0.023479
#
#
# Mechanical properties :
#
#
# Convention : Reuss Voigt Hill
#
# Bulk Modulus (GPa) = 77.17137 80.97655 79.07396
# Shear Modulus (GPa) = 32.31884 36.88163 34.60024
#
# Velocity S-wave (km/s) = 3.83223 4.09382 3.96519
# Velocity P-wave (km/s) = 7.39248 7.69041 7.54292
#
# Compressibility (1/GPa) = 0.01295817
#
# Stress axis : x y z
#
# Youngs Moduli (GPa) = 118.83691 69.35395 70.45039
#
# Poissons Ratio (x) = 0.15886 0.22263
# Poissons Ratio (y) = 0.27220 0.46387
# Poissons Ratio (z) = 0.37554 0.45665
#
# Static dielectric constant tensor:
#      x y z
#    x 4.642050 -0.148090 -0.042760 
#    y -0.148090 3.786000 0.074810 
#    z -0.042760 0.074810 3.786330 
# 
# 
# High freq. dielectric constant tensor:
#      x y z
#    x 1.889090 -0.002890 0.014200 
#    y -0.002890 1.848850 -0.009610 
#    z 0.014200 -0.009610 1.880690 
# 
# From -- ./inp_files/157979.got.cif
#   From: 2010.06.25/outbox.cif.g09.slc.cpg/sg2_79_cif.got.tgz:157979.got - 2010.06.27 13:26:56.
