data_PCOD8018412
_publ_section_title
;
Structure prediction by ZEFSAII (Michael W. Deem and Ramdas Pophale) SiO2 
 PCOD8018412
Probable space group: P -1
;
_chemical_formula_sum "Si O2"
_cell_formula_units_Z 16
_cell_length_a 8.722794
_cell_length_b 21.327193
_cell_length_c 8.739320
_cell_angle_alpha 27.706047
_cell_angle_beta 63.970088
_cell_angle_gamma 67.872029
_cell_volume 678.944785
_symmetry_space_group_name_H-M "P -1"
_symmetry_group_IT_number 2
_symmetry_cell_setting 'triclinic'
loop_
_space_group_symop_operation_xyz
x,y,z
-x,-y,-z
loop_
_atom_site_type_symbol
_atom_site_label
_atom_site_fract_x
_atom_site_fract_y
_atom_site_fract_z
Si Si1 0.144603 0.963153 0.397472
Si Si2 0.402196 0.637820 0.266772
Si Si3 0.488117 0.925436 0.503072
Si Si4 0.967205 0.472866 0.397405
Si Si5 0.191680 0.117856 0.727028
Si Si6 0.600467 0.338203 0.439664
Si Si7 0.713533 0.634947 0.672379
Si Si8 0.934544 0.241460 0.358113
O O1 0.325886 0.978305 0.368624
O O2 0.097687 0.811773 0.685779
O O3 0.000000 0.000000 0.500000
O O4 0.143548 0.055376 0.047154
O O5 0.500000 0.500000 0.500000
O O6 0.205819 0.611378 0.368922
O O7 0.421946 0.698058 0.296506
O O8 0.476315 0.761926 0.866398
O O9 0.658744 0.962216 0.251200
O O10 0.500000 0.000000 0.500000
O O11 0.000000 0.500000 0.500000
O O12 0.116370 0.383176 0.460794
O O13 0.962444 0.615826 0.001271
O O14 0.250607 0.272141 0.398467
O O15 0.029949 0.128649 0.660160
O O16 0.425260 0.295686 0.524571
O O17 0.750264 0.253617 0.486948
O O18 0.637330 0.496933 0.070441
#
# Coordination Sequence:
#
# PCOD8018412 Si02
#       8
#     2   2   2   2   2   2   2   2
#     4  12  29  47  74 104 143 195 247 301 368 439
#     4  12  25  42  73 103 145 185 244 295 367 431
#     4  12  29  49  74 108 149 193 247 300 370 440
#     4  11  23  40  69 102 147 187 237 303 368 431
#     4  12  26  46  74  99 149 190 246 298 364 433
#     4  10  22  40  69 100 142 184 234 299 361 430
#     4  10  22  40  66 103 139 188 236 292 366 427
#     4  11  24  44  72 105 144 186 244 299 367 434
#
# _framework density 23.565982000000002
#
# number of rings (size 3 to 8) (size 9 to 14) (size 15 to 20)
#    0.000    0.750    0.000    6.750    8.750    4.000 
#    0.000    0.000    0.000    0.000    0.000    0.000 
#    0.000    0.000    0.000    0.000    0.000    0.000 
#
# Total GULP energy -198454.003056 kJ/mol
# GULP energy per Si atom -12403.375191 kJ/mol
# Density = 2.351235 g / cm^3
# Si number density = 23.565982 Si / 1000 Ang^3
#
#
#
# Elastic Constant Matrix: (Units=GPa)
#
#
# Indices 1 2 3 4 5 6 
#
# 1 150.4949 42.3307 28.2287 5.4971 23.4704 -7.6115
# 2 42.3307 155.7515 27.0247 11.1069 10.1384 -9.6528
# 3 28.2287 27.0247 89.3744 8.8083 6.1029 -11.2934
# 4 5.4971 11.1069 8.8083 36.6138 6.9048 -1.3987
# 5 23.4704 10.1384 6.1029 6.9048 30.7296 1.2371
# 6 -7.6115 -9.6528 -11.2934 -1.3987 1.2371 43.8077
#
#
#
# Elastic Compliance Matrix: (Units=1/GPa)
#
#
# Indices 1 2 3 4 5 6 
#
# 1 0.008318 -0.001593 -0.001726 0.000754 -0.005688 0.000834
# 2 -0.001593 0.007300 -0.001397 -0.001487 -0.000618 0.000942
# 3 -0.001726 -0.001397 0.012729 -0.002212 -0.000357 0.002613
# 4 0.000754 -0.001487 -0.002212 0.029376 -0.006261 0.000348
# 5 -0.005688 -0.000618 -0.000357 -0.006261 0.038669 -0.002508
# 6 0.000834 0.000942 0.002613 0.000348 -0.002508 0.023935
#
#
# Mechanical properties :
#
#
# Convention : Reuss Voigt Hill
#
# Bulk Modulus (GPa) = 52.86496 65.64323 59.25410
# Shear Modulus (GPa) = 36.74721 42.09932 39.42327
#
# Velocity S-wave (km/s) = 3.95312 4.23122 4.09453
# Velocity P-wave (km/s) = 6.58162 7.19629 6.89580
#
# Compressibility (1/GPa) = 0.01891612
#
# Stress axis : x y z
#
# Youngs Moduli (GPa) = 120.21665 136.97832 78.56078
#
# Poissons Ratio (x) = 0.21822 0.13561
# Poissons Ratio (y) = 0.19152 0.10971
# Poissons Ratio (z) = 0.20751 0.19129
#
# Static dielectric constant tensor:
#      x y z
#    x 4.410530 0.115630 -0.049730 
#    y 0.115630 4.340650 -0.113390 
#    z -0.049730 -0.113390 4.290470 
# 
# 
# High freq. dielectric constant tensor:
#      x y z
#    x 1.947920 0.004840 -0.002110 
#    y 0.004840 1.946260 -0.003270 
#    z -0.002110 -0.003270 1.940690 
# 
# From -- ./inp_files/222829.got.cif
#   From: 2010.06.25/outbox.cif.g09.slc.cpg/sg2_112_cif.got.tgz:222829.got - 2010.06.27 13:26:56.
