data_PCOD8018654
_publ_section_title
;
Structure prediction by ZEFSAII (Michael W. Deem and Ramdas Pophale) SiO2 
 PCOD8018654
Probable space group: P -1
;
_chemical_formula_sum "Si O2"
_cell_formula_units_Z 16
_cell_length_a 8.674606
_cell_length_b 15.020241
_cell_length_c 11.000413
_cell_angle_alpha 108.737504
_cell_angle_beta 126.238647
_cell_angle_gamma 113.419509
_cell_volume 699.858587
_symmetry_space_group_name_H-M "P -1"
_symmetry_group_IT_number 2
_symmetry_cell_setting 'triclinic'
loop_
_space_group_symop_operation_xyz
x,y,z
-x,-y,-z
loop_
_atom_site_type_symbol
_atom_site_label
_atom_site_fract_x
_atom_site_fract_y
_atom_site_fract_z
Si Si1 0.739585 0.396503 0.999681
Si Si2 0.526661 0.168931 0.621158
Si Si3 0.569997 0.344522 0.549800
Si Si4 0.670297 0.123216 0.236298
Si Si5 0.797267 0.115672 0.552841
Si Si6 0.380117 0.407594 0.675063
Si Si7 0.616850 0.692715 0.989879
Si Si8 0.728759 0.853165 0.889500
O O1 0.623658 0.337341 0.058268
O O2 0.084991 0.556358 0.237742
O O3 0.725602 0.294406 0.872980
O O4 0.548684 0.407333 0.853069
O O5 0.392961 0.198061 0.482377
O O6 0.710978 0.160620 0.631236
O O7 0.258151 0.012993 0.491340
O O8 0.504323 0.422467 0.607437
O O9 0.443253 0.290607 0.332283
O O10 0.626674 0.063387 0.323604
O O11 0.515293 0.164972 0.188313
O O12 0.023051 0.260859 0.438359
O O13 0.500000 0.000000 0.000000
O O14 0.155359 0.259553 0.779260
O O15 0.448050 0.542347 0.782896
O O16 0.807552 0.825579 0.037405
O O17 0.000000 0.000000 0.000000
#
# Coordination Sequence:
#
# PCOD8018654 Si02
#       8
#     2   2   2   2   2   2   2   2
#     4  11  23  42  73 106 141 175 237 297 345 412
#     4  10  22  40  69 101 132 185 234 283 344 413
#     4  11  22  45  70 102 144 186 228 292 354 408
#     4  12  27  47  71 102 147 184 229 295 354 411
#     4  11  23  44  70 101 136 185 242 285 341 425
#     4  11  24  46  73 104 141 183 238 289 347 418
#     4  12  26  43  73 107 136 183 237 289 351 410
#     4  12  28  49  68 101 148 187 229 288 357 418
#
# _framework density 22.861761999999999
#
# number of rings (size 3 to 8) (size 9 to 14) (size 15 to 20)
#    0.000    0.750    2.500    5.625    3.500    4.000 
#    0.000    0.000    0.000    0.000    0.000    0.000 
#    0.000    0.000    0.000    0.000    0.000    0.000 
#
# Total GULP energy -198274.351444 kJ/mol
# GULP energy per Si atom -12392.146965 kJ/mol
# Density = 2.280973 g / cm^3
# Si number density = 22.861762 Si / 1000 Ang^3
#
#
#
# Elastic Constant Matrix: (Units=GPa)
#
#
# Indices 1 2 3 4 5 6 
#
# 1 119.1219 38.1574 44.4791 -4.0812 -15.4539 13.0351
# 2 38.1574 85.8062 35.0101 2.9912 -16.3633 8.9026
# 3 44.4791 35.0101 132.4432 -5.8735 -10.0914 3.0366
# 4 -4.0812 2.9912 -5.8735 24.3365 2.8658 2.4431
# 5 -15.4539 -16.3633 -10.0914 2.8658 47.8046 -3.9876
# 6 13.0351 8.9026 3.0366 2.4431 -3.9876 16.8644
#
#
#
# Elastic Compliance Matrix: (Units=1/GPa)
#
#
# Indices 1 2 3 4 5 6 
#
# 1 0.011352 -0.003094 -0.002642 0.002153 0.001369 -0.006653
# 2 -0.003094 0.015361 -0.002800 -0.003103 0.003525 -0.003930
# 3 -0.002642 -0.002800 0.009239 0.001951 0.000155 0.001611
# 4 0.002153 -0.003103 0.001951 0.043423 -0.003176 -0.007419
# 5 0.001369 0.003525 0.000155 -0.003176 0.023038 0.002961
# 6 -0.006653 -0.003930 0.001611 -0.007419 0.002961 0.067999
#
#
# Mechanical properties :
#
#
# Convention : Reuss Voigt Hill
#
# Bulk Modulus (GPa) = 52.96823 63.62941 58.29882
# Shear Modulus (GPa) = 25.80288 32.44939 29.12614
#
# Velocity S-wave (km/s) = 3.36318 3.77154 3.57320
# Velocity P-wave (km/s) = 6.18874 6.84534 6.52531
#
# Compressibility (1/GPa) = 0.01887924
#
# Stress axis : x y z
#
# Youngs Moduli (GPa) = 88.09232 65.10141 108.23186
#
# Poissons Ratio (x) = 0.20140 0.28597
# Poissons Ratio (y) = 0.27253 0.30309
# Poissons Ratio (z) = 0.23276 0.18231
#
# Static dielectric constant tensor:
#      x y z
#    x 4.333100 0.151100 -0.251620 
#    y 0.151100 4.040170 0.060150 
#    z -0.251620 0.060150 4.227250 
# 
# 
# High freq. dielectric constant tensor:
#      x y z
#    x 1.918190 0.006080 -0.011360 
#    y 0.006080 1.886220 0.005610 
#    z -0.011360 0.005610 1.910470 
# 
# From -- ./inp_files/399339.got.cif
#   From: 2010.06.25/outbox.cif.g09.slc.cpg/sg2_200_cif.got.tgz:399339.got - 2010.06.27 13:26:56.
