data_PCOD8018178
_publ_section_title
;
Structure prediction by ZEFSAII (Michael W. Deem and Ramdas Pophale) SiO2 
 PCOD8018178
Probable space group: P -1
;
_chemical_formula_sum "Si O2"
_cell_formula_units_Z 12
_cell_length_a 10.087715
_cell_length_b 7.195702
_cell_length_c 11.339749
_cell_angle_alpha 117.696958
_cell_angle_beta 58.951837
_cell_angle_gamma 129.350283
_cell_volume 533.401603
_symmetry_space_group_name_H-M "P -1"
_symmetry_group_IT_number 2
_symmetry_cell_setting 'triclinic'
loop_
_space_group_symop_operation_xyz
x,y,z
-x,-y,-z
loop_
_atom_site_type_symbol
_atom_site_label
_atom_site_fract_x
_atom_site_fract_y
_atom_site_fract_z
Si Si1 0.026045 0.665861 0.649326
Si Si2 0.587740 0.091933 0.336443
Si Si3 0.485362 0.632412 0.370534
Si Si4 0.736774 0.423421 0.157718
Si Si5 0.132401 0.113686 0.362452
Si Si6 0.872367 0.338179 0.840652
O O1 0.230539 0.804446 0.639818
O O2 0.000000 0.500000 0.500000
O O3 0.975329 0.866927 0.694353
O O4 0.892373 0.502081 0.767421
O O5 0.478057 0.211824 0.478934
O O6 0.625072 0.166428 0.204671
O O7 0.477811 0.796110 0.313766
O O8 0.647290 0.587013 0.259163
O O9 0.295281 0.383099 0.399025
O O10 0.935749 0.582210 0.166213
O O11 0.740736 0.358135 0.000274
O O12 0.214663 0.944853 0.242008
O O13 0.000000 0.000000 0.500000
#
# Coordination Sequence:
#
# PCOD8018178 Si02
#       6
#     2   2   2   2   2   2
#     4  11  20  40  64  89 122 160 208 253 300 363
#     4  10  22  40  63  92 122 161 206 255 305 366
#     4  11  23  38  64  93 123 162 203 262 308 355
#     4  10  22  43  63  90 125 164 205 251 309 366
#     4  12  23  39  65  93 121 161 206 258 309 364
#     4  10  23  41  65  90 123 165 208 250 303 371
#
# _framework density 22.497121
#
# number of rings (size 3 to 8) (size 9 to 14) (size 15 to 20)
#    0.000    1.333    3.333    2.500    0.000    6.000 
#    0.000    6.667    0.000    0.000    0.000    0.000 
#    0.000    0.000    0.000    0.000    0.000    0.000 
#
# Total GULP energy -148816.296160 kJ/mol
# GULP energy per Si atom -12401.358013 kJ/mol
# Density = 2.244592 g / cm^3
# Si number density = 22.497121 Si / 1000 Ang^3
#
#
#
# Elastic Constant Matrix: (Units=GPa)
#
#
# Indices 1 2 3 4 5 6 
#
# 1 55.0573 29.7959 44.7000 1.3911 -9.3921 -20.0299
# 2 29.7959 166.4850 78.0583 -21.0110 -3.7266 -12.2417
# 3 44.7000 78.0583 180.4205 -27.0740 -2.5028 -21.2124
# 4 1.3911 -21.0110 -27.0740 32.3594 -7.2601 -0.0065
# 5 -9.3921 -3.7266 -2.5028 -7.2601 32.2440 1.4110
# 6 -20.0299 -12.2417 -21.2124 -0.0065 1.4110 32.5555
#
#
#
# Elastic Compliance Matrix: (Units=1/GPa)
#
#
# Indices 1 2 3 4 5 6 
#
# 1 0.030291 -0.002386 -0.005710 -0.006259 0.006093 0.013754
# 2 -0.002386 0.007987 -0.002324 0.003533 0.000844 -0.000015
# 3 -0.005710 -0.002324 0.009104 0.006387 0.000145 0.001540
# 4 -0.006259 0.003533 0.006387 0.040644 0.008176 0.001293
# 5 0.006093 0.000844 0.000145 0.008176 0.034622 0.002662
# 6 0.013754 -0.000015 0.001540 0.001293 0.002662 0.040061
#
#
# Mechanical properties :
#
#
# Convention : Reuss Voigt Hill
#
# Bulk Modulus (GPa) = 37.67677 78.56345 58.12011
# Shear Modulus (GPa) = 25.98774 36.05902 31.02338
#
# Velocity S-wave (km/s) = 3.40245 4.00788 3.71751
# Velocity P-wave (km/s) = 5.67620 7.51098 6.65710
#
# Compressibility (1/GPa) = 0.02654156
#
# Stress axis : x y z
#
# Youngs Moduli (GPa) = 33.01271 125.20269 109.83779
#
# Poissons Ratio (x) = 0.29877 0.62719
# Poissons Ratio (y) = 0.07878 0.25529
# Poissons Ratio (z) = 0.18851 0.29100
#
# Static dielectric constant tensor:
#      x y z
#    x 4.071330 -0.269700 -0.061920 
#    y -0.269700 4.463930 -0.139060 
#    z -0.061920 -0.139060 4.135040 
# 
# 
# High freq. dielectric constant tensor:
#      x y z
#    x 1.876660 -0.009770 -0.007450 
#    y -0.009770 1.902400 -0.016610 
#    z -0.007450 -0.016610 1.877420 
# 
# From -- ./inp_files/408602.got.cif
#   From: 2010.06.25/outbox.cif.g09.slc.cpg/sg2_205_cif.got.tgz:408602.got - 2010.06.27 13:26:56.
