data_PCOD8018148
_publ_section_title
;
Structure prediction by ZEFSAII (Michael W. Deem and Ramdas Pophale) SiO2 
 PCOD8018148
Probable space group: P -1
;
_chemical_formula_sum "Si O2"
_cell_formula_units_Z 16
_cell_length_a 9.800568
_cell_length_b 8.335794
_cell_length_c 12.577455
_cell_angle_alpha 87.187177
_cell_angle_beta 129.621746
_cell_angle_gamma 80.010420
_cell_volume 762.003262
_symmetry_space_group_name_H-M "P -1"
_symmetry_group_IT_number 2
_symmetry_cell_setting 'triclinic'
loop_
_space_group_symop_operation_xyz
x,y,z
-x,-y,-z
loop_
_atom_site_type_symbol
_atom_site_label
_atom_site_fract_x
_atom_site_fract_y
_atom_site_fract_z
Si Si1 0.148105 0.273230 0.898111
Si Si2 0.293467 0.902653 0.896340
Si Si3 0.272308 0.655011 0.273454
Si Si4 0.518228 0.848563 0.793966
Si Si5 0.788308 0.515744 0.398439
Si Si6 0.713800 0.438948 0.140562
Si Si7 0.473551 0.810781 0.205274
Si Si8 0.416255 0.660230 0.558603
O O1 0.172928 0.425755 0.832802
O O2 0.943712 0.321809 0.840525
O O3 0.176461 0.092024 0.859232
O O4 0.287627 0.270313 0.065774
O O5 0.385295 0.899407 0.827636
O O6 0.192038 0.750153 0.851250
O O7 0.448825 0.841685 0.065345
O O8 0.330315 0.719271 0.187973
O O9 0.338640 0.748204 0.404926
O O10 0.378501 0.460435 0.347688
O O11 0.419075 0.786438 0.649935
O O12 0.560571 0.012372 0.760407
O O13 0.718024 0.419625 0.270584
O O14 0.682868 0.710064 0.332367
O O15 0.732500 0.441570 0.481969
O O16 0.000000 0.500000 0.500000
O O17 0.500000 0.500000 0.000000
#
# Coordination Sequence:
#
# PCOD8018148 Si02
#       8
#     2   2   2   2   2   2   2   2
#     4  11  23  40  63  95 128 161 207 259 300 373
#     4  11  22  39  65  98 125 153 202 265 320 361
#     4  10  24  44  59  84 127 173 206 244 300 373
#     4  11  21  39  65  94 120 156 204 262 318 361
#     4  11  20  36  62  90 120 157 205 256 307 370
#     4  12  20  37  66  93 123 162 199 253 328 362
#     4  10  22  40  63  86 129 167 194 254 319 361
#     4  10  22  42  62  84 126 165 204 251 306 372
#
# _framework density 20.997284000000001
#
# number of rings (size 3 to 8) (size 9 to 14) (size 15 to 20)
#    0.000    1.250    3.750    3.000    1.750    3.000 
#    4.500    1.250    0.000    0.000    0.000    0.000 
#    0.000    0.000    0.000    0.000    0.000    0.000 
#
# Total GULP energy -198212.332721 kJ/mol
# GULP energy per Si atom -12388.270795 kJ/mol
# Density = 2.094949 g / cm^3
# Si number density = 20.997284 Si / 1000 Ang^3
#
#
#
# Elastic Constant Matrix: (Units=GPa)
#
#
# Indices 1 2 3 4 5 6 
#
# 1 80.2005 16.8078 13.2585 3.7196 23.0543 -8.8379
# 2 16.8078 99.0941 -2.0027 1.6390 -1.1185 11.2848
# 3 13.2585 -2.0027 44.6173 16.4767 -1.3534 -6.0300
# 4 3.7196 1.6390 16.4767 25.1075 -7.3808 -2.9527
# 5 23.0543 -1.1185 -1.3534 -7.3808 37.5098 1.2109
# 6 -8.8379 11.2848 -6.0300 -2.9527 1.2109 12.4723
#
#
#
# Elastic Compliance Matrix: (Units=1/GPa)
#
#
# Indices 1 2 3 4 5 6 
#
# 1 0.020431 -0.005806 -0.003339 -0.002323 -0.013919 0.018917
# 2 -0.005806 0.013004 0.000632 -0.001051 0.004297 -0.016240
# 3 -0.003339 0.000632 0.031751 -0.019732 -0.000919 0.007830
# 4 -0.002323 -0.001051 -0.019732 0.056910 0.011815 0.002090
# 5 -0.013919 0.004297 -0.000919 0.011815 0.038122 -0.015099
# 6 0.018917 -0.016240 0.007830 0.002090 -0.015099 0.114023
#
#
# Mechanical properties :
#
#
# Convention : Reuss Voigt Hill
#
# Bulk Modulus (GPa) = 20.76396 31.11545 25.93970
# Shear Modulus (GPa) = 16.26968 28.07448 22.17208
#
# Velocity S-wave (km/s) = 2.78663 3.66054 3.25306
# Velocity P-wave (km/s) = 4.50156 5.71988 5.14690
#
# Compressibility (1/GPa) = 0.04816038
#
# Stress axis : x y z
#
# Youngs Moduli (GPa) = 48.94511 76.89767 31.49529
#
# Poissons Ratio (x) = 0.44646 0.10518
# Poissons Ratio (y) = 0.28417 -0.01992
# Poissons Ratio (z) = 0.16345 -0.04863
#
# Static dielectric constant tensor:
#      x y z
#    x 3.636590 0.047850 -0.217990 
#    y 0.047850 4.156400 -0.111650 
#    z -0.217990 -0.111650 3.636650 
# 
# 
# High freq. dielectric constant tensor:
#      x y z
#    x 1.809940 0.005020 -0.016480 
#    y 0.005020 1.826580 0.000300 
#    z -0.016480 0.000300 1.814650 
# 
# From -- ./inp_files/206254.got.cif
#   From: 2010.06.25/outbox.cif.g09.slc.cpg/sg2_104_cif.got.tgz:206254.got - 2010.06.27 13:26:56.
