data_PCOD8018560
_publ_section_title
;
Structure prediction by ZEFSAII (Michael W. Deem and Ramdas Pophale) SiO2 
 PCOD8018560
Probable space group: P -1
;
_chemical_formula_sum "Si O2"
_cell_formula_units_Z 12
_cell_length_a 14.749359
_cell_length_b 23.493450
_cell_length_c 5.381029
_cell_angle_alpha 125.608008
_cell_angle_beta 115.695947
_cell_angle_gamma 21.154225
_cell_volume 507.620165
_symmetry_space_group_name_H-M "P -1"
_symmetry_group_IT_number 2
_symmetry_cell_setting 'triclinic'
loop_
_space_group_symop_operation_xyz
x,y,z
-x,-y,-z
loop_
_atom_site_type_symbol
_atom_site_label
_atom_site_fract_x
_atom_site_fract_y
_atom_site_fract_z
Si Si1 0.611157 0.349167 0.261582
Si Si2 0.694367 0.976366 0.131305
Si Si3 0.697057 0.668519 0.618820
Si Si4 0.311004 0.158463 0.486313
Si Si5 0.219045 0.723568 0.221813
Si Si6 0.271639 0.432731 0.085981
O O1 0.500000 0.500000 0.500000
O O2 0.803593 0.217060 0.398469
O O3 0.371245 0.448410 0.251792
O O4 0.780381 0.227191 0.897762
O O5 0.966038 0.835778 0.193741
O O6 0.530954 0.123139 0.092098
O O7 0.472772 0.117073 0.445660
O O8 0.780748 0.841831 0.819877
O O9 0.672553 0.639283 0.765651
O O10 0.000000 0.500000 0.500000
O O11 0.598194 0.689170 0.308595
O O12 0.050182 0.359918 0.819265
O O13 0.500000 0.000000 0.500000
O O14 0.500000 0.500000 0.000000
#
# Coordination Sequence:
#
# PCOD8018560 Si02
#       6
#     2   2   2   2   2   2
#     4  10  22  42  67  98 130 178 232 285 335 400
#     4  11  26  43  68 105 139 185 231 299 341 421
#     4  12  26  48  68 105 149 188 226 280 363 426
#     4  11  25  40  71 105 139 176 245 291 355 404
#     4  10  22  40  67  94 135 173 225 283 348 390
#     4  12  26  46  75 101 143 190 232 284 356 424
#
# _framework density 23.639721999999999
#
# number of rings (size 3 to 8) (size 9 to 14) (size 15 to 20)
#    0.000    1.000    1.667    4.500   11.667    0.000 
#    0.000    5.000    0.000    0.000    0.000    0.000 
#    0.000    0.000    0.000    0.000    0.000    0.000 
#
# Total GULP energy -148755.405487 kJ/mol
# GULP energy per Si atom -12396.283791 kJ/mol
# Density = 2.358592 g / cm^3
# Si number density = 23.639722 Si / 1000 Ang^3
#
#
#
# Elastic Constant Matrix: (Units=GPa)
#
#
# Indices 1 2 3 4 5 6 
#
# 1 160.3350 53.9710 38.0752 -16.6828 -18.8806 -0.8904
# 2 53.9710 122.4531 24.2746 -11.7109 -14.1675 -5.5094
# 3 38.0752 24.2746 71.9692 -17.7831 -21.9171 14.3354
# 4 -16.6828 -11.7109 -17.7831 43.6177 18.3601 -9.9394
# 5 -18.8806 -14.1675 -21.9171 18.3601 33.3234 -5.5835
# 6 -0.8904 -5.5094 14.3354 -9.9394 -5.5835 51.9747
#
#
#
# Elastic Compliance Matrix: (Units=1/GPa)
#
#
# Indices 1 2 3 4 5 6 
#
# 1 0.008093 -0.002713 -0.002994 0.000889 0.001135 0.000969
# 2 -0.002713 0.010017 -0.001649 0.000742 0.001526 0.001776
# 3 -0.002994 -0.001649 0.020140 0.001763 0.009129 -0.004463
# 4 0.000889 0.000742 0.001763 0.031225 -0.014552 0.004016
# 5 0.001135 0.001526 0.009129 -0.014552 0.045280 -0.000255
# 6 0.000969 0.001776 -0.004463 0.004016 -0.000255 0.021416
#
#
# Mechanical properties :
#
#
# Convention : Reuss Voigt Hill
#
# Bulk Modulus (GPa) = 42.48644 65.26654 53.87649
# Shear Modulus (GPa) = 31.50025 41.67893 36.58959
#
# Velocity S-wave (km/s) = 3.65432 4.20347 3.93848
# Velocity P-wave (km/s) = 5.98472 7.15735 6.59714
#
# Compressibility (1/GPa) = 0.02353692
#
# Stress axis : x y z
#
# Youngs Moduli (GPa) = 123.56580 99.83487 49.65294
#
# Poissons Ratio (x) = 0.27090 0.14866
# Poissons Ratio (y) = 0.33529 0.08187
# Poissons Ratio (z) = 0.36994 0.16460
#
# Static dielectric constant tensor:
#      x y z
#    x -7.280300 -9.743580 10.668960 
#    y -9.743580 -4.127280 8.683390 
#    z 10.668960 8.683390 -4.754590 
# 
# 
# High freq. dielectric constant tensor:
#      x y z
#    x 1.945380 0.001460 -0.010250 
#    y 0.001460 1.935280 -0.023660 
#    z -0.010250 -0.023660 1.931520 
# 
# From -- ./inp_files/19041.got.cif
#   From: 2010.06.25/outbox.cif.g09.slc.cpg/sg2_10_cif.got.tgz:19041.got - 2010.06.27 13:26:56.
