data_PCOD8018301
_publ_section_title
;
Structure prediction by ZEFSAII (Michael W. Deem and Ramdas Pophale) SiO2 
 PCOD8018301
Probable space group: P -1
;
_chemical_formula_sum "Si O2"
_cell_formula_units_Z 14
_cell_length_a 7.144282
_cell_length_b 9.124514
_cell_length_c 11.735397
_cell_angle_alpha 60.657126
_cell_angle_beta 84.833133
_cell_angle_gamma 96.979262
_cell_volume 651.949621
_symmetry_space_group_name_H-M "P -1"
_symmetry_group_IT_number 2
_symmetry_cell_setting 'triclinic'
loop_
_space_group_symop_operation_xyz
x,y,z
-x,-y,-z
loop_
_atom_site_type_symbol
_atom_site_label
_atom_site_fract_x
_atom_site_fract_y
_atom_site_fract_z
Si Si1 0.605725 0.128368 0.110530
Si Si2 0.132978 0.103103 0.857136
Si Si3 0.192482 0.933730 0.490688
Si Si4 0.985935 0.697472 0.416932
Si Si5 0.609906 0.548064 0.591763
Si Si6 0.551140 0.215626 0.838763
Si Si7 0.450244 0.772258 0.685321
O O1 0.565078 0.252456 0.167473
O O2 0.790797 0.044391 0.164976
O O3 0.429872 0.967446 0.150595
O O4 0.643414 0.238808 0.950791
O O5 0.024146 0.222429 0.739591
O O6 0.323154 0.224520 0.854000
O O7 0.000000 0.000000 0.000000
O O8 0.254609 0.826769 0.633523
O O9 0.162778 0.810302 0.429554
O O10 0.365827 0.083485 0.397487
O O11 0.000000 0.000000 0.500000
O O12 0.787820 0.701243 0.495804
O O13 0.000000 0.500000 0.500000
O O14 0.500000 0.500000 0.500000
O O15 0.670830 0.372034 0.698983
O O16 0.479534 0.605120 0.677611
#
# Coordination Sequence:
#
# PCOD8018301 Si02
#       7
#     2   2   2   2   2   2   2
#     4   9  21  42  65  95 120 184 224 262 342 401
#     4  10  22  40  64  98 131 174 225 278 328 401
#     4  11  24  41  60  99 131 173 226 269 348 397
#     4  12  26  38  68 100 136 172 226 282 337 404
#     4  12  23  43  64  98 136 174 222 281 348 393
#     4   9  22  39  66  90 130 171 228 265 334 412
#     4  11  25  41  68  91 142 179 214 293 332 406
#
# _framework density 21.474053000000001
#
# number of rings (size 3 to 8) (size 9 to 14) (size 15 to 20)
#    0.857    0.571    2.857    1.714   12.000    0.571 
#    0.000    0.000    0.000    1.714    0.000    0.000 
#    0.000    0.000    0.000    0.000    0.000    0.000 
#
# Total GULP energy -173440.025146 kJ/mol
# GULP energy per Si atom -12388.573225 kJ/mol
# Density = 2.142518 g / cm^3
# Si number density = 21.474053 Si / 1000 Ang^3
#
#
#
# Elastic Constant Matrix: (Units=GPa)
#
#
# Indices 1 2 3 4 5 6 
#
# 1 53.8157 12.4326 15.1371 5.2656 14.3543 1.3745
# 2 12.4326 101.6899 45.3794 22.0222 9.1309 -9.6183
# 3 15.1371 45.3794 159.4602 4.8932 13.9752 -3.6565
# 4 5.2656 22.0222 4.8932 40.0253 1.3879 -6.6982
# 5 14.3543 9.1309 13.9752 1.3879 36.3070 1.1077
# 6 1.3745 -9.6183 -3.6565 -6.6982 1.1077 31.8000
#
#
#
# Elastic Compliance Matrix: (Units=1/GPa)
#
#
# Indices 1 2 3 4 5 6 
#
# 1 0.021420 -0.001194 -0.000996 -0.002035 -0.007660 -0.001563
# 2 -0.001194 0.013132 -0.003254 -0.006222 -0.001413 0.002388
# 3 -0.000996 -0.003254 0.007410 0.001108 -0.001689 0.000203
# 4 -0.002035 -0.006222 0.001108 0.029265 0.000688 0.004474
# 5 -0.007660 -0.001413 -0.001689 0.000688 0.031588 -0.001246
# 6 -0.001563 0.002388 0.000203 0.004474 -0.001246 0.033246
#
#
# Mechanical properties :
#
#
# Convention : Reuss Voigt Hill
#
# Bulk Modulus (GPa) = 32.18024 51.20710 41.69367
# Shear Modulus (GPa) = 31.78496 37.76090 34.77293
#
# Velocity S-wave (km/s) = 3.85145 4.19793 4.02842
# Velocity P-wave (km/s) = 5.89885 6.88437 6.41058
#
# Compressibility (1/GPa) = 0.03107497
#
# Stress axis : x y z
#
# Youngs Moduli (GPa) = 46.68551 76.14871 134.94432
#
# Poissons Ratio (x) = 0.09090 0.13436
# Poissons Ratio (y) = 0.05573 0.43915
# Poissons Ratio (z) = 0.04648 0.24781
#
# Static dielectric constant tensor:
#      x y z
#    x 4.271090 -0.063680 -0.070910 
#    y -0.063680 3.906090 0.087160 
#    z -0.070910 0.087160 3.904170 
# 
# 
# High freq. dielectric constant tensor:
#      x y z
#    x 1.839570 0.000050 0.006590 
#    y 0.000050 1.823450 0.004360 
#    z 0.006590 0.004360 1.842600 
# 
# From -- ./inp_files/375679.got.cif
#   From: 2010.06.25/outbox.cif.g09.slc.cpg/sg2_188_cif.got.tgz:375679.got - 2010.06.27 13:26:56.
