data_PCOD8018969
_publ_section_title
;
Structure prediction by ZEFSAII (Michael W. Deem and Ramdas Pophale) SiO2 
 PCOD8018969
Probable space group: P -1
;
_chemical_formula_sum "Si O2"
_cell_formula_units_Z 10
_cell_length_a 13.230744
_cell_length_b 10.067613
_cell_length_c 9.244559
_cell_angle_alpha 68.973731
_cell_angle_beta 128.457051
_cell_angle_gamma 147.524225
_cell_volume 475.767353
_symmetry_space_group_name_H-M "P -1"
_symmetry_group_IT_number 2
_symmetry_cell_setting 'triclinic'
loop_
_space_group_symop_operation_xyz
x,y,z
-x,-y,-z
loop_
_atom_site_type_symbol
_atom_site_label
_atom_site_fract_x
_atom_site_fract_y
_atom_site_fract_z
Si Si1 0.446954 0.738480 0.636939
Si Si2 0.543650 0.349192 0.748316
Si Si3 0.323497 0.458271 0.904758
Si Si4 0.214364 0.142856 0.304005
Si Si5 0.259163 0.719426 0.215726
O O1 0.285470 0.523003 0.707028
O O2 0.611445 0.774335 0.688708
O O3 0.252363 0.629219 0.398159
O O4 0.624857 0.019167 0.757762
O O5 0.290091 0.170160 0.524576
O O6 0.755123 0.658786 0.765763
O O7 0.583554 0.227343 0.775128
O O8 0.538960 0.332123 0.924054
O O9 0.500000 0.500000 0.000000
O O10 0.066631 0.159166 0.852072
O O11 0.000000 0.500000 0.000000
#
# Coordination Sequence:
#
# PCOD8018969 Si02
#       5
#     2   2   2   2   2
#     4  10  23  43  62  93 123 162 207 249 310 365
#     4  10  22  41  63  92 123 166 204 253 308 359
#     4  12  24  37  66  97 123 160 205 258 311 358
#     4  10  22  43  62  90 130 157 208 257 299 367
#     4  10  22  41  66  86 125 169 201 249 308 367
#
# _framework density 21.018678000000001
#
# number of rings (size 3 to 8) (size 9 to 14) (size 15 to 20)
#    0.000    1.600    2.000    1.800    2.800    3.200 
#    0.000   14.000    0.000    0.000    0.000    0.000 
#    0.000    0.000    0.000    0.000    0.000    0.000 
#
# Total GULP energy -123976.305313 kJ/mol
# GULP energy per Si atom -12397.630531 kJ/mol
# Density = 2.097084 g / cm^3
# Si number density = 21.018678 Si / 1000 Ang^3
#
#
#
# Elastic Constant Matrix: (Units=GPa)
#
#
# Indices 1 2 3 4 5 6 
#
# 1 66.4294 18.7817 22.3840 4.2724 -18.6323 -9.8563
# 2 18.7817 39.9461 13.0132 -0.8411 -4.4567 -8.0139
# 3 22.3840 13.0132 121.2825 12.7198 -16.4294 5.4955
# 4 4.2724 -0.8411 12.7198 31.8054 -0.8633 -5.8047
# 5 -18.6323 -4.4567 -16.4294 -0.8633 37.6936 1.7254
# 6 -9.8563 -8.0139 5.4955 -5.8047 1.7254 32.3030
#
#
#
# Elastic Compliance Matrix: (Units=1/GPa)
#
#
# Indices 1 2 3 4 5 6 
#
# 1 0.020862 -0.007413 -0.001987 -0.001210 0.008350 0.004201
# 2 -0.007413 0.030710 -0.002864 0.004129 -0.001492 0.006666
# 3 -0.001987 -0.002864 0.009988 -0.004445 0.003113 -0.003981
# 4 -0.001210 0.004129 -0.004445 0.034864 -0.001604 0.007762
# 5 0.008350 -0.001492 0.003113 -0.001604 0.031816 -0.000340
# 6 0.004201 0.006666 -0.003981 0.007762 -0.000340 0.035983
#
#
# Mechanical properties :
#
#
# Convention : Reuss Voigt Hill
#
# Bulk Modulus (GPa) = 27.00429 37.33511 32.16970
# Shear Modulus (GPa) = 24.86401 31.92567 28.39484
#
# Velocity S-wave (km/s) = 3.44313 3.90156 3.67949
# Velocity P-wave (km/s) = 5.35561 6.17233 5.77841
#
# Compressibility (1/GPa) = 0.03703115
#
# Stress axis : x y z
#
# Youngs Moduli (GPa) = 47.93379 32.56293 100.12459
#
# Poissons Ratio (x) = 0.24138 0.19898
# Poissons Ratio (y) = 0.35531 0.28678
# Poissons Ratio (z) = 0.09526 0.09327
#
# Static dielectric constant tensor:
#      x y z
#    x 3.932450 -0.065660 -0.450800 
#    y -0.065660 4.268090 -0.783110 
#    z -0.450800 -0.783110 4.978640 
# 
# 
# High freq. dielectric constant tensor:
#      x y z
#    x 1.818040 -0.026960 -0.016460 
#    y -0.026960 1.801260 -0.002620 
#    z -0.016460 -0.002620 1.851680 
# 
# From -- ./inp_files/18066.got.cif
#   From: 2010.06.25/outbox.cif.g09.slc.cpg/sg2_10_cif.got.tgz:18066.got - 2010.06.27 13:26:56.
