data_PCOD8018355
_publ_section_title
;
Structure prediction by ZEFSAII (Michael W. Deem and Ramdas Pophale) SiO2 
 PCOD8018355
Probable space group: P -1
;
_chemical_formula_sum "Si O2"
_cell_formula_units_Z 14
_cell_length_a 10.333848
_cell_length_b 14.553856
_cell_length_c 19.988621
_cell_angle_alpha 20.406668
_cell_angle_beta 37.059140
_cell_angle_gamma 38.051860
_cell_volume 620.423093
_symmetry_space_group_name_H-M "P -1"
_symmetry_group_IT_number 2
_symmetry_cell_setting 'triclinic'
loop_
_space_group_symop_operation_xyz
x,y,z
-x,-y,-z
loop_
_atom_site_type_symbol
_atom_site_label
_atom_site_fract_x
_atom_site_fract_y
_atom_site_fract_z
Si Si1 0.206741 0.992832 0.467069
Si Si2 0.048329 0.601858 0.609164
Si Si3 0.738933 0.354068 0.826490
Si Si4 0.388293 0.781270 0.885274
Si Si5 0.099619 0.119793 0.013187
Si Si6 0.131509 0.099558 0.166834
Si Si7 0.711001 0.409542 0.185299
O O1 0.239107 0.701271 0.685273
O O2 0.437889 0.019736 0.321314
O O3 0.000000 0.000000 0.500000
O O4 0.155691 0.225149 0.385187
O O5 0.158844 0.374304 0.772617
O O6 0.957331 0.469995 0.671801
O O7 0.193333 0.805064 0.378436
O O8 0.538429 0.596611 0.726892
O O9 0.677861 0.213840 0.013970
O O10 0.780531 0.148424 0.888964
O O11 0.500000 0.500000 0.000000
O O12 0.159967 0.879847 0.873346
O O13 0.199040 0.101589 0.059648
O O14 0.872475 0.229478 0.189003
O O15 0.258909 0.281598 0.035822
#
# Coordination Sequence:
#
# PCOD8018355 Si02
#       7
#     2   2   2   2   2   2   2
#     4  11  23  39  67  98 125 161 214 271 322 369
#     4  10  22  40  65  94 123 165 215 262 312 378
#     4  11  24  41  63  94 134 165 213 258 320 387
#     4  11  21  39  69  94 122 168 216 264 320 363
#     4  11  23  43  65  94 133 169 211 264 312 388
#     4  10  23  41  68  88 131 166 217 265 319 361
#     4  10  24  41  63  98 126 164 216 267 315 380
#
# _framework density 22.565245999999998
#
# number of rings (size 3 to 8) (size 9 to 14) (size 15 to 20)
#    0.000    1.429    2.857    3.429    8.000    2.286 
#    2.571    0.714    0.000    0.000    0.000    0.000 
#    0.000    0.000    0.000    0.000    0.000    0.000 
#
# Total GULP energy -173477.745264 kJ/mol
# GULP energy per Si atom -12391.267519 kJ/mol
# Density = 2.251389 g / cm^3
# Si number density = 22.565246 Si / 1000 Ang^3
#
#
#
# Elastic Constant Matrix: (Units=GPa)
#
#
# Indices 1 2 3 4 5 6 
#
# 1 60.4388 -5.8650 20.4201 7.4645 13.8172 11.5579
# 2 -5.8650 59.2988 -5.1148 -1.8297 -8.3766 16.5734
# 3 20.4201 -5.1148 119.0295 -2.1854 6.1902 10.5420
# 4 7.4645 -1.8297 -2.1854 20.8439 1.0675 -2.0591
# 5 13.8172 -8.3766 6.1902 1.0675 18.7351 0.2557
# 6 11.5579 16.5734 10.5420 -2.0591 0.2557 39.4059
#
#
#
# Elastic Compliance Matrix: (Units=1/GPa)
#
#
# Indices 1 2 3 4 5 6 
#
# 1 0.023506 0.001724 -0.002688 -0.008491 -0.015094 -0.007246
# 2 0.001724 0.020931 0.001048 -0.000026 0.007874 -0.009641
# 3 -0.002688 0.001048 0.009152 0.001850 -0.000652 -0.002000
# 4 -0.008491 -0.000026 0.001850 0.051536 0.002639 0.004682
# 5 -0.015094 0.007874 -0.000652 0.002639 0.068080 0.000986
# 6 -0.007246 -0.009641 -0.002000 0.004682 0.000986 0.032331
#
#
# Mechanical properties :
#
#
# Convention : Reuss Voigt Hill
#
# Bulk Modulus (GPa) = 18.60206 28.62752 23.61479
# Shear Modulus (GPa) = 22.39279 31.08542 26.73910
#
# Velocity S-wave (km/s) = 3.15359 3.71560 3.44607
# Velocity P-wave (km/s) = 4.63915 5.57868 5.13047
#
# Compressibility (1/GPa) = 0.05375747
#
# Stress axis : x y z
#
# Youngs Moduli (GPa) = 42.54185 47.77661 109.26157
#
# Poissons Ratio (x) = -0.08237 0.29366
# Poissons Ratio (y) = -0.07335 -0.11446
# Poissons Ratio (z) = 0.11434 -0.05005
#
# Static dielectric constant tensor:
#      x y z
#    x 4.048790 0.008210 -0.027090 
#    y 0.008210 3.944800 0.075110 
#    z -0.027090 0.075110 4.331290 
# 
# 
# High freq. dielectric constant tensor:
#      x y z
#    x 1.883620 0.011770 0.002270 
#    y 0.011770 1.875190 -0.001230 
#    z 0.002270 -0.001230 1.889660 
# 
# From -- ./inp_files/157715.got.cif
#   From: 2010.06.25/outbox.cif.g09.slc.cpg/sg2_79_cif.got.tgz:157715.got - 2010.06.27 13:26:56.
