data_PCOD8018590
_publ_section_title
;
Structure prediction by ZEFSAII (Michael W. Deem and Ramdas Pophale) SiO2 
 PCOD8018590
Probable space group: P -1
;
_chemical_formula_sum "Si O2"
_cell_formula_units_Z 16
_cell_length_a 27.929378
_cell_length_b 9.558153
_cell_length_c 8.913137
_cell_angle_alpha 65.078888
_cell_angle_beta 141.157223
_cell_angle_gamma 143.914144
_cell_volume 726.295447
_symmetry_space_group_name_H-M "P -1"
_symmetry_group_IT_number 2
_symmetry_cell_setting 'triclinic'
loop_
_space_group_symop_operation_xyz
x,y,z
-x,-y,-z
loop_
_atom_site_type_symbol
_atom_site_label
_atom_site_fract_x
_atom_site_fract_y
_atom_site_fract_z
Si Si1 0.228371 0.060964 0.409255
Si Si2 0.556217 0.388129 0.127706
Si Si3 0.258565 0.777371 0.696177
Si Si4 0.299471 0.678595 0.549856
Si Si5 0.975346 0.783458 0.083732
Si Si6 0.730804 0.837694 0.869219
Si Si7 0.009335 0.348894 0.516012
Si Si8 0.516195 0.728507 0.322717
O O1 0.372750 0.358445 0.712599
O O2 0.222219 0.125951 0.200643
O O3 0.219831 0.862169 0.464673
O O4 0.092260 0.875280 0.254461
O O5 0.672732 0.454033 0.349680
O O6 0.509996 0.385025 0.857083
O O7 0.418786 0.078506 0.015217
O O8 0.253860 0.626729 0.635903
O O9 0.150693 0.569321 0.662526
O O10 0.440844 0.018981 0.703687
O O11 0.177262 0.529824 0.207807
O O12 0.982114 0.770661 0.284686
O O13 0.000000 0.000000 0.000000
O O14 0.641609 0.844810 0.654770
O O15 0.628873 0.527192 0.820509
O O16 0.869831 0.086695 0.196099
O O17 0.000000 0.500000 0.500000
#
# Coordination Sequence:
#
# PCOD8018590 Si02
#       8
#     2   2   2   2   2   2   2   2
#     4  12  23  43  71 102 138 180 229 285 342 406
#     4  11  23  44  69 100 143 182 221 280 350 411
#     4  11  24  42  73 104 134 177 236 284 335 410
#     4  11  23  46  70  97 142 182 224 278 348 412
#     4  12  26  47  68  99 140 186 221 284 357 408
#     4  11  24  40  66 105 135 172 227 288 334 397
#     4  12  26  44  71 102 137 180 237 292 338 406
#     4  10  22  40  67  99 136 176 222 278 341 401
#
# _framework density 22.029602000000001
#
# number of rings (size 3 to 8) (size 9 to 14) (size 15 to 20)
#    0.000    0.750    5.000    4.125    0.000    3.000 
#    4.500    2.500    0.000    0.000    0.000    0.000 
#    0.000    0.000    0.000    0.000    0.000    0.000 
#
# Total GULP energy -198452.472761 kJ/mol
# GULP energy per Si atom -12403.279548 kJ/mol
# Density = 2.197946 g / cm^3
# Si number density = 22.029602 Si / 1000 Ang^3
#
#
#
# Elastic Constant Matrix: (Units=GPa)
#
#
# Indices 1 2 3 4 5 6 
#
# 1 97.3969 45.7345 35.9284 6.8678 -2.4262 35.2029
# 2 45.7345 95.0254 26.7799 -3.5188 -11.9231 26.7886
# 3 35.9284 26.7799 133.3508 11.0669 -13.4153 23.2259
# 4 6.8678 -3.5188 11.0669 30.4579 2.9566 3.0235
# 5 -2.4262 -11.9231 -13.4153 2.9566 40.4511 1.1600
# 6 35.2029 26.7886 23.2259 3.0235 1.1600 46.3643
#
#
#
# Elastic Compliance Matrix: (Units=1/GPa)
#
#
# Indices 1 2 3 4 5 6 
#
# 1 0.016673 -0.005322 -0.001783 -0.002815 -0.000711 -0.008490
# 2 -0.005322 0.015211 -0.000689 0.003304 0.003830 -0.004714
# 3 -0.001783 -0.000689 0.009144 -0.003025 0.003021 -0.002708
# 4 -0.002815 0.003304 -0.003025 0.035264 -0.002762 -0.000487
# 5 -0.000711 0.003830 0.003021 -0.002762 0.027117 -0.003685
# 6 -0.008490 -0.004714 -0.002708 -0.000487 -0.003685 0.032219
#
#
# Mechanical properties :
#
#
# Convention : Reuss Voigt Hill
#
# Bulk Modulus (GPa) = 39.30592 60.29541 49.80067
# Shear Modulus (GPa) = 31.30956 37.94334 34.62645
#
# Velocity S-wave (km/s) = 3.77404 4.15466 3.96891
# Velocity P-wave (km/s) = 6.07225 7.10243 6.60745
#
# Compressibility (1/GPa) = 0.02544146
#
# Stress axis : x y z
#
# Youngs Moduli (GPa) = 59.97543 65.74252 109.35925
#
# Poissons Ratio (x) = 0.34990 0.19494
# Poissons Ratio (y) = 0.31921 0.07531
# Poissons Ratio (z) = 0.10691 0.04527
#
# Static dielectric constant tensor:
#      x y z
#    x 4.117550 0.182290 0.221380 
#    y 0.182290 3.928780 0.091390 
#    z 0.221380 0.091390 4.414560 
# 
# 
# High freq. dielectric constant tensor:
#      x y z
#    x 1.864330 0.007190 0.008640 
#    y 0.007190 1.861210 0.009730 
#    z 0.008640 0.009730 1.880550 
# 
# From -- ./inp_files/297793.got.cif
#   From: 2010.06.25/outbox.cif.g09.slc.cpg/sg2_149_cif.got.tgz:297793.got - 2010.06.27 13:26:56.
