data_PCOD8018959
_publ_section_title
;
Structure prediction by ZEFSAII (Michael W. Deem and Ramdas Pophale) SiO2 
 PCOD8018959
Probable space group: P -1
;
_chemical_formula_sum "Si O2"
_cell_formula_units_Z 16
_cell_length_a 17.838856
_cell_length_b 9.071300
_cell_length_c 12.256362
_cell_angle_alpha 128.275410
_cell_angle_beta 31.070692
_cell_angle_gamma 131.551558
_cell_volume 759.226410
_symmetry_space_group_name_H-M "P -1"
_symmetry_group_IT_number 2
_symmetry_cell_setting 'triclinic'
loop_
_space_group_symop_operation_xyz
x,y,z
-x,-y,-z
loop_
_atom_site_type_symbol
_atom_site_label
_atom_site_fract_x
_atom_site_fract_y
_atom_site_fract_z
Si Si1 0.782736 0.813583 0.605676
Si Si2 0.143560 0.010577 0.898209
Si Si3 0.868617 0.621400 0.824255
Si Si4 0.783414 0.233836 0.886986
Si Si5 0.223646 0.838649 0.517883
Si Si6 0.680020 0.524280 0.791525
Si Si7 0.547361 0.869261 0.793624
Si Si8 0.038989 0.721315 0.099749
O O1 0.778543 0.702566 0.673574
O O2 0.617957 0.725129 0.708436
O O3 0.903215 0.772210 0.354501
O O4 0.812904 0.046963 0.703716
O O5 0.248696 0.936179 0.651841
O O6 0.099663 0.874634 0.997047
O O7 0.217319 0.242108 0.945461
O O8 0.000000 0.000000 0.000000
O O9 0.874030 0.429492 0.795733
O O10 0.768523 0.558615 0.811754
O O11 0.050088 0.749471 0.644033
O O12 0.829627 0.247193 0.960688
O O13 0.610101 0.240331 0.121440
O O14 0.309631 0.680887 0.358328
O O15 0.315919 0.004891 0.395525
O O16 0.500000 0.500000 0.000000
O O17 0.500000 0.000000 0.000000
O O18 0.000000 0.500000 0.000000
#
# Coordination Sequence:
#
# PCOD8018959 Si02
#       8
#     2   2   2   2   2   2   2   2
#     4  11  22  39  63  92 125 166 208 258 315 371
#     4  10  22  41  63  91 124 163 208 259 308 367
#     4  11  23  42  67  95 124 166 213 258 308 374
#     4  11  23  42  65  96 127 163 208 261 315 370
#     4  11  23  43  66  90 124 169 210 252 313 378
#     4  12  23  38  62  97 129 162 209 265 314 368
#     4  10  22  42  64  91 128 165 203 257 315 371
#     4  12  24  41  63  94 128 164 211 262 308 371
#
# _framework density 21.074083000000002
#
# number of rings (size 3 to 8) (size 9 to 14) (size 15 to 20)
#    0.000    1.000    0.000    9.750    0.000    3.000 
#    0.000    6.250    0.000    0.000    0.000    0.000 
#    0.000    0.000    0.000    0.000    0.000    0.000 
#
# Total GULP energy -198213.851535 kJ/mol
# GULP energy per Si atom -12388.365721 kJ/mol
# Density = 2.102612 g / cm^3
# Si number density = 21.074083 Si / 1000 Ang^3
#
#
#
# Elastic Constant Matrix: (Units=GPa)
#
#
# Indices 1 2 3 4 5 6 
#
# 1 147.1179 30.9485 55.9936 2.7478 5.9112 -14.9047
# 2 30.9485 60.9304 33.8626 27.8168 14.5309 -5.6574
# 3 55.9936 33.8626 108.8721 10.9412 15.1270 11.0382
# 4 2.7478 27.8168 10.9412 42.7448 -0.0314 0.0634
# 5 5.9112 14.5309 15.1270 -0.0314 39.2405 -6.8120
# 6 -14.9047 -5.6574 11.0382 0.0634 -6.8120 35.5389
#
#
#
# Elastic Compliance Matrix: (Units=1/GPa)
#
#
# Indices 1 2 3 4 5 6 
#
# 1 0.010010 -0.003729 -0.005299 0.003133 0.002926 0.005806
# 2 -0.003729 0.032785 -0.005441 -0.019715 -0.008858 0.003682
# 3 -0.005299 -0.005441 0.015103 0.000025 -0.004510 -0.008644
# 4 0.003133 -0.019715 0.000025 0.036022 0.006743 -0.000604
# 5 0.002926 -0.008858 -0.004510 0.006743 0.031319 0.007209
# 6 0.005806 0.003682 -0.008644 -0.000604 0.007209 0.035227
#
#
# Mechanical properties :
#
#
# Convention : Reuss Voigt Hill
#
# Bulk Modulus (GPa) = 34.52833 62.05889 48.29361
# Shear Modulus (GPa) = 25.11859 36.57921 30.84890
#
# Velocity S-wave (km/s) = 3.45616 4.17075 3.83016
# Velocity P-wave (km/s) = 5.68741 7.25985 6.52120
#
# Compressibility (1/GPa) = 0.02896173
#
# Stress axis : x y z
#
# Youngs Moduli (GPa) = 99.89535 30.50210 66.21262
#
# Poissons Ratio (x) = 0.11374 0.35084
# Poissons Ratio (y) = 0.37249 0.36024
# Poissons Ratio (z) = 0.52931 0.16595
#
# Static dielectric constant tensor:
#      x y z
#    x 4.311510 -0.287810 -1.058020 
#    y -0.287810 3.657660 -0.454030 
#    z -1.058020 -0.454030 3.594600 
# 
# 
# High freq. dielectric constant tensor:
#      x y z
#    x 1.845690 -0.014610 -0.001470 
#    y -0.014610 1.822960 0.010780 
#    z -0.001470 0.010780 1.831560 
# 
# From -- ./inp_files/462402.got.cif
#   From: 2010.06.25/outbox.cif.g09.slc.cpg/sg2_232_cif.got.tgz:462402.got - 2010.06.27 13:26:56.
