data_PCOD8018144
_publ_section_title
;
Structure prediction by ZEFSAII (Michael W. Deem and Ramdas Pophale) SiO2 
 PCOD8018144
Probable space group: P -1
;
_chemical_formula_sum "Si O2"
_cell_formula_units_Z 12
_cell_length_a 6.865045
_cell_length_b 9.765150
_cell_length_c 13.581732
_cell_angle_alpha 34.596730
_cell_angle_beta 97.180428
_cell_angle_gamma 86.486947
_cell_volume 490.658968
_symmetry_space_group_name_H-M "P -1"
_symmetry_group_IT_number 2
_symmetry_cell_setting 'triclinic'
loop_
_space_group_symop_operation_xyz
x,y,z
-x,-y,-z
loop_
_atom_site_type_symbol
_atom_site_label
_atom_site_fract_x
_atom_site_fract_y
_atom_site_fract_z
Si Si1 0.531109 0.353599 0.188500
Si Si2 0.104701 0.106300 0.530858
Si Si3 0.172268 0.562644 0.168867
Si Si4 0.432128 0.319542 0.833462
Si Si5 0.826213 0.996254 0.912388
Si Si6 0.849911 0.353062 0.537649
O O1 0.660110 0.068090 0.341930
O O2 0.302295 0.377704 0.201760
O O3 0.648940 0.478974 0.201889
O O4 0.500000 0.500000 0.000000
O O5 0.110966 0.391241 0.348592
O O6 0.000000 0.000000 0.500000
O O7 0.975996 0.119027 0.615430
O O8 0.319655 0.720058 0.136829
O O9 0.960414 0.751111 0.002663
O O10 0.328797 0.444189 0.652437
O O11 0.375553 0.062607 0.015774
O O12 0.000000 0.000000 0.000000
O O13 0.755664 0.233171 0.693622
O O14 0.000000 0.500000 0.500000
#
# Coordination Sequence:
#
# PCOD8018144 Si02
#       6
#     2   2   2   2   2   2
#     4  10  22  40  63 100 135 170 231 276 335 400
#     4  12  21  42  71  99 139 183 224 283 339 407
#     4  10  23  43  65  99 140 171 232 284 332 407
#     4  10  24  45  65 101 135 174 233 276 343 396
#     4  12  23  45  70  95 139 182 228 282 340 412
#     4  12  24  45  71 101 138 181 228 284 345 403
#
# _framework density 24.456904000000002
#
# number of rings (size 3 to 8) (size 9 to 14) (size 15 to 20)
#    1.000    0.000    5.000    1.500    0.000    3.333 
#    0.000    5.000    0.000    0.000    0.000    0.000 
#    0.000    0.000    0.000    0.000    0.000    0.000 
#
# Total GULP energy -148739.405098 kJ/mol
# GULP energy per Si atom -12394.950425 kJ/mol
# Density = 2.440124 g / cm^3
# Si number density = 24.456904 Si / 1000 Ang^3
#
#
#
# Elastic Constant Matrix: (Units=GPa)
#
#
# Indices 1 2 3 4 5 6 
#
# 1 138.6376 28.0097 55.7292 3.5604 -13.8933 -15.3360
# 2 28.0097 84.4156 31.9657 9.9539 -11.3527 6.1403
# 3 55.7292 31.9657 200.0974 10.7445 -11.3571 6.9068
# 4 3.5604 9.9539 10.7445 41.4889 4.4582 -5.5686
# 5 -13.8933 -11.3527 -11.3571 4.4582 40.3404 0.1653
# 6 -15.3360 6.1403 6.9068 -5.5686 0.1653 36.5728
#
#
#
# Elastic Compliance Matrix: (Units=1/GPa)
#
#
# Indices 1 2 3 4 5 6 
#
# 1 0.009335 -0.002436 -0.002325 0.000852 0.001761 0.004884
# 2 -0.002436 0.014227 -0.001073 -0.003791 0.003298 -0.003800
# 3 -0.002325 -0.001073 0.006013 -0.001472 0.000762 -0.002158
# 4 0.000852 -0.003791 -0.001472 0.026479 -0.004136 0.005322
# 5 0.001761 0.003298 0.000762 -0.004136 0.026998 -0.000711
# 6 0.004884 -0.003800 -0.002158 0.005322 -0.000711 0.031250
#
#
# Mechanical properties :
#
#
# Convention : Reuss Voigt Hill
#
# Bulk Modulus (GPa) = 55.83973 72.72888 64.28430
# Shear Modulus (GPa) = 37.89649 44.17683 41.03666
#
# Velocity S-wave (km/s) = 3.94067 4.25469 4.10068
# Velocity P-wave (km/s) = 6.60201 7.34429 6.98302
#
# Compressibility (1/GPa) = 0.01790840
#
# Stress axis : x y z
#
# Youngs Moduli (GPa) = 107.12804 70.28704 166.29992
#
# Poissons Ratio (x) = 0.17120 0.38666
# Poissons Ratio (y) = 0.26094 0.17837
# Poissons Ratio (z) = 0.24908 0.07539
#
# Static dielectric constant tensor:
#      x y z
#    x 4.381110 -0.670510 0.310350 
#    y -0.670510 5.055910 -0.343130 
#    z 0.310350 -0.343130 4.426930 
# 
# 
# High freq. dielectric constant tensor:
#      x y z
#    x 1.985370 -0.030630 -0.001610 
#    y -0.030630 1.987250 -0.010620 
#    z -0.001610 -0.010620 1.968040 
# 
# From -- ./inp_files/373308.got.cif
#   From: 2010.06.25/outbox.cif.g09.slc.cpg/sg2_187_cif.got.tgz:373308.got - 2010.06.27 13:26:56.
