data_PCOD8018943
_publ_section_title
;
Structure prediction by ZEFSAII (Michael W. Deem and Ramdas Pophale) SiO2 
 PCOD8018943
Probable space group: P -1
;
_chemical_formula_sum "Si O2"
_cell_formula_units_Z 14
_cell_length_a 16.004630
_cell_length_b 8.341611
_cell_length_c 19.505113
_cell_angle_alpha 115.029681
_cell_angle_beta 162.355147
_cell_angle_gamma 73.758906
_cell_volume 638.805420
_symmetry_space_group_name_H-M "P -1"
_symmetry_group_IT_number 2
_symmetry_cell_setting 'triclinic'
loop_
_space_group_symop_operation_xyz
x,y,z
-x,-y,-z
loop_
_atom_site_type_symbol
_atom_site_label
_atom_site_fract_x
_atom_site_fract_y
_atom_site_fract_z
Si Si1 0.265432 0.180484 0.881584
Si Si2 0.327390 0.624172 0.363619
Si Si3 0.679247 0.523482 0.803227
Si Si4 0.646623 0.175490 0.054890
Si Si5 0.432647 0.082414 0.717509
Si Si6 0.259492 0.104780 0.165455
Si Si7 0.336061 0.434830 0.650344
O O1 0.330214 0.025441 0.948595
O O2 0.388425 0.193044 0.902846
O O3 0.453448 0.392134 0.102486
O O4 0.899183 0.114336 0.577024
O O5 0.500000 0.500000 0.500000
O O6 0.419989 0.660078 0.361457
O O7 0.437649 0.811071 0.533833
O O8 0.959051 0.520189 0.065072
O O9 0.794875 0.728688 0.888310
O O10 0.410676 0.500132 0.641028
O O11 0.971143 0.367037 0.360648
O O12 0.542507 0.169276 0.894479
O O13 0.403726 0.249439 0.680753
O O14 0.697410 0.038268 0.882006
O O15 0.000000 0.000000 0.000000
#
# Coordination Sequence:
#
# PCOD8018943 Si02
#       7
#     2   2   2   2   2   2   2
#     4  10  22  45  66  95 133 169 211 268 329 388
#     4   9  21  39  62  86 116 164 213 258 317 374
#     4  10  22  41  63  87 124 170 206 268 322 375
#     4  10  23  42  69  97 129 169 214 265 327 395
#     4  11  25  40  63  98 130 169 220 268 321 388
#     4  11  25  40  61  91 128 169 217 265 319 380
#     4  11  24  39  67  96 131 167 218 264 326 391
#
# _framework density 21.915907000000001
#
# number of rings (size 3 to 8) (size 9 to 14) (size 15 to 20)
#    0.000    1.714    0.000    2.571    8.000    5.714 
#    0.000    0.000    0.000    0.000    0.000    0.000 
#    0.000    0.000    0.000    0.000    0.000    0.000 
#
# Total GULP energy -173501.510930 kJ/mol
# GULP energy per Si atom -12392.965066 kJ/mol
# Density = 2.186603 g / cm^3
# Si number density = 21.915907 Si / 1000 Ang^3
#
#
#
# Elastic Constant Matrix: (Units=GPa)
#
#
# Indices 1 2 3 4 5 6 
#
# 1 136.1657 30.5464 36.2944 3.7651 7.7282 2.2249
# 2 30.5464 60.3894 28.9707 5.2508 8.4485 3.2525
# 3 36.2944 28.9707 120.1569 6.4301 -4.1918 2.3408
# 4 3.7651 5.2508 6.4301 30.0040 -4.9526 -3.0737
# 5 7.7282 8.4485 -4.1918 -4.9526 44.1439 1.6982
# 6 2.2249 3.2525 2.3408 -3.0737 1.6982 33.5998
#
#
#
# Elastic Compliance Matrix: (Units=1/GPa)
#
#
# Indices 1 2 3 4 5 6 
#
# 1 0.008647 -0.003311 -0.001833 -0.000302 -0.001084 -0.000097
# 2 -0.003311 0.021120 -0.004030 -0.003269 -0.004149 -0.001634
# 3 -0.001833 -0.004030 0.009972 -0.000917 0.001950 -0.000366
# 4 -0.000302 -0.003269 -0.000917 0.035212 0.004411 0.003399
# 5 -0.001084 -0.004149 0.001950 0.004411 0.024336 -0.000489
# 6 -0.000097 -0.001634 -0.000366 0.003399 -0.000489 0.030288
#
#
# Mechanical properties :
#
#
# Convention : Reuss Voigt Hill
#
# Bulk Modulus (GPa) = 46.75050 56.48168 51.61609
# Shear Modulus (GPa) = 32.24690 36.27623 34.26157
#
# Velocity S-wave (km/s) = 3.84003 4.07289 3.95817
# Velocity P-wave (km/s) = 6.40619 6.92429 6.67027
#
# Compressibility (1/GPa) = 0.02139015
#
# Stress axis : x y z
#
# Youngs Moduli (GPa) = 115.64802 47.34832 100.27940
#
# Poissons Ratio (x) = 0.15678 0.18384
# Poissons Ratio (y) = 0.38293 0.40413
# Poissons Ratio (z) = 0.21202 0.19081
#
# Static dielectric constant tensor:
#      x y z
#    x 4.278610 -0.087950 -0.282160 
#    y -0.087950 3.800410 0.154180 
#    z -0.282160 0.154180 4.477990 
# 
# 
# High freq. dielectric constant tensor:
#      x y z
#    x 1.879860 -0.004950 -0.007420 
#    y -0.004950 1.843320 -0.003970 
#    z -0.007420 -0.003970 1.868530 
# 
# From -- ./inp_files/39128.got.cif
#   From: 2010.06.25/outbox.cif.g09.slc.cpg/sg2_20_cif.got.tgz:39128.got - 2010.06.27 13:26:56.
