data_PCOD8018020
_publ_section_title
;
Structure prediction by ZEFSAII (Michael W. Deem and Ramdas Pophale) SiO2 
 PCOD8018020
Probable space group: P -1
;
_chemical_formula_sum "Si O2"
_cell_formula_units_Z 12
_cell_length_a 11.635038
_cell_length_b 6.597686
_cell_length_c 20.004932
_cell_angle_alpha 118.316848
_cell_angle_beta 30.227031
_cell_angle_gamma 129.897452
_cell_volume 580.297173
_symmetry_space_group_name_H-M "P -1"
_symmetry_group_IT_number 2
_symmetry_cell_setting 'triclinic'
loop_
_space_group_symop_operation_xyz
x,y,z
-x,-y,-z
loop_
_atom_site_type_symbol
_atom_site_label
_atom_site_fract_x
_atom_site_fract_y
_atom_site_fract_z
Si Si1 0.108353 0.382999 0.303977
Si Si2 0.388860 0.089996 0.452043
Si Si3 0.138098 0.428607 0.644158
Si Si4 0.789007 0.048707 0.874468
Si Si5 0.037355 0.788991 0.036649
Si Si6 0.415900 0.156500 0.788566
O O1 0.317545 0.562595 0.283860
O O2 0.079982 0.576308 0.296035
O O3 0.821994 0.191837 0.452051
O O4 0.219093 0.221102 0.184159
O O5 0.248545 0.254971 0.526722
O O6 0.622384 0.265089 0.415655
O O7 0.511160 0.038791 0.316956
O O8 0.004738 0.301050 0.762183
O O9 0.872734 0.111555 0.918457
O O10 0.500000 0.000000 0.000000
O O11 0.759238 0.771851 0.159719
O O12 0.000000 0.500000 0.000000
O O13 0.264357 0.008566 0.908860
#
# Coordination Sequence:
#
# PCOD8018020 Si02
#       6
#     2   2   2   2   2   2
#     4  11  23  39  62  90 120 155 198 246 295 350
#     4  10  22  40  60  88 121 156 199 243 294 351
#     4  10  22  40  63  89 117 157 201 243 295 349
#     4  11  23  40  63  90 120 155 199 246 293 351
#     4  11  24  41  62  88 121 158 197 243 296 353
#     4  11  24  40  61  90 121 157 197 242 298 353
#
# _framework density 20.679058999999999
#
# number of rings (size 3 to 8) (size 9 to 14) (size 15 to 20)
#    0.000    1.333    0.000    5.000    0.000   11.333 
#    0.000    0.000    0.000    0.000    0.000    0.000 
#    0.000    0.000    0.000    0.000    0.000    0.000 
#
# Total GULP energy -148887.592068 kJ/mol
# GULP energy per Si atom -12407.299339 kJ/mol
# Density = 2.063199 g / cm^3
# Si number density = 20.679059 Si / 1000 Ang^3
#
#
#
# Elastic Constant Matrix: (Units=GPa)
#
#
# Indices 1 2 3 4 5 6 
#
# 1 163.5729 59.9658 69.9603 8.8413 -12.0822 1.2829
# 2 59.9658 111.6763 50.7837 9.4875 -5.8907 8.0385
# 3 69.9603 50.7837 128.0156 16.1471 -9.2743 1.5328
# 4 8.8413 9.4875 16.1471 37.8214 3.7477 -1.9891
# 5 -12.0822 -5.8907 -9.2743 3.7477 31.4696 1.2097
# 6 1.2829 8.0385 1.5328 -1.9891 1.2097 31.2660
#
#
#
# Elastic Compliance Matrix: (Units=1/GPa)
#
#
# Indices 1 2 3 4 5 6 
#
# 1 0.008879 -0.003128 -0.003497 0.000056 0.001765 0.000547
# 2 -0.003128 0.012326 -0.002942 -0.001313 0.000511 -0.003000
# 3 -0.003497 -0.002942 0.011472 -0.003529 0.001907 0.000039
# 4 0.000056 -0.001313 -0.003529 0.028872 -0.004800 0.002531
# 5 0.001765 0.000511 0.001907 -0.004800 0.033757 -0.001909
# 6 0.000547 -0.003000 0.000039 0.002531 -0.001909 0.032965
#
#
# Mechanical properties :
#
#
# Convention : Reuss Voigt Hill
#
# Bulk Modulus (GPa) = 73.83505 84.96494 79.40000
# Shear Modulus (GPa) = 32.91180 34.94842 33.93011
#
# Velocity S-wave (km/s) = 3.99375 4.11547 4.05507
# Velocity P-wave (km/s) = 7.55311 7.98495 7.77203
#
# Compressibility (1/GPa) = 0.01354370
#
# Stress axis : x y z
#
# Youngs Moduli (GPa) = 112.62317 81.12638 87.16519
#
# Poissons Ratio (x) = 0.25380 0.30483
# Poissons Ratio (y) = 0.35234 0.25640
# Poissons Ratio (z) = 0.39386 0.23864
#
# Static dielectric constant tensor:
#      x y z
#    x 3.654750 -0.063960 -0.139220 
#    y -0.063960 3.656420 -0.011430 
#    z -0.139220 -0.011430 3.916010 
# 
# 
# High freq. dielectric constant tensor:
#      x y z
#    x 1.811670 0.001520 -0.007240 
#    y 0.001520 1.819860 0.002590 
#    z -0.007240 0.002590 1.824720 
# 
# From -- ./inp_files/592601.got.cif
#   From: 2010.06.25/outbox.cif.g09.slc.cpg/sg2_297_cif.got.tgz:592601.got - 2010.06.27 13:26:56.
