data_PCOD8018351
_publ_section_title
;
Structure prediction by ZEFSAII (Michael W. Deem and Ramdas Pophale) SiO2 
 PCOD8018351
Probable space group: P -1
;
_chemical_formula_sum "Si O2"
_cell_formula_units_Z 14
_cell_length_a 7.516989
_cell_length_b 17.483077
_cell_length_c 5.480099
_cell_angle_alpha 65.675957
_cell_angle_beta 59.002063
_cell_angle_gamma 60.683672
_cell_volume 525.841494
_symmetry_space_group_name_H-M "P -1"
_symmetry_group_IT_number 2
_symmetry_cell_setting 'triclinic'
loop_
_space_group_symop_operation_xyz
x,y,z
-x,-y,-z
loop_
_atom_site_type_symbol
_atom_site_label
_atom_site_fract_x
_atom_site_fract_y
_atom_site_fract_z
Si Si1 0.838204 0.676748 0.942187
Si Si2 0.258987 0.120659 0.194579
Si Si3 0.899099 0.604159 0.490507
Si Si4 0.116429 0.884704 0.301705
Si Si5 0.365071 0.680550 0.310983
Si Si6 0.423107 0.605602 0.872421
Si Si7 0.319604 0.025496 0.814616
O O1 0.748703 0.783327 0.836939
O O2 0.981332 0.632978 0.653610
O O3 0.973469 0.647986 0.141113
O O4 0.632889 0.641444 0.157640
O O5 0.433418 0.045992 0.358846
O O6 0.004290 0.119641 0.348700
O O7 0.369489 0.092266 0.887743
O O8 0.632546 0.638291 0.658948
O O9 0.000000 0.500000 0.500000
O O10 0.281698 0.787931 0.232353
O O11 0.234691 0.955763 0.116540
O O12 0.883396 0.912672 0.283649
O O13 0.288500 0.640543 0.664482
O O14 0.279985 0.649074 0.160329
O O15 0.500000 0.500000 0.000000
#
# Coordination Sequence:
#
# PCOD8018351 Si02
#       7
#     2   2   2   2   2   2   2
#     4  10  22  41  64  95 132 174 218 280 330 399
#     4  11  23  41  66  95 132 178 229 273 345 393
#     4  10  22  40  65  93 131 171 218 272 339 396
#     4  11  23  41  66  95 132 178 229 273 345 393
#     4  10  22  41  64  95 132 174 218 280 330 399
#     4  10  22  40  65  93 131 171 218 272 339 396
#     4  10  24  44  62  96 134 172 234 282 334 398
#
# _framework density 26.623992000000001
#
# number of rings (size 3 to 8) (size 9 to 14) (size 15 to 20)
#    0.000    1.714    1.429    1.714    4.000    2.286 
#    0.000    0.000    0.000    0.000    0.000    0.000 
#    0.000    0.000    0.000    0.000    0.000    0.000 
#
# Total GULP energy -173464.403796 kJ/mol
# GULP energy per Si atom -12390.314557 kJ/mol
# Density = 2.656339 g / cm^3
# Si number density = 26.623992 Si / 1000 Ang^3
#
#
#
# Elastic Constant Matrix: (Units=GPa)
#
#
# Indices 1 2 3 4 5 6 
#
# 1 75.8469 13.6938 44.8348 8.8405 30.3542 3.5512
# 2 13.6938 159.9804 64.2474 6.7051 33.9139 21.6901
# 3 44.8348 64.2474 182.7318 15.1069 27.9776 8.5162
# 4 8.8405 6.7051 15.1069 42.9734 -0.6097 4.3687
# 5 30.3542 33.9139 27.9776 -0.6097 47.6859 8.3865
# 6 3.5512 21.6901 8.5162 4.3687 8.3865 30.6725
#
#
#
# Elastic Compliance Matrix: (Units=1/GPa)
#
#
# Indices 1 2 3 4 5 6 
#
# 1 0.020396 0.002460 -0.003658 -0.003569 -0.012794 0.000921
# 2 0.002460 0.008879 -0.002618 -0.000622 -0.005611 -0.004214
# 3 -0.003658 -0.002618 0.007435 -0.001507 -0.000279 0.000502
# 4 -0.003569 -0.000622 -0.001507 0.025056 0.004541 -0.003539
# 5 -0.012794 -0.005611 -0.000279 0.004541 0.034108 -0.004446
# 6 0.000921 -0.004214 0.000502 -0.003539 -0.004446 0.037056
#
#
# Mechanical properties :
#
#
# Convention : Reuss Voigt Hill
#
# Bulk Modulus (GPa) = 34.39279 73.79013 54.09146
# Shear Modulus (GPa) = 33.27707 43.98523 38.63115
#
# Velocity S-wave (km/s) = 3.53921 4.06900 3.81332
# Velocity P-wave (km/s) = 5.44494 7.06056 6.30472
#
# Compressibility (1/GPa) = 0.02907586
#
# Stress axis : x y z
#
# Youngs Moduli (GPa) = 49.02986 112.63118 134.50637
#
# Poissons Ratio (x) = -0.27709 0.49207
# Poissons Ratio (y) = -0.12062 0.35219
# Poissons Ratio (z) = 0.17937 0.29491
#
# Static dielectric constant tensor:
#      x y z
#    x 4.815470 -0.272590 -0.071670 
#    y -0.272590 4.478790 0.257710 
#    z -0.071670 0.257710 5.522810 
# 
# 
# High freq. dielectric constant tensor:
#      x y z
#    x 2.084990 -0.021650 -0.009720 
#    y -0.021650 2.064350 0.016940 
#    z -0.009720 0.016940 2.107200 
# 
# From -- ./inp_files/46491.got.cif
#   From: 2010.06.25/outbox.cif.g09.slc.cpg/sg2_24_cif.got.tgz:46491.got - 2010.06.27 13:26:56.
