data_PCOD8018949
_publ_section_title
;
Structure prediction by ZEFSAII (Michael W. Deem and Ramdas Pophale) SiO2 
 PCOD8018949
Probable space group: P -1
;
_chemical_formula_sum "Si O2"
_cell_formula_units_Z 16
_cell_length_a 24.469812
_cell_length_b 13.375222
_cell_length_c 17.104768
_cell_angle_alpha 24.314758
_cell_angle_beta 157.257714
_cell_angle_gamma 158.741804
_cell_volume 729.127908
_symmetry_space_group_name_H-M "P -1"
_symmetry_group_IT_number 2
_symmetry_cell_setting 'triclinic'
loop_
_space_group_symop_operation_xyz
x,y,z
-x,-y,-z
loop_
_atom_site_type_symbol
_atom_site_label
_atom_site_fract_x
_atom_site_fract_y
_atom_site_fract_z
Si Si1 0.877087 0.806718 0.857369
Si Si2 0.423140 0.807086 0.671700
Si Si3 0.139959 0.916487 0.507175
Si Si4 0.609780 0.473630 0.427926
Si Si5 0.489059 0.721214 0.217914
Si Si6 0.358297 0.267823 0.876920
Si Si7 0.078328 0.720894 0.304130
Si Si8 0.024979 0.077421 0.386811
O O1 0.694182 0.488627 0.830909
O O2 0.942869 0.972973 0.742135
O O3 0.852406 0.001928 0.746152
O O4 0.021813 0.770336 0.109554
O O5 0.430559 0.590397 0.777295
O O6 0.224614 0.664059 0.528029
O O7 0.510542 0.130769 0.517965
O O8 0.522395 0.835709 0.862664
O O9 0.081809 0.581767 0.651534
O O10 0.346307 0.140170 0.606210
O O11 0.077963 0.904670 0.523191
O O12 0.501372 0.515597 0.318325
O O13 0.626581 0.683173 0.230426
O O14 0.803652 0.583319 0.634500
O O15 0.500000 0.000000 0.000000
O O16 0.160180 0.005105 0.828228
O O17 0.000000 0.000000 0.500000
#
# Coordination Sequence:
#
# PCOD8018949 Si02
#       8
#     2   2   2   2   2   2   2   2
#     4  11  24  42  64  94 126 168 218 257 318 383
#     4  11  22  40  64  91 127 162 211 261 312 381
#     4  11  22  41  66  92 125 166 211 263 315 377
#     4  10  22  41  63  89 125 165 206 262 315 372
#     4  11  22  42  65  93 129 168 211 263 320 374
#     4  10  22  41  64  91 121 165 210 258 320 374
#     4  11  23  42  63  92 130 168 209 266 317 372
#     4   9  20  42  64  88 125 160 205 259 312 370
#
# _framework density 21.944023000000001
#
# number of rings (size 3 to 8) (size 9 to 14) (size 15 to 20)
#    0.000    1.500    3.750    1.125    0.000    2.500 
#    6.750    0.000    0.000    0.000    0.000    0.000 
#    0.000    0.000    0.000    0.000    0.000    0.000 
#
# Total GULP energy -198264.968618 kJ/mol
# GULP energy per Si atom -12391.560539 kJ/mol
# Density = 2.189408 g / cm^3
# Si number density = 21.944023 Si / 1000 Ang^3
#
#
#
# Elastic Constant Matrix: (Units=GPa)
#
#
# Indices 1 2 3 4 5 6 
#
# 1 38.7921 21.7568 29.4407 -0.8469 -8.8206 4.9374
# 2 21.7568 111.9677 32.9342 9.3081 -2.2075 -0.0361
# 3 29.4407 32.9342 120.6411 11.9773 -8.6432 1.6869
# 4 -0.8469 9.3081 11.9773 35.2162 2.6503 -0.4983
# 5 -8.8206 -2.2075 -8.6432 2.6503 28.5206 1.6230
# 6 4.9374 -0.0361 1.6869 -0.4983 1.6230 16.9572
#
#
#
# Elastic Compliance Matrix: (Units=1/GPa)
#
#
# Indices 1 2 3 4 5 6 
#
# 1 0.038026 -0.005367 -0.007383 0.003981 0.009371 -0.011129
# 2 -0.005367 0.010572 -0.001455 -0.002316 -0.001168 0.001774
# 3 -0.007383 -0.001455 0.010918 -0.003585 0.001198 0.000840
# 4 0.003981 -0.002316 -0.003585 0.030546 -0.002894 0.000367
# 5 0.009371 -0.001168 0.001198 -0.002894 0.038881 -0.006657
# 6 -0.011129 0.001774 0.000840 0.000367 -0.006657 0.062780
#
#
# Mechanical properties :
#
#
# Convention : Reuss Voigt Hill
#
# Bulk Modulus (GPa) = 32.14814 48.85159 40.49986
# Shear Modulus (GPa) = 21.69187 28.62341 25.15764
#
# Velocity S-wave (km/s) = 3.14747 3.61554 3.38959
# Velocity P-wave (km/s) = 5.28116 6.30395 5.81508
#
# Compressibility (1/GPa) = 0.03110600
#
# Stress axis : x y z
#
# Youngs Moduli (GPa) = 26.29796 94.58898 91.59331
#
# Poissons Ratio (x) = 0.50768 0.67621
# Poissons Ratio (y) = 0.14115 0.13326
# Poissons Ratio (z) = 0.19415 0.13762
#
# Static dielectric constant tensor:
#      x y z
#    x 3.618820 -0.049980 -0.086350 
#    y -0.049980 4.396130 0.300080 
#    z -0.086350 0.300080 3.954170 
# 
# 
# High freq. dielectric constant tensor:
#      x y z
#    x 1.834640 -0.004830 -0.004940 
#    y -0.004830 1.890260 0.012250 
#    z -0.004940 0.012250 1.852130 
# 
# From -- ./inp_files/454677.got.cif
#   From: 2010.06.25/outbox.cif.g09.slc.cpg/sg2_228_cif.got.tgz:454677.got - 2010.06.27 13:26:56.
