data_PCOD8018246
_publ_section_title
;
Structure prediction by ZEFSAII (Michael W. Deem and Ramdas Pophale) SiO2 
 PCOD8018246
Probable space group: P -1
;
_chemical_formula_sum "Si O2"
_cell_formula_units_Z 16
_cell_length_a 9.164695
_cell_length_b 11.089411
_cell_length_c 11.931586
_cell_angle_alpha 51.513351
_cell_angle_beta 120.378314
_cell_angle_gamma 96.030929
_cell_volume 778.399817
_symmetry_space_group_name_H-M "P -1"
_symmetry_group_IT_number 2
_symmetry_cell_setting 'triclinic'
loop_
_space_group_symop_operation_xyz
x,y,z
-x,-y,-z
loop_
_atom_site_type_symbol
_atom_site_label
_atom_site_fract_x
_atom_site_fract_y
_atom_site_fract_z
Si Si1 0.203877 0.521020 0.252219
Si Si2 0.049008 0.687633 0.700051
Si Si3 0.634477 0.076904 0.069567
Si Si4 0.829062 0.126382 0.911644
Si Si5 0.530909 0.234867 0.560063
Si Si6 0.324304 0.712904 0.645928
Si Si7 0.289133 0.028544 0.589106
Si Si8 0.359745 0.592920 0.049378
O O1 0.143834 0.697606 0.181561
O O2 0.384009 0.402049 0.448557
O O3 0.246842 0.530677 0.133155
O O4 0.036354 0.455856 0.239614
O O5 0.130320 0.689285 0.605325
O O6 0.911159 0.860388 0.579706
O O7 0.221797 0.667219 0.854923
O O8 0.695942 0.985471 0.262535
O O9 0.802982 0.060090 0.062897
O O10 0.555170 0.271028 0.949254
O O11 0.500000 0.000000 0.000000
O O12 0.652268 0.143358 0.761777
O O13 0.000000 0.000000 0.000000
O O14 0.654240 0.264903 0.490881
O O15 0.423956 0.117678 0.541776
O O16 0.479119 0.558155 0.842337
O O17 0.337395 0.863180 0.637017
#
# Coordination Sequence:
#
# PCOD8018246 Si02
#       8
#     2   2   2   2   2   2   2   2
#     4   9  22  41  61  86 122 166 202 246 308 367
#     4  11  22  37  62  91 125 155 203 251 304 360
#     4  11  23  42  65  89 123 165 208 244 305 364
#     4  11  24  39  63  89 123 163 207 255 298 361
#     4  10  22  42  61  87 125 165 201 247 309 365
#     4  11  23  38  63  95 125 153 204 253 309 358
#     4  11  23  40  64  92 123 164 200 254 305 364
#     4  10  22  40  64  91 122 164 197 255 308 360
#
# _framework density 20.554988999999999
#
# number of rings (size 3 to 8) (size 9 to 14) (size 15 to 20)
#    0.000    1.500    2.500    1.875    1.750    3.000 
#    0.000    0.625    0.000    0.000    0.000    0.000 
#    0.000    0.000    0.000    0.000    0.000    0.000 
#
# Total GULP energy -198366.723223 kJ/mol
# GULP energy per Si atom -12397.920201 kJ/mol
# Density = 2.050821 g / cm^3
# Si number density = 20.554989 Si / 1000 Ang^3
#
#
#
# Elastic Constant Matrix: (Units=GPa)
#
#
# Indices 1 2 3 4 5 6 
#
# 1 111.2482 54.6513 15.9317 -23.1108 -1.3868 10.7065
# 2 54.6513 121.3226 37.2673 -30.8832 18.5498 3.0716
# 3 15.9317 37.2673 74.6717 -17.0920 7.3172 -4.4943
# 4 -23.1108 -30.8832 -17.0920 35.7595 -6.2206 0.5474
# 5 -1.3868 18.5498 7.3172 -6.2206 32.1688 -5.8095
# 6 10.7065 3.0716 -4.4943 0.5474 -5.8095 32.8975
#
#
#
# Elastic Compliance Matrix: (Units=1/GPa)
#
#
# Indices 1 2 3 4 5 6 
#
# 1 0.012799 -0.005199 0.000377 0.004673 0.003820 -0.003032
# 2 -0.005199 0.014455 -0.004167 0.005985 -0.006728 -0.001515
# 3 0.000377 -0.004167 0.016578 0.004525 -0.000034 0.002450
# 4 0.004673 0.005985 0.004525 0.038853 0.002947 -0.001587
# 5 0.003820 -0.006728 -0.000034 0.002947 0.036760 0.005823
# 6 -0.003032 -0.001515 0.002450 -0.001587 0.005823 0.032915
#
#
# Mechanical properties :
#
#
# Convention : Reuss Voigt Hill
#
# Bulk Modulus (GPa) = 38.67969 58.10477 48.39223
# Shear Modulus (GPa) = 27.93983 33.45797 30.69890
#
# Velocity S-wave (km/s) = 3.69083 4.03889 3.86878
# Velocity P-wave (km/s) = 6.08453 7.07669 6.59928
#
# Compressibility (1/GPa) = 0.02585336
#
# Stress axis : x y z
#
# Youngs Moduli (GPa) = 78.13002 69.18040 60.32174
#
# Poissons Ratio (x) = 0.35968 -0.02273
# Poissons Ratio (y) = 0.40621 0.25135
# Poissons Ratio (z) = -0.02944 0.28827
#
# Static dielectric constant tensor:
#      x y z
#    x 3.932370 0.019010 -0.260600 
#    y 0.019010 3.617290 -0.185310 
#    z -0.260600 -0.185310 3.801450 
# 
# 
# High freq. dielectric constant tensor:
#      x y z
#    x 1.818150 0.002470 -0.015620 
#    y 0.002470 1.796520 -0.015730 
#    z -0.015620 -0.015730 1.804250 
# 
# From -- ./inp_files/178821.got.cif
#   From: 2010.06.25/outbox.cif.g09.slc.cpg/sg2_90_cif.got.tgz:178821.got - 2010.06.27 13:26:56.
