data_PCOD8018183
_publ_section_title
;
Structure prediction by ZEFSAII (Michael W. Deem and Ramdas Pophale) SiO2 
 PCOD8018183
Probable space group: P -1
;
_chemical_formula_sum "Si O2"
_cell_formula_units_Z 16
_cell_length_a 19.716160
_cell_length_b 11.214203
_cell_length_c 11.685725
_cell_angle_alpha 118.125490
_cell_angle_beta 148.997801
_cell_angle_gamma 41.397280
_cell_volume 760.212934
_symmetry_space_group_name_H-M "P -1"
_symmetry_group_IT_number 2
_symmetry_cell_setting 'triclinic'
loop_
_space_group_symop_operation_xyz
x,y,z
-x,-y,-z
loop_
_atom_site_type_symbol
_atom_site_label
_atom_site_fract_x
_atom_site_fract_y
_atom_site_fract_z
Si Si1 0.968003 0.642497 0.148620
Si Si2 0.762855 0.313885 0.023976
Si Si3 0.924190 0.396591 0.461918
Si Si4 0.878582 0.919487 0.721111
Si Si5 0.719298 0.818984 0.288581
Si Si6 0.719284 0.604232 0.696946
Si Si7 0.365070 0.624505 0.472105
Si Si8 0.245361 0.987520 0.162154
O O1 0.016254 0.674646 0.353039
O O2 0.182046 0.442402 0.305616
O O3 0.840021 0.603308 0.963362
O O4 0.831568 0.846995 0.966692
O O5 0.837297 0.324857 0.253402
O O6 0.891233 0.269115 0.079627
O O7 0.525188 0.536049 0.764114
O O8 0.791924 0.131431 0.997055
O O9 0.753713 0.646279 0.318346
O O10 0.124944 0.283433 0.635252
O O11 0.738576 0.917354 0.458121
O O12 0.798390 0.131139 0.669493
O O13 0.875809 0.898297 0.842805
O O14 0.500000 0.000000 0.000000
O O15 0.755475 0.418547 0.694068
O O16 0.483071 0.826760 0.456677
O O17 0.500000 0.500000 0.500000
#
# Coordination Sequence:
#
# PCOD8018183 Si02
#       8
#     2   2   2   2   2   2   2   2
#     4  11  25  41  63  87 134 171 207 252 305 387
#     4  10  22  40  63  92 127 160 210 262 316 369
#     4  10  24  43  60  91 125 171 208 253 316 372
#     4  11  22  36  65  98 123 160 204 266 321 362
#     4  10  23  40  64  90 126 165 211 258 313 376
#     4  10  24  40  60  94 125 169 210 254 315 366
#     4  11  21  38  65  95 125 159 208 269 314 358
#     4  11  23  39  62  96 124 163 212 255 310 372
#
# _framework density 21.046735999999999
#
# number of rings (size 3 to 8) (size 9 to 14) (size 15 to 20)
#    0.000    1.500    2.500    2.250    7.000    3.500 
#    0.000    2.500    0.000    0.000    0.000    0.000 
#    0.000    0.000    0.000    0.000    0.000    0.000 
#
# Total GULP energy -198448.253691 kJ/mol
# GULP energy per Si atom -12403.015856 kJ/mol
# Density = 2.099883 g / cm^3
# Si number density = 21.046736 Si / 1000 Ang^3
#
#
#
# Elastic Constant Matrix: (Units=GPa)
#
#
# Indices 1 2 3 4 5 6 
#
# 1 81.8447 43.3504 55.0832 18.1823 -9.5752 0.9834
# 2 43.3504 87.5096 52.5804 13.0643 -7.9658 7.2266
# 3 55.0832 52.5804 129.0195 17.2408 1.7443 3.1144
# 4 18.1823 13.0643 17.2408 42.2799 1.5790 -1.4978
# 5 -9.5752 -7.9658 1.7443 1.5790 35.2788 5.8609
# 6 0.9834 7.2266 3.1144 -1.4978 5.8609 26.9118
#
#
#
# Elastic Compliance Matrix: (Units=1/GPa)
#
#
# Indices 1 2 3 4 5 6 
#
# 1 0.020924 -0.005519 -0.006085 -0.004994 0.004946 0.000066
# 2 -0.005519 0.017954 -0.004680 -0.001580 0.003684 -0.004968
# 3 -0.006085 -0.004680 0.012396 -0.000838 -0.003407 0.000740
# 4 -0.004994 -0.001580 -0.000838 0.026859 -0.003360 0.002930
# 5 0.004946 0.003684 -0.003407 -0.003360 0.032162 -0.007967
# 6 0.000066 -0.004968 0.000740 0.002930 -0.007967 0.040303
#
#
# Mechanical properties :
#
#
# Convention : Reuss Voigt Hill
#
# Bulk Modulus (GPa) = 53.45497 66.71131 60.08314
# Shear Modulus (GPa) = 26.39883 30.71808 28.55846
#
# Velocity S-wave (km/s) = 3.54545 3.82451 3.68762
# Velocity P-wave (km/s) = 6.49720 7.16017 6.83673
#
# Compressibility (1/GPa) = 0.01870733
#
# Stress axis : x y z
#
# Youngs Moduli (GPa) = 47.79141 55.69656 80.66935
#
# Poissons Ratio (x) = 0.30737 0.49091
# Poissons Ratio (y) = 0.26374 0.37751
# Poissons Ratio (z) = 0.29083 0.26065
#
# Static dielectric constant tensor:
#      x y z
#    x 3.681440 -0.006220 0.200020 
#    y -0.006220 3.720400 0.163280 
#    z 0.200020 0.163280 3.998390 
# 
# 
# High freq. dielectric constant tensor:
#      x y z
#    x 1.806220 0.005150 0.011500 
#    y 0.005150 1.831880 0.001220 
#    z 0.011500 0.001220 1.841940 
# 
# From -- ./inp_files/471067.got.cif
#   From: 2010.06.25/outbox.cif.g09.slc.cpg/sg2_236_cif.got.tgz:471067.got - 2010.06.27 13:26:56.
