data_PCOD8018762
_publ_section_title
;
Structure prediction by ZEFSAII (Michael W. Deem and Ramdas Pophale) SiO2 
 PCOD8018762
Probable space group: P -1
;
_chemical_formula_sum "Si O2"
_cell_formula_units_Z 14
_cell_length_a 11.416327
_cell_length_b 9.009122
_cell_length_c 14.902266
_cell_angle_alpha 124.930619
_cell_angle_beta 30.343275
_cell_angle_gamma 131.207947
_cell_volume 582.488218
_symmetry_space_group_name_H-M "P -1"
_symmetry_group_IT_number 2
_symmetry_cell_setting 'triclinic'
loop_
_space_group_symop_operation_xyz
x,y,z
-x,-y,-z
loop_
_atom_site_type_symbol
_atom_site_label
_atom_site_fract_x
_atom_site_fract_y
_atom_site_fract_z
Si Si1 0.420634 0.377173 0.726429
Si Si2 0.758725 0.398900 0.852197
Si Si3 0.005226 0.125278 0.625957
Si Si4 0.159837 0.807723 0.940883
Si Si5 0.496800 0.704993 0.547292
Si Si6 0.510907 0.785157 0.854156
Si Si7 0.649875 0.756651 0.078136
O O1 0.511670 0.277714 0.549526
O O2 0.579929 0.616716 0.698634
O O3 0.453852 0.279945 0.763764
O O4 0.124568 0.342173 0.901039
O O5 0.003328 0.341664 0.677920
O O6 0.603803 0.300808 0.831875
O O7 0.593093 0.316196 0.019680
O O8 0.817238 0.632193 0.896015
O O9 0.236429 0.133086 0.537196
O O10 0.739327 0.990072 0.801639
O O11 0.000000 0.000000 0.500000
O O12 0.263666 0.728457 0.758993
O O13 0.319404 0.834548 0.934825
O O14 0.162661 0.018113 0.982688
O O15 0.500000 0.500000 0.500000
#
# Coordination Sequence:
#
# PCOD8018762 Si02
#       7
#     2   2   2   2   2   2   2
#     4  11  25  44  68 101 141 179 219 281 340 400
#     4  10  22  40  70  97 133 177 225 278 335 399
#     4  12  22  41  68 102 133 167 225 294 328 391
#     4  12  23  44  69 102 137 177 227 280 333 408
#     4  12  26  42  71 105 134 174 229 286 341 388
#     4  11  22  41  69  99 128 172 232 276 332 389
#     4  10  23  42  64 100 138 179 225 268 336 415
#
# _framework density 24.034821000000001
#
# number of rings (size 3 to 8) (size 9 to 14) (size 15 to 20)
#    0.000    0.857    4.286    2.143    6.000    0.571 
#    0.000    0.000    3.143    5.143    0.000    0.000 
#    0.000    0.000    0.000    0.000    0.000    0.000 
#
# Total GULP energy -173557.247055 kJ/mol
# GULP energy per Si atom -12396.946218 kJ/mol
# Density = 2.398012 g / cm^3
# Si number density = 24.034821 Si / 1000 Ang^3
#
#
#
# Elastic Constant Matrix: (Units=GPa)
#
#
# Indices 1 2 3 4 5 6 
#
# 1 103.1817 -2.0155 12.4582 0.1129 32.6902 3.6393
# 2 -2.0155 117.5442 3.6332 15.2941 5.2730 -6.6020
# 3 12.4582 3.6332 78.9230 18.6827 6.2265 7.4784
# 4 0.1129 15.2941 18.6827 27.1585 10.2999 0.3976
# 5 32.6902 5.2730 6.2265 10.2999 29.4187 6.5549
# 6 3.6393 -6.6020 7.4784 0.3976 6.5549 33.1252
#
#
#
# Elastic Compliance Matrix: (Units=1/GPa)
#
#
# Indices 1 2 3 4 5 6 
#
# 1 0.017410 0.000190 -0.003925 0.011299 -0.023281 0.003483
# 2 0.000190 0.009343 0.000731 -0.005608 -0.000487 0.001840
# 3 -0.003925 0.000731 0.016502 -0.014215 0.006672 -0.004298
# 4 0.011299 -0.005608 -0.014215 0.061569 -0.031512 0.006347
# 5 -0.023281 -0.000487 0.006672 -0.031512 0.072469 -0.013008
# 6 0.003483 0.001840 -0.004298 0.006347 -0.013008 0.033641
#
#
# Mechanical properties :
#
#
# Convention : Reuss Voigt Hill
#
# Bulk Modulus (GPa) = 26.84725 36.42229 31.63477
# Shear Modulus (GPa) = 21.80006 36.97868 29.38937
#
# Velocity S-wave (km/s) = 3.01494 3.92669 3.50063
# Velocity P-wave (km/s) = 4.82848 5.97874 5.43413
#
# Compressibility (1/GPa) = 0.03724777
#
# Stress axis : x y z
#
# Youngs Moduli (GPa) = 57.43794 107.03336 60.59710
#
# Poissons Ratio (x) = -0.02030 0.23784
# Poissons Ratio (y) = -0.01089 -0.04433
# Poissons Ratio (z) = 0.22544 -0.07829
#
# Static dielectric constant tensor:
#      x y z
#    x 4.514710 -0.236570 0.870340 
#    y -0.236570 4.163570 0.823860 
#    z 0.870340 0.823860 4.493370 
# 
# 
# High freq. dielectric constant tensor:
#      x y z
#    x 1.963230 0.014970 0.017030 
#    y 0.014970 1.966250 0.008210 
#    z 0.017030 0.008210 1.936300 
# 
# From -- ./inp_files/238559.got.cif
#   From: 2010.06.25/outbox.cif.g09.slc.cpg/sg2_120_cif.got.tgz:238559.got - 2010.06.27 13:26:56.
