data_PCOD8018411
_publ_section_title
;
Structure prediction by ZEFSAII (Michael W. Deem and Ramdas Pophale) SiO2 
 PCOD8018411
Probable space group: P -1
;
_chemical_formula_sum "Si O2"
_cell_formula_units_Z 14
_cell_length_a 8.865365
_cell_length_b 8.648156
_cell_length_c 8.714254
_cell_angle_alpha 79.190985
_cell_angle_beta 112.772228
_cell_angle_gamma 110.195354
_cell_volume 577.038538
_symmetry_space_group_name_H-M "P -1"
_symmetry_group_IT_number 2
_symmetry_cell_setting 'triclinic'
loop_
_space_group_symop_operation_xyz
x,y,z
-x,-y,-z
loop_
_atom_site_type_symbol
_atom_site_label
_atom_site_fract_x
_atom_site_fract_y
_atom_site_fract_z
Si Si1 0.915511 0.007714 0.130820
Si Si2 0.466016 0.098200 0.323038
Si Si3 0.781693 0.794836 0.605626
Si Si4 0.747409 0.408895 0.321543
Si Si5 0.097932 0.520527 0.305975
Si Si6 0.355580 0.270534 0.768923
Si Si7 0.705356 0.204254 0.896925
O O1 0.779912 0.829092 0.140782
O O2 0.056728 0.047024 0.315963
O O3 0.823102 0.153197 0.080678
O O4 0.000000 0.000000 0.000000
O O5 0.362458 0.219089 0.320828
O O6 0.630313 0.221952 0.279928
O O7 0.500000 0.000000 0.500000
O O8 0.362791 0.968410 0.185400
O O9 0.828166 0.627972 0.669700
O O10 0.705264 0.814282 0.404576
O O11 0.838297 0.398467 0.520551
O O12 0.638934 0.539077 0.260232
O O13 0.890249 0.460602 0.234131
O O14 0.165676 0.655969 0.178446
O O15 0.546434 0.261939 0.885792
#
# Coordination Sequence:
#
# PCOD8018411 Si02
#       7
#     2   2   2   2   2   2   2
#     4  12  26  44  66 101 143 179 217 284 344 400
#     4  12  22  39  70 104 135 175 226 281 331 400
#     4  11  24  42  72  98 134 175 237 269 336 393
#     4  10  22  40  66 103 136 173 229 283 331 387
#     4  10  22  41  67 100 137 178 223 283 333 398
#     4  11  24  44  71  99 132 182 232 275 327 407
#     4  12  24  43  69  98 142 177 224 275 345 397
#
# _framework density 24.261810000000001
#
# number of rings (size 3 to 8) (size 9 to 14) (size 15 to 20)
#    0.000    0.857    4.286    2.571    2.000    4.000 
#    0.000    0.714    0.000    0.000    0.000    0.000 
#    0.000    0.000    0.000    0.000    0.000    0.000 
#
# Total GULP energy -173603.328927 kJ/mol
# GULP energy per Si atom -12400.237781 kJ/mol
# Density = 2.420659 g / cm^3
# Si number density = 24.261810 Si / 1000 Ang^3
#
#
#
# Elastic Constant Matrix: (Units=GPa)
#
#
# Indices 1 2 3 4 5 6 
#
# 1 140.0184 48.8890 13.0755 -10.2365 5.5426 17.5972
# 2 48.8890 85.6925 2.1093 -20.3777 -13.7173 21.7966
# 3 13.0755 2.1093 39.1309 -13.9089 8.7817 9.1530
# 4 -10.2365 -20.3777 -13.9089 29.1593 0.3851 -8.0608
# 5 5.5426 -13.7173 8.7817 0.3851 37.3546 -11.5464
# 6 17.5972 21.7966 9.1530 -8.0608 -11.5464 48.4160
#
#
#
# Elastic Compliance Matrix: (Units=1/GPa)
#
#
# Indices 1 2 3 4 5 6 
#
# 1 0.009729 -0.006307 -0.002710 -0.002645 -0.003550 -0.001471
# 2 -0.006307 0.020303 0.005501 0.013327 0.005623 -0.004328
# 3 -0.002710 0.005501 0.036312 0.018293 -0.008577 -0.007356
# 4 -0.002645 0.013327 0.018293 0.051452 0.000515 0.000192
# 5 -0.003550 0.005623 -0.008577 0.000515 0.034025 0.008580
# 6 -0.001471 -0.004328 -0.007356 0.000192 0.008580 0.026606
#
#
# Mechanical properties :
#
#
# Convention : Reuss Voigt Hill
#
# Bulk Modulus (GPa) = 16.86030 43.66550 30.26290
# Shear Modulus (GPa) = 24.36284 36.37052 30.36668
#
# Velocity S-wave (km/s) = 3.17229 3.87600 3.54167
# Velocity P-wave (km/s) = 4.51468 6.16992 5.40603
#
# Compressibility (1/GPa) = 0.05931091
#
# Stress axis : x y z
#
# Youngs Moduli (GPa) = 102.78295 49.25472 27.53912
#
# Poissons Ratio (x) = 0.31064 0.07464
# Poissons Ratio (y) = 0.64824 -0.15148
# Poissons Ratio (z) = 0.27856 -0.27093
#
# Static dielectric constant tensor:
#      x y z
#    x 4.883650 -0.074160 0.483480 
#    y -0.074160 4.317080 -0.093830 
#    z 0.483480 -0.093830 4.748700 
# 
# 
# High freq. dielectric constant tensor:
#      x y z
#    x 1.980650 0.000690 0.008100 
#    y 0.000690 1.967260 -0.005080 
#    z 0.008100 -0.005080 1.951850 
# 
# From -- ./inp_files/157710.got.cif
#   From: 2010.06.25/outbox.cif.g09.slc.cpg/sg2_79_cif.got.tgz:157710.got - 2010.06.27 13:26:56.
