data_PCOD8018413
_publ_section_title
;
Structure prediction by ZEFSAII (Michael W. Deem and Ramdas Pophale) SiO2 
 PCOD8018413
Probable space group: P -1
;
_chemical_formula_sum "Si O2"
_cell_formula_units_Z 16
_cell_length_a 9.121753
_cell_length_b 22.227646
_cell_length_c 9.160081
_cell_angle_alpha 27.212420
_cell_angle_beta 53.226134
_cell_angle_gamma 56.291204
_cell_volume 679.003576
_symmetry_space_group_name_H-M "P -1"
_symmetry_group_IT_number 2
_symmetry_cell_setting 'triclinic'
loop_
_space_group_symop_operation_xyz
x,y,z
-x,-y,-z
loop_
_atom_site_type_symbol
_atom_site_label
_atom_site_fract_x
_atom_site_fract_y
_atom_site_fract_z
Si Si1 0.061157 0.011561 0.601210
Si Si2 0.392496 0.638100 0.270721
Si Si3 0.469354 0.914994 0.563893
Si Si4 0.942361 0.464229 0.449745
Si Si5 0.216170 0.130527 0.718019
Si Si6 0.633136 0.364798 0.372160
Si Si7 0.677011 0.648011 0.627848
Si Si8 0.021150 0.260524 0.277394
O O1 0.078468 0.161050 0.324955
O O2 0.253973 0.931960 0.633055
O O3 0.000000 0.000000 0.500000
O O4 0.919825 0.949775 0.930194
O O5 0.500000 0.500000 0.500000
O O6 0.225903 0.628596 0.274235
O O7 0.330821 0.668728 0.407987
O O8 0.517043 0.757369 0.894072
O O9 0.617478 0.962354 0.254170
O O10 0.500000 0.000000 0.500000
O O11 0.000000 0.500000 0.500000
O O12 0.110039 0.375837 0.478287
O O13 0.889513 0.600150 0.101902
O O14 0.336480 0.226824 0.530433
O O15 0.088799 0.201627 0.517628
O O16 0.443824 0.315539 0.524006
O O17 0.801601 0.294004 0.335032
O O18 0.609022 0.522472 0.025234
#
# Coordination Sequence:
#
# PCOD8018413 Si02
#       8
#     2   2   2   2   2   2   2   2
#     4  12  30  49  75 108 149 201 255 312 380 449
#     4  12  25  43  73 108 148 192 251 308 376 452
#     4  12  28  48  77 110 150 199 253 306 378 453
#     4  11  24  41  71 105 150 195 249 315 376 443
#     4  12  26  49  76 105 149 196 250 313 371 453
#     4  10  22  40  68 102 144 190 241 306 373 443
#     4  10  22  40  66 103 142 190 243 304 376 440
#     4  11  24  45  73 103 147 195 251 307 379 445
#
# _framework density 23.563939999999999
#
# number of rings (size 3 to 8) (size 9 to 14) (size 15 to 20)
#    0.000    0.750    1.250    5.625    7.000    4.500 
#    0.000    0.000    0.000    0.000    0.000    0.000 
#    0.000    0.000    0.000    0.000    0.000    0.000 
#
# Total GULP energy -198291.368233 kJ/mol
# GULP energy per Si atom -12393.210515 kJ/mol
# Density = 2.351031 g / cm^3
# Si number density = 23.563940 Si / 1000 Ang^3
#
#
#
# Elastic Constant Matrix: (Units=GPa)
#
#
# Indices 1 2 3 4 5 6 
#
# 1 143.7178 42.5509 38.7373 1.9976 -9.4548 18.6251
# 2 42.5509 113.5720 31.2725 -1.7636 4.1372 -8.8419
# 3 38.7373 31.2725 68.4928 6.3124 -2.0882 -10.1625
# 4 1.9976 -1.7636 6.3124 42.6574 5.8731 -2.1124
# 5 -9.4548 4.1372 -2.0882 5.8731 24.7939 6.2432
# 6 18.6251 -8.8419 -10.1625 -2.1124 6.2432 50.9830
#
#
#
# Elastic Compliance Matrix: (Units=1/GPa)
#
#
# Indices 1 2 3 4 5 6 
#
# 1 0.010494 -0.003238 -0.005102 -0.000989 0.005902 -0.006176
# 2 -0.003238 0.011342 -0.003194 0.001888 -0.004639 0.003160
# 3 -0.005102 -0.003194 0.019939 -0.002522 -0.000454 0.005236
# 4 -0.000989 0.001888 -0.002522 0.025061 -0.007377 0.002128
# 5 0.005902 -0.004639 -0.000454 -0.007377 0.047372 -0.009158
# 6 -0.006176 0.003160 0.005236 0.002128 -0.009158 0.024672
#
#
# Mechanical properties :
#
#
# Convention : Reuss Voigt Hill
#
# Bulk Modulus (GPa) = 53.45441 61.21158 57.33300
# Shear Modulus (GPa) = 29.72915 37.90164 33.81540
#
# Velocity S-wave (km/s) = 3.55581 4.01491 3.79231
# Velocity P-wave (km/s) = 6.29225 6.89390 6.59994
#
# Compressibility (1/GPa) = 0.01870753
#
# Stress axis : x y z
#
# Youngs Moduli (GPa) = 95.28862 88.16848 50.15211
#
# Poissons Ratio (x) = 0.28550 0.25588
# Poissons Ratio (y) = 0.30856 0.16018
# Poissons Ratio (z) = 0.48618 0.28159
#
# Static dielectric constant tensor:
#      x y z
#    x 4.206960 0.185470 -0.043080 
#    y 0.185470 4.403030 -0.060410 
#    z -0.043080 -0.060410 4.197670 
# 
# 
# High freq. dielectric constant tensor:
#      x y z
#    x 1.950670 -0.000960 -0.009280 
#    y -0.000960 1.949930 -0.007020 
#    z -0.009280 -0.007020 1.919440 
# 
# From -- ./inp_files/222830.got.cif
#   From: 2010.06.25/outbox.cif.g09.slc.cpg/sg2_112_cif.got.tgz:222830.got - 2010.06.27 13:26:56.
