data_PCOD8018369
_publ_section_title
;
Structure prediction by ZEFSAII (Michael W. Deem and Ramdas Pophale) SiO2 
 PCOD8018369
Probable space group: P -1
;
_chemical_formula_sum "Si O2"
_cell_formula_units_Z 12
_cell_length_a 11.233761
_cell_length_b 8.759776
_cell_length_c 6.568130
_cell_angle_alpha 121.261549
_cell_angle_beta 96.642906
_cell_angle_gamma 70.172690
_cell_volume 518.277187
_symmetry_space_group_name_H-M "P -1"
_symmetry_group_IT_number 2
_symmetry_cell_setting 'triclinic'
loop_
_space_group_symop_operation_xyz
x,y,z
-x,-y,-z
loop_
_atom_site_type_symbol
_atom_site_label
_atom_site_fract_x
_atom_site_fract_y
_atom_site_fract_z
Si Si1 0.051182 0.862793 0.601957
Si Si2 0.650623 0.549527 0.216550
Si Si3 0.896905 0.398130 0.913584
Si Si4 0.544012 0.220561 0.967146
Si Si5 0.096732 0.145185 0.056371
Si Si6 0.336049 0.210388 0.239460
O O1 0.124514 0.665388 0.365692
O O2 0.933262 0.847468 0.703607
O O3 0.000000 0.000000 0.500000
O O4 0.144485 0.933403 0.817563
O O5 0.524370 0.704319 0.208618
O O6 0.691279 0.634189 0.483770
O O7 0.759935 0.521387 0.051619
O O8 0.628590 0.352178 0.129599
O O9 0.000000 0.500000 0.000000
O O10 0.961703 0.232386 0.974179
O O11 0.629810 0.001790 0.807051
O O12 0.444365 0.235906 0.137254
O O13 0.204049 0.244491 0.111349
#
# Coordination Sequence:
#
# PCOD8018369 Si02
#       6
#     2   2   2   2   2   2
#     4   9  21  39  59  92 128 163 207 250 317 388
#     4  11  24  44  67  93 135 167 218 267 321 382
#     4  11  23  40  63  99 130 166 206 262 331 386
#     4  10  25  45  63  97 123 179 219 264 320 374
#     4  10  22  40  65  95 126 166 208 261 327 379
#     4  11  23  44  69  93 130 167 223 267 319 383
#
# _framework density 23.153634
#
# number of rings (size 3 to 8) (size 9 to 14) (size 15 to 20)
#    0.000    1.667    0.000    3.000    7.000    5.333 
#   12.000    0.000    0.000    0.000    0.000    0.000 
#    0.000    0.000    0.000    0.000    0.000    0.000 
#
# Total GULP energy -148722.343893 kJ/mol
# GULP energy per Si atom -12393.528658 kJ/mol
# Density = 2.310094 g / cm^3
# Si number density = 23.153634 Si / 1000 Ang^3
#
#
#
# Elastic Constant Matrix: (Units=GPa)
#
#
# Indices 1 2 3 4 5 6 
#
# 1 115.1625 10.9278 52.3079 10.8475 8.0209 24.4934
# 2 10.9278 55.0522 7.1019 -3.0616 5.5419 13.6786
# 3 52.3079 7.1019 169.0250 9.3589 6.5237 15.0946
# 4 10.8475 -3.0616 9.3589 29.9092 8.5024 3.0308
# 5 8.0209 5.5419 6.5237 8.5024 38.5192 -1.8137
# 6 24.4934 13.6786 15.0946 3.0308 -1.8137 44.7633
#
#
#
# Elastic Compliance Matrix: (Units=1/GPa)
#
#
# Indices 1 2 3 4 5 6 
#
# 1 0.011443 -0.000639 -0.002878 -0.002378 -0.001514 -0.004996
# 2 -0.000639 0.020515 -0.000177 0.004164 -0.004005 -0.006304
# 3 -0.002878 -0.000177 0.006942 -0.000975 -0.000367 -0.000660
# 4 -0.002378 0.004164 -0.000975 0.037665 -0.008372 -0.002532
# 5 -0.001514 -0.004005 -0.000367 -0.008372 0.028947 0.003915
# 6 -0.004996 -0.006304 -0.000660 -0.002532 0.003915 0.027553
#
#
# Mechanical properties :
#
#
# Convention : Reuss Voigt Hill
#
# Bulk Modulus (GPa) = 31.73441 53.32385 42.52913
# Shear Modulus (GPa) = 33.12200 40.56515 36.84357
#
# Velocity S-wave (km/s) = 3.78634 4.19023 3.99339
# Velocity P-wave (km/s) = 5.73157 6.81844 6.29849
#
# Compressibility (1/GPa) = 0.03151153
#
# Stress axis : x y z
#
# Youngs Moduli (GPa) = 87.38682 48.74424 144.05914
#
# Poissons Ratio (x) = 0.03113 0.41464
# Poissons Ratio (y) = 0.05582 0.02555
# Poissons Ratio (z) = 0.25152 0.00865
#
# Static dielectric constant tensor:
#      x y z
#    x 4.088580 -0.153820 0.175760 
#    y -0.153820 4.875690 0.134000 
#    z 0.175760 0.134000 4.622760 
# 
# 
# High freq. dielectric constant tensor:
#      x y z
#    x 1.908920 0.015260 0.007140 
#    y 0.015260 1.925320 0.002610 
#    z 0.007140 0.002610 1.921010 
# 
# From -- ./inp_files/22268.got.cif
#   From: 2010.06.25/outbox.cif.g09.slc.cpg/sg2_12_cif.got.tgz:22268.got - 2010.06.27 13:26:56.
