data_PCOD8018715
_publ_section_title
;
Structure prediction by ZEFSAII (Michael W. Deem and Ramdas Pophale) SiO2 
 PCOD8018715
Probable space group: P -1
;
_chemical_formula_sum "Si O2"
_cell_formula_units_Z 16
_cell_length_a 20.499058
_cell_length_b 24.053819
_cell_length_c 8.595942
_cell_angle_alpha 146.735934
_cell_angle_beta 147.008745
_cell_angle_gamma 20.475222
_cell_volume 778.549980
_symmetry_space_group_name_H-M "P -1"
_symmetry_group_IT_number 2
_symmetry_cell_setting 'triclinic'
loop_
_space_group_symop_operation_xyz
x,y,z
-x,-y,-z
loop_
_atom_site_type_symbol
_atom_site_label
_atom_site_fract_x
_atom_site_fract_y
_atom_site_fract_z
Si Si1 0.848684 0.023440 0.679387
Si Si2 0.765812 0.892781 0.850201
Si Si3 0.800855 0.095361 0.396250
Si Si4 0.476077 0.238087 0.644113
Si Si5 0.967054 0.308185 0.817601
Si Si6 0.542708 0.580966 0.709086
Si Si7 0.405424 0.055752 0.676133
Si Si8 0.146121 0.355783 0.080035
O O1 0.804880 0.093751 0.585552
O O2 0.649343 0.156876 0.688339
O O3 0.938220 0.850907 0.452833
O O4 0.000000 0.000000 0.000000
O O5 0.731938 0.845462 0.520984
O O6 0.598236 0.991878 0.877406
O O7 0.966371 0.731548 0.960956
O O8 0.764424 0.007550 0.052903
O O9 0.629769 0.281185 0.432149
O O10 0.000000 0.000000 0.500000
O O11 0.275275 0.356216 0.422483
O O12 0.532203 0.099421 0.523922
O O13 0.438312 0.351414 0.956560
O O14 0.736163 0.450655 0.687251
O O15 0.020848 0.377484 0.005075
O O16 0.500000 0.500000 0.500000
O O17 0.296881 0.177142 0.887070
O O18 0.000000 0.500000 0.000000
#
# Coordination Sequence:
#
# PCOD8018715 Si02
#       8
#     2   2   2   2   2   2   2   2
#     4  11  24  45  72 100 129 183 239 278 335 411
#     4  10  22  40  69  99 124 179 227 273 329 410
#     4  11  23  43  70  98 130 178 230 278 329 408
#     4  12  24  47  71  98 138 188 226 277 345 413
#     4  11  24  43  68  97 142 170 225 284 345 396
#     4  12  27  47  67 101 139 178 226 289 343 399
#     4  11  22  43  70  97 134 175 231 271 333 411
#     4  12  27  41  66 103 144 177 221 284 353 408
#
# _framework density 20.551024999999999
#
# number of rings (size 3 to 8) (size 9 to 14) (size 15 to 20)
#    0.000    0.750    3.750    4.875    5.250    0.500 
#    2.250    1.250    0.000    0.000    0.000    0.000 
#    0.000    0.000    0.000    0.000    0.000    0.000 
#
# Total GULP energy -198475.377763 kJ/mol
# GULP energy per Si atom -12404.711110 kJ/mol
# Density = 2.050425 g / cm^3
# Si number density = 20.551025 Si / 1000 Ang^3
#
#
#
# Elastic Constant Matrix: (Units=GPa)
#
#
# Indices 1 2 3 4 5 6 
#
# 1 107.3283 38.5362 32.7106 -4.8701 26.8618 -5.6051
# 2 38.5362 118.1467 37.7073 -16.1464 11.6169 11.5089
# 3 32.7106 37.7073 115.3471 -7.7004 10.2671 4.8758
# 4 -4.8701 -16.1464 -7.7004 36.5845 -2.2384 2.5128
# 5 26.8618 11.6169 10.2671 -2.2384 42.6399 -4.0137
# 6 -5.6051 11.5089 4.8758 2.5128 -4.0137 42.3864
#
#
#
# Elastic Compliance Matrix: (Units=1/GPa)
#
#
# Indices 1 2 3 4 5 6 
#
# 1 0.012831 -0.003165 -0.002164 -0.000697 -0.006527 0.002228
# 2 -0.003165 0.011207 -0.002279 0.004248 -0.000618 -0.003510
# 3 -0.002164 -0.002279 0.010172 0.000880 -0.000507 -0.000938
# 4 -0.000697 0.004248 0.000880 0.029532 0.000331 -0.003066
# 5 -0.006527 -0.000618 -0.000507 0.000331 0.028060 0.002000
# 6 0.002228 -0.003510 -0.000938 -0.003066 0.002000 0.025319
#
#
# Mechanical properties :
#
#
# Convention : Reuss Voigt Hill
#
# Bulk Modulus (GPa) = 52.64801 62.08115 57.36458
# Shear Modulus (GPa) = 36.05699 39.78002 37.91850
#
# Velocity S-wave (km/s) = 4.19323 4.40440 4.30011
# Velocity P-wave (km/s) = 7.00843 7.49259 7.25455
#
# Compressibility (1/GPa) = 0.01899407
#
# Stress axis : x y z
#
# Youngs Moduli (GPa) = 77.93370 89.22933 98.31205
#
# Poissons Ratio (x) = 0.28243 0.21273
# Poissons Ratio (y) = 0.24667 0.22406
# Poissons Ratio (z) = 0.16864 0.20336
#
# Static dielectric constant tensor:
#      x y z
#    x 3.833020 0.019540 0.057450 
#    y 0.019540 3.716970 -0.176780 
#    z 0.057450 -0.176780 3.864170 
# 
# 
# High freq. dielectric constant tensor:
#      x y z
#    x 1.818600 0.001750 0.007130 
#    y 0.001750 1.804920 -0.015680 
#    z 0.007130 -0.015680 1.813010 
# 
# From -- ./inp_files/199791.got.cif
#   From: 2010.06.25/outbox.cif.g09.slc.cpg/sg2_100_cif.got.tgz:199791.got - 2010.06.27 13:26:56.
