data_PCOD8018233
_publ_section_title
;
Structure prediction by ZEFSAII (Michael W. Deem and Ramdas Pophale) SiO2 
 PCOD8018233
Probable space group: P -1
;
_chemical_formula_sum "Si O2"
_cell_formula_units_Z 16
_cell_length_a 8.958125
_cell_length_b 20.567858
_cell_length_c 21.826589
_cell_angle_alpha 161.993935
_cell_angle_beta 37.121315
_cell_angle_gamma 141.928199
_cell_volume 741.157212
_symmetry_space_group_name_H-M "P -1"
_symmetry_group_IT_number 2
_symmetry_cell_setting 'triclinic'
loop_
_space_group_symop_operation_xyz
x,y,z
-x,-y,-z
loop_
_atom_site_type_symbol
_atom_site_label
_atom_site_fract_x
_atom_site_fract_y
_atom_site_fract_z
Si Si1 0.573908 0.082375 0.650221
Si Si2 0.610677 0.116411 0.006415
Si Si3 0.513562 0.686810 0.239197
Si Si4 0.624551 0.117710 0.237488
Si Si5 0.854331 0.726992 0.849088
Si Si6 0.454681 0.487645 0.691872
Si Si7 0.147919 0.275355 0.014449
Si Si8 0.954362 0.438636 0.888870
O O1 0.528046 0.184327 0.691609
O O2 0.833946 0.189580 0.693894
O O3 0.568106 0.832450 0.413440
O O4 0.347695 0.113449 0.797455
O O5 0.499412 0.330453 0.213897
O O6 0.908157 0.184595 0.971579
O O7 0.500000 0.000000 0.000000
O O8 0.543104 0.938005 0.817443
O O9 0.264862 0.514854 0.173164
O O10 0.753370 0.573397 0.047704
O O11 0.458029 0.255724 0.454997
O O12 0.899448 0.241877 0.244782
O O13 0.672559 0.906282 0.066985
O O14 0.682809 0.516408 0.691442
O O15 0.945003 0.710570 0.873412
O O16 0.202201 0.496166 0.819486
O O17 0.000000 0.500000 0.000000
#
# Coordination Sequence:
#
# PCOD8018233 Si02
#       8
#     2   2   2   2   2   2   2   2
#     4  10  22  40  64  89 120 165 209 252 305 374
#     4  11  23  41  62  93 131 163 204 261 307 364
#     4  10  22  41  62  89 122 164 208 253 308 369
#     4  10  23  43  62  88 124 167 208 250 310 367
#     4  10  22  41  62  86 125 163 205 257 301 364
#     4  11  23  40  66  91 124 170 206 251 314 372
#     4  11  21  39  64  90 124 161 204 255 312 361
#     4  11  23  40  63  94 130 157 203 262 312 365
#
# _framework density 21.587862000000001
#
# number of rings (size 3 to 8) (size 9 to 14) (size 15 to 20)
#    0.000    1.500    1.250    4.875    0.000    8.000 
#    2.250    0.000    0.000    0.000    0.000    0.000 
#    0.000    0.000    0.000    0.000    0.000    0.000 
#
# Total GULP energy -198343.593327 kJ/mol
# GULP energy per Si atom -12396.474583 kJ/mol
# Density = 2.153873 g / cm^3
# Si number density = 21.587862 Si / 1000 Ang^3
#
#
#
# Elastic Constant Matrix: (Units=GPa)
#
#
# Indices 1 2 3 4 5 6 
#
# 1 96.4168 35.1217 27.0273 2.8569 25.4818 22.4337
# 2 35.1217 91.4680 39.0855 -0.8078 10.4606 19.6177
# 3 27.0273 39.0855 110.9983 2.7181 24.7288 8.4847
# 4 2.8569 -0.8078 2.7181 22.5045 4.4303 12.6998
# 5 25.4818 10.4606 24.7288 4.4303 33.3473 10.2086
# 6 22.4337 19.6177 8.4847 12.6998 10.2086 42.0868
#
#
#
# Elastic Compliance Matrix: (Units=1/GPa)
#
#
# Indices 1 2 3 4 5 6 
#
# 1 0.015256 -0.003710 -0.000021 0.002534 -0.009314 -0.004904
# 2 -0.003710 0.015496 -0.004822 0.004638 0.002885 -0.006372
# 3 -0.000021 -0.004822 0.012396 -0.001258 -0.008144 0.002115
# 4 0.002534 0.004638 -0.001258 0.056059 -0.004029 -0.019197
# 5 -0.009314 0.002885 -0.008144 -0.004029 0.044063 -0.004210
# 6 -0.004904 -0.006372 0.002115 -0.019197 -0.004210 0.035733
#
#
# Mechanical properties :
#
#
# Convention : Reuss Voigt Hill
#
# Bulk Modulus (GPa) = 38.39898 55.70580 47.05239
# Shear Modulus (GPa) = 24.41535 32.76429 28.58982
#
# Velocity S-wave (km/s) = 3.36665 3.90002 3.64311
# Velocity P-wave (km/s) = 5.73919 6.79267 6.28803
#
# Compressibility (1/GPa) = 0.02604236
#
# Stress axis : x y z
#
# Youngs Moduli (GPa) = 65.54603 64.53384 80.67309
#
# Poissons Ratio (x) = 0.23942 0.00166
# Poissons Ratio (y) = 0.24317 0.38903
# Poissons Ratio (z) = 0.00135 0.31120
#
# Static dielectric constant tensor:
#      x y z
#    x 3.994840 0.117450 0.322860 
#    y 0.117450 3.867730 0.116470 
#    z 0.322860 0.116470 4.166470 
# 
# 
# High freq. dielectric constant tensor:
#      x y z
#    x 1.856840 0.010180 0.021160 
#    y 0.010180 1.847780 0.003690 
#    z 0.021160 0.003690 1.842880 
# 
# From -- ./inp_files/591798.got.cif
#   From: 2010.06.25/outbox.cif.g09.slc.cpg/sg2_296_cif.got.tgz:591798.got - 2010.06.27 13:26:56.
