data_PCOD8018138
_publ_section_title
;
Structure prediction by ZEFSAII (Michael W. Deem and Ramdas Pophale) SiO2 
 PCOD8018138
Probable space group: P -1
;
_chemical_formula_sum "Si O2"
_cell_formula_units_Z 14
_cell_length_a 20.842156
_cell_length_b 6.409543
_cell_length_c 9.454430
_cell_angle_alpha 76.735974
_cell_angle_beta 35.564751
_cell_angle_gamma 93.554926
_cell_volume 642.338169
_symmetry_space_group_name_H-M "P -1"
_symmetry_group_IT_number 2
_symmetry_cell_setting 'triclinic'
loop_
_space_group_symop_operation_xyz
x,y,z
-x,-y,-z
loop_
_atom_site_type_symbol
_atom_site_label
_atom_site_fract_x
_atom_site_fract_y
_atom_site_fract_z
Si Si1 0.297986 0.918689 0.044360
Si Si2 0.538249 0.126177 0.762063
Si Si3 0.736510 0.607813 0.403819
Si Si4 0.850332 0.596093 0.471160
Si Si5 0.929309 0.482951 0.946233
Si Si6 0.921134 0.993649 0.509984
Si Si7 0.727770 0.063180 0.233123
O O1 0.231662 0.650857 0.264195
O O2 0.215395 0.058254 0.190951
O O3 0.422496 0.070065 0.880141
O O4 0.327265 0.929901 0.822949
O O5 0.601028 0.409975 0.637004
O O6 0.628397 0.038229 0.534522
O O7 0.500000 0.000000 0.000000
O O8 0.761138 0.662903 0.519251
O O9 0.762650 0.842355 0.229336
O O10 0.827296 0.482156 0.236828
O O11 0.967831 0.599256 0.170797
O O12 0.912776 0.796058 0.445107
O O13 0.009827 0.748773 0.716635
O O14 0.853030 0.306693 0.982866
O O15 0.000000 0.000000 0.500000
#
# Coordination Sequence:
#
# PCOD8018138 Si02
#       7
#     2   2   2   2   2   2   2
#     4  11  24  44  66  97 132 174 213 266 324 381
#     4  11  25  46  68  93 132 168 221 273 318 381
#     4  11  24  41  66  97 128 172 218 270 320 385
#     4  11  23  39  67  95 132 176 214 260 328 382
#     4  10  22  40  62  95 137 167 213 266 322 382
#     4  11  23  39  66  97 133 170 216 262 320 390
#     4  11  25  42  69  94 132 168 217 268 326 379
#
# _framework density 21.795373999999999
#
# number of rings (size 3 to 8) (size 9 to 14) (size 15 to 20)
#    0.000    1.143    1.429    4.286    2.000    9.143 
#    0.000    0.000    0.000    0.000    0.000    0.000 
#    0.000    0.000    0.000    0.000    0.000    0.000 
#
# Total GULP energy -173514.960387 kJ/mol
# GULP energy per Si atom -12393.925742 kJ/mol
# Density = 2.174577 g / cm^3
# Si number density = 21.795374 Si / 1000 Ang^3
#
#
#
# Elastic Constant Matrix: (Units=GPa)
#
#
# Indices 1 2 3 4 5 6 
#
# 1 163.4756 29.1950 26.0152 -10.7007 -19.8251 17.4163
# 2 29.1950 77.7659 14.9323 -10.1879 -24.9876 10.6540
# 3 26.0152 14.9323 79.5285 3.3756 -15.9820 6.5085
# 4 -10.7007 -10.1879 3.3756 21.4445 5.0170 -9.3839
# 5 -19.8251 -24.9876 -15.9820 5.0170 39.5091 -5.8536
# 6 17.4163 10.6540 6.5085 -9.3839 -5.8536 29.3239
#
#
#
# Elastic Compliance Matrix: (Units=1/GPa)
#
#
# Indices 1 2 3 4 5 6 
#
# 1 0.007187 -0.001316 -0.001668 0.001753 0.001497 -0.002560
# 2 -0.001316 0.017337 -0.001064 0.004792 0.008976 -0.001956
# 3 -0.001668 -0.001064 0.014778 -0.006049 0.004810 -0.002878
# 4 0.001753 0.004792 -0.006049 0.058867 -0.003539 0.016692
# 5 0.001497 0.008976 0.004810 -0.003539 0.034204 0.000478
# 6 -0.002560 -0.001956 -0.002878 0.016692 0.000478 0.042409
#
#
# Mechanical properties :
#
#
# Convention : Reuss Voigt Hill
#
# Bulk Modulus (GPa) = 32.04532 51.22835 41.63683
# Shear Modulus (GPa) = 25.86897 34.76402 30.31649
#
# Velocity S-wave (km/s) = 3.44888 3.99810 3.73360
# Velocity P-wave (km/s) = 5.53122 6.69838 6.14259
#
# Compressibility (1/GPa) = 0.03120581
#
# Stress axis : x y z
#
# Youngs Moduli (GPa) = 139.14682 57.67865 67.66649
#
# Poissons Ratio (x) = 0.07593 0.11285
# Poissons Ratio (y) = 0.18317 0.07201
# Poissons Ratio (z) = 0.23206 0.06138
#
# Static dielectric constant tensor:
#      x y z
#    x 4.059970 0.091440 -0.349760 
#    y 0.091440 4.266830 0.254300 
#    z -0.349760 0.254300 4.157910 
# 
# 
# High freq. dielectric constant tensor:
#      x y z
#    x 1.871740 0.011960 -0.010530 
#    y 0.011960 1.861120 -0.002600 
#    z -0.010530 -0.002600 1.855930 
# 
# From -- ./inp_files/27251.got.cif
#   From: 2010.06.25/outbox.cif.g09.slc.cpg/sg2_14_cif.got.tgz:27251.got - 2010.06.27 13:26:56.
