data_PCOD8018278
_publ_section_title
;
Structure prediction by ZEFSAII (Michael W. Deem and Ramdas Pophale) SiO2 
 PCOD8018278
Probable space group: P -1
;
_chemical_formula_sum "Si O2"
_cell_formula_units_Z 14
_cell_length_a 6.354886
_cell_length_b 18.212992
_cell_length_c 18.087006
_cell_angle_alpha 19.077025
_cell_angle_beta 115.340071
_cell_angle_gamma 114.853377
_cell_volume 617.491225
_symmetry_space_group_name_H-M "P -1"
_symmetry_group_IT_number 2
_symmetry_cell_setting 'triclinic'
loop_
_space_group_symop_operation_xyz
x,y,z
-x,-y,-z
loop_
_atom_site_type_symbol
_atom_site_label
_atom_site_fract_x
_atom_site_fract_y
_atom_site_fract_z
Si Si1 0.163274 0.742596 0.369070
Si Si2 0.576557 0.929868 0.461654
Si Si3 0.258897 0.613322 0.351563
Si Si4 0.832142 0.210027 0.112985
Si Si5 0.011560 0.834473 0.978289
Si Si6 0.678884 0.713862 0.831589
Si Si7 0.402818 0.517251 0.742290
O O1 0.237339 0.781980 0.257647
O O2 0.369059 0.613870 0.562812
O O3 0.926534 0.593620 0.476960
O O4 0.129277 0.975193 0.184134
O O5 0.708816 0.855426 0.625862
O O6 0.413624 0.720644 0.608468
O O7 0.758635 0.011276 0.348141
O O8 0.413599 0.133387 0.261747
O O9 0.500000 0.500000 0.500000
O O10 0.222950 0.760048 0.133096
O O11 0.877568 0.089208 0.156163
O O12 0.061672 0.350095 0.045526
O O13 0.638175 0.388191 0.903203
O O14 0.824634 0.631601 0.126725
O O15 0.500000 0.500000 0.000000
#
# Coordination Sequence:
#
# PCOD8018278 Si02
#       7
#     2   2   2   2   2   2   2
#     4  10  22  41  63  93 130 168 214 265 316 374
#     4  11  25  43  66  94 129 167 210 264 322 383
#     4  10  22  40  64  95 129 169 215 263 317 376
#     4  12  24  40  65  96 126 166 215 262 319 384
#     4  11  24  42  66  94 131 171 212 266 320 378
#     4  11  25  46  67  93 129 168 212 264 321 381
#     4  11  24  42  64  93 128 168 213 265 318 378
#
# _framework density 22.672388999999999
#
# number of rings (size 3 to 8) (size 9 to 14) (size 15 to 20)
#    0.000    1.143    0.000    6.000    0.000   10.857 
#    0.000    0.000    0.000    0.000    0.000    0.000 
#    0.000    0.000    0.000    0.000    0.000    0.000 
#
# Total GULP energy -173639.334296 kJ/mol
# GULP energy per Si atom -12402.809593 kJ/mol
# Density = 2.262079 g / cm^3
# Si number density = 22.672389 Si / 1000 Ang^3
#
#
#
# Elastic Constant Matrix: (Units=GPa)
#
#
# Indices 1 2 3 4 5 6 
#
# 1 112.8510 75.2563 58.3065 20.6392 13.7227 -7.4502
# 2 75.2563 139.1698 55.5661 4.1624 1.3317 -14.6641
# 3 58.3065 55.5661 103.3219 6.2535 8.8693 -6.4169
# 4 20.6392 4.1624 6.2535 56.0065 -1.7148 9.2544
# 5 13.7227 1.3317 8.8693 -1.7148 35.7335 17.2045
# 6 -7.4502 -14.6641 -6.4169 9.2544 17.2045 44.1051
#
#
#
# Elastic Compliance Matrix: (Units=1/GPa)
#
#
# Indices 1 2 3 4 5 6 
#
# 1 0.019228 -0.007453 -0.005411 -0.006961 -0.008363 0.004706
# 2 -0.007453 0.012312 -0.002715 0.002062 0.002721 0.000945
# 3 -0.005411 -0.002715 0.014379 0.000387 -0.001804 0.000898
# 4 -0.006961 0.002062 0.000387 0.021746 0.007326 -0.007855
# 5 -0.008363 0.002721 -0.001804 0.007326 0.040638 -0.018159
# 6 0.004706 0.000945 0.000898 -0.007855 -0.018159 0.032645
#
#
# Mechanical properties :
#
#
# Convention : Reuss Voigt Hill
#
# Bulk Modulus (GPa) = 67.74657 81.51115 74.62886
# Shear Modulus (GPa) = 28.24461 38.24995 33.24728
#
# Velocity S-wave (km/s) = 3.53338 4.11185 3.83354
# Velocity P-wave (km/s) = 6.82582 7.65329 7.25137
#
# Compressibility (1/GPa) = 0.01476090
#
# Stress axis : x y z
#
# Youngs Moduli (GPa) = 52.00814 81.22446 69.54477
#
# Poissons Ratio (x) = 0.60536 0.37630
# Poissons Ratio (y) = 0.38762 0.18881
# Poissons Ratio (z) = 0.28141 0.22052
#
# Static dielectric constant tensor:
#      x y z
#    x 3.955330 -0.025310 -0.026910 
#    y -0.025310 4.552570 0.257880 
#    z -0.026910 0.257880 4.080430 
# 
# 
# High freq. dielectric constant tensor:
#      x y z
#    x 1.886430 0.000970 0.003520 
#    y 0.000970 1.921820 0.015000 
#    z 0.003520 0.015000 1.892260 
# 
# From -- ./inp_files/7500.got.cif
#   From: 2010.06.25/outbox.cif.g09.slc.cpg/sg2_4_cif.got.tgz:7500.got - 2010.06.27 13:26:56.
