data_PCOD8018649
_publ_section_title
;
Structure prediction by ZEFSAII (Michael W. Deem and Ramdas Pophale) SiO2 
 PCOD8018649
Probable space group: P -1
;
_chemical_formula_sum "Si O2"
_cell_formula_units_Z 16
_cell_length_a 8.353684
_cell_length_b 19.478339
_cell_length_c 11.183051
_cell_angle_alpha 127.863591
_cell_angle_beta 48.784360
_cell_angle_gamma 150.671775
_cell_volume 666.627917
_symmetry_space_group_name_H-M "P -1"
_symmetry_group_IT_number 2
_symmetry_cell_setting 'triclinic'
loop_
_space_group_symop_operation_xyz
x,y,z
-x,-y,-z
loop_
_atom_site_type_symbol
_atom_site_label
_atom_site_fract_x
_atom_site_fract_y
_atom_site_fract_z
Si Si1 0.686307 0.202530 0.173874
Si Si2 0.601913 0.938649 0.185173
Si Si3 0.498369 0.604298 0.629707
Si Si4 0.785381 0.752960 0.135321
Si Si5 0.322448 0.228316 0.051300
Si Si6 0.090958 0.496802 0.321605
Si Si7 0.950995 0.896663 0.636264
Si Si8 0.791468 0.028721 0.661530
O O1 0.365871 0.145953 0.202846
O O2 0.991782 0.365129 0.227556
O O3 0.566344 0.126907 0.281689
O O4 0.859420 0.188543 0.986158
O O5 0.278235 0.896957 0.277691
O O6 0.480338 0.801182 0.066145
O O7 0.919954 0.074859 0.094809
O O8 0.715420 0.983007 0.316711
O O9 0.500000 0.500000 0.500000
O O10 0.553994 0.657278 0.795102
O O11 0.799961 0.748485 0.556037
O O12 0.117814 0.511902 0.679500
O O13 0.495126 0.623217 0.228087
O O14 0.936238 0.885781 0.270808
O O15 0.613898 0.714439 0.051017
O O16 0.000000 0.500000 0.500000
O O17 0.029568 0.958279 0.528837
#
# Coordination Sequence:
#
# PCOD8018649 Si02
#       8
#     2   2   2   2   2   2   2   2
#     4  11  24  44  67 100 141 178 233 282 345 412
#     4  10  22  40  68  99 144 174 226 290 350 405
#     4  10  24  46  71  96 139 185 233 285 345 417
#     4  12  25  43  69 104 135 186 230 282 348 413
#     4  10  23  42  66 102 136 179 228 288 349 403
#     4  11  27  47  70  98 141 180 230 287 348 415
#     4  10  23  43  68 105 139 183 228 292 347 405
#     4  12  24  41  72 106 137 182 234 286 348 414
#
# _framework density 24.001397000000001
#
# number of rings (size 3 to 8) (size 9 to 14) (size 15 to 20)
#    0.000    1.250    1.250    3.750    8.750    2.500 
#    2.250    0.000    0.000    0.000    0.000    0.000 
#    0.000    0.000    0.000    0.000    0.000    0.000 
#
# Total GULP energy -198293.631818 kJ/mol
# GULP energy per Si atom -12393.351989 kJ/mol
# Density = 2.394677 g / cm^3
# Si number density = 24.001397 Si / 1000 Ang^3
#
#
#
# Elastic Constant Matrix: (Units=GPa)
#
#
# Indices 1 2 3 4 5 6 
#
# 1 78.6028 30.1373 47.2381 4.9863 2.3283 -2.1702
# 2 30.1373 112.6481 68.4990 -6.6760 -2.2155 -13.3112
# 3 47.2381 68.4990 148.9726 1.1466 7.4118 -6.8895
# 4 4.9863 -6.6760 1.1466 50.4292 -8.2002 -0.8161
# 5 2.3283 -2.2155 7.4118 -8.2002 44.0923 -3.3836
# 6 -2.1702 -13.3112 -6.8895 -0.8161 -3.3836 32.0461
#
#
#
# Elastic Compliance Matrix: (Units=1/GPa)
#
#
# Indices 1 2 3 4 5 6 
#
# 1 0.016115 -0.001977 -0.004189 -0.001878 -0.000653 -0.000747
# 2 -0.001977 0.013514 -0.005520 0.002599 0.002550 0.004628
# 3 -0.004189 -0.005520 0.010664 -0.000902 -0.002057 -0.000524
# 4 -0.001878 0.002599 -0.000902 0.021132 0.004447 0.001766
# 5 -0.000653 0.002550 -0.002057 0.004447 0.024264 0.003248
# 6 -0.000747 0.004628 -0.000524 0.001766 0.003248 0.033352
#
#
# Mechanical properties :
#
#
# Convention : Reuss Voigt Hill
#
# Bulk Modulus (GPa) = 59.09319 70.21914 64.65616
# Shear Modulus (GPa) = 33.77193 38.27016 36.02104
#
# Velocity S-wave (km/s) = 3.75518 3.99745 3.87821
# Velocity P-wave (km/s) = 6.59363 7.11519 6.85937
#
# Compressibility (1/GPa) = 0.01692242
#
# Stress axis : x y z
#
# Youngs Moduli (GPa) = 62.05302 73.99982 93.77437
#
# Poissons Ratio (x) = 0.14628 0.39279
# Poissons Ratio (y) = 0.12266 0.51760
# Poissons Ratio (z) = 0.25992 0.40846
#
# Static dielectric constant tensor:
#      x y z
#    x 4.317040 -0.188420 -0.129360 
#    y -0.188420 4.165450 0.048650 
#    z -0.129360 0.048650 4.279730 
# 
# 
# High freq. dielectric constant tensor:
#      x y z
#    x 1.959570 -0.010900 -0.001910 
#    y -0.010900 1.935060 0.004850 
#    z -0.001910 0.004850 1.966650 
# 
# From -- ./inp_files/405511.got.cif
#   From: 2010.06.25/outbox.cif.g09.slc.cpg/sg2_203_cif.got.tgz:405511.got - 2010.06.27 13:26:56.
