data_PCOD8018254
_publ_section_title
;
Structure prediction by ZEFSAII (Michael W. Deem and Ramdas Pophale) SiO2 
 PCOD8018254
Probable space group: P -1
;
_chemical_formula_sum "Si O2"
_cell_formula_units_Z 14
_cell_length_a 11.993989
_cell_length_b 12.085845
_cell_length_c 12.666056
_cell_angle_alpha 141.702606
_cell_angle_beta 143.760325
_cell_angle_gamma 38.957317
_cell_volume 618.037741
_symmetry_space_group_name_H-M "P -1"
_symmetry_group_IT_number 2
_symmetry_cell_setting 'triclinic'
loop_
_space_group_symop_operation_xyz
x,y,z
-x,-y,-z
loop_
_atom_site_type_symbol
_atom_site_label
_atom_site_fract_x
_atom_site_fract_y
_atom_site_fract_z
Si Si1 0.828040 0.566267 0.631115
Si Si2 0.407336 0.916123 0.626572
Si Si3 0.874830 0.336688 0.290741
Si Si4 0.655501 0.316883 0.422455
Si Si5 0.538165 0.244874 0.058403
Si Si6 0.715951 0.001237 0.631880
Si Si7 0.774085 0.386304 0.021407
O O1 0.603595 0.734315 0.597116
O O2 0.874650 0.504964 0.497101
O O3 0.838643 0.373725 0.559831
O O4 0.998916 0.635940 0.859730
O O5 0.274244 0.856124 0.566760
O O6 0.261055 0.009362 0.485545
O O7 0.477854 0.071350 0.849581
O O8 0.765022 0.205748 0.160534
O O9 0.751682 0.441763 0.169997
O O10 0.104648 0.188222 0.324645
O O11 0.500000 0.500000 0.500000
O O12 0.535492 0.260495 0.194546
O O13 0.388877 0.449502 0.049890
O O14 0.500000 0.000000 0.500000
O O15 0.741750 0.189226 0.836492
#
# Coordination Sequence:
#
# PCOD8018254 Si02
#       7
#     2   2   2   2   2   2   2
#     4  10  22  40  64  92 125 166 210 258 308 364
#     4  11  22  42  64  91 128 167 207 257 308 367
#     4  11  23  41  62  92 127 163 207 259 312 370
#     4   9  20  41  64  91 126 163 207 259 308 362
#     4  11  23  40  65  95 124 167 209 251 310 371
#     4  12  25  42  65  95 125 162 207 258 315 375
#     4  12  23  40  62  92 127 164 206 258 312 371
#
# _framework density 22.652338
#
# number of rings (size 3 to 8) (size 9 to 14) (size 15 to 20)
#    0.000    1.143    0.000    7.714    0.000    2.286 
#    0.000   14.286    0.000    0.000    0.000    0.000 
#    0.000    0.000    0.000    0.000    0.000    0.000 
#
# Total GULP energy -173616.475259 kJ/mol
# GULP energy per Si atom -12401.176804 kJ/mol
# Density = 2.260078 g / cm^3
# Si number density = 22.652338 Si / 1000 Ang^3
#
#
#
# Elastic Constant Matrix: (Units=GPa)
#
#
# Indices 1 2 3 4 5 6 
#
# 1 81.2967 25.8732 44.9824 -4.6408 -9.1417 13.8789
# 2 25.8732 71.1751 19.9328 4.2425 -1.9572 11.2996
# 3 44.9824 19.9328 142.5697 16.2900 6.0313 12.3924
# 4 -4.6408 4.2425 16.2900 38.7230 8.1442 -1.7521
# 5 -9.1417 -1.9572 6.0313 8.1442 47.4836 -3.8787
# 6 13.8789 11.2996 12.3924 -1.7521 -3.8787 38.9472
#
#
#
# Elastic Compliance Matrix: (Units=1/GPa)
#
#
# Indices 1 2 3 4 5 6 
#
# 1 0.017779 -0.004696 -0.005306 0.004127 0.002966 -0.002804
# 2 -0.004696 0.016472 -0.000275 -0.002386 -0.000037 -0.003129
# 3 -0.005306 -0.000275 0.009404 -0.004287 -0.001604 -0.001374
# 4 0.004127 -0.002386 -0.004287 0.029220 -0.003645 0.001537
# 5 0.002966 -0.000037 -0.001604 -0.003645 0.022585 0.001549
# 6 -0.002804 -0.003129 -0.001374 0.001537 0.001549 0.028243
#
#
# Mechanical properties :
#
#
# Convention : Reuss Voigt Hill
#
# Bulk Modulus (GPa) = 43.29073 52.95761 48.12417
# Shear Modulus (GPa) = 32.90378 38.64763 35.77570
#
# Velocity S-wave (km/s) = 3.81538 4.13500 3.97840
# Velocity P-wave (km/s) = 6.20982 6.79903 6.51110
#
# Compressibility (1/GPa) = 0.02309964
#
# Stress axis : x y z
#
# Youngs Moduli (GPa) = 56.24609 60.70913 106.33942
#
# Poissons Ratio (x) = 0.28510 0.56426
# Poissons Ratio (y) = 0.26414 0.02926
# Poissons Ratio (z) = 0.29845 0.01670
#
# Static dielectric constant tensor:
#      x y z
#    x 4.744640 0.504600 0.122270 
#    y 0.504600 4.379110 -0.009850 
#    z 0.122270 -0.009850 4.277020 
# 
# 
# High freq. dielectric constant tensor:
#      x y z
#    x 1.904830 0.017670 0.005330 
#    y 0.017670 1.882560 0.010930 
#    z 0.005330 0.010930 1.908590 
# 
# From -- ./inp_files/177186.got.cif
#   From: 2010.06.25/outbox.cif.g09.slc.cpg/sg2_89_cif.got.tgz:177186.got - 2010.06.27 13:26:56.
