data_PCOD8018765
_publ_section_title
;
Structure prediction by ZEFSAII (Michael W. Deem and Ramdas Pophale) SiO2 
 PCOD8018765
Probable space group: P -1
;
_chemical_formula_sum "Si O2"
_cell_formula_units_Z 14
_cell_length_a 15.610159
_cell_length_b 10.161876
_cell_length_c 15.409679
_cell_angle_alpha 35.900179
_cell_angle_beta 151.695906
_cell_angle_gamma 144.355849
_cell_volume 634.649330
_symmetry_space_group_name_H-M "P -1"
_symmetry_group_IT_number 2
_symmetry_cell_setting 'triclinic'
loop_
_space_group_symop_operation_xyz
x,y,z
-x,-y,-z
loop_
_atom_site_type_symbol
_atom_site_label
_atom_site_fract_x
_atom_site_fract_y
_atom_site_fract_z
Si Si1 0.336644 0.500603 0.508790
Si Si2 0.238920 0.216515 0.272853
Si Si3 0.208889 0.717208 0.430983
Si Si4 0.868594 0.724065 0.030753
Si Si5 0.463343 0.496855 0.868606
Si Si6 0.340449 0.084812 0.854936
Si Si7 0.965890 0.692798 0.805153
O O1 0.553597 0.592850 0.616329
O O2 0.323931 0.712968 0.446906
O O3 0.281899 0.253675 0.645716
O O4 0.194492 0.455803 0.326003
O O5 0.110586 0.146364 0.283196
O O6 0.256687 0.981000 0.370830
O O7 0.152793 0.351877 0.050106
O O8 0.273468 0.564028 0.642803
O O9 0.980495 0.595279 0.262190
O O10 0.655000 0.686307 0.894966
O O11 0.000000 0.000000 0.000000
O O12 0.429926 0.232085 0.943458
O O13 0.500000 0.500000 0.000000
O O14 0.153644 0.857841 0.833647
O O15 0.500000 0.000000 0.000000
O O16 0.000000 0.500000 0.000000
#
# Coordination Sequence:
#
# PCOD8018765 Si02
#       7
#     2   2   2   2   2   2   2
#     4  11  23  45  70  96 136 184 228 278 352 406
#     4  11  22  43  70 105 132 175 229 287 340 407
#     4  10  23  41  71  98 139 174 221 278 350 396
#     4  10  22  40  70  97 140 174 220 272 351 402
#     4  11  26  45  68 103 136 176 233 282 337 407
#     4  11  26  48  67  94 142 184 225 285 350 403
#     4  12  27  43  69 101 136 179 241 280 335 417
#
# _framework density 22.059425000000001
#
# number of rings (size 3 to 8) (size 9 to 14) (size 15 to 20)
#    0.000    1.143    2.857    3.000    8.000    2.857 
#    2.571    0.000    0.000    0.000    0.000    0.000 
#    0.000    0.000    0.000    0.000    0.000    0.000 
#
# Total GULP energy -173515.048306 kJ/mol
# GULP energy per Si atom -12393.932022 kJ/mol
# Density = 2.200922 g / cm^3
# Si number density = 22.059425 Si / 1000 Ang^3
#
#
#
# Elastic Constant Matrix: (Units=GPa)
#
#
# Indices 1 2 3 4 5 6 
#
# 1 123.1638 47.3041 56.0302 10.8776 -3.3384 -11.2488
# 2 47.3041 112.7732 55.2965 17.7332 3.4240 -4.4837
# 3 56.0302 55.2965 156.4278 23.1497 -8.9075 -15.9906
# 4 10.8776 17.7332 23.1497 39.4696 -6.3267 1.1485
# 5 -3.3384 3.4240 -8.9075 -6.3267 36.1154 13.0729
# 6 -11.2488 -4.4837 -15.9906 1.1485 13.0729 42.9689
#
#
#
# Elastic Compliance Matrix: (Units=1/GPa)
#
#
# Indices 1 2 3 4 5 6 
#
# 1 0.010622 -0.003154 -0.002524 -0.000055 0.000113 0.001479
# 2 -0.003154 0.012208 -0.002802 -0.003445 -0.002879 0.000373
# 3 -0.002524 -0.002802 0.009051 -0.003278 0.000882 0.002235
# 4 -0.000055 -0.003445 -0.003278 0.029961 0.006325 -0.004319
# 5 0.000113 -0.002879 0.000882 0.006325 0.032969 -0.010142
# 6 0.001479 0.000373 0.002235 -0.004319 -0.010142 0.027732
#
#
# Mechanical properties :
#
#
# Convention : Reuss Voigt Hill
#
# Bulk Modulus (GPa) = 67.01700 78.84738 72.93219
# Shear Modulus (GPa) = 34.60806 39.29305 36.95055
#
# Velocity S-wave (km/s) = 3.96518 4.22505 4.09717
# Velocity P-wave (km/s) = 7.17005 7.72154 7.45090
#
# Compressibility (1/GPa) = 0.01492159
#
# Stress axis : x y z
#
# Youngs Moduli (GPa) = 94.14595 81.91350 110.48671
#
# Poissons Ratio (x) = 0.25835 0.27886
# Poissons Ratio (y) = 0.29693 0.30956
# Poissons Ratio (z) = 0.23761 0.22950
#
# Static dielectric constant tensor:
#      x y z
#    x 4.196640 -0.256950 0.050410 
#    y -0.256950 3.835930 0.430660 
#    z 0.050410 0.430660 4.537780 
# 
# 
# High freq. dielectric constant tensor:
#      x y z
#    x 1.867410 -0.014930 0.003300 
#    y -0.014930 1.863290 0.018890 
#    z 0.003300 0.018890 1.880770 
# 
# From -- ./inp_files/506002.got.cif
#   From: 2010.06.25/outbox.cif.g09.slc.cpg/sg2_254_cif.got.tgz:506002.got - 2010.06.27 13:26:56.
