data_PCOD8018357
_publ_section_title
;
Structure prediction by ZEFSAII (Michael W. Deem and Ramdas Pophale) SiO2 
 PCOD8018357
Probable space group: P -1
;
_chemical_formula_sum "Si O2"
_cell_formula_units_Z 16
_cell_length_a 12.008761
_cell_length_b 11.801073
_cell_length_c 6.409117
_cell_angle_alpha 115.449836
_cell_angle_beta 116.724726
_cell_angle_gamma 67.104793
_cell_volume 710.613935
_symmetry_space_group_name_H-M "P -1"
_symmetry_group_IT_number 2
_symmetry_cell_setting 'triclinic'
loop_
_space_group_symop_operation_xyz
x,y,z
-x,-y,-z
loop_
_atom_site_type_symbol
_atom_site_label
_atom_site_fract_x
_atom_site_fract_y
_atom_site_fract_z
Si Si1 0.746347 0.084764 0.011415
Si Si2 0.636467 0.908858 0.504954
Si Si3 0.033470 0.791259 0.690103
Si Si4 0.496635 0.296068 0.844557
Si Si5 0.913259 0.681471 0.890910
Si Si6 0.853465 0.426488 0.701730
Si Si7 0.187759 0.092114 0.711819
Si Si8 0.407131 0.528467 0.253433
O O1 0.610528 0.190174 0.971351
O O2 0.738017 0.952988 0.778098
O O3 0.867091 0.134790 0.059742
O O4 0.787822 0.044388 0.252989
O O5 0.613864 0.765134 0.402666
O O6 0.682318 0.916627 0.313575
O O7 0.500000 0.000000 0.500000
O O8 0.124890 0.672432 0.550345
O O9 0.949201 0.738324 0.747795
O O10 0.936629 0.885989 0.525493
O O11 0.563546 0.357674 0.769345
O O12 0.421098 0.399559 0.027387
O O13 0.838007 0.569059 0.700122
O O14 0.824761 0.792348 0.042982
O O15 0.037029 0.610955 0.065686
O O16 0.731705 0.418378 0.727033
O O17 0.500000 0.500000 0.500000
#
# Coordination Sequence:
#
# PCOD8018357 Si02
#       8
#     2   2   2   2   2   2   2   2
#     4  11  24  43  64  90 129 171 212 261 310 370
#     4  10  24  42  63  89 125 169 213 257 304 366
#     4  11  23  40  65  97 129 164 209 261 317 376
#     4  10  24  43  64  95 128 166 214 259 314 374
#     4  10  22  41  65  93 127 164 205 259 315 377
#     4  10  22  40  65  94 125 164 208 255 319 379
#     4  11  24  40  64  95 125 167 212 257 314 377
#     4  11  23  40  67  97 127 163 206 263 319 376
#
# _framework density 22.515740999999998
#
# number of rings (size 3 to 8) (size 9 to 14) (size 15 to 20)
#    0.000    1.500    0.000    3.750    0.000   14.000 
#    0.000    0.000    0.000    0.000    0.000    0.000 
#    0.000    0.000    0.000    0.000    0.000    0.000 
#
# Total GULP energy -198342.300365 kJ/mol
# GULP energy per Si atom -12396.393773 kJ/mol
# Density = 2.246449 g / cm^3
# Si number density = 22.515741 Si / 1000 Ang^3
#
#
#
# Elastic Constant Matrix: (Units=GPa)
#
#
# Indices 1 2 3 4 5 6 
#
# 1 131.7379 43.9810 53.4988 16.2891 -32.1133 8.0755
# 2 43.9810 99.9520 52.9226 -10.8030 0.7437 7.4895
# 3 53.4988 52.9226 108.5110 12.0769 -8.3183 15.0888
# 4 16.2891 -10.8030 12.0769 32.6167 8.1745 0.7703
# 5 -32.1133 0.7437 -8.3183 8.1745 36.2273 13.4640
# 6 8.0755 7.4895 15.0888 0.7703 13.4640 34.9779
#
#
#
# Elastic Compliance Matrix: (Units=1/GPa)
#
#
# Indices 1 2 3 4 5 6 
#
# 1 0.022704 -0.012986 0.002431 -0.024228 0.032119 -0.015340
# 2 -0.012986 0.023675 -0.011362 0.024387 -0.024460 0.011708
# 3 0.002431 -0.011362 0.017757 -0.014756 0.013800 -0.010776
# 4 -0.024228 0.024387 -0.014756 0.068212 -0.049831 0.024417
# 5 0.032119 -0.024460 0.013800 -0.049831 0.085892 -0.040096
# 6 -0.015340 0.011708 -0.010776 0.024417 -0.040096 0.049169
#
#
# Mechanical properties :
#
#
# Convention : Reuss Voigt Hill
#
# Bulk Modulus (GPa) = 49.25216 71.22286 60.23751
# Shear Modulus (GPa) = 15.72277 33.41762 24.57019
#
# Velocity S-wave (km/s) = 2.64541 3.85670 3.30698
# Velocity P-wave (km/s) = 5.59043 7.17867 6.43375
#
# Compressibility (1/GPa) = 0.02030368
#
# Stress axis : x y z
#
# Youngs Moduli (GPa) = 44.04432 42.23823 56.31583
#
# Poissons Ratio (x) = 0.54850 -0.13691
# Poissons Ratio (y) = 0.57195 0.63986
# Poissons Ratio (z) = -0.10708 0.47991
#
# Static dielectric constant tensor:
#      x y z
#    x 4.105240 0.173480 0.070770 
#    y 0.173480 4.081170 0.093300 
#    z 0.070770 0.093300 4.207200 
# 
# 
# High freq. dielectric constant tensor:
#      x y z
#    x 1.900370 -0.001340 -0.001480 
#    y -0.001340 1.899230 0.005620 
#    z -0.001480 0.005620 1.884740 
# 
# From -- ./inp_files/71976.got.cif
#   From: 2010.06.25/outbox.cif.g09.slc.cpg/sg2_36_cif.got.tgz:71976.got - 2010.06.27 13:26:56.
