data_PCOD8018910
_publ_section_title
;
Structure prediction by ZEFSAII (Michael W. Deem and Ramdas Pophale) SiO2 
 PCOD8018910
Probable space group: P -1
;
_chemical_formula_sum "Si O2"
_cell_formula_units_Z 16
_cell_length_a 7.879294
_cell_length_b 12.243189
_cell_length_c 12.063649
_cell_angle_alpha 57.934022
_cell_angle_beta 55.784195
_cell_angle_gamma 54.250206
_cell_volume 744.656236
_symmetry_space_group_name_H-M "P -1"
_symmetry_group_IT_number 2
_symmetry_cell_setting 'triclinic'
loop_
_space_group_symop_operation_xyz
x,y,z
-x,-y,-z
loop_
_atom_site_type_symbol
_atom_site_label
_atom_site_fract_x
_atom_site_fract_y
_atom_site_fract_z
Si Si1 0.135419 0.484429 0.746159
Si Si2 0.677641 0.542765 0.970974
Si Si3 0.556100 0.921531 0.362819
Si Si4 0.702886 0.021574 0.799024
Si Si5 0.754603 0.594687 0.496307
Si Si6 0.372496 0.232595 0.965198
Si Si7 0.688373 0.359490 0.260221
Si Si8 0.803932 0.039376 0.356016
O O1 0.256061 0.442162 0.607597
O O2 0.239007 0.353085 0.862085
O O3 0.174112 0.623214 0.693643
O O4 0.867556 0.529633 0.818019
O O5 0.500000 0.500000 0.000000
O O6 0.573885 0.699114 0.979650
O O7 0.774996 0.431699 0.093783
O O8 0.693155 0.760616 0.437033
O O9 0.325672 0.997627 0.476141
O O10 0.483508 0.934761 0.254052
O O11 0.723502 0.997226 0.290980
O O12 0.929753 0.041104 0.674798
O O13 0.603674 0.123958 0.884964
O O14 0.768115 0.858852 0.898137
O O15 0.576252 0.559737 0.654227
O O16 0.000000 0.500000 0.500000
O O17 0.741841 0.203731 0.287571
#
# Coordination Sequence:
#
# PCOD8018910 Si02
#       8
#     2   2   2   2   2   2   2   2
#     4  11  21  42  64  89 128 166 207 264 311 379
#     4  11  23  38  62  93 125 165 208 265 314 372
#     4  10  23  42  63  94 129 161 213 263 307 386
#     4  11  21  42  66  90 128 169 207 260 315 376
#     4  11  23  42  64  95 127 162 211 264 321 373
#     4  10  23  40  62  92 122 163 215 251 316 381
#     4  10  22  41  62  93 126 165 212 256 315 383
#     4  10  22  41  64  93 126 167 209 258 318 374
#
# _framework density 21.486424
#
# number of rings (size 3 to 8) (size 9 to 14) (size 15 to 20)
#    0.000    1.500    1.250    4.500    1.750    3.000 
#   13.500    1.250    0.000    0.000    0.000    0.000 
#    0.000    0.000    0.000    0.000    0.000    0.000 
#
# Total GULP energy -198326.995274 kJ/mol
# GULP energy per Si atom -12395.437205 kJ/mol
# Density = 2.143752 g / cm^3
# Si number density = 21.486424 Si / 1000 Ang^3
#
#
#
# Elastic Constant Matrix: (Units=GPa)
#
#
# Indices 1 2 3 4 5 6 
#
# 1 119.7619 42.1427 14.5334 7.4784 -16.8801 13.1131
# 2 42.1427 91.4579 12.7996 5.5212 -4.4692 22.6004
# 3 14.5334 12.7996 59.2197 8.2139 -8.4592 1.9063
# 4 7.4784 5.5212 8.2139 32.3704 -2.3423 1.9305
# 5 -16.8801 -4.4692 -8.4592 -2.3423 33.9375 -0.2594
# 6 13.1131 22.6004 1.9063 1.9305 -0.2594 36.3538
#
#
#
# Elastic Compliance Matrix: (Units=1/GPa)
#
#
# Indices 1 2 3 4 5 6 
#
# 1 0.010791 -0.004292 -0.000885 -0.001147 0.004494 -0.001085
# 2 -0.004292 0.015096 -0.001974 -0.000677 -0.000744 -0.007702
# 3 -0.000885 -0.001974 0.018576 -0.003956 0.003663 0.000808
# 4 -0.001147 -0.000677 -0.003956 0.032359 0.000583 -0.000672
# 5 0.004494 -0.000744 0.003663 0.000583 0.032548 -0.001149
# 6 -0.001085 -0.007702 0.000808 -0.000672 -0.001149 0.032672
#
#
# Mechanical properties :
#
#
# Convention : Reuss Voigt Hill
#
# Bulk Modulus (GPa) = 33.15426 45.48787 39.32107
# Shear Modulus (GPa) = 30.04861 33.92994 31.98927
#
# Velocity S-wave (km/s) = 3.74370 3.97814 3.86270
# Velocity P-wave (km/s) = 5.84388 6.50518 6.18337
#
# Compressibility (1/GPa) = 0.03016203
#
# Stress axis : x y z
#
# Youngs Moduli (GPa) = 92.66688 66.24412 53.83295
#
# Poissons Ratio (x) = 0.28430 0.04763
# Poissons Ratio (y) = 0.39770 0.10627
# Poissons Ratio (z) = 0.08199 0.13077
#
# Static dielectric constant tensor:
#      x y z
#    x 4.718190 0.684170 0.857810 
#    y 0.684170 4.171120 0.633000 
#    z 0.857810 0.633000 5.227210 
# 
# 
# High freq. dielectric constant tensor:
#      x y z
#    x 1.837180 0.018080 -0.009890 
#    y 0.018080 1.849750 0.012570 
#    z -0.009890 0.012570 1.844780 
# 
# From -- ./inp_files/392312.got.cif
#   From: 2010.06.25/outbox.cif.g09.slc.cpg/sg2_197_cif.got.tgz:392312.got - 2010.06.27 13:26:56.
