data_PCOD8018934
_publ_section_title
;
Structure prediction by ZEFSAII (Michael W. Deem and Ramdas Pophale) SiO2 
 PCOD8018934
Probable space group: P -1
;
_chemical_formula_sum "Si O2"
_cell_formula_units_Z 16
_cell_length_a 15.711379
_cell_length_b 8.339740
_cell_length_c 8.553085
_cell_angle_alpha 127.205472
_cell_angle_beta 98.754190
_cell_angle_gamma 110.989299
_cell_volume 723.675357
_symmetry_space_group_name_H-M "P -1"
_symmetry_group_IT_number 2
_symmetry_cell_setting 'triclinic'
loop_
_space_group_symop_operation_xyz
x,y,z
-x,-y,-z
loop_
_atom_site_type_symbol
_atom_site_label
_atom_site_fract_x
_atom_site_fract_y
_atom_site_fract_z
Si Si1 0.007611 0.817702 0.999393
Si Si2 0.868185 0.278713 0.549297
Si Si3 0.789533 0.062096 0.733214
Si Si4 0.093153 0.099109 0.706894
Si Si5 0.518587 0.166087 0.955080
Si Si6 0.326337 0.724309 0.507407
Si Si7 0.719656 0.392847 0.937340
Si Si8 0.409535 0.458142 0.562334
O O1 0.969897 0.555292 0.762312
O O2 0.129349 0.961819 0.160536
O O3 0.930710 0.767345 0.089674
O O4 0.000000 0.000000 0.000000
O O5 0.828087 0.111576 0.594909
O O6 0.776900 0.300096 0.468530
O O7 0.900577 0.126656 0.363194
O O8 0.789548 0.289698 0.928151
O O9 0.672431 0.823447 0.582720
O O10 0.210149 0.323498 0.817634
O O11 0.000000 0.000000 0.500000
O O12 0.619071 0.239896 0.927385
O O13 0.419610 0.013613 0.721187
O O14 0.535220 0.408293 0.178577
O O15 0.500000 0.000000 0.000000
O O16 0.313488 0.639907 0.274235
O O17 0.347811 0.559313 0.522968
O O18 0.500000 0.500000 0.500000
#
# Coordination Sequence:
#
# PCOD8018934 Si02
#       8
#     2   2   2   2   2   2   2   2
#     4  12  25  45  67 101 139 173 227 284 337 401
#     4  11  23  44  68 101 133 179 227 272 340 403
#     4  11  21  40  70  93 134 179 220 279 339 396
#     4  12  24  43  71  98 137 181 227 275 339 412
#     4  10  22  41  62  99 133 171 225 276 334 409
#     4  10  22  43  66  94 140 173 229 283 332 407
#     4  11  23  43  70  99 131 184 227 278 343 401
#     4  11  24  43  67 100 136 180 222 282 347 402
#
# _framework density 22.109362000000001
#
# number of rings (size 3 to 8) (size 9 to 14) (size 15 to 20)
#    0.000    1.000    3.750    4.500    0.000    2.500 
#    4.500    3.750    0.000    0.000    0.000    0.000 
#    0.000    0.000    0.000    0.000    0.000    0.000 
#
# Total GULP energy -198315.392411 kJ/mol
# GULP energy per Si atom -12394.712026 kJ/mol
# Density = 2.205904 g / cm^3
# Si number density = 22.109362 Si / 1000 Ang^3
#
#
#
# Elastic Constant Matrix: (Units=GPa)
#
#
# Indices 1 2 3 4 5 6 
#
# 1 79.7014 5.6422 39.0477 7.9403 3.2166 -11.8611
# 2 5.6422 78.5190 40.2330 21.0827 11.0440 -5.0364
# 3 39.0477 40.2330 134.8369 26.8450 9.2085 -1.9569
# 4 7.9403 21.0827 26.8450 38.2504 -2.5639 2.8653
# 5 3.2166 11.0440 9.2085 -2.5639 39.8655 7.3902
# 6 -11.8611 -5.0364 -1.9569 2.8653 7.3902 40.0889
#
#
#
# Elastic Compliance Matrix: (Units=1/GPa)
#
#
# Indices 1 2 3 4 5 6 
#
# 1 0.015706 0.002356 -0.004690 -0.001785 -0.001914 0.005194
# 2 0.002356 0.017864 -0.003919 -0.008286 -0.005577 0.004370
# 3 -0.004690 -0.003919 0.010920 -0.004552 -0.001203 -0.000800
# 4 -0.001785 -0.008286 -0.004552 0.035146 0.006781 -0.005553
# 5 -0.001914 -0.005577 -0.001203 0.006781 0.028818 -0.007123
# 6 0.005194 0.004370 -0.000800 -0.005553 -0.007123 0.028701
#
#
# Mechanical properties :
#
#
# Convention : Reuss Voigt Hill
#
# Bulk Modulus (GPa) = 31.26376 51.43368 41.34872
# Shear Modulus (GPa) = 31.18711 37.51659 34.35185
#
# Velocity S-wave (km/s) = 3.75985 4.12377 3.94601
# Velocity P-wave (km/s) = 5.74629 6.78143 6.28520
#
# Compressibility (1/GPa) = 0.03198592
#
# Stress axis : x y z
#
# Youngs Moduli (GPa) = 63.67066 55.97844 91.57109
#
# Poissons Ratio (x) = -0.13190 0.42945
# Poissons Ratio (y) = -0.15002 0.35883
# Poissons Ratio (z) = 0.29860 0.21936
#
# Static dielectric constant tensor:
#      x y z
#    x 4.153710 -0.100250 -0.034710 
#    y -0.100250 3.702890 0.215910 
#    z -0.034710 0.215910 4.416940 
# 
# 
# High freq. dielectric constant tensor:
#      x y z
#    x 1.878980 0.002640 0.001150 
#    y 0.002640 1.861070 0.020680 
#    z 0.001150 0.020680 1.881310 
# 
# From -- ./inp_files/297534.got.cif
#   From: 2010.06.25/outbox.cif.g09.slc.cpg/sg2_149_cif.got.tgz:297534.got - 2010.06.27 13:26:56.
