data_PCOD8018152
_publ_section_title
;
Structure prediction by ZEFSAII (Michael W. Deem and Ramdas Pophale) SiO2 
 PCOD8018152
Probable space group: P -1
;
_chemical_formula_sum "Si O2"
_cell_formula_units_Z 14
_cell_length_a 28.728867
_cell_length_b 15.981245
_cell_length_c 15.023651
_cell_angle_alpha 18.737887
_cell_angle_beta 160.794219
_cell_angle_gamma 160.347565
_cell_volume 651.274901
_symmetry_space_group_name_H-M "P -1"
_symmetry_group_IT_number 2
_symmetry_cell_setting 'triclinic'
loop_
_space_group_symop_operation_xyz
x,y,z
-x,-y,-z
loop_
_atom_site_type_symbol
_atom_site_label
_atom_site_fract_x
_atom_site_fract_y
_atom_site_fract_z
Si Si1 0.452925 0.211919 0.647362
Si Si2 0.757846 0.647148 0.427668
Si Si3 0.189581 0.416398 0.601298
Si Si4 0.424398 0.758567 0.349715
Si Si5 0.099462 0.836776 0.315895
Si Si6 0.240393 0.948528 0.271636
Si Si7 0.867787 0.236484 0.111712
O O1 0.500000 0.500000 0.500000
O O2 0.559008 0.331715 0.629486
O O3 0.268340 0.019351 0.484937
O O4 0.500000 0.000000 0.000000
O O5 0.699458 0.536019 0.333518
O O6 0.616876 0.506805 0.386770
O O7 0.829184 0.993379 0.210739
O O8 0.894448 0.540127 0.805352
O O9 0.200138 0.716806 0.354040
O O10 0.007850 0.236106 0.424272
O O11 0.237080 0.242356 0.935183
O O12 0.591685 0.010201 0.429511
O O13 0.286096 0.861553 0.002091
O O14 0.115150 0.832991 0.241632
O O15 0.000000 0.500000 0.500000
O O16 0.000000 0.000000 0.000000
#
# Coordination Sequence:
#
# PCOD8018152 Si02
#       7
#     2   2   2   2   2   2   2
#     4  11  25  43  69  97 126 165 219 273 317 386
#     4  10  22  40  66  88 130 168 210 254 314 370
#     4  12  23  40  65  96 127 166 217 253 306 377
#     4   9  26  42  64  89 134 163 206 258 329 363
#     4  11  24  47  67  93 134 172 208 268 335 381
#     4  11  26  41  63  96 130 163 208 265 313 375
#     4  10  22  40  63  88 126 169 212 253 310 363
#
# _framework density 21.496299
#
# number of rings (size 3 to 8) (size 9 to 14) (size 15 to 20)
#    0.857    0.571    0.000    4.286    4.000    6.857 
#    0.000    0.000    0.000    0.000    0.000    0.000 
#    0.000    0.000    0.000    0.000    0.000    0.000 
#
# Total GULP energy -173494.611142 kJ/mol
# GULP energy per Si atom -12392.472224 kJ/mol
# Density = 2.144737 g / cm^3
# Si number density = 21.496299 Si / 1000 Ang^3
#
#
#
# Elastic Constant Matrix: (Units=GPa)
#
#
# Indices 1 2 3 4 5 6 
#
# 1 150.8251 49.2313 46.0885 -10.8925 -9.8241 -14.0451
# 2 49.2313 95.0691 31.4699 -21.3819 6.2690 -18.1618
# 3 46.0885 31.4699 97.9398 -17.0137 1.6113 -1.4863
# 4 -10.8925 -21.3819 -17.0137 41.1322 -5.2013 2.8655
# 5 -9.8241 6.2690 1.6113 -5.2013 31.1451 -8.0989
# 6 -14.0451 -18.1618 -1.4863 2.8655 -8.0989 36.8771
#
#
#
# Elastic Compliance Matrix: (Units=1/GPa)
#
#
# Indices 1 2 3 4 5 6 
#
# 1 0.009337 -0.003608 -0.003338 -0.000404 0.004468 0.002657
# 2 -0.003608 0.015516 -0.002205 0.005596 -0.001823 0.005344
# 3 -0.003338 -0.002205 0.013061 0.003369 -0.001343 -0.002387
# 4 -0.000404 0.005596 0.003369 0.028888 0.003738 0.001314
# 5 0.004468 -0.001823 -0.001343 0.003738 0.036799 0.008541
# 6 0.002657 0.005344 -0.002387 0.001314 0.008541 0.032438
#
#
# Mechanical properties :
#
#
# Convention : Reuss Voigt Hill
#
# Bulk Modulus (GPa) = 50.98674 66.37927 58.68300
# Shear Modulus (GPa) = 31.07934 36.30049 33.68992
#
# Velocity S-wave (km/s) = 3.80649 4.11382 3.96314
# Velocity P-wave (km/s) = 6.56426 7.31513 6.94984
#
# Compressibility (1/GPa) = 0.01961294
#
# Stress axis : x y z
#
# Youngs Moduli (GPa) = 107.09852 64.44753 76.56631
#
# Poissons Ratio (x) = 0.23254 0.25557
# Poissons Ratio (y) = 0.38643 0.16880
# Poissons Ratio (z) = 0.35748 0.14209
#
# Static dielectric constant tensor:
#      x y z
#    x 4.187910 -0.018060 0.105130 
#    y -0.018060 3.702410 0.102070 
#    z 0.105130 0.102070 3.778860 
# 
# 
# High freq. dielectric constant tensor:
#      x y z
#    x 1.861740 -0.001380 0.010250 
#    y -0.001380 1.838970 -0.003610 
#    z 0.010250 -0.003610 1.847130 
# 
# From -- ./inp_files/545040.got.cif
#   From: 2010.06.25/outbox.cif.g09.slc.cpg/sg2_273_cif.got.tgz:545040.got - 2010.06.27 13:26:56.
