data_PCOD8018961
_publ_section_title
;
Structure prediction by ZEFSAII (Michael W. Deem and Ramdas Pophale) SiO2 
 PCOD8018961
Probable space group: P -1
;
_chemical_formula_sum "Si O2"
_cell_formula_units_Z 16
_cell_length_a 12.946928
_cell_length_b 21.565230
_cell_length_c 9.742291
_cell_angle_alpha 118.727564
_cell_angle_beta 144.645018
_cell_angle_gamma 36.184516
_cell_volume 793.752011
_symmetry_space_group_name_H-M "P -1"
_symmetry_group_IT_number 2
_symmetry_cell_setting 'triclinic'
loop_
_space_group_symop_operation_xyz
x,y,z
-x,-y,-z
loop_
_atom_site_type_symbol
_atom_site_label
_atom_site_fract_x
_atom_site_fract_y
_atom_site_fract_z
Si Si1 0.637067 0.995636 0.269666
Si Si2 0.420546 0.709932 0.286104
Si Si3 0.163006 0.300084 0.297169
Si Si4 0.734071 0.889888 0.740177
Si Si5 0.431191 0.449976 0.947230
Si Si6 0.358222 0.365772 0.251238
Si Si7 0.726274 0.763660 0.948557
Si Si8 0.824029 0.277978 0.446759
O O1 0.989166 0.855537 0.526972
O O2 0.408459 0.050540 0.203247
O O3 0.595092 0.092261 0.290757
O O4 0.500000 0.000000 0.000000
O O5 0.518601 0.758710 0.413691
O O6 0.581589 0.607000 0.240332
O O7 0.520241 0.653789 0.486805
O O8 0.052389 0.828386 0.003154
O O9 0.206643 0.212737 0.334395
O O10 0.073840 0.314089 0.056444
O O11 0.901238 0.435280 0.219794
O O12 0.500000 0.000000 0.500000
O O13 0.500000 0.500000 0.000000
O O14 0.689734 0.350029 0.235548
O O15 0.386550 0.273333 0.147032
O O16 0.550924 0.349107 0.333183
O O17 0.000000 0.500000 0.000000
O O18 0.942778 0.737871 0.259206
#
# Coordination Sequence:
#
# PCOD8018961 Si02
#       8
#     2   2   2   2   2   2   2   2
#     4   9  19  38  61  88 120 156 203 256 306 362
#     4  11  23  43  63  90 130 163 205 268 312 372
#     4  10  22  41  63  91 125 166 209 258 315 370
#     4  11  22  40  64  89 123 168 215 250 311 380
#     4  12  25  40  63  93 129 170 205 259 327 369
#     4  11  24  40  67  95 123 167 213 251 313 377
#     4   9  21  40  65  92 122 163 210 259 309 369
#     4  11  23  41  64  91 126 163 208 261 310 372
#
# _framework density 20.157429
#
# number of rings (size 3 to 8) (size 9 to 14) (size 15 to 20)
#    0.000    1.500    1.250    4.875    1.750    2.000 
#    0.000    5.000    0.000    0.000    0.000    0.000 
#    0.000    0.000    0.000    0.000    0.000    0.000 
#
# Total GULP energy -198358.452117 kJ/mol
# GULP energy per Si atom -12397.403257 kJ/mol
# Density = 2.011155 g / cm^3
# Si number density = 20.157429 Si / 1000 Ang^3
#
#
#
# Elastic Constant Matrix: (Units=GPa)
#
#
# Indices 1 2 3 4 5 6 
#
# 1 82.5693 42.5069 56.1329 -1.9057 -8.2256 8.1148
# 2 42.5069 112.4655 59.9793 -7.6943 -7.5655 -6.1430
# 3 56.1329 59.9793 124.0488 -12.8090 -0.9814 8.8915
# 4 -1.9057 -7.6943 -12.8090 40.3612 0.7843 1.6479
# 5 -8.2256 -7.5655 -0.9814 0.7843 30.9131 -2.8495
# 6 8.1148 -6.1430 8.8915 1.6479 -2.8495 40.4138
#
#
#
# Elastic Compliance Matrix: (Units=1/GPa)
#
#
# Indices 1 2 3 4 5 6 
#
# 1 0.019292 -0.003576 -0.006992 -0.001961 0.003853 -0.002527
# 2 -0.003576 0.013366 -0.005054 0.000562 0.002515 0.004016
# 3 -0.006992 -0.005054 0.014198 0.003386 -0.002994 -0.002837
# 4 -0.001961 0.000562 0.003386 0.025943 -0.001064 -0.001399
# 5 0.003853 0.002515 -0.002994 -0.001064 0.034172 0.002720
# 6 -0.002527 0.004016 -0.002837 -0.001399 0.002720 0.026735
#
#
# Mechanical properties :
#
#
# Convention : Reuss Voigt Hill
#
# Bulk Modulus (GPa) = 64.05182 70.70242 67.37712
# Shear Modulus (GPa) = 29.38513 33.03525 31.21019
#
# Velocity S-wave (km/s) = 3.82223 4.05268 3.93914
# Velocity P-wave (km/s) = 7.16408 7.55316 7.36119
#
# Compressibility (1/GPa) = 0.01561236
#
# Stress axis : x y z
#
# Youngs Moduli (GPa) = 51.83514 74.81870 70.43087
#
# Poissons Ratio (x) = 0.26753 0.49243
# Poissons Ratio (y) = 0.18535 0.35598
# Poissons Ratio (z) = 0.36242 0.37816
#
# Static dielectric constant tensor:
#      x y z
#    x 3.747750 -0.174530 -0.142640 
#    y -0.174530 6.061990 0.008020 
#    z -0.142640 0.008020 3.601300 
# 
# 
# High freq. dielectric constant tensor:
#      x y z
#    x 1.792390 -0.003100 -0.005310 
#    y -0.003100 1.802810 -0.003420 
#    z -0.005310 -0.003420 1.778540 
# 
# From -- ./inp_files/283147.got.cif
#   From: 2010.06.25/outbox.cif.g09.slc.cpg/sg2_142_cif.got.tgz:283147.got - 2010.06.27 13:26:56.
