data_PCOD8018995
_publ_section_title
;
Structure prediction by ZEFSAII (Michael W. Deem and Ramdas Pophale) SiO2 
 PCOD8018995
Probable space group: P -1
;
_chemical_formula_sum "Si O2"
_cell_formula_units_Z 14
_cell_length_a 11.734738
_cell_length_b 12.109151
_cell_length_c 11.664953
_cell_angle_alpha 41.407424
_cell_angle_beta 142.819870
_cell_angle_gamma 137.642943
_cell_volume 619.702255
_symmetry_space_group_name_H-M "P -1"
_symmetry_group_IT_number 2
_symmetry_cell_setting 'triclinic'
loop_
_space_group_symop_operation_xyz
x,y,z
-x,-y,-z
loop_
_atom_site_type_symbol
_atom_site_label
_atom_site_fract_x
_atom_site_fract_y
_atom_site_fract_z
Si Si1 0.951006 0.441800 0.637023
Si Si2 0.596380 0.760443 0.970084
Si Si3 0.633610 0.704297 0.444016
Si Si4 0.327040 0.845006 0.212529
Si Si5 0.882992 0.777838 0.373002
Si Si6 0.927413 0.829809 0.769343
Si Si7 0.319718 0.384255 0.073164
O O1 0.737514 0.288207 0.623778
O O2 0.968072 0.618945 0.584935
O O3 0.000000 0.500000 0.500000
O O4 0.108392 0.355631 0.868401
O O5 0.566414 0.702596 0.857133
O O6 0.575630 0.951878 0.821854
O O7 0.809165 0.770491 0.187391
O O8 0.431982 0.591936 0.033467
O O9 0.500000 0.500000 0.500000
O O10 0.504518 0.815650 0.305464
O O11 0.693900 0.762257 0.316213
O O12 0.851695 0.742676 0.652075
O O13 0.134788 0.812985 0.996681
O O14 0.058643 0.965963 0.386552
O O15 0.727385 0.731667 0.760176
#
# Coordination Sequence:
#
# PCOD8018995 Si02
#       7
#     2   2   2   2   2   2   2
#     4  11  22  39  65  96 127 166 210 263 322 376
#     4  10  22  41  64  94 129 168 211 259 321 377
#     4  12  24  45  66  91 134 166 217 265 309 381
#     4  10  25  43  65  98 124 174 212 258 324 373
#     4  11  23  42  64  94 128 169 211 262 317 376
#     4  10  25  42  65  96 126 170 213 261 321 374
#     4  10  22  41  63  95 132 164 209 266 317 379
#
# _framework density 22.591493
#
# number of rings (size 3 to 8) (size 9 to 14) (size 15 to 20)
#    0.000    1.429    2.857    1.286    4.000    4.571 
#    2.571    1.429    0.000    0.000    0.000    0.000 
#    0.000    0.000    0.000    0.000    0.000    0.000 
#
# Total GULP energy -173453.367234 kJ/mol
# GULP energy per Si atom -12389.526231 kJ/mol
# Density = 2.254007 g / cm^3
# Si number density = 22.591493 Si / 1000 Ang^3
#
#
#
# Elastic Constant Matrix: (Units=GPa)
#
#
# Indices 1 2 3 4 5 6 
#
# 1 91.5288 48.9925 25.3712 -21.9380 6.4665 -4.2419
# 2 48.9925 161.0732 30.5035 -35.0954 -6.9828 2.1058
# 3 25.3712 30.5035 48.0192 -14.9612 0.0117 -8.1162
# 4 -21.9380 -35.0954 -14.9612 50.3814 -1.6315 -3.3920
# 5 6.4665 -6.9828 0.0117 -1.6315 29.5031 -5.7014
# 6 -4.2419 2.1058 -8.1162 -3.3920 -5.7014 32.6448
#
#
#
# Elastic Compliance Matrix: (Units=1/GPa)
#
#
# Indices 1 2 3 4 5 6 
#
# 1 0.014945 -0.003187 -0.004924 0.002740 -0.003770 0.000550
# 2 -0.003187 0.008676 -0.002748 0.003880 0.002820 -0.000761
# 3 -0.004924 -0.002748 0.027905 0.004790 0.002101 0.007340
# 4 0.002740 0.003880 0.004790 0.025547 0.002579 0.004402
# 5 -0.003770 0.002820 0.002101 0.002579 0.036795 0.006545
# 6 0.000550 -0.000761 0.007340 0.004402 0.006545 0.034179
#
#
# Mechanical properties :
#
#
# Convention : Reuss Voigt Hill
#
# Bulk Modulus (GPa) = 33.54836 56.70618 45.12727
# Shear Modulus (GPa) = 27.82419 35.55612 31.69015
#
# Velocity S-wave (km/s) = 3.51326 3.97151 3.74939
# Velocity P-wave (km/s) = 5.59817 6.79600 6.22596
#
# Compressibility (1/GPa) = 0.02980772
#
# Stress axis : x y z
#
# Youngs Moduli (GPa) = 66.91256 115.26603 35.83592
#
# Poissons Ratio (x) = 0.36732 0.17647
# Poissons Ratio (y) = 0.21323 0.09847
# Poissons Ratio (z) = 0.32950 0.31673
#
# Static dielectric constant tensor:
#      x y z
#    x 4.389550 0.092340 -0.344810 
#    y 0.092340 4.237120 -0.198160 
#    z -0.344810 -0.198160 4.097330 
# 
# 
# High freq. dielectric constant tensor:
#      x y z
#    x 1.887710 0.005910 -0.012450 
#    y 0.005910 1.904970 -0.011510 
#    z -0.012450 -0.011510 1.878610 
# 
# From -- ./inp_files/170832.got.cif
#   From: 2010.06.25/outbox.cif.g09.slc.cpg/sg2_86_cif.got.tgz:170832.got - 2010.06.27 13:26:56.
