data_PCOD8018855
_publ_section_title
;
Structure prediction by ZEFSAII (Michael W. Deem and Ramdas Pophale) SiO2 
 PCOD8018855
Probable space group: P -1
;
_chemical_formula_sum "Si O2"
_cell_formula_units_Z 16
_cell_length_a 14.496281
_cell_length_b 11.217111
_cell_length_c 8.548614
_cell_angle_alpha 125.078558
_cell_angle_beta 40.637336
_cell_angle_gamma 122.674012
_cell_volume 726.695125
_symmetry_space_group_name_H-M "P -1"
_symmetry_group_IT_number 2
_symmetry_cell_setting 'triclinic'
loop_
_space_group_symop_operation_xyz
x,y,z
-x,-y,-z
loop_
_atom_site_type_symbol
_atom_site_label
_atom_site_fract_x
_atom_site_fract_y
_atom_site_fract_z
Si Si1 0.412159 0.301467 0.323932
Si Si2 0.994016 0.554968 0.226062
Si Si3 0.295770 0.561322 0.791385
Si Si4 0.777499 0.978773 0.119480
Si Si5 0.295140 0.006967 0.436375
Si Si6 0.009579 0.884861 0.537540
Si Si7 0.502647 0.816460 0.176022
Si Si8 0.746685 0.302176 0.371448
O O1 0.294956 0.401427 0.590837
O O2 0.568902 0.390048 0.235916
O O3 0.374963 0.146013 0.341342
O O4 0.413755 0.278115 0.117218
O O5 0.963495 0.720163 0.403686
O O6 0.866803 0.439376 0.387572
O O7 0.000000 0.500000 0.000000
O O8 0.155471 0.549985 0.076462
O O9 0.294193 0.679270 0.742740
O O10 0.816428 0.156240 0.183963
O O11 0.772482 0.936566 0.277236
O O12 0.619318 0.926396 0.210110
O O13 0.898498 0.902656 0.830570
O O14 0.411946 0.908198 0.253762
O O15 0.170770 0.910131 0.417446
O O16 0.000000 0.000000 0.500000
O O17 0.396475 0.708581 0.347483
#
# Coordination Sequence:
#
# PCOD8018855 Si02
#       8
#     2   2   2   2   2   2   2   2
#     4  11  23  38  65  96 128 172 218 276 317 402
#     4  10  23  41  64  93 132 171 213 266 330 388
#     4  10  22  41  60  92 133 170 215 260 345 380
#     4  11  24  43  69  99 131 175 225 274 327 387
#     4  11  24  43  67  94 137 171 223 273 330 385
#     4  12  25  42  69 102 131 175 226 271 325 399
#     4  11  23  42  69  97 129 173 229 268 331 385
#     4  10  22  42  67  89 133 173 213 271 331 390
#
# _framework density 22.017486000000002
#
# number of rings (size 3 to 8) (size 9 to 14) (size 15 to 20)
#    0.000    1.250    0.000    6.750    8.750    0.500 
#    4.500    3.125    0.000    0.000    0.000    0.000 
#    0.000    0.000    0.000    0.000    0.000    0.000 
#
# Total GULP energy -198439.361317 kJ/mol
# GULP energy per Si atom -12402.460082 kJ/mol
# Density = 2.196737 g / cm^3
# Si number density = 22.017486 Si / 1000 Ang^3
#
#
#
# Elastic Constant Matrix: (Units=GPa)
#
#
# Indices 1 2 3 4 5 6 
#
# 1 76.5342 32.3577 2.4513 -1.9051 2.0858 12.9873
# 2 32.3577 136.6042 45.9867 -1.3792 -3.2697 25.7172
# 3 2.4513 45.9867 81.6551 9.5686 4.4339 7.0201
# 4 -1.9051 -1.3792 9.5686 36.3368 2.8367 3.1856
# 5 2.0858 -3.2697 4.4339 2.8367 35.5751 0.2963
# 6 12.9873 25.7172 7.0201 3.1856 0.2963 25.1694
#
#
#
# Elastic Compliance Matrix: (Units=1/GPa)
#
#
# Indices 1 2 3 4 5 6 
#
# 1 0.015335 -0.003314 0.001836 0.000757 -0.001450 -0.005117
# 2 -0.003314 0.012023 -0.006293 0.002591 0.001953 -0.009171
# 3 0.001836 -0.006293 0.016245 -0.004369 -0.002375 0.001533
# 4 0.000757 0.002591 -0.004369 0.029415 -0.001561 -0.005524
# 5 -0.001450 0.001953 -0.002375 -0.001561 0.028801 -0.000727
# 6 -0.005117 -0.009171 0.001533 -0.005524 -0.000727 0.052022
#
#
# Mechanical properties :
#
#
# Convention : Reuss Voigt Hill
#
# Bulk Modulus (GPa) = 35.63661 50.70944 43.17303
# Shear Modulus (GPa) = 27.97402 33.68279 30.82841
#
# Velocity S-wave (km/s) = 3.56833 3.91553 3.74596
# Velocity P-wave (km/s) = 5.76177 6.59722 6.19360
#
# Compressibility (1/GPa) = 0.02806103
#
# Stress axis : x y z
#
# Youngs Moduli (GPa) = 65.20937 83.17098 61.55769
#
# Poissons Ratio (x) = 0.27566 -0.11304
# Poissons Ratio (y) = 0.21613 0.38739
# Poissons Ratio (z) = -0.11974 0.52341
#
# Static dielectric constant tensor:
#      x y z
#    x 4.063130 0.286900 -0.187980 
#    y 0.286900 4.079690 -0.151850 
#    z -0.187980 -0.151850 4.387210 
# 
# 
# High freq. dielectric constant tensor:
#      x y z
#    x 1.863080 0.016360 -0.008000 
#    y 0.016360 1.867260 -0.001840 
#    z -0.008000 -0.001840 1.878610 
# 
# From -- ./inp_files/308261.got.cif
#   From: 2010.06.25/outbox.cif.g09.slc.cpg/sg2_155_cif.got.tgz:308261.got - 2010.06.27 13:26:56.
