data_PCOD8018156
_publ_section_title
;
Structure prediction by ZEFSAII (Michael W. Deem and Ramdas Pophale) SiO2 
 PCOD8018156
Probable space group: P -1
;
_chemical_formula_sum "Si O2"
_cell_formula_units_Z 16
_cell_length_a 11.149266
_cell_length_b 7.016241
_cell_length_c 11.793129
_cell_angle_alpha 112.878426
_cell_angle_beta 112.701651
_cell_angle_gamma 74.387650
_cell_volume 776.372077
_symmetry_space_group_name_H-M "P -1"
_symmetry_group_IT_number 2
_symmetry_cell_setting 'triclinic'
loop_
_space_group_symop_operation_xyz
x,y,z
-x,-y,-z
loop_
_atom_site_type_symbol
_atom_site_label
_atom_site_fract_x
_atom_site_fract_y
_atom_site_fract_z
Si Si1 0.757814 0.304991 0.590084
Si Si2 0.421759 0.883645 0.354321
Si Si3 0.263265 0.896405 0.694695
Si Si4 0.990737 0.016723 0.716039
Si Si5 0.799821 0.769593 0.725691
Si Si6 0.882572 0.930069 0.008442
Si Si7 0.645677 0.256174 0.073542
Si Si8 0.413724 0.266987 0.832319
O O1 0.658930 0.281191 0.651543
O O2 0.696499 0.219271 0.434850
O O3 0.898654 0.173672 0.639154
O O4 0.772832 0.543276 0.625126
O O5 0.514375 0.749253 0.266902
O O6 0.500000 0.000000 0.500000
O O7 0.327876 0.061591 0.295383
O O8 0.353124 0.781422 0.800017
O O9 0.294742 0.132341 0.754836
O O10 0.107845 0.894631 0.655581
O O11 0.915660 0.841636 0.707641
O O12 0.060129 0.151276 0.867088
O O13 0.830879 0.755602 0.869437
O O14 0.771279 0.127504 0.030217
O O15 0.000000 0.000000 0.000000
O O16 0.652414 0.499301 0.111468
O O17 0.514448 0.191472 0.953742
#
# Coordination Sequence:
#
# PCOD8018156 Si02
#       8
#     2   2   2   2   2   2   2   2
#     4  11  24  39  63  94 120 167 207 247 317 370
#     4  11  23  42  62  89 128 163 203 258 306 365
#     4  11  23  40  63  91 128 161 206 253 308 376
#     4   9  22  40  60  89 124 161 205 259 310 360
#     4  10  22  40  63  89 124 161 206 260 304 365
#     4   9  18  40  64  87 124 158 204 260 301 358
#     4  10  23  41  63  95 119 167 209 251 314 363
#     4  11  23  43  65  89 130 163 206 258 305 370
#
# _framework density 20.608675999999999
#
# number of rings (size 3 to 8) (size 9 to 14) (size 15 to 20)
#    0.000    1.750    2.500    0.750    1.750    5.500 
#    9.000    0.000    0.000    0.000    0.000    0.000 
#    0.000    0.000    0.000    0.000    0.000    0.000 
#
# Total GULP energy -198371.112396 kJ/mol
# GULP energy per Si atom -12398.194525 kJ/mol
# Density = 2.056177 g / cm^3
# Si number density = 20.608676 Si / 1000 Ang^3
#
#
#
# Elastic Constant Matrix: (Units=GPa)
#
#
# Indices 1 2 3 4 5 6 
#
# 1 74.5664 34.6471 21.4781 -1.8257 4.9802 0.1354
# 2 34.6471 72.8554 29.1136 10.6764 -0.7130 12.0277
# 3 21.4781 29.1136 119.0213 -1.6264 3.7453 2.6927
# 4 -1.8257 10.6764 -1.6264 31.1292 8.3957 2.7942
# 5 4.9802 -0.7130 3.7453 8.3957 25.5162 4.3340
# 6 0.1354 12.0277 2.6927 2.7942 4.3340 22.4518
#
#
#
# Elastic Compliance Matrix: (Units=1/GPa)
#
#
# Indices 1 2 3 4 5 6 
#
# 1 0.019306 -0.010967 -0.000638 0.006201 -0.007115 0.006437
# 2 -0.010967 0.024346 -0.004113 -0.010495 0.009074 -0.012929
# 3 -0.000638 -0.004113 0.009604 0.002413 -0.002401 0.001218
# 4 0.006201 -0.010495 0.002413 0.040130 -0.015626 0.003317
# 5 -0.007115 0.009074 -0.002401 -0.015626 0.048351 -0.011919
# 6 0.006437 -0.012929 0.001218 0.003317 -0.011919 0.053169
#
#
# Mechanical properties :
#
#
# Convention : Reuss Voigt Hill
#
# Bulk Modulus (GPa) = 45.82982 48.54676 47.18829
# Shear Modulus (GPa) = 21.40272 27.89971 24.65121
#
# Velocity S-wave (km/s) = 3.22612 3.68337 3.46230
# Velocity P-wave (km/s) = 6.01361 6.45734 6.23942
#
# Compressibility (1/GPa) = 0.02181986
#
# Stress axis : x y z
#
# Youngs Moduli (GPa) = 51.79753 41.07464 104.12382
#
# Poissons Ratio (x) = 0.45047 0.06645
# Poissons Ratio (y) = 0.56807 0.42821
# Poissons Ratio (z) = 0.03306 0.16892
#
# Static dielectric constant tensor:
#      x y z
#    x 3.732940 -0.104230 0.128330 
#    y -0.104230 3.379430 -0.055000 
#    z 0.128330 -0.055000 4.079150 
# 
# 
# High freq. dielectric constant tensor:
#      x y z
#    x 1.810480 -0.005090 0.003050 
#    y -0.005090 1.781660 -0.009360 
#    z 0.003050 -0.009360 1.828500 
# 
# From -- ./inp_files/70376.got.cif
#   From: 2010.06.25/outbox.cif.g09.slc.cpg/sg2_36_cif.got.tgz:70376.got - 2010.06.27 13:26:56.
