data_PCOD8018304
_publ_section_title
;
Structure prediction by ZEFSAII (Michael W. Deem and Ramdas Pophale) SiO2 
 PCOD8018304
Probable space group: P -1
;
_chemical_formula_sum "Si O2"
_cell_formula_units_Z 14
_cell_length_a 9.013406
_cell_length_b 12.963954
_cell_length_c 8.852043
_cell_angle_alpha 106.397587
_cell_angle_beta 47.095635
_cell_angle_gamma 121.745685
_cell_volume 639.505180
_symmetry_space_group_name_H-M "P -1"
_symmetry_group_IT_number 2
_symmetry_cell_setting 'triclinic'
loop_
_space_group_symop_operation_xyz
x,y,z
-x,-y,-z
loop_
_atom_site_type_symbol
_atom_site_label
_atom_site_fract_x
_atom_site_fract_y
_atom_site_fract_z
Si Si1 0.862407 0.799125 0.653726
Si Si2 0.052146 0.039632 0.808723
Si Si3 0.433559 0.204867 0.421522
Si Si4 0.678629 0.113926 0.015175
Si Si5 0.434481 0.583529 0.978569
Si Si6 0.923225 0.330972 0.718094
Si Si7 0.242195 0.527573 0.774565
O O1 0.768474 0.820126 0.568923
O O2 0.654932 0.717371 0.876380
O O3 0.027676 0.737114 0.482947
O O4 0.014656 0.927040 0.682514
O O5 0.312502 0.148747 0.643511
O O6 0.895679 0.098680 0.895857
O O7 0.000000 0.000000 0.000000
O O8 0.562591 0.128020 0.253576
O O9 0.621469 0.346961 0.361986
O O10 0.751854 0.236688 0.920297
O O11 0.500000 0.000000 0.000000
O O12 0.391455 0.527148 0.814865
O O13 0.500000 0.500000 0.000000
O O14 0.213280 0.593649 0.203772
O O15 0.176275 0.418334 0.654211
O O16 0.000000 0.500000 0.000000
#
# Coordination Sequence:
#
# PCOD8018304 Si02
#       7
#     2   2   2   2   2   2   2
#     4  11  22  43  67  97 130 178 229 261 335 405
#     4  12  27  44  66 104 136 171 226 290 333 384
#     4  11  21  41  72  97 127 182 225 269 327 406
#     4  12  21  40  74  95 131 179 227 270 326 403
#     4  10  22  40  64  98 139 171 212 277 336 388
#     4  11  21  40  70 100 126 177 226 272 317 404
#     4   9  19  40  67  99 129 170 230 263 321 404
#
# _framework density 21.891926999999999
#
# number of rings (size 3 to 8) (size 9 to 14) (size 15 to 20)
#    0.000    1.143    7.143    1.286    0.000    4.571 
#    2.571    0.000    0.000    0.000    0.000    0.000 
#    0.000    0.000    0.000    0.000    0.000    0.000 
#
# Total GULP energy -173553.756041 kJ/mol
# GULP energy per Si atom -12396.696860 kJ/mol
# Density = 2.184210 g / cm^3
# Si number density = 21.891927 Si / 1000 Ang^3
#
#
#
# Elastic Constant Matrix: (Units=GPa)
#
#
# Indices 1 2 3 4 5 6 
#
# 1 58.5389 52.8801 34.8072 0.5769 -8.1708 -9.6833
# 2 52.8801 128.7302 61.1995 -11.2386 -2.5629 0.5477
# 3 34.8072 61.1995 140.6775 -8.0612 -8.4495 -1.9005
# 4 0.5769 -11.2386 -8.0612 51.9591 -9.7135 -15.2502
# 5 -8.1708 -2.5629 -8.4495 -9.7135 27.6292 0.2533
# 6 -9.6833 0.5477 -1.9005 -15.2502 0.2533 27.6372
#
#
#
# Elastic Compliance Matrix: (Units=1/GPa)
#
#
# Indices 1 2 3 4 5 6 
#
# 1 0.032383 -0.012080 -0.001971 0.001951 0.008425 0.012449
# 2 -0.012080 0.014418 -0.003463 0.000931 -0.002928 -0.004216
# 3 -0.001971 -0.003463 0.009340 0.001405 0.002439 0.000773
# 4 0.001951 0.000931 0.001405 0.025920 0.010068 0.014972
# 5 0.008425 -0.002928 0.002439 0.010068 0.042623 0.008343
# 6 0.012449 -0.004216 0.000773 0.014972 0.008343 0.048867
#
#
# Mechanical properties :
#
#
# Convention : Reuss Voigt Hill
#
# Bulk Modulus (GPa) = 47.36502 69.52449 58.44475
# Shear Modulus (GPa) = 23.18937 33.38241 28.28589
#
# Velocity S-wave (km/s) = 3.25817 3.90920 3.59844
# Velocity P-wave (km/s) = 5.98640 7.22515 6.63475
#
# Compressibility (1/GPa) = 0.02111263
#
# Stress axis : x y z
#
# Youngs Moduli (GPa) = 30.88012 69.35940 107.06637
#
# Poissons Ratio (x) = 0.83789 0.21104
# Poissons Ratio (y) = 0.37304 0.37074
# Poissons Ratio (z) = 0.06087 0.24017
#
# Static dielectric constant tensor:
#      x y z
#    x 3.200180 0.301200 -3.076980 
#    y 0.301200 4.324380 0.546690 
#    z -3.076980 0.546690 -11.448760 
# 
# 
# High freq. dielectric constant tensor:
#      x y z
#    x 1.826100 0.001960 -0.026080 
#    y 0.001960 1.874290 -0.002740 
#    z -0.026080 -0.002740 1.870350 
# 
# From -- ./inp_files/188273.got.cif
#   From: 2010.06.25/outbox.cif.g09.slc.cpg/sg2_95_cif.got.tgz:188273.got - 2010.06.27 13:26:56.
