data_PCOD8018113
_publ_section_title
;
Structure prediction by ZEFSAII (Michael W. Deem and Ramdas Pophale) SiO2 
 PCOD8018113
Probable space group: P -1
;
_chemical_formula_sum "Si O2"
_cell_formula_units_Z 14
_cell_length_a 8.420034
_cell_length_b 8.115728
_cell_length_c 9.918915
_cell_angle_alpha 70.860252
_cell_angle_beta 109.639283
_cell_angle_gamma 104.688509
_cell_volume 595.207615
_symmetry_space_group_name_H-M "P -1"
_symmetry_group_IT_number 2
_symmetry_cell_setting 'triclinic'
loop_
_space_group_symop_operation_xyz
x,y,z
-x,-y,-z
loop_
_atom_site_type_symbol
_atom_site_label
_atom_site_fract_x
_atom_site_fract_y
_atom_site_fract_z
Si Si1 0.382595 0.623922 0.500617
Si Si2 0.000568 0.016049 0.654578
Si Si3 0.167831 0.384523 0.716907
Si Si4 0.606559 0.795729 0.982153
Si Si5 0.145727 0.573783 0.220330
Si Si6 0.244042 0.839896 0.951393
Si Si7 0.310264 0.234269 0.288713
O O1 0.500000 0.500000 0.500000
O O2 0.240184 0.524638 0.587573
O O3 0.275577 0.694628 0.329428
O O4 0.512797 0.772416 0.577474
O O5 0.058264 0.217146 0.658090
O O6 0.124297 0.890707 0.785914
O O7 0.000000 0.000000 0.500000
O O8 0.808864 0.953377 0.671172
O O9 0.045589 0.466920 0.763601
O O10 0.328767 0.332147 0.855774
O O11 0.403809 0.773422 0.945313
O O12 0.648674 0.732486 0.864311
O O13 0.696683 0.996249 0.976413
O O14 0.210372 0.388399 0.269347
O O15 0.138959 0.681909 0.051248
#
# Coordination Sequence:
#
# PCOD8018113 Si02
#       7
#     2   2   2   2   2   2   2
#     4  10  22  40  62  92 129 166 203 254 312 365
#     4  11  24  43  65  93 123 161 209 259 308 371
#     4  11  23  42  66  89 129 171 204 252 315 372
#     4  10  22  41  64  92 124 167 211 254 309 370
#     4  11  23  40  63  93 127 166 207 254 314 370
#     4  10  23  42  64  89 127 167 204 255 318 373
#     4  11  24  40  65  95 127 162 211 261 303 366
#
# _framework density 23.521204000000001
#
# number of rings (size 3 to 8) (size 9 to 14) (size 15 to 20)
#    0.000    1.429    0.000    5.571    0.000   11.429 
#    0.000    2.143    0.000    0.000    0.000    0.000 
#    0.000    0.000    0.000    0.000    0.000    0.000 
#
# Total GULP energy -173643.239174 kJ/mol
# GULP energy per Si atom -12403.088512 kJ/mol
# Density = 2.346767 g / cm^3
# Si number density = 23.521204 Si / 1000 Ang^3
#
#
#
# Elastic Constant Matrix: (Units=GPa)
#
#
# Indices 1 2 3 4 5 6 
#
# 1 146.5136 40.1940 47.2948 4.1983 -12.2336 10.5783
# 2 40.1940 49.7264 18.2646 11.6512 0.2969 14.7713
# 3 47.2948 18.2646 114.3767 9.1233 -10.1460 8.5488
# 4 4.1983 11.6512 9.1233 28.7161 1.0306 0.0940
# 5 -12.2336 0.2969 -10.1460 1.0306 40.0394 5.0113
# 6 10.5783 14.7713 8.5488 0.0940 5.0113 36.2995
#
#
#
# Elastic Compliance Matrix: (Units=1/GPa)
#
#
# Indices 1 2 3 4 5 6 
#
# 1 0.009975 -0.007785 -0.002936 0.002552 0.002215 0.000640
# 2 -0.007785 0.032484 -0.000315 -0.011869 -0.001055 -0.010699
# 3 -0.002936 -0.000315 0.010553 -0.002864 0.002076 -0.001781
# 4 0.002552 -0.011869 -0.002864 0.040214 -0.001502 0.004864
# 5 0.002215 -0.001055 0.002076 -0.001502 0.026775 -0.004398
# 6 0.000640 -0.010699 -0.001781 0.004864 -0.004398 0.032730
#
#
# Mechanical properties :
#
#
# Convention : Reuss Voigt Hill
#
# Bulk Modulus (GPa) = 32.32219 58.01374 45.16797
# Shear Modulus (GPa) = 27.00989 34.66857 30.83923
#
# Velocity S-wave (km/s) = 3.39236 3.84334 3.62487
# Velocity P-wave (km/s) = 5.39590 6.66431 6.06336
#
# Compressibility (1/GPa) = 0.03093850
#
# Stress axis : x y z
#
# Youngs Moduli (GPa) = 100.25553 30.78420 94.75813
#
# Poissons Ratio (x) = 0.23966 0.27822
# Poissons Ratio (y) = 0.78052 0.02988
# Poissons Ratio (z) = 0.29436 0.00971
#
# Static dielectric constant tensor:
#      x y z
#    x 4.496570 0.174870 0.185350 
#    y 0.174870 4.222890 0.219770 
#    z 0.185350 0.219770 4.464100 
# 
# 
# High freq. dielectric constant tensor:
#      x y z
#    x 1.946020 0.006560 0.001970 
#    y 0.006560 1.918950 0.012560 
#    z 0.001970 0.012560 1.944260 
# 
# From -- ./inp_files/157665.got.cif
#   From: 2010.06.25/outbox.cif.g09.slc.cpg/sg2_79_cif.got.tgz:157665.got - 2010.06.27 13:26:56.
