data_PCOD8018939
_publ_section_title
;
Structure prediction by ZEFSAII (Michael W. Deem and Ramdas Pophale) SiO2 
 PCOD8018939
Probable space group: P -1
;
_chemical_formula_sum "Si O2"
_cell_formula_units_Z 12
_cell_length_a 9.537270
_cell_length_b 9.007691
_cell_length_c 9.393299
_cell_angle_alpha 114.215445
_cell_angle_beta 69.243357
_cell_angle_gamma 132.186906
_cell_volume 541.582187
_symmetry_space_group_name_H-M "P -1"
_symmetry_group_IT_number 2
_symmetry_cell_setting 'triclinic'
loop_
_space_group_symop_operation_xyz
x,y,z
-x,-y,-z
loop_
_atom_site_type_symbol
_atom_site_label
_atom_site_fract_x
_atom_site_fract_y
_atom_site_fract_z
Si Si1 0.749268 0.307022 0.097075
Si Si2 0.666193 0.323440 0.609751
Si Si3 0.864995 0.546205 0.888760
Si Si4 0.868699 0.774107 0.736984
Si Si5 0.255805 0.981333 0.546669
Si Si6 0.327801 0.041246 0.218824
O O1 0.557711 0.197574 0.213589
O O2 0.925185 0.396266 0.175207
O O3 0.790705 0.496024 0.059087
O O4 0.742692 0.154162 0.927904
O O5 0.712567 0.340247 0.769065
O O6 0.781700 0.557172 0.598739
O O7 0.732571 0.196510 0.467476
O O8 0.442475 0.203013 0.618487
O O9 0.879505 0.736916 0.888323
O O10 0.733566 0.836951 0.792797
O O11 0.075877 0.950859 0.668180
O O12 0.236365 0.975404 0.381234
#
# Coordination Sequence:
#
# PCOD8018939 Si02
#       6
#     2   2   2   2   2   2
#     4  10  22  41  63  83 125 165 202 241 298 371
#     4   9  22  39  63  92 115 164 202 246 300 358
#     4   9  21  43  59  91 114 166 207 241 302 353
#     4  10  23  40  62  95 121 154 203 258 298 350
#     4  11  21  39  66  90 123 159 197 251 307 359
#     4  11  23  39  60  94 122 158 202 249 303 357
#
# _framework density 22.157302999999999
#
# number of rings (size 3 to 8) (size 9 to 14) (size 15 to 20)
#    1.000    1.000    1.667    1.000    4.667    2.000 
#    6.000    0.000    0.000    0.000    0.000    0.000 
#    0.000    0.000    0.000    0.000    0.000    0.000 
#
# Total GULP energy -148719.575534 kJ/mol
# GULP energy per Si atom -12393.297961 kJ/mol
# Density = 2.210687 g / cm^3
# Si number density = 22.157303 Si / 1000 Ang^3
#
#
#
# Elastic Constant Matrix: (Units=GPa)
#
#
# Indices 1 2 3 4 5 6 
#
# 1 105.0981 39.7591 19.8622 6.6917 10.5025 -4.3376
# 2 39.7591 75.5005 17.5279 -14.3285 1.6941 2.4207
# 3 19.8622 17.5279 37.0983 -8.0246 7.3865 -4.2601
# 4 6.6917 -14.3285 -8.0246 17.4070 1.6649 9.6352
# 5 10.5025 1.6941 7.3865 1.6649 24.5549 -2.5336
# 6 -4.3376 2.4207 -4.2601 9.6352 -2.5336 43.2197
#
#
#
# Elastic Compliance Matrix: (Units=1/GPa)
#
#
# Indices 1 2 3 4 5 6 
#
# 1 0.017599 -0.012223 -0.007632 -0.023983 -0.002048 0.006925
# 2 -0.012223 0.025955 -0.000124 0.031316 0.000355 -0.009653
# 3 -0.007632 -0.000124 0.037647 0.022605 -0.009860 -0.002666
# 4 -0.023983 0.031316 0.022605 0.120008 -0.009859 -0.029265
# 5 -0.002048 0.000355 -0.009860 -0.009859 0.045590 0.003673
# 6 0.006925 -0.009653 -0.002666 -0.029265 0.003673 0.030850
#
#
# Mechanical properties :
#
#
# Convention : Reuss Voigt Hill
#
# Bulk Modulus (GPa) = 24.24709 41.33282 32.78996
# Shear Modulus (GPa) = 15.08954 26.40615 20.74785
#
# Velocity S-wave (km/s) = 2.61247 3.45593 3.06337
# Velocity P-wave (km/s) = 4.47961 5.88382 5.22907
#
# Compressibility (1/GPa) = 0.04124205
#
# Stress axis : x y z
#
# Youngs Moduli (GPa) = 56.82187 38.52755 26.56271
#
# Poissons Ratio (x) = 0.47094 0.20272
# Poissons Ratio (y) = 0.69456 0.00330
# Poissons Ratio (z) = 0.43365 0.00479
#
# Static dielectric constant tensor:
#      x y z
#    x 3.964790 0.081280 0.196780 
#    y 0.081280 4.061440 -0.032620 
#    z 0.196780 -0.032620 3.410660 
# 
# 
# High freq. dielectric constant tensor:
#      x y z
#    x 1.878030 0.007030 0.020030 
#    y 0.007030 1.879100 -0.008150 
#    z 0.020030 -0.008150 1.830440 
# 
# From -- ./inp_files/199037.got.cif
#   From: 2010.06.25/outbox.cif.g09.slc.cpg/sg2_100_cif.got.tgz:199037.got - 2010.06.27 13:26:56.
