data_PCOD8018579
_publ_section_title
;
Structure prediction by ZEFSAII (Michael W. Deem and Ramdas Pophale) SiO2 
 PCOD8018579
Probable space group: P -1
;
_chemical_formula_sum "Si O2"
_cell_formula_units_Z 16
_cell_length_a 15.073459
_cell_length_b 14.276248
_cell_length_c 14.146093
_cell_angle_alpha 31.489658
_cell_angle_beta 151.964732
_cell_angle_gamma 147.368132
_cell_volume 695.958901
_symmetry_space_group_name_H-M "P -1"
_symmetry_group_IT_number 2
_symmetry_cell_setting 'triclinic'
loop_
_space_group_symop_operation_xyz
x,y,z
-x,-y,-z
loop_
_atom_site_type_symbol
_atom_site_label
_atom_site_fract_x
_atom_site_fract_y
_atom_site_fract_z
Si Si1 0.705296 0.276754 0.516194
Si Si2 0.149608 0.039276 0.389000
Si Si3 0.764846 0.774800 0.359977
Si Si4 0.452115 0.278012 0.620184
Si Si5 0.886489 0.444071 0.843890
Si Si6 0.080108 0.324108 0.956038
Si Si7 0.525999 0.594246 0.111273
Si Si8 0.594174 0.112827 0.353099
O O1 0.656941 0.471907 0.302938
O O2 0.717779 0.213570 0.475248
O O3 0.920910 0.313887 0.733950
O O4 0.535553 0.111019 0.557483
O O5 0.307648 0.209224 0.453173
O O6 0.246399 0.880569 0.586779
O O7 0.106320 0.121716 0.176678
O O8 0.942226 0.951185 0.327918
O O9 0.657113 0.847560 0.282153
O O10 0.863843 0.631230 0.617524
O O11 0.590874 0.664455 0.217453
O O12 0.500000 0.500000 0.500000
O O13 0.670163 0.267397 0.808773
O O14 0.020101 0.376833 0.956519
O O15 0.000000 0.500000 0.000000
O O16 0.288654 0.475513 0.984896
O O17 0.557027 0.779220 0.914214
#
# Coordination Sequence:
#
# PCOD8018579 Si02
#       8
#     2   2   2   2   2   2   2   2
#     4  11  25  49  70 105 143 186 241 290 358 413
#     4  12  24  44  68 105 144 182 239 291 352 418
#     4  11  23  42  66 102 140 178 238 288 345 428
#     4  10  22  40  67  97 140 182 232 284 347 425
#     4  11  21  39  65  99 134 184 233 280 354 415
#     4  12  23  42  73  98 142 190 227 294 351 413
#     4  12  24  48  72 105 143 188 236 289 356 416
#     4  11  26  46  72 104 143 187 236 298 349 421
#
# _framework density 22.989861000000001
#
# number of rings (size 3 to 8) (size 9 to 14) (size 15 to 20)
#    0.000    0.750    2.500    6.750    0.000    1.000 
#    2.250    1.875    0.000    0.000    0.000    0.000 
#    0.000    0.000    0.000    0.000    0.000    0.000 
#
# Total GULP energy -198425.541565 kJ/mol
# GULP energy per Si atom -12401.596348 kJ/mol
# Density = 2.293754 g / cm^3
# Si number density = 22.989861 Si / 1000 Ang^3
#
#
#
# Elastic Constant Matrix: (Units=GPa)
#
#
# Indices 1 2 3 4 5 6 
#
# 1 87.3933 32.0094 23.5875 8.7217 -3.5585 -9.7638
# 2 32.0094 84.0325 48.5221 22.8039 -1.1945 -6.6227
# 3 23.5875 48.5221 127.4984 10.2376 -13.7419 -18.2108
# 4 8.7217 22.8039 10.2376 45.2108 -1.3029 -6.4120
# 5 -3.5585 -1.1945 -13.7419 -1.3029 32.2263 8.3270
# 6 -9.7638 -6.6227 -18.2108 -6.4120 8.3270 37.4896
#
#
#
# Elastic Compliance Matrix: (Units=1/GPa)
#
#
# Indices 1 2 3 4 5 6 
#
# 1 0.013576 -0.004896 -0.000256 0.000275 0.000583 0.002464
# 2 -0.004896 0.019344 -0.006343 -0.007690 -0.002394 -0.001722
# 3 -0.000256 -0.006343 0.011102 0.001354 0.003585 0.003641
# 4 0.000275 -0.007690 0.001354 0.026182 0.000410 0.003758
# 5 0.000583 -0.002394 0.003585 0.000410 0.034111 -0.006036
# 6 0.002464 -0.001722 0.003641 0.003758 -0.006036 0.030764
#
#
# Mechanical properties :
#
#
# Convention : Reuss Voigt Hill
#
# Bulk Modulus (GPa) = 47.54122 56.35136 51.94629
# Shear Modulus (GPa) = 30.28829 35.97235 33.13032
#
# Velocity S-wave (km/s) = 3.63362 3.95993 3.80028
# Velocity P-wave (km/s) = 6.19099 6.74334 6.47306
#
# Compressibility (1/GPa) = 0.02103438
#
# Stress axis : x y z
#
# Youngs Moduli (GPa) = 73.65743 51.69430 90.07293
#
# Poissons Ratio (x) = 0.25309 0.02303
# Poissons Ratio (y) = 0.36061 0.57131
# Poissons Ratio (z) = 0.01883 0.32789
#
# Static dielectric constant tensor:
#      x y z
#    x 4.281970 0.112640 0.075170 
#    y 0.112640 4.111760 0.080300 
#    z 0.075170 0.080300 4.285300 
# 
# 
# High freq. dielectric constant tensor:
#      x y z
#    x 1.913500 0.001300 -0.002960 
#    y 0.001300 1.906230 0.009690 
#    z -0.002960 0.009690 1.916650 
# 
# From -- ./inp_files/534202.got.cif
#   From: 2010.06.25/outbox.cif.g09.slc.cpg/sg2_268_cif.got.tgz:534202.got - 2010.06.27 13:26:56.
