data_PCOD8018471
_publ_section_title
;
Structure prediction by ZEFSAII (Michael W. Deem and Ramdas Pophale) SiO2 
 PCOD8018471
Probable space group: P -1
;
_chemical_formula_sum "Si O2"
_cell_formula_units_Z 14
_cell_length_a 8.809103
_cell_length_b 19.540835
_cell_length_c 10.802381
_cell_angle_alpha 147.879539
_cell_angle_beta 136.530332
_cell_angle_gamma 43.423006
_cell_volume 647.734955
_symmetry_space_group_name_H-M "P -1"
_symmetry_group_IT_number 2
_symmetry_cell_setting 'triclinic'
loop_
_space_group_symop_operation_xyz
x,y,z
-x,-y,-z
loop_
_atom_site_type_symbol
_atom_site_label
_atom_site_fract_x
_atom_site_fract_y
_atom_site_fract_z
Si Si1 0.967748 0.130184 0.591951
Si Si2 0.636102 0.985816 0.933639
Si Si3 0.918963 0.641570 0.327244
Si Si4 0.298646 0.788067 0.835213
Si Si5 0.800273 0.659092 0.997584
Si Si6 0.549763 0.205077 0.605886
Si Si7 0.879786 0.088232 0.837968
O O1 0.700537 0.225411 0.605609
O O2 0.132910 0.222673 0.857260
O O3 0.000000 0.000000 0.500000
O O4 0.031699 0.067962 0.397097
O O5 0.510458 0.934311 0.667761
O O6 0.884133 0.873980 0.938782
O O7 0.500000 0.000000 0.000000
O O8 0.667238 0.130248 0.139688
O O9 0.842174 0.675234 0.192151
O O10 0.689662 0.676479 0.332248
O O11 0.093351 0.723444 0.595161
O O12 0.042658 0.483844 0.178892
O O13 0.534668 0.670722 0.829093
O O14 0.246683 0.899149 0.085587
O O15 0.711631 0.190425 0.799698
#
# Coordination Sequence:
#
# PCOD8018471 Si02
#       7
#     2   2   2   2   2   2   2
#     4  10  22  40  66  96 129 167 208 267 329 379
#     4  12  25  39  64 101 136 170 212 271 333 388
#     4  11  25  44  66  94 129 180 221 262 318 387
#     4  12  24  41  69  96 133 169 218 274 321 386
#     4  11  25  45  66  92 133 175 222 266 317 388
#     4  11  23  41  65  95 134 170 214 269 326 386
#     4  11  22  39  64 100 132 164 214 267 333 383
#
# _framework density 21.613778
#
# number of rings (size 3 to 8) (size 9 to 14) (size 15 to 20)
#    0.000    0.857    4.286    3.429    4.000    1.714 
#    0.000    0.000    0.000    4.286    0.000    0.000 
#    0.000    0.000    0.000    0.000    0.000    0.000 
#
# Total GULP energy -173451.121057 kJ/mol
# GULP energy per Si atom -12389.365790 kJ/mol
# Density = 2.156458 g / cm^3
# Si number density = 21.613778 Si / 1000 Ang^3
#
#
#
# Elastic Constant Matrix: (Units=GPa)
#
#
# Indices 1 2 3 4 5 6 
#
# 1 121.2582 54.1738 38.3111 17.6259 -9.6586 -31.7539
# 2 54.1738 115.8322 40.4714 -12.1980 -3.2853 -24.4617
# 3 38.3111 40.4714 82.5787 -2.7620 -4.5201 -4.4548
# 4 17.6259 -12.1980 -2.7620 37.3543 -7.3035 2.2387
# 5 -9.6586 -3.2853 -4.5201 -7.3035 30.9637 -0.1927
# 6 -31.7539 -24.4617 -4.4548 2.2387 -0.1927 43.0680
#
#
#
# Elastic Compliance Matrix: (Units=1/GPa)
#
#
# Indices 1 2 3 4 5 6 
#
# 1 0.015707 -0.004795 -0.004695 -0.009562 0.001505 0.008875
# 2 -0.004795 0.013736 -0.004053 0.006415 0.000905 0.003518
# 3 -0.004695 -0.004053 0.016189 0.002546 0.001043 -0.004217
# 4 -0.009562 0.006415 0.002546 0.035097 0.006317 -0.004939
# 5 0.001505 0.000905 0.001043 0.006317 0.034513 0.001558
# 6 0.008875 0.003518 -0.004217 -0.004939 0.001558 0.031588
#
#
# Mechanical properties :
#
#
# Convention : Reuss Voigt Hill
#
# Bulk Modulus (GPa) = 53.92644 65.06463 59.49554
# Shear Modulus (GPa) = 27.76241 34.72472 31.24357
#
# Velocity S-wave (km/s) = 3.58785 4.01259 3.80615
# Velocity P-wave (km/s) = 6.49367 7.18586 6.84851
#
# Compressibility (1/GPa) = 0.01854378
#
# Stress axis : x y z
#
# Youngs Moduli (GPa) = 63.66746 72.80017 61.76927
#
# Poissons Ratio (x) = 0.34910 0.29003
# Poissons Ratio (y) = 0.30531 0.25038
# Poissons Ratio (z) = 0.29894 0.29509
#
# Static dielectric constant tensor:
#      x y z
#    x 4.308730 -0.451870 -0.144840 
#    y -0.451870 3.872830 -0.283150 
#    z -0.144840 -0.283150 4.049450 
# 
# 
# High freq. dielectric constant tensor:
#      x y z
#    x 1.858480 -0.030170 -0.008680 
#    y -0.030170 1.837860 -0.029560 
#    z -0.008680 -0.029560 1.841520 
# 
# From -- ./inp_files/403461.got.cif
#   From: 2010.06.25/outbox.cif.g09.slc.cpg/sg2_202_cif.got.tgz:403461.got - 2010.06.27 13:26:56.
