data_PCOD8018115
_publ_section_title
;
Structure prediction by ZEFSAII (Michael W. Deem and Ramdas Pophale) SiO2 
 PCOD8018115
Probable space group: P -1
;
_chemical_formula_sum "Si O2"
_cell_formula_units_Z 16
_cell_length_a 11.943703
_cell_length_b 6.692133
_cell_length_c 15.164899
_cell_angle_alpha 52.924309
_cell_angle_beta 121.740459
_cell_angle_gamma 123.237191
_cell_volume 773.326931
_symmetry_space_group_name_H-M "P -1"
_symmetry_group_IT_number 2
_symmetry_cell_setting 'triclinic'
loop_
_space_group_symop_operation_xyz
x,y,z
-x,-y,-z
loop_
_atom_site_type_symbol
_atom_site_label
_atom_site_fract_x
_atom_site_fract_y
_atom_site_fract_z
Si Si1 0.899964 0.874331 0.570681
Si Si2 0.886444 0.282105 0.752415
Si Si3 0.593477 0.863742 0.689334
Si Si4 0.468408 0.574455 0.064643
Si Si5 0.589486 0.776869 0.507213
Si Si6 0.711698 0.098564 0.061276
Si Si7 0.124198 0.584217 0.098844
Si Si8 0.002768 0.974982 0.763487
O O1 0.906503 0.581562 0.659195
O O2 0.741555 0.868181 0.499547
O O3 0.974247 0.068849 0.630845
O O4 0.000000 0.000000 0.500000
O O5 0.903616 0.255373 0.871493
O O6 0.738521 0.098746 0.702546
O O7 0.008609 0.195014 0.780808
O O8 0.568863 0.657472 0.815594
O O9 0.595088 0.735861 0.626806
O O10 0.471189 0.991421 0.604655
O O11 0.602680 0.803442 0.098065
O O12 0.500000 0.500000 0.000000
O O13 0.342966 0.692118 0.965521
O O14 0.500000 0.500000 0.500000
O O15 0.855689 0.094624 0.163470
O O16 0.735685 0.213751 0.940398
O O17 0.133939 0.297352 0.205561
O O18 0.000000 0.500000 0.000000
#
# Coordination Sequence:
#
# PCOD8018115 Si02
#       8
#     2   2   2   2   2   2   2   2
#     4  11  25  42  64  98 135 171 219 289 347 395
#     4  11  21  39  66  94 127 174 218 280 326 405
#     4  11  24  42  71  98 127 178 240 272 337 413
#     4  11  25  41  64  96 135 173 223 276 339 406
#     4  11  24  45  71  98 132 178 232 288 340 399
#     4  10  23  40  59  94 132 175 209 272 334 391
#     4   9  20  37  62  89 125 167 213 261 321 399
#     4  10  22  40  62  92 130 170 222 263 337 404
#
# _framework density 20.689827999999999
#
# number of rings (size 3 to 8) (size 9 to 14) (size 15 to 20)
#    0.000    1.500    2.500    1.500    1.750   10.500 
#    0.000    0.000    0.000    0.000    0.000    0.000 
#    0.000    0.000    0.000    0.000    0.000    0.000 
#
# Total GULP energy -198271.436485 kJ/mol
# GULP energy per Si atom -12391.964780 kJ/mol
# Density = 2.064274 g / cm^3
# Si number density = 20.689828 Si / 1000 Ang^3
#
#
#
# Elastic Constant Matrix: (Units=GPa)
#
#
# Indices 1 2 3 4 5 6 
#
# 1 148.4114 51.4022 54.1440 6.2588 -1.3525 -13.1418
# 2 51.4022 95.3843 38.8823 13.8786 -9.1370 -20.2392
# 3 54.1440 38.8823 85.8595 13.2157 -7.5816 -7.5939
# 4 6.2588 13.8786 13.2157 35.8689 -3.2126 -6.6230
# 5 -1.3525 -9.1370 -7.5816 -3.2126 43.9039 1.6210
# 6 -13.1418 -20.2392 -7.5939 -6.6230 1.6210 39.4419
#
#
#
# Elastic Compliance Matrix: (Units=1/GPa)
#
#
# Indices 1 2 3 4 5 6 
#
# 1 0.009673 -0.003393 -0.004814 0.001451 -0.001165 0.000846
# 2 -0.003393 0.015684 -0.003846 -0.002836 0.002080 0.005615
# 3 -0.004814 -0.003846 0.017105 -0.004007 0.001750 -0.001029
# 4 0.001451 -0.002836 -0.004007 0.030910 0.000898 0.003410
# 5 -0.001165 0.002080 0.001750 0.000898 0.023535 0.000200
# 6 0.000846 0.005615 -0.001029 0.003410 0.000200 0.028883
#
#
# Mechanical properties :
#
#
# Convention : Reuss Voigt Hill
#
# Bulk Modulus (GPa) = 54.48274 68.72359 61.60317
# Shear Modulus (GPa) = 32.04831 36.19139 34.11985
#
# Velocity S-wave (km/s) = 3.93999 4.18692 4.06533
# Velocity P-wave (km/s) = 6.86209 7.52742 7.20244
#
# Compressibility (1/GPa) = 0.01835444
#
# Stress axis : x y z
#
# Youngs Moduli (GPa) = 103.38236 63.76096 58.46263
#
# Poissons Ratio (x) = 0.21635 0.28147
# Poissons Ratio (y) = 0.35079 0.22484
# Poissons Ratio (z) = 0.49773 0.24521
#
# Static dielectric constant tensor:
#      x y z
#    x 4.488000 0.199080 -1.041110 
#    y 0.199080 4.074570 -0.583980 
#    z -1.041110 -0.583980 5.611270 
# 
# 
# High freq. dielectric constant tensor:
#      x y z
#    x 1.820400 -0.008510 -0.000010 
#    y -0.008510 1.813500 0.002320 
#    z -0.000010 0.002320 1.808400 
# 
# From -- ./inp_files/123666.got.cif
#   From: 2010.06.25/outbox.cif.g09.slc.cpg/sg2_62_cif.got.tgz:123666.got - 2010.06.27 13:26:56.
