data_PCOD8018561
_publ_section_title
;
Structure prediction by ZEFSAII (Michael W. Deem and Ramdas Pophale) SiO2 
 PCOD8018561
Probable space group: P -1
;
_chemical_formula_sum "Si O2"
_cell_formula_units_Z 14
_cell_length_a 17.687480
_cell_length_b 13.906311
_cell_length_c 11.595694
_cell_angle_alpha 153.299437
_cell_angle_beta 150.606595
_cell_angle_gamma 30.533497
_cell_volume 582.781022
_symmetry_space_group_name_H-M "P -1"
_symmetry_group_IT_number 2
_symmetry_cell_setting 'triclinic'
loop_
_space_group_symop_operation_xyz
x,y,z
-x,-y,-z
loop_
_atom_site_type_symbol
_atom_site_label
_atom_site_fract_x
_atom_site_fract_y
_atom_site_fract_z
Si Si1 0.411940 0.786798 0.241840
Si Si2 0.802760 0.720968 0.290175
Si Si3 0.910170 0.143776 0.246182
Si Si4 0.436125 0.262604 0.835629
Si Si5 0.426152 0.779044 0.507543
Si Si6 0.717287 0.369512 0.440662
Si Si7 0.839481 0.284531 0.755059
O O1 0.544253 0.628743 0.149500
O O2 0.403634 0.675154 0.237483
O O3 0.474007 0.992846 0.574418
O O4 0.227225 0.889285 0.053490
O O5 0.750379 0.623693 0.234575
O O6 0.957344 0.800687 0.598476
O O7 0.636475 0.944199 0.274918
O O8 0.853565 0.532569 0.055356
O O9 0.830137 0.344643 0.450412
O O10 0.999119 0.908340 0.182471
O O11 0.576499 0.265058 0.115384
O O12 0.623966 0.642260 0.645355
O O13 0.328922 0.697484 0.386566
O O14 0.829490 0.235586 0.553882
#
# Coordination Sequence:
#
# PCOD8018561 Si02
#       7
#     2   2   2   2   2   2   2
#     4   9  20  43  64  94 128 157 221 254 315 372
#     4  10  22  42  60  99 125 165 213 242 335 361
#     4  10  24  44  64  93 130 169 203 266 310 379
#     4   9  19  38  67  91 119 165 208 259 306 370
#     4  10  22  40  67  95 122 165 208 270 303 368
#     4  11  22  43  66  95 126 164 218 257 315 366
#     4  11  23  43  64  93 131 169 207 258 314 380
#
# _framework density 24.022743999999999
#
# number of rings (size 3 to 8) (size 9 to 14) (size 15 to 20)
#    0.000    2.000    1.429    0.857    0.000    8.571 
#   23.143    3.571    0.000    0.000    0.000    0.000 
#    0.000    0.000    0.000    0.000    0.000    0.000 
#
# Total GULP energy -173495.451761 kJ/mol
# GULP energy per Si atom -12392.532269 kJ/mol
# Density = 2.396807 g / cm^3
# Si number density = 24.022744 Si / 1000 Ang^3
#
#
#
# Elastic Constant Matrix: (Units=GPa)
#
#
# Indices 1 2 3 4 5 6 
#
# 1 115.2458 12.7592 35.4518 -16.6851 9.9138 1.4726
# 2 12.7592 92.8490 19.1216 -14.6683 6.5881 -5.5245
# 3 35.4518 19.1216 85.4366 -8.3000 -0.3303 6.6871
# 4 -16.6851 -14.6683 -8.3000 30.8643 0.7348 -10.1086
# 5 9.9138 6.5881 -0.3303 0.7348 34.0677 -4.7331
# 6 1.4726 -5.5245 6.6871 -10.1086 -4.7331 38.7406
#
#
#
# Elastic Compliance Matrix: (Units=1/GPa)
#
#
# Indices 1 2 3 4 5 6 
#
# 1 0.011008 0.000579 -0.004278 0.005636 -0.003273 0.001473
# 2 0.000579 0.012733 -0.002722 0.006929 -0.002280 0.003793
# 3 -0.004278 -0.002722 0.014237 -0.000690 0.001553 -0.002674
# 4 0.005636 0.006929 -0.000690 0.042436 -0.002278 0.011687
# 5 -0.003273 -0.002280 0.001553 -0.002278 0.031193 0.002748
# 6 0.001473 0.003793 -0.002674 0.011687 0.002748 0.030144
#
#
# Mechanical properties :
#
#
# Convention : Reuss Voigt Hill
#
# Bulk Modulus (GPa) = 39.78509 47.57738 43.68123
# Shear Modulus (GPa) = 30.68005 35.81444 33.24725
#
# Velocity S-wave (km/s) = 3.57757 3.86535 3.72424
# Velocity P-wave (km/s) = 5.80195 6.30630 6.05937
#
# Compressibility (1/GPa) = 0.02513504
#
# Stress axis : x y z
#
# Youngs Moduli (GPa) = 90.84641 78.53357 70.23925
#
# Poissons Ratio (x) = -0.04543 0.30045
# Poissons Ratio (y) = -0.05255 0.19123
# Poissons Ratio (z) = 0.38860 0.21381
#
# Static dielectric constant tensor:
#      x y z
#    x 4.900630 -0.097660 -0.014900 
#    y -0.097660 4.281150 0.216390 
#    z -0.014900 0.216390 4.172670 
# 
# 
# High freq. dielectric constant tensor:
#      x y z
#    x 1.975860 -0.010750 -0.005000 
#    y -0.010750 1.943340 0.024790 
#    z -0.005000 0.024790 1.938730 
# 
# From -- ./inp_files/465982.got.cif
#   From: 2010.06.25/outbox.cif.g09.slc.cpg/sg2_233_cif.got.tgz:465982.got - 2010.06.27 13:26:56.
