data_PCOD8018336
_publ_section_title
;
Structure prediction by ZEFSAII (Michael W. Deem and Ramdas Pophale) SiO2 
 PCOD8018336
Probable space group: P -1
;
_chemical_formula_sum "Si O2"
_cell_formula_units_Z 16
_cell_length_a 11.524756
_cell_length_b 5.307469
_cell_length_c 20.871886
_cell_angle_alpha 115.463793
_cell_angle_beta 46.278875
_cell_angle_gamma 115.870949
_cell_volume 813.864603
_symmetry_space_group_name_H-M "P -1"
_symmetry_group_IT_number 2
_symmetry_cell_setting 'triclinic'
loop_
_space_group_symop_operation_xyz
x,y,z
-x,-y,-z
loop_
_atom_site_type_symbol
_atom_site_label
_atom_site_fract_x
_atom_site_fract_y
_atom_site_fract_z
Si Si1 0.246807 0.277791 0.373148
Si Si2 0.672614 0.264087 0.697461
Si Si3 0.021086 0.064146 0.653546
Si Si4 0.070024 0.335782 0.011384
Si Si5 0.329609 0.202607 0.061207
Si Si6 0.939952 0.525008 0.419989
Si Si7 0.430685 0.374148 0.908823
Si Si8 0.124972 0.650351 0.147755
O O1 0.374221 0.552168 0.324619
O O2 0.115368 0.377471 0.479828
O O3 0.347215 0.071843 0.349491
O O4 0.150361 0.080770 0.331464
O O5 0.560147 0.274882 0.802672
O O6 0.863160 0.408094 0.652815
O O7 0.128701 0.302227 0.591397
O O8 0.993237 0.223770 0.746548
O O9 0.122474 0.817128 0.602434
O O10 0.019542 0.450730 0.111822
O O11 0.267740 0.400110 0.935368
O O12 0.000000 0.500000 0.000000
O O13 0.000000 0.000000 0.000000
O O14 0.490350 0.317226 0.056237
O O15 0.227098 0.457662 0.127669
O O16 0.235207 0.913245 0.096602
O O17 0.380950 0.149600 0.962372
#
# Coordination Sequence:
#
# PCOD8018336 Si02
#       8
#     2   2   2   2   2   2   2   2
#     4  10  18  29  45  72 114 147 164 199 266 339
#     4  10  18  28  46  69 100 138 177 209 243 315
#     4  10  17  27  47  70 100 138 177 209 243 315
#     4  11  25  42  58  74 107 151 192 238 274 315
#     4  10  21  34  54  82 115 137 170 226 284 345
#     4  10  18  29  45  72 114 147 164 199 266 339
#     4  10  22  36  56  82 109 146 186 225 280 327
#     4  11  21  37  57  82 109 146 186 225 280 327
#
# _framework density 19.659289999999999
#
# number of rings (size 3 to 8) (size 9 to 14) (size 15 to 20)
#    0.000    1.750    0.000    9.000    0.000    8.500 
#    0.000    0.000    0.000    0.000    0.000    0.000 
#    0.000   34.000    0.000    0.000    0.000    0.000 
#
# Total GULP energy -198248.572938 kJ/mol
# GULP energy per Si atom -12390.535809 kJ/mol
# Density = 1.961454 g / cm^3
# Si number density = 19.659290 Si / 1000 Ang^3
#
#
#
# Elastic Constant Matrix: (Units=GPa)
#
#
# Indices 1 2 3 4 5 6 
#
# 1 80.1775 50.9122 27.8936 3.9433 3.2888 -6.0532
# 2 50.9122 148.1552 35.1480 13.1794 8.4028 -36.4107
# 3 27.8936 35.1480 134.6470 20.9409 13.2942 -5.5501
# 4 3.9433 13.1794 20.9409 27.0490 -1.2974 4.5935
# 5 3.2888 8.4028 13.2942 -1.2974 19.2860 1.5909
# 6 -6.0532 -36.4107 -5.5501 4.5935 1.5909 36.9040
#
#
#
# Elastic Compliance Matrix: (Units=1/GPa)
#
#
# Indices 1 2 3 4 5 6 
#
# 1 0.017234 -0.007050 -0.002870 0.004163 0.002820 -0.005200
# 2 -0.007050 0.013561 0.000487 -0.008600 -0.006747 0.013658
# 3 -0.002870 0.000487 0.010068 -0.008464 -0.007471 0.002900
# 4 0.004163 -0.008600 -0.008464 0.050465 0.013582 -0.015942
# 5 0.002820 -0.006747 -0.007471 0.013582 0.061335 -0.011653
# 6 -0.005200 0.013658 0.002900 -0.015942 -0.011653 0.042643
#
#
# Mechanical properties :
#
#
# Convention : Reuss Voigt Hill
#
# Bulk Modulus (GPa) = 45.45965 65.65414 55.55690
# Shear Modulus (GPa) = 22.57295 33.24953 27.91124
#
# Velocity S-wave (km/s) = 3.39220 4.11699 3.77204
# Velocity P-wave (km/s) = 6.20618 7.48785 6.87694
#
# Compressibility (1/GPa) = 0.02199753
#
# Stress axis : x y z
#
# Youngs Moduli (GPa) = 58.02334 73.74098 99.32623
#
# Poissons Ratio (x) = 0.51986 0.28509
# Poissons Ratio (y) = 0.40905 -0.04839
# Poissons Ratio (z) = 0.16654 -0.03592
#
# Static dielectric constant tensor:
#      x y z
#    x 3.532980 -0.791620 0.188760 
#    y -0.791620 4.449760 0.075770 
#    z 0.188760 0.075770 3.555060 
# 
# 
# High freq. dielectric constant tensor:
#      x y z
#    x 1.712290 -0.053510 0.020400 
#    y -0.053510 1.777840 0.012720 
#    z 0.020400 0.012720 1.766170 
# 
# From -- ./inp_files/592609.got.cif
#   From: 2010.06.25/outbox.cif.g09.slc.cpg/sg2_297_cif.got.tgz:592609.got - 2010.06.27 13:26:56.
