data_PCOD8018396
_publ_section_title
;
Structure prediction by ZEFSAII (Michael W. Deem and Ramdas Pophale) SiO2 
 PCOD8018396
Probable space group: P -1
;
_chemical_formula_sum "Si O2"
_cell_formula_units_Z 14
_cell_length_a 9.287362
_cell_length_b 10.731069
_cell_length_c 13.895311
_cell_angle_alpha 148.917519
_cell_angle_beta 76.680299
_cell_angle_gamma 85.679759
_cell_volume 584.365062
_symmetry_space_group_name_H-M "P -1"
_symmetry_group_IT_number 2
_symmetry_cell_setting 'triclinic'
loop_
_space_group_symop_operation_xyz
x,y,z
-x,-y,-z
loop_
_atom_site_type_symbol
_atom_site_label
_atom_site_fract_x
_atom_site_fract_y
_atom_site_fract_z
Si Si1 0.851346 0.520380 0.968231
Si Si2 0.796682 0.087746 0.322869
Si Si3 0.840259 0.436627 0.409123
Si Si4 0.558335 0.673183 0.259440
Si Si5 0.786653 0.761021 0.820666
Si Si6 0.602740 0.428110 0.287285
Si Si7 0.217491 0.673424 0.330599
O O1 0.697661 0.527454 0.055811
O O2 0.775521 0.826598 0.129358
O O3 0.904325 0.294643 0.721909
O O4 0.000000 0.500000 0.000000
O O5 0.904306 0.133764 0.254677
O O6 0.607026 0.384048 0.549569
O O7 0.881603 0.060761 0.400461
O O8 0.776516 0.690896 0.664052
O O9 0.678744 0.533467 0.427333
O O10 0.007254 0.369532 0.275735
O O11 0.660428 0.485377 0.213528
O O12 0.389664 0.656264 0.251129
O O13 0.500000 0.000000 0.500000
O O14 0.722416 0.615780 0.809564
O O15 0.665331 0.100462 0.077857
#
# Coordination Sequence:
#
# PCOD8018396 Si02
#       7
#     2   2   2   2   2   2   2
#     4  12  26  43  69  97 129 176 223 265 327 383
#     4  10  23  43  63  97 133 167 219 268 320 396
#     4  10  22  40  65  98 133 163 212 271 331 377
#     4  11  24  48  64  96 133 173 222 267 317 393
#     4  10  23  41  65 101 127 167 215 268 330 386
#     4  11  22  39  69  91 133 170 214 267 322 385
#     4  10  23  45  70  90 136 169 215 273 322 384
#
# _framework density 23.957626000000001
#
# number of rings (size 3 to 8) (size 9 to 14) (size 15 to 20)
#    0.000    1.429    2.857    2.143    4.000    8.000 
#    2.571    0.000    0.000    0.000    0.000    0.000 
#    0.000    0.000    0.000    0.000    0.000    0.000 
#
# Total GULP energy -173528.233807 kJ/mol
# GULP energy per Si atom -12394.873843 kJ/mol
# Density = 2.390310 g / cm^3
# Si number density = 23.957626 Si / 1000 Ang^3
#
#
#
# Elastic Constant Matrix: (Units=GPa)
#
#
# Indices 1 2 3 4 5 6 
#
# 1 100.4885 37.5762 11.1017 -12.8783 29.1736 10.4656
# 2 37.5762 52.2072 6.1432 -1.6011 26.7795 8.2470
# 3 11.1017 6.1432 60.6246 -8.3222 23.7543 9.3940
# 4 -12.8783 -1.6011 -8.3222 28.6763 -5.1377 14.8371
# 5 29.1736 26.7795 23.7543 -5.1377 30.8139 -9.3649
# 6 10.4656 8.2470 9.3940 14.8371 -9.3649 43.8574
#
#
#
# Elastic Compliance Matrix: (Units=1/GPa)
#
#
# Indices 1 2 3 4 5 6 
#
# 1 0.384477 0.853948 0.905732 0.696895 -2.027030 -1.114924
# 2 0.853948 2.048554 2.118314 1.607755 -4.743832 -2.599587
# 3 0.905732 2.118314 2.240229 1.696891 -4.972276 -2.730110
# 4 0.696895 1.607755 1.696891 1.334753 -3.777929 -2.090347
# 5 -2.027030 -4.743832 -4.972276 -3.777929 11.130052 6.095482
# 6 -1.114924 -2.599587 -2.730110 -2.090347 6.095482 3.371208
#
#
# Mechanical properties :
#
#
# Convention : Reuss Voigt Hill
#
# Bulk Modulus (GPa) = 0.08046 35.88473 17.98259
# Shear Modulus (GPa) = 0.29592 31.23612 15.76602
#
# Velocity S-wave (km/s) = 0.35183 3.61474 2.56809
# Velocity P-wave (km/s) = 0.44576 5.69498 4.03927
#
# Compressibility (1/GPa) = 12.42924661
#
# Stress axis : x y z
#
# Youngs Moduli (GPa) = 2.60094 0.48815 0.44638
#
# Poissons Ratio (x) = -0.41685 -0.40430
# Poissons Ratio (y) = -2.22106 -0.94558
# Poissons Ratio (z) = -2.35575 -1.03405
#
# Static dielectric constant tensor:
#      x y z
#    x 4.383770 0.184570 0.421750 
#    y 0.184570 4.724200 -0.023960 
#    z 0.421750 -0.023960 4.353000 
# 
# 
# High freq. dielectric constant tensor:
#      x y z
#    x 1.949480 0.009970 0.026330 
#    y 0.009970 1.961340 -0.005000 
#    z 0.026330 -0.005000 1.944020 
# 
# From -- ./inp_files/501133.got.cif
#   From: 2010.06.25/outbox.cif.g09.slc.cpg/sg2_251_cif.got.tgz:501133.got - 2010.06.27 13:26:56.
