data_PCOD8018365
_publ_section_title
;
Structure prediction by ZEFSAII (Michael W. Deem and Ramdas Pophale) SiO2 
 PCOD8018365
Probable space group: P -1
;
_chemical_formula_sum "Si O2"
_cell_formula_units_Z 10
_cell_length_a 10.663125
_cell_length_b 6.471046
_cell_length_c 9.743150
_cell_angle_alpha 78.163580
_cell_angle_beta 133.530125
_cell_angle_gamma 75.363707
_cell_volume 396.782027
_symmetry_space_group_name_H-M "P -1"
_symmetry_group_IT_number 2
_symmetry_cell_setting 'triclinic'
loop_
_space_group_symop_operation_xyz
x,y,z
-x,-y,-z
loop_
_atom_site_type_symbol
_atom_site_label
_atom_site_fract_x
_atom_site_fract_y
_atom_site_fract_z
Si Si1 0.530334 0.759653 0.627725
Si Si2 0.923172 0.544031 0.091801
Si Si3 0.536760 0.745885 0.122830
Si Si4 0.724186 0.445506 0.557775
Si Si5 0.150708 0.752212 0.735724
O O1 0.655803 0.518320 0.654170
O O2 0.321026 0.764624 0.503441
O O3 0.500000 0.000000 0.500000
O O4 0.668889 0.715441 0.874660
O O5 0.988777 0.282450 0.253465
O O6 0.026869 0.669542 0.237890
O O7 0.000000 0.500000 0.000000
O O8 0.597108 0.703551 0.335691
O O9 0.735012 0.497576 0.238481
O O10 0.321800 0.769586 0.942249
O O11 0.500000 0.000000 0.000000
O O12 0.000000 0.000000 0.500000
#
# Coordination Sequence:
#
# PCOD8018365 Si02
#       5
#     2   2   2   2   2
#     4  10  22  40  65  94 137 173 222 287 342 411
#     4  10  22  42  67  99 135 177 233 285 348 412
#     4  11  25  43  71 101 141 186 235 289 353 417
#     4  10  22  41  63  96 132 176 228 276 350 411
#     4  11  25  46  70 101 146 185 234 296 348 418
#
# _framework density 25.202753000000001
#
# number of rings (size 3 to 8) (size 9 to 14) (size 15 to 20)
#    0.000    1.600    2.000    1.200    2.800    7.200 
#    0.000    0.000    0.000    0.000    0.000    0.000 
#    0.000    0.000    0.000    0.000    0.000    0.000 
#
# Total GULP energy -123880.984857 kJ/mol
# GULP energy per Si atom -12388.098486 kJ/mol
# Density = 2.514539 g / cm^3
# Si number density = 25.202753 Si / 1000 Ang^3
#
#
#
# Elastic Constant Matrix: (Units=GPa)
#
#
# Indices 1 2 3 4 5 6 
#
# 1 85.1067 44.7373 44.2482 -2.5642 -14.5513 39.3621
# 2 44.7373 144.9954 96.2440 8.6037 20.5026 66.3107
# 3 44.2482 96.2440 204.9658 24.4513 -0.2977 43.6435
# 4 -2.5642 8.6037 24.4513 62.9581 20.1858 9.9669
# 5 -14.5513 20.5026 -0.2977 20.1858 40.9099 -2.1772
# 6 39.3621 66.3107 43.6435 9.9669 -2.1772 59.3289
#
#
#
# Elastic Compliance Matrix: (Units=1/GPa)
#
#
# Indices 1 2 3 4 5 6 
#
# 1 0.018911 -0.001146 -0.001517 0.001131 0.006194 -0.010113
# 2 -0.001146 0.026109 -0.007880 0.009706 -0.019668 -0.024976
# 3 -0.001517 -0.007880 0.008533 -0.005013 0.006191 0.004607
# 4 0.001131 0.009706 -0.005013 0.023992 -0.017005 -0.012566
# 5 0.006194 -0.019668 0.006191 -0.017005 0.045890 0.017860
# 6 -0.010113 -0.024976 0.004607 -0.012566 0.017860 0.050857
#
#
# Mechanical properties :
#
#
# Convention : Reuss Voigt Hill
#
# Bulk Modulus (GPa) = 30.80178 89.50298 60.15238
# Shear Modulus (GPa) = 24.24819 49.29527 36.77173
#
# Velocity S-wave (km/s) = 3.10518 4.42741 3.82388
# Velocity P-wave (km/s) = 5.01042 7.85660 6.58902
#
# Compressibility (1/GPa) = 0.03246565
#
# Stress axis : x y z
#
# Youngs Moduli (GPa) = 52.87830 38.30142 117.19439
#
# Poissons Ratio (x) = 0.04389 0.17780
# Poissons Ratio (y) = 0.06060 0.92355
# Poissons Ratio (z) = 0.08022 0.30183
#
# Static dielectric constant tensor:
#      x y z
#    x 4.902300 0.573820 0.252850 
#    y 0.573820 4.997320 0.758090 
#    z 0.252850 0.758090 5.666540 
# 
# 
# High freq. dielectric constant tensor:
#      x y z
#    x 1.998640 0.038530 -0.014140 
#    y 0.038530 1.994020 0.023310 
#    z -0.014140 0.023310 2.024040 
# 
# From -- ./inp_files/20001.got.cif
#   From: 2010.06.25/outbox.cif.g09.slc.cpg/sg2_11_cif.got.tgz:20001.got - 2010.06.27 13:26:56.
