data_PCOD8018389
_publ_section_title
;
Structure prediction by ZEFSAII (Michael W. Deem and Ramdas Pophale) SiO2 
 PCOD8018389
Probable space group: P -1
;
_chemical_formula_sum "Si O2"
_cell_formula_units_Z 16
_cell_length_a 6.160846
_cell_length_b 6.140683
_cell_length_c 23.253357
_cell_angle_alpha 64.487756
_cell_angle_beta 64.847411
_cell_angle_gamma 89.108294
_cell_volume 703.387527
_symmetry_space_group_name_H-M "P -1"
_symmetry_group_IT_number 2
_symmetry_cell_setting 'triclinic'
loop_
_space_group_symop_operation_xyz
x,y,z
-x,-y,-z
loop_
_atom_site_type_symbol
_atom_site_label
_atom_site_fract_x
_atom_site_fract_y
_atom_site_fract_z
Si Si1 0.669153 0.496615 0.336995
Si Si2 0.041933 0.874040 0.598214
Si Si3 0.300218 0.449255 0.153163
Si Si4 0.865059 0.009232 0.217312
Si Si5 0.036829 0.862470 0.098849
Si Si6 0.810041 0.639412 0.035654
Si Si7 0.819450 0.646332 0.532658
Si Si8 0.442128 0.266970 0.273464
O O1 0.806381 0.280608 0.362873
O O2 0.452347 0.508168 0.405706
O O3 0.570919 0.443243 0.289507
O O4 0.852990 0.762669 0.285298
O O5 0.952065 0.733939 0.566498
O O6 0.803398 0.915920 0.655291
O O7 0.211939 0.134948 0.532387
O O8 0.208606 0.703182 0.128176
O O9 0.540116 0.465660 0.083833
O O10 0.365616 0.440627 0.213585
O O11 0.105433 0.207809 0.184232
O O12 0.618199 0.104112 0.245403
O O13 0.865809 0.949311 0.156348
O O14 0.875918 0.688982 0.089565
O O15 0.198601 0.104059 0.023696
O O16 0.000000 0.500000 0.000000
O O17 0.000000 0.500000 0.500000
#
# Coordination Sequence:
#
# PCOD8018389 Si02
#       8
#     2   2   2   2   2   2   2   2
#     4  11  24  43  66  95 132 173 217 266 322 383
#     4  10  22  41  65  95 128 169 219 268 319 380
#     4  12  25  43  67  96 131 169 213 263 321 383
#     4  12  25  41  65  97 130 170 215 263 321 383
#     4  11  25  44  68  97 129 167 214 264 322 382
#     4  11  25  47  70  96 130 168 213 265 321 384
#     4  10  22  40  65  96 130 169 215 269 324 378
#     4  11  24  43  65  92 132 171 216 267 320 382
#
# _framework density 22.747062
#
# number of rings (size 3 to 8) (size 9 to 14) (size 15 to 20)
#    0.000    1.000    0.000    6.750    0.000   10.500 
#    0.000    1.250    0.000    0.000    0.000    0.000 
#    0.000    0.000    0.000    0.000    0.000    0.000 
#
# Total GULP energy -198439.988646 kJ/mol
# GULP energy per Si atom -12402.499290 kJ/mol
# Density = 2.269529 g / cm^3
# Si number density = 22.747062 Si / 1000 Ang^3
#
#
#
# Elastic Constant Matrix: (Units=GPa)
#
#
# Indices 1 2 3 4 5 6 
#
# 1 115.9256 64.5894 82.2858 -1.3760 3.4070 -14.2899
# 2 64.5894 122.5358 78.2354 13.1309 -6.0246 -15.3458
# 3 82.2858 78.2354 159.9477 6.1468 -7.7044 0.1000
# 4 -1.3760 13.1309 6.1468 49.8281 -14.3132 -8.9520
# 5 3.4070 -6.0246 -7.7044 -14.3132 48.3513 -5.4548
# 6 -14.2899 -15.3458 0.1000 -8.9520 -5.4548 23.8310
#
#
#
# Elastic Compliance Matrix: (Units=1/GPa)
#
#
# Indices 1 2 3 4 5 6 
#
# 1 0.016862 -0.003689 -0.007051 0.003744 -0.000645 0.009024
# 2 -0.003689 0.014418 -0.005022 -0.001606 0.001553 0.006845
# 3 -0.007051 -0.005022 0.012428 -0.001730 0.000429 -0.008066
# 4 0.003744 -0.001606 -0.001730 0.025444 0.008221 0.012658
# 5 -0.000645 0.001553 0.000429 0.008221 0.024472 0.009301
# 6 0.009024 0.006845 -0.008066 0.012658 0.009301 0.058699
#
#
# Mechanical properties :
#
#
# Convention : Reuss Voigt Hill
#
# Bulk Modulus (GPa) = 82.07661 94.29224 88.18442
# Shear Modulus (GPa) = 26.60871 35.95533 31.28202
#
# Velocity S-wave (km/s) = 3.42389 3.98006 3.71241
# Velocity P-wave (km/s) = 7.19662 7.91604 7.56489
#
# Compressibility (1/GPa) = 0.01218374
#
# Stress axis : x y z
#
# Youngs Moduli (GPa) = 59.30384 69.36011 80.46329
#
# Poissons Ratio (x) = 0.25588 0.56734
# Poissons Ratio (y) = 0.21878 0.40408
# Poissons Ratio (z) = 0.41815 0.34832
#
# Static dielectric constant tensor:
#      x y z
#    x 4.005000 -0.052820 -0.020820 
#    y -0.052820 4.071590 0.118840 
#    z -0.020820 0.118840 4.898920 
# 
# 
# High freq. dielectric constant tensor:
#      x y z
#    x 1.890100 -0.009940 0.000780 
#    y -0.009940 1.892780 0.002190 
#    z 0.000780 0.002190 1.932240 
# 
# From -- ./inp_files/10569.got.cif
#   From: 2010.06.25/outbox.cif.g09.slc.cpg/sg2_6_cif.got.tgz:10569.got - 2010.06.27 13:26:56.
