data_PCOD8018636
_publ_section_title
;
Structure prediction by ZEFSAII (Michael W. Deem and Ramdas Pophale) SiO2 
 PCOD8018636
Probable space group: P -1
;
_chemical_formula_sum "Si O2"
_cell_formula_units_Z 16
_cell_length_a 12.110760
_cell_length_b 19.484239
_cell_length_c 8.589503
_cell_angle_alpha 49.935249
_cell_angle_beta 48.434907
_cell_angle_gamma 28.798503
_cell_volume 719.569247
_symmetry_space_group_name_H-M "P -1"
_symmetry_group_IT_number 2
_symmetry_cell_setting 'triclinic'
loop_
_space_group_symop_operation_xyz
x,y,z
-x,-y,-z
loop_
_atom_site_type_symbol
_atom_site_label
_atom_site_fract_x
_atom_site_fract_y
_atom_site_fract_z
Si Si1 0.137056 0.230667 0.531135
Si Si2 0.305404 0.796864 0.822506
Si Si3 0.672213 0.522428 0.415152
Si Si4 0.443430 0.250240 0.625701
Si Si5 0.816785 0.976698 0.865413
Si Si6 0.931376 0.725519 0.111776
Si Si7 0.423428 0.473968 0.845459
Si Si8 0.362481 0.937341 0.759575
O O1 0.027090 0.291477 0.717174
O O2 0.367037 0.184087 0.373149
O O3 0.940301 0.356644 0.408772
O O4 0.205113 0.096669 0.617145
O O5 0.521525 0.724168 0.614969
O O6 0.248411 0.902519 0.844751
O O7 0.074577 0.888982 0.800858
O O8 0.374989 0.673024 0.028876
O O9 0.666148 0.624405 0.339927
O O10 0.498450 0.541416 0.651405
O O11 0.592168 0.567187 0.246282
O O12 0.261168 0.255633 0.784081
O O13 0.702392 0.093414 0.669776
O O14 0.835791 0.867528 0.937630
O O15 0.638255 0.064759 0.050324
O O16 0.177803 0.584954 0.004479
#
# Coordination Sequence:
#
# PCOD8018636 Si02
#       8
#     2   2   2   2   2   2   2   2
#     4  10  22  42  66  99 133 174 214 272 327 385
#     4  12  24  44  70  98 135 174 223 270 326 398
#     4  11  26  45  68  98 133 171 224 273 330 394
#     4  12  26  42  68 101 133 176 223 269 325 398
#     4  11  25  43  67  98 136 175 219 274 329 383
#     4  11  24  44  68  98 136 174 216 274 328 394
#     4  11  26  45  68 100 131 175 217 277 334 385
#     4  10  22  40  68  97 131 174 219 266 327 390
#
# _framework density 22.235526
#
# number of rings (size 3 to 8) (size 9 to 14) (size 15 to 20)
#    0.000    1.000    1.250    4.875    3.500    6.000 
#    0.000    0.000    0.000    0.000    0.000    0.000 
#    0.000    0.000    0.000    0.000    0.000    0.000 
#
# Total GULP energy -198514.344936 kJ/mol
# GULP energy per Si atom -12407.146559 kJ/mol
# Density = 2.218492 g / cm^3
# Si number density = 22.235526 Si / 1000 Ang^3
#
#
#
# Elastic Constant Matrix: (Units=GPa)
#
#
# Indices 1 2 3 4 5 6 
#
# 1 104.2604 43.4354 30.3162 -8.0161 -15.9405 1.8414
# 2 43.4354 93.9879 38.6892 0.9778 -4.6096 -10.9548
# 3 30.3162 38.6892 86.8345 2.7404 -5.2965 -5.1393
# 4 -8.0161 0.9778 2.7404 36.2872 -3.8797 -2.0052
# 5 -15.9405 -4.6096 -5.2965 -3.8797 30.0057 -6.4802
# 6 1.8414 -10.9548 -5.1393 -2.0052 -6.4802 40.2946
#
#
#
# Elastic Compliance Matrix: (Units=1/GPa)
#
#
# Indices 1 2 3 4 5 6 
#
# 1 0.013746 -0.005289 -0.002247 0.003966 0.006362 -0.001132
# 2 -0.005289 0.015485 -0.004839 -0.001084 -0.000631 0.003679
# 3 -0.002247 -0.004839 0.014577 -0.001365 0.000605 0.000676
# 4 0.003966 -0.001084 -0.001365 0.029290 0.005865 0.001751
# 5 0.006362 -0.000631 0.000605 0.005865 0.038802 0.006147
# 6 -0.001132 0.003679 0.000676 0.001751 0.006147 0.027031
#
#
# Mechanical properties :
#
#
# Convention : Reuss Voigt Hill
#
# Bulk Modulus (GPa) = 52.47247 56.66271 54.56759
# Shear Modulus (GPa) = 29.40601 32.82698 31.11650
#
# Velocity S-wave (km/s) = 3.64054 3.84647 3.74492
# Velocity P-wave (km/s) = 6.42814 6.72796 6.57976
#
# Compressibility (1/GPa) = 0.01905761
#
# Stress axis : x y z
#
# Youngs Moduli (GPa) = 72.75103 64.57833 68.60243
#
# Poissons Ratio (x) = 0.34154 0.15413
# Poissons Ratio (y) = 0.38476 0.33200
# Poissons Ratio (z) = 0.16345 0.31253
#
# Static dielectric constant tensor:
#      x y z
#    x 3.934010 0.085690 -0.034720 
#    y 0.085690 3.931080 -0.041260 
#    z -0.034720 -0.041260 4.117870 
# 
# 
# High freq. dielectric constant tensor:
#      x y z
#    x 1.880240 0.004330 -0.007080 
#    y 0.004330 1.880050 0.001930 
#    z -0.007080 0.001930 1.882560 
# 
# From -- ./inp_files/263448.got.cif
#   From: 2010.06.25/outbox.cif.g09.slc.cpg/sg2_132_cif.got.tgz:263448.got - 2010.06.27 13:26:56.
