data_PCOD8018634
_publ_section_title
;
Structure prediction by ZEFSAII (Michael W. Deem and Ramdas Pophale) SiO2 
 PCOD8018634
Probable space group: P -1
;
_chemical_formula_sum "Si O2"
_cell_formula_units_Z 16
_cell_length_a 19.194600
_cell_length_b 9.161391
_cell_length_c 12.368320
_cell_angle_alpha 120.557115
_cell_angle_beta 132.258997
_cell_angle_gamma 29.289404
_cell_volume 768.961115
_symmetry_space_group_name_H-M "P -1"
_symmetry_group_IT_number 2
_symmetry_cell_setting 'triclinic'
loop_
_space_group_symop_operation_xyz
x,y,z
-x,-y,-z
loop_
_atom_site_type_symbol
_atom_site_label
_atom_site_fract_x
_atom_site_fract_y
_atom_site_fract_z
Si Si1 0.443777 0.814288 0.511720
Si Si2 0.200317 0.144073 0.179559
Si Si3 0.271789 0.378653 0.221583
Si Si4 0.657286 0.146294 0.164532
Si Si5 0.283270 0.734364 0.935208
Si Si6 0.870104 0.524661 0.095113
Si Si7 0.994011 0.926404 0.757784
Si Si8 0.706650 0.160617 0.461353
O O1 0.536473 0.858984 0.631248
O O2 0.601405 0.450737 0.532475
O O3 0.331393 0.958005 0.558418
O O4 0.329078 0.956364 0.342166
O O5 0.207328 0.315314 0.196779
O O6 0.011314 0.401896 0.122044
O O7 0.245738 0.926841 0.062062
O O8 0.133883 0.731372 0.222862
O O9 0.276901 0.327392 0.080520
O O10 0.737063 0.152534 0.161490
O O11 0.647601 0.249959 0.309832
O O12 0.777578 0.802778 0.177710
O O13 0.470088 0.378092 0.015603
O O14 0.160550 0.756219 0.813699
O O15 0.953699 0.247302 0.143777
O O16 0.904478 0.921123 0.584143
#
# Coordination Sequence:
#
# PCOD8018634 Si02
#       8
#     2   2   2   2   2   2   2   2
#     4  10  22  40  68  97 126 170 214 266 316 377
#     4  12  21  44  68  98 128 168 219 264 313 386
#     4  11  23  38  67 100 128 164 218 266 318 371
#     4  11  25  44  65  93 135 171 207 266 326 381
#     4  11  24  43  68  95 130 172 212 262 323 381
#     4  12  24  40  67  98 131 167 217 266 317 377
#     4  11  24  41  65  96 126 173 218 263 313 379
#     4  10  22  43  65  94 133 169 211 264 322 377
#
# _framework density 20.807293000000001
#
# number of rings (size 3 to 8) (size 9 to 14) (size 15 to 20)
#    0.000    1.000    5.000    1.875    1.750    1.500 
#    0.000    0.000    0.000    0.000    0.000    0.000 
#    0.000    0.000    0.000    0.000    0.000    0.000 
#
# Total GULP energy -198356.823515 kJ/mol
# GULP energy per Si atom -12397.301470 kJ/mol
# Density = 2.075993 g / cm^3
# Si number density = 20.807293 Si / 1000 Ang^3
#
#
#
# Elastic Constant Matrix: (Units=GPa)
#
#
# Indices 1 2 3 4 5 6 
#
# 1 169.3976 65.1384 112.0819 4.4770 11.0017 3.3931
# 2 65.1384 77.9960 35.0283 5.6218 8.1040 1.5930
# 3 112.0819 35.0283 153.1463 -2.9645 1.7723 -11.3239
# 4 4.4770 5.6218 -2.9645 25.9063 -0.0005 -1.4767
# 5 11.0017 8.1040 1.7723 -0.0005 41.2067 -5.1721
# 6 3.3931 1.5930 -11.3239 -1.4767 -5.1721 26.6749
#
#
#
# Elastic Compliance Matrix: (Units=1/GPa)
#
#
# Indices 1 2 3 4 5 6 
#
# 1 0.016768 -0.008446 -0.010874 -0.002710 -0.003229 -0.007021
# 2 -0.008446 0.019454 0.001715 -0.002555 -0.001622 0.000185
# 3 -0.010874 0.001715 0.014748 0.003669 0.002976 0.008322
# 4 -0.002710 -0.002555 0.003669 0.040306 0.001647 0.004605
# 5 -0.003229 -0.001622 0.002976 0.001647 0.026192 0.006941
# 6 -0.007021 0.000185 0.008322 0.004605 0.006941 0.043504
#
#
# Mechanical properties :
#
#
# Convention : Reuss Voigt Hill
#
# Bulk Modulus (GPa) = 63.45808 91.67079 77.56444
# Shear Modulus (GPa) = 24.82195 31.31031 28.06613
#
# Velocity S-wave (km/s) = 3.45765 3.88335 3.67667
# Velocity P-wave (km/s) = 6.81943 8.01623 7.44193
#
# Compressibility (1/GPa) = 0.01575843
#
# Stress axis : x y z
#
# Youngs Moduli (GPa) = 59.63827 51.40463 67.80670
#
# Poissons Ratio (x) = 0.43415 0.73734
# Poissons Ratio (y) = 0.50369 -0.11626
# Poissons Ratio (z) = 0.64851 -0.08814
#
# Static dielectric constant tensor:
#      x y z
#    x 3.996100 -0.057920 0.274310 
#    y -0.057920 3.636460 -0.219760 
#    z 0.274310 -0.219760 4.014960 
# 
# 
# High freq. dielectric constant tensor:
#      x y z
#    x 1.823390 0.001530 0.005280 
#    y 0.001530 1.799040 -0.017380 
#    z 0.005280 -0.017380 1.823550 
# 
# From -- ./inp_files/184199.got.cif
#   From: 2010.06.25/outbox.cif.g09.slc.cpg/sg2_93_cif.got.tgz:184199.got - 2010.06.27 13:26:56.
