data_PCOD8018484
_publ_section_title
;
Structure prediction by ZEFSAII (Michael W. Deem and Ramdas Pophale) SiO2 
 PCOD8018484
Probable space group: P -1
;
_chemical_formula_sum "Si O2"
_cell_formula_units_Z 16
_cell_length_a 6.570867
_cell_length_b 6.249442
_cell_length_c 25.023334
_cell_angle_alpha 55.334830
_cell_angle_beta 123.179540
_cell_angle_gamma 103.645546
_cell_volume 703.114974
_symmetry_space_group_name_H-M "P -1"
_symmetry_group_IT_number 2
_symmetry_cell_setting 'triclinic'
loop_
_space_group_symop_operation_xyz
x,y,z
-x,-y,-z
loop_
_atom_site_type_symbol
_atom_site_label
_atom_site_fract_x
_atom_site_fract_y
_atom_site_fract_z
Si Si1 0.658625 0.311449 0.163880
Si Si2 0.349733 0.868264 0.413016
Si Si3 0.241394 0.063914 0.082836
Si Si4 0.286535 0.479079 0.547528
Si Si5 0.371976 0.451410 0.323048
Si Si6 0.239298 0.155586 0.949515
Si Si7 0.987879 0.792343 0.282648
Si Si8 0.457120 0.463236 0.775692
O O1 0.391120 0.258050 0.111220
O O2 0.760201 0.570430 0.119367
O O3 0.625171 0.321883 0.221804
O O4 0.871430 0.086059 0.210947
O O5 0.378810 0.723309 0.494380
O O6 0.596522 0.792658 0.424348
O O7 0.123032 0.769976 0.362008
O O8 0.297345 0.175962 0.372261
O O9 0.402930 0.785057 0.138337
O O10 0.192965 0.204287 0.998890
O O11 0.980414 0.009135 0.079731
O O12 0.375218 0.494775 0.619309
O O13 0.000000 0.500000 0.500000
O O14 0.168743 0.689722 0.275112
O O15 0.379384 0.429688 0.262746
O O16 0.500000 0.000000 0.000000
O O17 0.773106 0.609188 0.280654
#
# Coordination Sequence:
#
# PCOD8018484 Si02
#       8
#     2   2   2   2   2   2   2   2
#     4  11  24  46  72  99 139 186 224 287 348 399
#     4  10  22  40  66  98 127 175 227 275 338 395
#     4  10  25  44  67 103 134 174 235 277 340 420
#     4  10  22  41  65  95 132 174 222 278 334 400
#     4  11  24  41  67  97 136 177 222 282 335 405
#     4  11  23  47  71  99 138 179 228 287 341 407
#     4  10  24  43  64  96 135 176 227 279 334 412
#     4  11  24  43  63 102 135 173 225 277 339 408
#
# _framework density 22.755880000000001
#
# number of rings (size 3 to 8) (size 9 to 14) (size 15 to 20)
#    0.000    1.500    1.250    2.250    3.500    7.000 
#    2.250    0.000    0.000    0.000    0.000    0.000 
#    0.000    0.000    0.000    0.000    0.000    0.000 
#
# Total GULP energy -198384.997069 kJ/mol
# GULP energy per Si atom -12399.062317 kJ/mol
# Density = 2.270409 g / cm^3
# Si number density = 22.755880 Si / 1000 Ang^3
#
#
#
# Elastic Constant Matrix: (Units=GPa)
#
#
# Indices 1 2 3 4 5 6 
#
# 1 110.9260 54.3951 46.0501 1.5656 10.8277 -1.9535
# 2 54.3951 96.2375 34.3127 -5.9592 -0.4389 -8.8234
# 3 46.0501 34.3127 84.6748 3.0973 0.4389 -11.4156
# 4 1.5656 -5.9592 3.0973 30.4708 1.8797 4.0864
# 5 10.8277 -0.4389 0.4389 1.8797 48.5733 7.8230
# 6 -1.9535 -8.8234 -11.4156 4.0864 7.8230 32.8642
#
#
#
# Elastic Compliance Matrix: (Units=1/GPa)
#
#
# Indices 1 2 3 4 5 6 
#
# 1 0.014886 -0.006678 -0.005609 -0.001047 -0.002962 -0.002021
# 2 -0.006678 0.015450 -0.002455 0.003245 0.001168 0.002217
# 3 -0.005609 -0.002455 0.016623 -0.002577 0.000370 0.005014
# 4 -0.001047 0.003245 -0.002577 0.034364 -0.000355 -0.004274
# 5 -0.002962 0.001168 0.000370 -0.000355 0.022065 -0.004942
# 6 -0.002021 0.002217 0.005014 -0.004274 -0.004942 0.034353
#
#
# Mechanical properties :
#
#
# Convention : Reuss Voigt Hill
#
# Bulk Modulus (GPa) = 57.21867 62.37268 59.79567
# Shear Modulus (GPa) = 28.89334 32.85366 30.87350
#
# Velocity S-wave (km/s) = 3.56716 3.80379 3.68737
# Velocity P-wave (km/s) = 6.49349 6.83818 6.66806
#
# Compressibility (1/GPa) = 0.01747681
#
# Stress axis : x y z
#
# Youngs Moduli (GPa) = 67.17529 64.72362 60.15666
#
# Poissons Ratio (x) = 0.43222 0.33740
# Poissons Ratio (y) = 0.44860 0.14768
# Poissons Ratio (z) = 0.37676 0.15890
#
# Static dielectric constant tensor:
#      x y z
#    x 4.087340 -0.005270 0.141920 
#    y -0.005270 4.055800 0.093850 
#    z 0.141920 0.093850 4.221820 
# 
# 
# High freq. dielectric constant tensor:
#      x y z
#    x 1.893280 0.001980 0.009770 
#    y 0.001980 1.890200 0.008000 
#    z 0.009770 0.008000 1.910470 
# 
# From -- ./inp_files/14770.got.cif
#   From: 2010.06.25/outbox.cif.g09.slc.cpg/sg2_8_cif.got.tgz:14770.got - 2010.06.27 13:26:56.
