data_PCOD8018169
_publ_section_title
;
Structure prediction by ZEFSAII (Michael W. Deem and Ramdas Pophale) SiO2 
 PCOD8018169
Probable space group: P -1
;
_chemical_formula_sum "Si O2"
_cell_formula_units_Z 12
_cell_length_a 8.516706
_cell_length_b 9.017095
_cell_length_c 13.083865
_cell_angle_alpha 139.643785
_cell_angle_beta 118.937421
_cell_angle_gamma 61.954360
_cell_volume 560.204229
_symmetry_space_group_name_H-M "P -1"
_symmetry_group_IT_number 2
_symmetry_cell_setting 'triclinic'
loop_
_space_group_symop_operation_xyz
x,y,z
-x,-y,-z
loop_
_atom_site_type_symbol
_atom_site_label
_atom_site_fract_x
_atom_site_fract_y
_atom_site_fract_z
Si Si1 0.682965 0.083896 0.582621
Si Si2 0.498794 0.896943 0.056821
Si Si3 0.370993 0.742012 0.571820
Si Si4 0.124351 0.749170 0.910736
Si Si5 0.672657 0.450130 0.950053
Si Si6 0.003203 0.363140 0.533301
O O1 0.681912 0.196191 0.529260
O O2 0.678315 0.271085 0.766953
O O3 0.500000 0.000000 0.500000
O O4 0.844004 0.865446 0.531600
O O5 0.512248 0.080456 0.247133
O O6 0.319014 0.779936 0.943202
O O7 0.676558 0.695833 0.024576
O O8 0.500000 0.000000 0.000000
O O9 0.500000 0.500000 0.500000
O O10 0.184710 0.731374 0.566013
O O11 0.031576 0.554896 0.725568
O O12 0.147564 0.649343 0.980725
O O13 0.000000 0.000000 0.000000
O O14 0.500000 0.500000 0.000000
O O15 0.000000 0.500000 0.500000
#
# Coordination Sequence:
#
# PCOD8018169 Si02
#       6
#     2   2   2   2   2   2
#     4  12  23  42  68  97 133 176 218 275 334 390
#     4  11  22  41  64  91 125 167 213 264 319 385
#     4  12  25  43  66  99 134 173 220 272 329 395
#     4  11  22  41  64  91 125 167 213 264 319 385
#     4  10  22  40  63  91 124 168 215 263 325 392
#     4  12  25  43  66  99 134 173 220 272 329 395
#
# _framework density 21.420759
#
# number of rings (size 3 to 8) (size 9 to 14) (size 15 to 20)
#    0.000    0.667    0.000   10.500    0.000    0.000 
#    0.000    2.500    0.000    0.000    0.000    0.000 
#    0.000    0.000    0.000    0.000    0.000    0.000 
#
# Total GULP energy -148698.619376 kJ/mol
# GULP energy per Si atom -12391.551615 kJ/mol
# Density = 2.137200 g / cm^3
# Si number density = 21.420759 Si / 1000 Ang^3
#
#
#
# Elastic Constant Matrix: (Units=GPa)
#
#
# Indices 1 2 3 4 5 6 
#
# 1 78.5782 35.0523 -6.1008 -1.5230 -1.6409 -2.8694
# 2 35.0523 244.1308 51.7789 0.2278 -28.4973 -5.9998
# 3 -6.1008 51.7789 142.4335 3.1395 -19.7480 -2.2133
# 4 -1.5230 0.2278 3.1395 50.7651 0.6417 -14.5580
# 5 -1.6409 -28.4973 -19.7480 0.6417 37.0359 1.1847
# 6 -2.8694 -5.9998 -2.2133 -14.5580 1.1847 41.4230
#
#
#
# Elastic Compliance Matrix: (Units=1/GPa)
#
#
# Indices 1 2 3 4 5 6 
#
# 1 0.013904 -0.002321 0.001374 0.000615 -0.000478 0.000930
# 2 -0.002321 0.005117 -0.001539 0.000092 0.002998 0.000445
# 3 0.001374 -0.001539 0.008094 -0.000480 0.003199 0.000045
# 4 0.000615 0.000092 -0.000480 0.021987 -0.000788 0.007780
# 5 -0.000478 0.002998 0.003199 -0.000788 0.031025 -0.000592
# 6 0.000930 0.000445 0.000045 0.007780 -0.000592 0.027024
#
#
# Mechanical properties :
#
#
# Convention : Reuss Voigt Hill
#
# Bulk Modulus (GPa) = 45.16206 69.62260 57.39233
# Shear Modulus (GPa) = 41.83953 51.47226 46.65590
#
# Velocity S-wave (km/s) = 4.42432 4.90727 4.67204
# Velocity P-wave (km/s) = 6.87231 8.04247 7.48031
#
# Compressibility (1/GPa) = 0.02214248
#
# Stress axis : x y z
#
# Youngs Moduli (GPa) = 71.92036 195.44108 123.54827
#
# Poissons Ratio (x) = 0.45368 -0.16976
# Poissons Ratio (y) = 0.16695 0.19014
# Poissons Ratio (z) = -0.09882 0.30078
#
# Static dielectric constant tensor:
#      x y z
#    x 4.506270 0.214350 0.914110 
#    y 0.214350 4.882490 0.227420 
#    z 0.914110 0.227420 5.105920 
# 
# 
# High freq. dielectric constant tensor:
#      x y z
#    x 1.825000 -0.000520 -0.001520 
#    y -0.000520 1.883610 -0.000100 
#    z -0.001520 -0.000100 1.858910 
# 
# From -- ./inp_files/151147.got.cif
#   From: 2010.06.25/outbox.cif.g09.slc.cpg/sg2_76_cif.got.tgz:151147.got - 2010.06.27 13:26:56.
