data_PCOD8018998
_publ_section_title
;
Structure prediction by ZEFSAII (Michael W. Deem and Ramdas Pophale) SiO2 
 PCOD8018998
Probable space group: P -1
;
_chemical_formula_sum "Si O2"
_cell_formula_units_Z 14
_cell_length_a 13.692875
_cell_length_b 8.731457
_cell_length_c 8.351562
_cell_angle_alpha 79.518526
_cell_angle_beta 68.037102
_cell_angle_gamma 43.507997
_cell_volume 631.263719
_symmetry_space_group_name_H-M "P -1"
_symmetry_group_IT_number 2
_symmetry_cell_setting 'triclinic'
loop_
_space_group_symop_operation_xyz
x,y,z
-x,-y,-z
loop_
_atom_site_type_symbol
_atom_site_label
_atom_site_fract_x
_atom_site_fract_y
_atom_site_fract_z
Si Si1 0.164308 0.247268 0.326147
Si Si2 0.956430 0.407966 0.931019
Si Si3 0.847586 0.461855 0.525026
Si Si4 0.720789 0.473150 0.273672
Si Si5 0.844645 0.080384 0.102339
Si Si6 0.680997 0.406354 0.851991
Si Si7 0.551197 0.257552 0.822291
O O1 0.104734 0.455874 0.219935
O O2 0.200154 0.306129 0.456122
O O3 0.030207 0.261278 0.422961
O O4 0.310405 0.011342 0.205106
O O5 0.824231 0.444619 0.080945
O O6 0.113925 0.144846 0.853451
O O7 0.000000 0.500000 0.000000
O O8 0.752161 0.509517 0.420525
O O9 0.808877 0.383482 0.706859
O O10 0.759777 0.245921 0.278288
O O11 0.544756 0.679852 0.291184
O O12 0.746153 0.213308 0.977416
O O13 0.000000 0.000000 0.000000
O O14 0.610897 0.373267 0.759726
O O15 0.551761 0.649970 0.971354
#
# Coordination Sequence:
#
# PCOD8018998 Si02
#       7
#     2   2   2   2   2   2   2
#     4  11  24  43  64  99 131 172 212 266 330 384
#     4  11  20  39  65  94 129 171 219 262 308 395
#     4  11  24  42  64  98 135 163 219 271 324 378
#     4  10  22  41  63  96 129 170 217 265 323 379
#     4   9  19  37  63  94 120 168 220 262 302 378
#     4  10  22  43  69  95 126 170 220 266 320 383
#     4  10  23  44  67  92 130 174 217 257 324 396
#
# _framework density 22.177733
#
# number of rings (size 3 to 8) (size 9 to 14) (size 15 to 20)
#    0.000    1.714    1.429    3.429    2.000    4.000 
#    5.143    0.000    0.000    0.000    0.000    0.000 
#    0.000    0.000    0.000    0.000    0.000    0.000 
#
# Total GULP energy -173492.079753 kJ/mol
# GULP energy per Si atom -12392.291411 kJ/mol
# Density = 2.212726 g / cm^3
# Si number density = 22.177733 Si / 1000 Ang^3
#
#
#
# Elastic Constant Matrix: (Units=GPa)
#
#
# Indices 1 2 3 4 5 6 
#
# 1 143.8683 60.9870 40.0852 4.3994 23.1968 -0.8203
# 2 60.9870 166.3608 68.5931 20.4863 -1.1036 -0.9887
# 3 40.0852 68.5931 76.7921 10.7252 8.0923 -0.0309
# 4 4.3994 20.4863 10.7252 19.6622 2.7284 -0.2721
# 5 23.1968 -1.1036 8.0923 2.7284 40.6010 3.5010
# 6 -0.8203 -0.9887 -0.0309 -0.2721 3.5010 29.9837
#
#
#
# Elastic Compliance Matrix: (Units=1/GPa)
#
#
# Indices 1 2 3 4 5 6 
#
# 1 0.009626 -0.003035 -0.002154 0.002947 -0.005422 0.000821
# 2 -0.003035 0.011334 -0.007947 -0.007374 0.004145 -0.000268
# 3 -0.002154 -0.007947 0.021968 -0.002779 -0.003181 0.000048
# 4 0.002947 -0.007374 -0.002779 0.060171 -0.005461 0.001018
# 5 -0.005422 0.004145 -0.003181 -0.005461 0.029140 -0.003467
# 6 0.000821 -0.000268 0.000048 0.001018 -0.003467 0.033779
#
#
# Mechanical properties :
#
#
# Convention : Reuss Voigt Hill
#
# Bulk Modulus (GPa) = 60.03292 80.70576 70.36934
# Shear Modulus (GPa) = 25.27263 32.53979 28.90621
#
# Velocity S-wave (km/s) = 3.37938 3.83460 3.61416
# Velocity P-wave (km/s) = 6.50805 7.48832 7.01533
#
# Compressibility (1/GPa) = 0.01665753
#
# Stress axis : x y z
#
# Youngs Moduli (GPa) = 103.88364 88.22896 45.52010
#
# Poissons Ratio (x) = 0.26775 0.09805
# Poissons Ratio (y) = 0.31526 0.36174
# Poissons Ratio (z) = 0.22376 0.70114
#
# Static dielectric constant tensor:
#      x y z
#    x 4.522380 0.326380 -0.005810 
#    y 0.326380 4.412410 0.095590 
#    z -0.005810 0.095590 4.190280 
# 
# 
# High freq. dielectric constant tensor:
#      x y z
#    x 1.898050 0.003100 0.014400 
#    y 0.003100 1.858390 0.016050 
#    z 0.014400 0.016050 1.851650 
# 
# From -- ./inp_files/295180.got.cif
#   From: 2010.06.25/outbox.cif.g09.slc.cpg/sg2_148_cif.got.tgz:295180.got - 2010.06.27 13:26:56.
