data_PCOD8018060
_publ_section_title
;
Structure prediction by ZEFSAII (Michael W. Deem and Ramdas Pophale) SiO2 
 PCOD8018060
Probable space group: P -1
;
_chemical_formula_sum "Si O2"
_cell_formula_units_Z 14
_cell_length_a 18.570226
_cell_length_b 7.566082
_cell_length_c 7.551231
_cell_angle_alpha 121.113365
_cell_angle_beta 89.190091
_cell_angle_gamma 124.301417
_cell_volume 690.397660
_symmetry_space_group_name_H-M "P -1"
_symmetry_group_IT_number 2
_symmetry_cell_setting 'triclinic'
loop_
_space_group_symop_operation_xyz
x,y,z
-x,-y,-z
loop_
_atom_site_type_symbol
_atom_site_label
_atom_site_fract_x
_atom_site_fract_y
_atom_site_fract_z
Si Si1 0.918425 0.582322 0.303750
Si Si2 0.605984 0.759613 0.847798
Si Si3 0.187027 0.021921 0.008652
Si Si4 0.885565 0.933758 0.328554
Si Si5 0.409083 0.926341 0.701782
Si Si6 0.448139 0.139434 0.445249
Si Si7 0.214423 0.370140 0.499655
O O1 0.882799 0.292733 0.093184
O O2 0.917891 0.750259 0.229359
O O3 0.845824 0.529284 0.431521
O O4 0.023777 0.756278 0.467789
O O5 0.529820 0.437305 0.674575
O O6 0.616342 0.877123 0.711948
O O7 0.706526 0.859480 0.953476
O O8 0.571093 0.857740 0.045683
O O9 0.157811 0.072067 0.853729
O O10 0.176641 0.179639 0.233772
O O11 0.804775 0.807022 0.417507
O O12 0.505584 0.976222 0.705954
O O13 0.325565 0.623179 0.615545
O O14 0.382296 0.961297 0.524063
#
# Coordination Sequence:
#
# PCOD8018060 Si02
#       7
#     2   2   2   2   2   2   2
#     4   9  21  46  59  92 128 155 205 255 297 360
#     4  11  22  41  60  90 122 157 203 252 305 356
#     4  12  22  39  67  92 121 165 202 249 308 363
#     4   9  22  44  62  90 128 157 204 254 297 367
#     4  11  21  42  62  87 119 162 201 251 307 351
#     4  10  24  40  61  89 119 158 207 248 299 371
#     4  10  22  40  61  93 120 158 210 245 301 370
#
# _framework density 20.278169999999999
#
# number of rings (size 3 to 8) (size 9 to 14) (size 15 to 20)
#    0.857    0.857    2.857    1.286    0.000    4.571 
#    5.143    0.000    0.000    0.000    0.000    0.000 
#    0.000    0.000    0.000    0.000    0.000    0.000 
#
# Total GULP energy -173557.834138 kJ/mol
# GULP energy per Si atom -12396.988153 kJ/mol
# Density = 2.023202 g / cm^3
# Si number density = 20.278170 Si / 1000 Ang^3
#
#
#
# Elastic Constant Matrix: (Units=GPa)
#
#
# Indices 1 2 3 4 5 6 
#
# 1 34.9697 9.7301 33.3567 -4.0872 7.6077 -26.6568
# 2 9.7301 56.2045 11.6857 -6.3039 3.1787 -6.7520
# 3 33.3567 11.6857 72.2899 8.2113 3.0805 -16.1164
# 4 -4.0872 -6.3039 8.2113 17.0437 -10.8367 -4.9257
# 5 7.6077 3.1787 3.0805 -10.8367 33.1479 -10.5110
# 6 -26.6568 -6.7520 -16.1164 -4.9257 -10.5110 14.9544
#
#
#
# Elastic Compliance Matrix: (Units=1/GPa)
#
#
# Indices 1 2 3 4 5 6 
#
# 1 -0.011987 -0.007793 -0.000467 -0.040391 -0.028222 -0.058529
# 2 -0.007793 0.019206 -0.001148 0.004029 -0.000329 -0.005360
# 3 -0.000467 -0.001148 0.019277 0.001684 0.006835 0.024782
# 4 -0.040391 0.004029 0.001684 0.036270 0.003468 -0.053980
# 5 -0.028222 -0.000329 0.006835 0.003468 0.030721 -0.020355
# 6 -0.058529 -0.005360 0.024782 -0.053980 -0.020355 -0.045260
#
#
# Mechanical properties :
#
#
# Convention : Reuss Voigt Hill
#
# Bulk Modulus (GPa) = 130.19596 30.33433 80.26515
# Shear Modulus (GPa) = 71.83547 20.27532 46.05539
#
# Velocity S-wave (km/s) = 5.95835 3.16549 4.77086
# Velocity P-wave (km/s) = 10.56789 5.32466 8.36756
#
# Compressibility (1/GPa) = 0.00768073
#
# Stress axis : x y z
#
# Youngs Moduli (GPa) = -83.42627 52.06575 51.87602
#
# Poissons Ratio (x) = 0.40575 0.02424
# Poissons Ratio (y) = -0.65015 0.05953
# Poissons Ratio (z) = -0.03899 0.05975
#
# Static dielectric constant tensor:
#      x y z
#    x 3.582600 -0.031690 -0.085150 
#    y -0.031690 3.790130 0.017580 
#    z -0.085150 0.017580 3.630960 
# 
# 
# High freq. dielectric constant tensor:
#      x y z
#    x 1.779060 -0.002780 -0.003350 
#    y -0.002780 1.798920 0.005530 
#    z -0.003350 0.005530 1.790590 
# 
# From -- ./inp_files/117379.got.cif
#   From: 2010.06.25/outbox.cif.g09.slc.cpg/sg2_59_cif.got.tgz:117379.got - 2010.06.27 13:26:56.
