data_PCOD8018493
_publ_section_title
;
Structure prediction by ZEFSAII (Michael W. Deem and Ramdas Pophale) SiO2 
 PCOD8018493
Probable space group: P -1
;
_chemical_formula_sum "Si O2"
_cell_formula_units_Z 14
_cell_length_a 14.363835
_cell_length_b 15.681080
_cell_length_c 16.330615
_cell_angle_alpha 18.102969
_cell_angle_beta 43.689538
_cell_angle_gamma 42.613455
_cell_volume 768.952871
_symmetry_space_group_name_H-M "P -1"
_symmetry_group_IT_number 2
_symmetry_cell_setting 'triclinic'
loop_
_space_group_symop_operation_xyz
x,y,z
-x,-y,-z
loop_
_atom_site_type_symbol
_atom_site_label
_atom_site_fract_x
_atom_site_fract_y
_atom_site_fract_z
Si Si1 0.305072 0.508606 0.553795
Si Si2 0.095851 0.712651 0.230479
Si Si3 0.375031 0.645430 0.554862
Si Si4 0.359653 0.370191 0.293147
Si Si5 0.732164 0.066135 0.943211
Si Si6 0.587529 0.789992 0.938440
Si Si7 0.469496 0.160629 0.251541
O O1 0.285883 0.546356 0.629512
O O2 0.465293 0.429367 0.502004
O O3 0.245691 0.804308 0.277392
O O4 0.226645 0.271975 0.786538
O O5 0.205411 0.544873 0.248774
O O6 0.173103 0.800361 0.179323
O O7 0.000000 0.500000 0.500000
O O8 0.000000 0.000000 0.000000
O O9 0.335701 0.981969 0.280262
O O10 0.347399 0.501725 0.789818
O O11 0.363743 0.198218 0.361762
O O12 0.422637 0.146190 0.529876
O O13 0.450190 0.595038 0.020843
O O14 0.577169 0.145306 0.004014
O O15 0.617410 0.798138 0.815011
#
# Coordination Sequence:
#
# PCOD8018493 Si02
#       7
#     2   2   2   2   2   2   2
#     4   9  17  29  43  64  98 131 162 192 240 305
#     4  12  24  36  52  73 103 135 179 217 245 289
#     4   9  17  26  42  70  98 129 155 196 241 297
#     4  10  21  35  51  73  99 134 173 210 256 289
#     4  10  19  30  47  65  95 135 168 196 245 297
#     4  10  17  27  48  70 100 126 163 194 244 309
#     4  10  19  33  54  74 100 132 170 208 247 317
#
# _framework density 18.206578
#
# number of rings (size 3 to 8) (size 9 to 14) (size 15 to 20)
#    0.000    2.000    1.429    3.429    4.000    3.429 
#    0.000    0.000    0.000    0.000    0.000    0.000 
#    0.000   22.857    0.000    0.000    0.000    0.000 
#
# Total GULP energy -173466.379566 kJ/mol
# GULP energy per Si atom -12390.455683 kJ/mol
# Density = 1.816514 g / cm^3
# Si number density = 18.206578 Si / 1000 Ang^3
#
#
#
# Elastic Constant Matrix: (Units=GPa)
#
#
# Indices 1 2 3 4 5 6 
#
# 1 77.9564 34.0412 40.0003 1.9579 -4.0131 26.2925
# 2 34.0412 78.9836 30.1312 0.5227 4.5894 0.3035
# 3 40.0003 30.1312 128.7886 -10.9848 4.0342 7.6013
# 4 1.9579 0.5227 -10.9848 24.9190 6.3694 1.8352
# 5 -4.0131 4.5894 4.0342 6.3694 39.9265 1.2788
# 6 26.2925 0.3035 7.6013 1.8352 1.2788 31.4496
#
#
#
# Elastic Compliance Matrix: (Units=1/GPa)
#
#
# Indices 1 2 3 4 5 6 
#
# 1 0.027891 -0.010132 -0.005557 -0.004332 0.005921 -0.021865
# 2 -0.010132 0.017721 -0.001420 -0.000033 -0.003188 0.008775
# 3 -0.005557 -0.001420 0.010245 0.005442 -0.002361 0.001961
# 4 -0.004332 -0.000033 0.005442 0.044953 -0.008153 0.000015
# 5 0.005921 -0.003188 -0.002361 -0.008153 0.027707 -0.004999
# 6 -0.021865 0.008775 0.001961 0.000015 -0.004999 0.049720
#
#
# Mechanical properties :
#
#
# Convention : Reuss Voigt Hill
#
# Bulk Modulus (GPa) = 46.21121 54.89710 50.55416
# Shear Modulus (GPa) = 22.76157 31.36275 27.06216
#
# Velocity S-wave (km/s) = 3.53963 4.15493 3.85956
# Velocity P-wave (km/s) = 6.49169 7.29628 6.90571
#
# Compressibility (1/GPa) = 0.02163977
#
# Stress axis : x y z
#
# Youngs Moduli (GPa) = 35.85339 56.42950 97.60854
#
# Poissons Ratio (x) = 0.57177 0.54237
# Poissons Ratio (y) = 0.36328 0.13859
# Poissons Ratio (z) = 0.19922 0.08012
#
# Static dielectric constant tensor:
#      x y z
#    x 3.333350 0.386900 0.056450 
#    y 0.386900 3.535360 -0.001310 
#    z 0.056450 -0.001310 3.671850 
# 
# 
# High freq. dielectric constant tensor:
#      x y z
#    x 1.686360 0.043920 0.007110 
#    y 0.043920 1.656020 -0.014500 
#    z 0.007110 -0.014500 1.732580 
# 
# From -- ./inp_files/73776.got.cif
#   From: 2010.06.25/outbox.cif.g09.slc.cpg/sg2_37_cif.got.tgz:73776.got - 2010.06.27 13:26:56.
