data_PCOD8018468
_publ_section_title
;
Structure prediction by ZEFSAII (Michael W. Deem and Ramdas Pophale) SiO2 
 PCOD8018468
Probable space group: P -1
;
_chemical_formula_sum "Si O2"
_cell_formula_units_Z 16
_cell_length_a 5.162982
_cell_length_b 21.112108
_cell_length_c 15.448491
_cell_angle_alpha 157.979266
_cell_angle_beta 92.290123
_cell_angle_gamma 81.034874
_cell_volume 598.311874
_symmetry_space_group_name_H-M "P -1"
_symmetry_group_IT_number 2
_symmetry_cell_setting 'triclinic'
loop_
_space_group_symop_operation_xyz
x,y,z
-x,-y,-z
loop_
_atom_site_type_symbol
_atom_site_label
_atom_site_fract_x
_atom_site_fract_y
_atom_site_fract_z
Si Si1 0.704479 0.189660 0.304672
Si Si2 0.654340 0.126466 0.414679
Si Si3 0.738993 0.736124 0.884269
Si Si4 0.179951 0.216527 0.248993
Si Si5 0.807035 0.640065 0.109752
Si Si6 0.898580 0.983189 0.573233
Si Si7 0.308428 0.652757 0.877027
Si Si8 0.343368 0.501797 0.858018
O O1 0.785083 0.175299 0.389280
O O2 0.384701 0.285656 0.398426
O O3 0.883020 0.293079 0.387328
O O4 0.754193 0.994203 0.018110
O O5 0.391267 0.304380 0.650788
O O6 0.851923 0.104453 0.469951
O O7 0.582088 0.946466 0.167025
O O8 0.524835 0.635596 0.781141
O O9 0.015931 0.660556 0.846296
O O10 0.819439 0.699713 0.739508
O O11 0.717439 0.848070 0.400881
O O12 0.532492 0.595823 0.030710
O O13 0.000000 0.500000 0.000000
O O14 0.022214 0.618583 0.005149
O O15 0.708649 0.171640 0.844092
O O16 0.000000 0.000000 0.500000
O O17 0.424577 0.491221 0.743272
#
# Coordination Sequence:
#
# PCOD8018468 Si02
#       8
#     2   2   2   2   2   2   2   2
#     4   9  18  33  58  91 123 155 201 251 308 361
#     4  10  24  40  64  95 126 165 210 261 308 374
#     4  10  22  40  66  96 126 161 209 257 313 368
#     4   9  17  34  61  91 122 156 197 255 306 366
#     4  12  26  43  64  90 122 169 213 265 314 366
#     4  11  24  44  66  92 126 167 215 262 310 368
#     4  11  24  41  63  92 128 168 207 260 309 370
#     4  12  26  43  63  89 128 170 209 257 319 368
#
# _framework density 26.741907000000001
#
# number of rings (size 3 to 8) (size 9 to 14) (size 15 to 20)
#    0.000    1.500    2.500    1.875    3.500    8.500 
#    0.000    0.000    0.000    4.500    0.000    0.000 
#    0.000    0.000    0.000    0.000    0.000    0.000 
#
# Total GULP energy -198368.010765 kJ/mol
# GULP energy per Si atom -12398.000673 kJ/mol
# Density = 2.668104 g / cm^3
# Si number density = 26.741907 Si / 1000 Ang^3
#
#
#
# Elastic Constant Matrix: (Units=GPa)
#
#
# Indices 1 2 3 4 5 6 
#
# 1 134.0981 43.0326 8.2443 -0.3163 1.7122 2.2851
# 2 43.0326 171.0434 13.6997 5.1357 10.3527 -10.0101
# 3 8.2443 13.6997 49.9199 9.8906 4.1723 -26.1513
# 4 -0.3163 5.1357 9.8906 41.7273 -4.7799 -3.4681
# 5 1.7122 10.3527 4.1723 -4.7799 22.2093 2.1910
# 6 2.2851 -10.0101 -26.1513 -3.4681 2.1910 33.1947
#
#
#
# Elastic Compliance Matrix: (Units=1/GPa)
#
#
# Indices 1 2 3 4 5 6 
#
# 1 0.008389 -0.002200 -0.002958 0.000908 0.001482 -0.003574
# 2 -0.002200 0.006771 0.000406 -0.001136 -0.003567 0.002630
# 3 -0.002958 0.000406 0.039518 -0.008233 -0.012255 0.031408
# 4 0.000908 -0.001136 -0.008233 0.026615 0.008193 -0.004651
# 5 0.001482 -0.003567 -0.012255 0.008193 0.051963 -0.013406
# 6 -0.003574 0.002630 0.031408 -0.004651 -0.013406 0.056307
#
#
# Mechanical properties :
#
#
# Convention : Reuss Voigt Hill
#
# Bulk Modulus (GPa) = 22.13614 53.89052 38.01333
# Shear Modulus (GPa) = 23.35079 38.76526 31.05803
#
# Velocity S-wave (km/s) = 2.95819 3.81150 3.41163
# Velocity P-wave (km/s) = 4.46805 6.29014 5.45570
#
# Compressibility (1/GPa) = 0.04517500
#
# Stress axis : x y z
#
# Youngs Moduli (GPa) = 119.20154 147.68103 25.30488
#
# Poissons Ratio (x) = 0.32488 0.07485
# Poissons Ratio (y) = 0.26223 -0.01028
# Poissons Ratio (z) = 0.35260 -0.05997
#
# Static dielectric constant tensor:
#      x y z
#    x 5.180080 0.365710 -0.199730 
#    y 0.365710 5.074620 0.000190 
#    z -0.199730 0.000190 5.314680 
# 
# 
# High freq. dielectric constant tensor:
#      x y z
#    x 2.057490 0.011780 0.001690 
#    y 0.011780 2.093420 0.000150 
#    z 0.001690 0.000150 2.096490 
# 
# From -- ./inp_files/485318.got.cif
#   From: 2010.06.25/outbox.cif.g09.slc.cpg/sg2_243_cif.got.tgz:485318.got - 2010.06.27 13:26:56.
