data_PCOD8018040
_publ_section_title
;
Structure prediction by ZEFSAII (Michael W. Deem and Ramdas Pophale) SiO2 
 PCOD8018040
Probable space group: P -1
;
_chemical_formula_sum "Si O2"
_cell_formula_units_Z 16
_cell_length_a 8.678594
_cell_length_b 16.381030
_cell_length_c 13.756469
_cell_angle_alpha 140.409365
_cell_angle_beta 84.438981
_cell_angle_gamma 124.821546
_cell_volume 772.372751
_symmetry_space_group_name_H-M "P -1"
_symmetry_group_IT_number 2
_symmetry_cell_setting 'triclinic'
loop_
_space_group_symop_operation_xyz
x,y,z
-x,-y,-z
loop_
_atom_site_type_symbol
_atom_site_label
_atom_site_fract_x
_atom_site_fract_y
_atom_site_fract_z
Si Si1 0.218755 0.052032 0.656826
Si Si2 0.632803 0.454948 0.920637
Si Si3 0.103016 0.749940 0.524964
Si Si4 0.597242 0.286723 0.573822
Si Si5 0.741338 0.564284 0.650374
Si Si6 0.085978 0.897191 0.307668
Si Si7 0.706033 0.058829 0.103421
Si Si8 0.552557 0.377475 0.279550
O O1 0.165137 0.925043 0.632701
O O2 0.135880 0.938691 0.456496
O O3 0.517137 0.274067 0.835400
O O4 0.068334 0.085455 0.712594
O O5 0.567155 0.370548 0.737939
O O6 0.500000 0.500000 0.000000
O O7 0.929261 0.663482 0.096624
O O8 0.205280 0.698985 0.406929
O O9 0.235122 0.832785 0.698631
O O10 0.807287 0.540518 0.353321
O O11 0.679339 0.411050 0.586503
O O12 0.329640 0.043075 0.359402
O O13 0.618648 0.437051 0.442228
O O14 0.616184 0.614613 0.740141
O O15 0.037028 0.778306 0.823009
O O16 0.500000 0.000000 0.000000
O O17 0.607328 0.852815 0.940500
#
# Coordination Sequence:
#
# PCOD8018040 Si02
#       8
#     2   2   2   2   2   2   2   2
#     4   9  19  38  58  81 115 150 195 244 291 349
#     4   9  20  37  58  84 112 148 195 242 289 345
#     4  11  24  38  58  90 123 159 197 242 301 358
#     4  11  22  36  57  86 118 154 196 241 296 355
#     4  10  22  40  62  88 118 157 204 248 293 350
#     4   9  19  36  59  82 110 152 194 244 294 343
#     4  11  23  40  61  88 125 161 197 245 299 353
#     4  10  22  40  61  87 120 157 200 249 295 349
#
# _framework density 20.715387
#
# number of rings (size 3 to 8) (size 9 to 14) (size 15 to 20)
#    0.000    2.000    0.000    3.375    0.000   10.000 
#    0.000    1.250    0.000    0.000    0.000    0.000 
#    0.000    0.000    0.000    0.000    0.000    0.000 
#
# Total GULP energy -198326.526738 kJ/mol
# GULP energy per Si atom -12395.407921 kJ/mol
# Density = 2.066824 g / cm^3
# Si number density = 20.715387 Si / 1000 Ang^3
#
#
#
# Elastic Constant Matrix: (Units=GPa)
#
#
# Indices 1 2 3 4 5 6 
#
# 1 107.5636 40.5228 36.7832 9.4329 14.3336 15.0113
# 2 40.5228 98.6182 34.9053 31.8883 15.5655 13.4849
# 3 36.7832 34.9053 108.4189 31.0430 17.8050 19.9442
# 4 9.4329 31.8883 31.0430 38.0211 12.1339 9.7303
# 5 14.3336 15.5655 17.8050 12.1339 28.8382 2.0875
# 6 15.0113 13.4849 19.9442 9.7303 2.0875 27.0180
#
#
#
# Elastic Compliance Matrix: (Units=1/GPa)
#
#
# Indices 1 2 3 4 5 6 
#
# 1 0.012745 -0.004807 -0.002961 0.005636 -0.003978 -0.004219
# 2 -0.004807 0.016264 0.000267 -0.011877 -0.001466 -0.001253
# 3 -0.002961 0.000267 0.014183 -0.008536 -0.003431 -0.005618
# 4 0.005636 -0.011877 -0.008536 0.046933 -0.010360 -0.007004
# 5 -0.003978 -0.001466 -0.003431 -0.010360 0.043499 0.005845
# 6 -0.004219 -0.001253 -0.005618 -0.007004 0.005845 0.046200
#
#
# Mechanical properties :
#
#
# Convention : Reuss Voigt Hill
#
# Bulk Modulus (GPa) = 35.47287 59.89146 47.68216
# Shear Modulus (GPa) = 24.48312 32.26808 28.37560
#
# Velocity S-wave (km/s) = 3.44158 3.95104 3.70507
# Velocity P-wave (km/s) = 5.74053 7.05610 6.43204
#
# Compressibility (1/GPa) = 0.02819056
#
# Stress axis : x y z
#
# Youngs Moduli (GPa) = 78.46377 61.48520 70.50533
#
# Poissons Ratio (x) = 0.29553 0.20875
# Poissons Ratio (y) = 0.37714 -0.01879
# Poissons Ratio (z) = 0.23231 -0.01639
#
# Static dielectric constant tensor:
#      x y z
#    x 3.776490 0.229020 0.077310 
#    y 0.229020 3.731800 0.344240 
#    z 0.077310 0.344240 4.093690 
# 
# 
# High freq. dielectric constant tensor:
#      x y z
#    x 1.801690 0.013380 0.001380 
#    y 0.013380 1.811030 0.023000 
#    z 0.001380 0.023000 1.821830 
# 
# From -- ./inp_files/504456.got.cif
#   From: 2010.06.25/outbox.cif.g09.slc.cpg/sg2_253_cif.got.tgz:504456.got - 2010.06.27 13:26:56.
