data_PCOD8018849
_publ_section_title
;
Structure prediction by ZEFSAII (Michael W. Deem and Ramdas Pophale) SiO2 
 PCOD8018849
Probable space group: P -1
;
_chemical_formula_sum "Si O2"
_cell_formula_units_Z 16
_cell_length_a 6.436421
_cell_length_b 24.958812
_cell_length_c 8.984239
_cell_angle_alpha 138.185722
_cell_angle_beta 51.323453
_cell_angle_gamma 105.240994
_cell_volume 691.805348
_symmetry_space_group_name_H-M "P -1"
_symmetry_group_IT_number 2
_symmetry_cell_setting 'triclinic'
loop_
_space_group_symop_operation_xyz
x,y,z
-x,-y,-z
loop_
_atom_site_type_symbol
_atom_site_label
_atom_site_fract_x
_atom_site_fract_y
_atom_site_fract_z
Si Si1 0.413780 0.590381 0.421897
Si Si2 0.895259 0.840002 0.812188
Si Si3 0.820074 0.421753 0.212716
Si Si4 0.407537 0.987560 0.182165
Si Si5 0.423460 0.413785 0.965858
Si Si6 0.456538 0.271406 0.215467
Si Si7 0.341176 0.714149 0.156940
Si Si8 0.043498 0.871272 0.139337
O O1 0.145584 0.612930 0.702088
O O2 0.357579 0.630041 0.361635
O O3 0.633125 0.628046 0.482092
O O4 0.534622 0.485363 0.130983
O O5 0.768768 0.765554 0.699757
O O6 0.158201 0.806665 0.508350
O O7 0.686857 0.935552 0.049474
O O8 0.967588 0.842770 0.956531
O O9 0.500000 0.500000 0.500000
O O10 0.849237 0.339554 0.926207
O O11 0.089301 0.451794 0.131127
O O12 0.205237 0.934161 0.157678
O O13 0.239851 0.079440 0.530300
O O14 0.500000 0.000000 0.000000
O O15 0.440818 0.342648 0.932227
O O16 0.478908 0.266463 0.016269
O O17 0.768466 0.214094 0.028584
#
# Coordination Sequence:
#
# PCOD8018849 Si02
#       8
#     2   2   2   2   2   2   2   2
#     4  10  22  41  60  88 121 164 208 264 314 365
#     4  11  23  41  64  94 129 163 206 252 311 371
#     4  11  23  42  61  87 122 163 213 267 314 366
#     4  10  22  41  68  94 128 162 200 252 303 370
#     4  11  23  40  61  88 120 162 219 264 314 373
#     4  10  23  41  59  89 128 164 205 260 312 365
#     4  11  24  39  60  90 122 166 213 257 314 370
#     4  10  22  41  63  95 126 160 207 249 306 373
#
# _framework density 23.127893
#
# number of rings (size 3 to 8) (size 9 to 14) (size 15 to 20)
#    0.000    1.500    1.250    3.000    0.000    6.000 
#    9.000    0.000    0.000    0.000    0.000    0.000 
#    0.000    0.000    0.000    0.000    0.000    0.000 
#
# Total GULP energy -198215.493568 kJ/mol
# GULP energy per Si atom -12388.468348 kJ/mol
# Density = 2.307525 g / cm^3
# Si number density = 23.127893 Si / 1000 Ang^3
#
#
#
# Elastic Constant Matrix: (Units=GPa)
#
#
# Indices 1 2 3 4 5 6 
#
# 1 62.6701 18.5846 38.1262 -1.7386 -0.5858 -18.6648
# 2 18.5846 96.7255 16.2185 -19.9343 -1.8677 -24.6368
# 3 38.1262 16.2185 114.0090 -18.9138 17.5572 -12.7907
# 4 -1.7386 -19.9343 -18.9138 35.0075 -10.8393 12.4105
# 5 -0.5858 -1.8677 17.5572 -10.8393 31.4167 -2.3145
# 6 -18.6648 -24.6368 -12.7907 12.4105 -2.3145 38.4931
#
#
#
# Elastic Compliance Matrix: (Units=1/GPa)
#
#
# Indices 1 2 3 4 5 6 
#
# 1 0.024648 -0.002101 -0.008497 -0.007171 0.003368 0.010298
# 2 -0.002101 0.013667 -0.000024 0.006712 0.003528 0.005769
# 3 -0.008497 -0.000024 0.013218 0.005595 -0.005756 -0.001893
# 4 -0.007171 0.006712 0.005595 0.042052 0.010894 -0.010225
# 5 0.003368 0.003528 -0.005756 0.010894 0.039138 0.000819
# 6 0.010298 0.005769 -0.001893 -0.010225 0.000819 0.037381
#
#
# Mechanical properties :
#
#
# Convention : Reuss Voigt Hill
#
# Bulk Modulus (GPa) = 33.01439 46.58481 39.79960
# Shear Modulus (GPa) = 24.82060 34.34847 29.58453
#
# Velocity S-wave (km/s) = 3.27951 3.85795 3.58043
# Velocity P-wave (km/s) = 5.35219 6.32701 5.85990
#
# Compressibility (1/GPa) = 0.03028982
#
# Stress axis : x y z
#
# Youngs Moduli (GPa) = 40.57067 73.16874 75.65257
#
# Poissons Ratio (x) = 0.15373 0.64280
# Poissons Ratio (y) = 0.08524 0.00183
# Poissons Ratio (z) = 0.34472 0.00177
#
# Static dielectric constant tensor:
#      x y z
#    x 4.028960 -0.184200 0.236760 
#    y -0.184200 4.285510 -0.136420 
#    z 0.236760 -0.136420 4.231300 
# 
# 
# High freq. dielectric constant tensor:
#      x y z
#    x 1.897660 -0.010620 0.024290 
#    y -0.010620 1.923860 -0.014090 
#    z 0.024290 -0.014090 1.915700 
# 
# From -- ./inp_files/143153.got.cif
#   From: 2010.06.25/outbox.cif.g09.slc.cpg/sg2_72_cif.got.tgz:143153.got - 2010.06.27 13:26:56.
