data_PCOD8018593
_publ_section_title
;
Structure prediction by ZEFSAII (Michael W. Deem and Ramdas Pophale) SiO2 
 PCOD8018593
Probable space group: P -1
;
_chemical_formula_sum "Si O2"
_cell_formula_units_Z 16
_cell_length_a 19.495098
_cell_length_b 12.841404
_cell_length_c 22.822510
_cell_angle_alpha 25.225792
_cell_angle_beta 162.533862
_cell_angle_gamma 153.939265
_cell_volume 702.301844
_symmetry_space_group_name_H-M "P -1"
_symmetry_group_IT_number 2
_symmetry_cell_setting 'triclinic'
loop_
_space_group_symop_operation_xyz
x,y,z
-x,-y,-z
loop_
_atom_site_type_symbol
_atom_site_label
_atom_site_fract_x
_atom_site_fract_y
_atom_site_fract_z
Si Si1 0.370771 0.197910 0.820135
Si Si2 0.175418 0.980294 0.276351
Si Si3 0.313556 0.382084 0.283336
Si Si4 0.310099 0.377267 0.957759
Si Si5 0.041493 0.769962 0.832650
Si Si6 0.450817 0.280925 0.247734
Si Si7 0.172977 0.328909 0.412690
Si Si8 0.061400 0.754582 0.622177
O O1 0.553259 0.440205 0.874855
O O2 0.217428 0.285018 0.600659
O O3 0.183922 0.058742 0.788147
O O4 0.500000 0.000000 0.000000
O O5 0.297535 0.766369 0.506475
O O6 0.891708 0.862280 0.111024
O O7 0.273736 0.232600 0.266275
O O8 0.242895 0.063620 0.221231
O O9 0.587563 0.454140 0.488496
O O10 0.160097 0.206868 0.297916
O O11 0.227795 0.634754 0.080010
O O12 0.184144 0.587777 0.768137
O O13 0.500000 0.500000 0.000000
O O14 0.424289 0.272664 0.159886
O O15 0.918280 0.615326 0.753656
O O16 0.961554 0.335091 0.283018
O O17 0.214371 0.047385 0.590977
#
# Coordination Sequence:
#
# PCOD8018593 Si02
#       8
#     2   2   2   2   2   2   2   2
#     4  11  22  42  73 105 134 180 233 297 360 409
#     4  11  26  49  67 105 138 193 244 287 351 427
#     4  11  24  41  68  97 142 178 224 286 356 417
#     4  12  29  46  71 103 145 195 238 295 354 423
#     4  10  24  39  64 105 136 174 225 288 348 427
#     4  11  26  45  76  98 142 188 241 297 349 425
#     4  10  22  40  68 100 133 174 220 291 353 405
#     4  10  23  42  67 105 139 168 240 291 340 432
#
# _framework density 22.782226000000001
#
# number of rings (size 3 to 8) (size 9 to 14) (size 15 to 20)
#    0.000    1.250    1.250    3.000   12.250    4.500 
#    0.000    0.000    0.000    0.000    0.000    0.000 
#    0.000    0.000    0.000    0.000    0.000    0.000 
#
# Total GULP energy -198421.787362 kJ/mol
# GULP energy per Si atom -12401.361710 kJ/mol
# Density = 2.273037 g / cm^3
# Si number density = 22.782226 Si / 1000 Ang^3
#
#
#
# Elastic Constant Matrix: (Units=GPa)
#
#
# Indices 1 2 3 4 5 6 
#
# 1 124.7662 14.6889 42.0614 6.5117 -11.5244 19.8097
# 2 14.6889 93.2681 28.1223 19.2074 -1.5788 6.0372
# 3 42.0614 28.1223 86.0419 9.2791 -3.8754 7.9732
# 4 6.5117 19.2074 9.2791 32.3353 -5.7673 4.3001
# 5 -11.5244 -1.5788 -3.8754 -5.7673 35.1219 -5.0811
# 6 19.8097 6.0372 7.9732 4.3001 -5.0811 39.5883
#
#
#
# Elastic Compliance Matrix: (Units=1/GPa)
#
#
# Indices 1 2 3 4 5 6 
#
# 1 0.010422 0.000022 -0.004644 0.000173 0.002358 -0.003999
# 2 0.000022 0.013254 -0.003576 -0.006943 -0.001032 -0.000690
# 3 -0.004644 -0.003576 0.015202 -0.001335 -0.000238 -0.000078
# 4 0.000173 -0.006943 -0.001335 0.036619 0.005313 -0.002055
# 5 0.002358 -0.001032 -0.000238 0.005313 0.030386 0.002348
# 6 -0.003999 -0.000690 -0.000078 -0.002055 0.002348 0.027907
#
#
# Mechanical properties :
#
#
# Convention : Reuss Voigt Hill
#
# Bulk Modulus (GPa) = 44.48219 52.64682 48.56450
# Shear Modulus (GPa) = 31.71011 36.02267 33.86639
#
# Velocity S-wave (km/s) = 3.73484 3.98071 3.85973
# Velocity P-wave (km/s) = 6.17787 6.65485 6.42079
#
# Compressibility (1/GPa) = 0.02248091
#
# Stress axis : x y z
#
# Youngs Moduli (GPa) = 95.95443 75.45045 65.78217
#
# Poissons Ratio (x) = -0.00166 0.30547
# Poissons Ratio (y) = -0.00211 0.23526
# Poissons Ratio (z) = 0.44558 0.26984
#
# Static dielectric constant tensor:
#      x y z
#    x 4.239330 0.139680 -0.157730 
#    y 0.139680 4.063270 0.084000 
#    z -0.157730 0.084000 4.041050 
# 
# 
# High freq. dielectric constant tensor:
#      x y z
#    x 1.899920 0.006140 -0.010490 
#    y 0.006140 1.897810 0.005810 
#    z -0.010490 0.005810 1.898290 
# 
# From -- ./inp_files/600017.got.cif
#   From: 2010.06.25/outbox.cif.g09.slc.cpg/sg2_301_cif.got.tgz:600017.got - 2010.06.27 13:26:56.
