data_PCOD8018275
_publ_section_title
;
Structure prediction by ZEFSAII (Michael W. Deem and Ramdas Pophale) SiO2 
 PCOD8018275
Probable space group: P -1
;
_chemical_formula_sum "Si O2"
_cell_formula_units_Z 16
_cell_length_a 18.624902
_cell_length_b 12.191752
_cell_length_c 5.240940
_cell_angle_alpha 119.232730
_cell_angle_beta 54.254190
_cell_angle_gamma 132.580285
_cell_volume 702.521951
_symmetry_space_group_name_H-M "P -1"
_symmetry_group_IT_number 2
_symmetry_cell_setting 'triclinic'
loop_
_space_group_symop_operation_xyz
x,y,z
-x,-y,-z
loop_
_atom_site_type_symbol
_atom_site_label
_atom_site_fract_x
_atom_site_fract_y
_atom_site_fract_z
Si Si1 0.473008 0.172342 0.268042
Si Si2 0.286440 0.374415 0.214143
Si Si3 0.000784 0.703698 0.642651
Si Si4 0.041717 0.173836 0.616267
Si Si5 0.170944 0.631086 0.296086
Si Si6 0.615667 0.111230 0.596007
Si Si7 0.666727 0.334339 0.363092
Si Si8 0.388506 0.355528 0.489491
O O1 0.578989 0.320708 0.333634
O O2 0.399906 0.214021 0.319867
O O3 0.398071 0.047375 0.500016
O O4 0.511800 0.098454 0.906600
O O5 0.166595 0.265203 0.422682
O O6 0.319325 0.547306 0.317039
O O7 0.356721 0.363457 0.275766
O O8 0.301571 0.328421 0.849886
O O9 0.013450 0.796748 0.469527
O O10 0.903937 0.530705 0.598095
O O11 0.108197 0.708527 0.450360
O O12 0.985583 0.779039 0.007651
O O13 0.000000 0.000000 0.500000
O O14 0.271619 0.746945 0.385626
O O15 0.216290 0.598252 0.913685
O O16 0.617823 0.160112 0.353896
O O17 0.500000 0.500000 0.500000
#
# Coordination Sequence:
#
# PCOD8018275 Si02
#       8
#     2   2   2   2   2   2   2   2
#     4  10  23  39  61  96 134 178 218 278 333 406
#     4  12  26  43  71  97 134 180 232 278 338 400
#     4  11  25  46  73 103 133 173 234 281 347 402
#     4  12  27  48  72  99 142 184 228 284 347 410
#     4  10  24  40  70 101 129 174 223 291 333 407
#     4  10  22  40  64  94 137 173 221 270 351 398
#     4  11  21  40  67  93 133 174 225 273 341 404
#     4  12  25  44  68 102 135 178 233 280 327 403
#
# _framework density 22.775088
#
# number of rings (size 3 to 8) (size 9 to 14) (size 15 to 20)
#    0.000    1.000    2.500    3.375    5.250    3.000 
#    0.000    0.000    0.000    0.000    0.000    0.000 
#    0.000    0.000    0.000    0.000    0.000    0.000 
#
# Total GULP energy -198315.747532 kJ/mol
# GULP energy per Si atom -12394.734221 kJ/mol
# Density = 2.272325 g / cm^3
# Si number density = 22.775088 Si / 1000 Ang^3
#
#
#
# Elastic Constant Matrix: (Units=GPa)
#
#
# Indices 1 2 3 4 5 6 
#
# 1 87.9938 33.3673 29.0205 2.7627 -4.2155 -14.9199
# 2 33.3673 103.6690 12.1802 6.3507 -11.9047 -16.2065
# 3 29.0205 12.1802 74.8141 0.1233 -9.7635 3.0855
# 4 2.7627 6.3507 0.1233 28.1624 -4.4095 3.6519
# 5 -4.2155 -11.9047 -9.7635 -4.4095 33.7620 0.4083
# 6 -14.9199 -16.2065 3.0855 3.6519 0.4083 35.6958
#
#
#
# Elastic Compliance Matrix: (Units=1/GPa)
#
#
# Indices 1 2 3 4 5 6 
#
# 1 0.015563 -0.003488 -0.005863 -0.001640 -0.001264 0.005610
# 2 -0.003488 0.011998 -0.000335 -0.002388 0.003335 0.004224
# 3 -0.005863 -0.000335 0.016413 0.001785 0.004181 -0.004252
# 4 -0.001640 -0.002388 0.001785 0.037653 0.004458 -0.005827
# 5 -0.001264 0.003335 0.004181 0.004458 0.032431 -0.000203
# 6 0.005610 0.004224 -0.004252 -0.005827 -0.000203 0.033243
#
#
# Mechanical properties :
#
#
# Convention : Reuss Voigt Hill
#
# Bulk Modulus (GPa) = 40.64734 46.17923 43.41328
# Shear Modulus (GPa) = 28.59205 32.31797 30.45501
#
# Velocity S-wave (km/s) = 3.54702 3.77106 3.66075
# Velocity P-wave (km/s) = 5.88737 6.26748 6.08040
#
# Compressibility (1/GPa) = 0.02460186
#
# Stress axis : x y z
#
# Youngs Moduli (GPa) = 64.25602 83.34882 60.92655
#
# Poissons Ratio (x) = 0.29072 0.35719
# Poissons Ratio (y) = 0.22412 0.02043
# Poissons Ratio (z) = 0.37671 0.02795
#
# Static dielectric constant tensor:
#      x y z
#    x 4.288910 -0.162360 -0.005070 
#    y -0.162360 4.298890 -0.054920 
#    z -0.005070 -0.054920 4.225000 
# 
# 
# High freq. dielectric constant tensor:
#      x y z
#    x 1.909310 -0.008860 -0.003830 
#    y -0.008860 1.907930 -0.003810 
#    z -0.003830 -0.003810 1.891580 
# 
# From -- ./inp_files/77767.got.cif
#   From: 2010.06.25/outbox.cif.g09.slc.cpg/sg2_39_cif.got.tgz:77767.got - 2010.06.27 13:26:56.
