data_PCOD8018120
_publ_section_title
;
Structure prediction by ZEFSAII (Michael W. Deem and Ramdas Pophale) SiO2 
 PCOD8018120
Probable space group: P -1
;
_chemical_formula_sum "Si O2"
_cell_formula_units_Z 12
_cell_length_a 6.295030
_cell_length_b 14.788336
_cell_length_c 6.276735
_cell_angle_alpha 95.384895
_cell_angle_beta 92.003764
_cell_angle_gamma 110.351022
_cell_volume 543.996663
_symmetry_space_group_name_H-M "P -1"
_symmetry_group_IT_number 2
_symmetry_cell_setting 'triclinic'
loop_
_space_group_symop_operation_xyz
x,y,z
-x,-y,-z
loop_
_atom_site_type_symbol
_atom_site_label
_atom_site_fract_x
_atom_site_fract_y
_atom_site_fract_z
Si Si1 0.166278 0.805599 0.476318
Si Si2 0.668084 0.458570 0.610367
Si Si3 0.587663 0.284314 0.858228
Si Si4 0.911848 0.367253 0.273968
Si Si5 0.734369 0.043423 0.144098
Si Si6 0.880042 0.864459 0.147619
O O1 0.344949 0.784390 0.321000
O O2 0.037036 0.712908 0.597594
O O3 0.311599 0.897457 0.645321
O O4 0.969716 0.832266 0.358883
O O5 0.500000 0.500000 0.500000
O O6 0.553172 0.376239 0.763332
O O7 0.762687 0.414125 0.411708
O O8 0.855034 0.547327 0.759656
O O9 0.350890 0.222094 0.949498
O O10 0.787149 0.319116 0.044299
O O11 0.822951 0.960468 0.212747
O O12 0.930390 0.118258 0.023177
O O13 0.500000 0.000000 0.000000
#
# Coordination Sequence:
#
# PCOD8018120 Si02
#       6
#     2   2   2   2   2   2
#     4  11  23  41  64  91 126 163 208 256 309 370
#     4  10  22  40  64  92 126 165 206 253 307 368
#     4  11  24  41  65  94 127 164 207 259 311 366
#     4  10  22  40  62  93 127 163 206 254 307 366
#     4  11  25  44  64  90 127 165 208 259 312 371
#     4  11  24  40  64  94 123 165 209 257 313 367
#
# _framework density 22.058962000000001
#
# number of rings (size 3 to 8) (size 9 to 14) (size 15 to 20)
#    0.000    1.333    0.000    5.000    0.000   11.333 
#    0.000    0.000    0.000    0.000    0.000    0.000 
#    0.000    0.000    0.000    0.000    0.000    0.000 
#
# Total GULP energy -148842.732803 kJ/mol
# GULP energy per Si atom -12403.561067 kJ/mol
# Density = 2.200876 g / cm^3
# Si number density = 22.058962 Si / 1000 Ang^3
#
#
#
# Elastic Constant Matrix: (Units=GPa)
#
#
# Indices 1 2 3 4 5 6 
#
# 1 114.5432 78.3375 57.9724 -3.7978 16.9617 3.1653
# 2 78.3375 147.5460 72.8684 -7.7800 8.1472 4.7279
# 3 57.9724 72.8684 118.2445 8.3196 19.6190 0.5771
# 4 -3.7978 -7.7800 8.3196 46.7612 0.8962 10.1807
# 5 16.9617 8.1472 19.6190 0.8962 28.2368 -14.9405
# 6 3.1653 4.7279 0.5771 10.1807 -14.9405 50.2662
#
#
#
# Elastic Compliance Matrix: (Units=1/GPa)
#
#
# Indices 1 2 3 4 5 6 
#
# 1 0.015664 -0.006488 -0.002557 0.001396 -0.007283 -0.002794
# 2 -0.006488 0.012914 -0.005611 0.002564 0.003941 -0.000089
# 3 -0.002557 -0.005611 0.014648 -0.003385 -0.007447 -0.001007
# 4 0.001396 0.002564 -0.003385 0.023914 -0.003205 -0.006086
# 5 -0.007283 0.003941 -0.007447 -0.003205 0.052643 0.016470
# 6 -0.002794 -0.000089 -0.001007 -0.006086 0.016470 0.026218
#
#
# Mechanical properties :
#
#
# Convention : Reuss Voigt Hill
#
# Bulk Modulus (GPa) = 71.88092 88.74337 80.31215
# Shear Modulus (GPa) = 27.78524 36.46321 32.12422
#
# Velocity S-wave (km/s) = 3.55292 4.07011 3.82028
# Velocity P-wave (km/s) = 7.03474 7.89969 7.47973
#
# Compressibility (1/GPa) = 0.01391190
#
# Stress axis : x y z
#
# Youngs Moduli (GPa) = 63.84023 77.43521 68.27081
#
# Poissons Ratio (x) = 0.50242 0.17460
# Poissons Ratio (y) = 0.41422 0.38308
# Poissons Ratio (z) = 0.16327 0.43450
#
# Static dielectric constant tensor:
#      x y z
#    x 3.952230 -0.118270 -0.021910 
#    y -0.118270 4.491180 -0.097090 
#    z -0.021910 -0.097090 3.940300 
# 
# 
# High freq. dielectric constant tensor:
#      x y z
#    x 1.865580 -0.009020 0.010680 
#    y -0.009020 1.894140 -0.005630 
#    z 0.010680 -0.005630 1.862910 
# 
# From -- ./inp_files/3066.got.cif
#   From: 2010.06.25/outbox.cif.g09.slc.cpg/sg2_2_cif.got.tgz:3066.got - 2010.06.27 13:26:56.
