data_PCOD8018027
_publ_section_title
;
Structure prediction by ZEFSAII (Michael W. Deem and Ramdas Pophale) SiO2 
 PCOD8018027
Probable space group: P -1
;
_chemical_formula_sum "Si O2"
_cell_formula_units_Z 16
_cell_length_a 9.222720
_cell_length_b 9.333858
_cell_length_c 13.658524
_cell_angle_alpha 61.275060
_cell_angle_beta 71.864175
_cell_angle_gamma 109.671571
_cell_volume 795.793997
_symmetry_space_group_name_H-M "P -1"
_symmetry_group_IT_number 2
_symmetry_cell_setting 'triclinic'
loop_
_space_group_symop_operation_xyz
x,y,z
-x,-y,-z
loop_
_atom_site_type_symbol
_atom_site_label
_atom_site_fract_x
_atom_site_fract_y
_atom_site_fract_z
Si Si1 0.029386 0.295937 0.526185
Si Si2 0.125762 0.146179 0.012823
Si Si3 0.040595 0.950615 0.710101
Si Si4 0.124687 0.527808 0.872244
Si Si5 0.680259 0.274849 0.634176
Si Si6 0.891466 0.566881 0.755801
Si Si7 0.505293 0.186941 0.902599
Si Si8 0.407136 0.974371 0.630404
O O1 0.211060 0.484615 0.481865
O O2 0.023851 0.349661 0.396773
O O3 0.840398 0.240897 0.637375
O O4 0.036718 0.107363 0.592402
O O5 0.170729 0.365239 0.915722
O O6 0.317667 0.166613 0.974021
O O7 0.011093 0.043765 0.169513
O O8 0.000000 0.000000 0.000000
O O9 0.894406 0.731716 0.766517
O O10 0.248859 0.011180 0.640328
O O11 0.319401 0.751375 0.764910
O O12 0.015491 0.503988 0.802709
O O13 0.000000 0.500000 0.000000
O O14 0.530908 0.200053 0.776580
O O15 0.570796 0.150718 0.603187
O O16 0.675591 0.381419 0.857972
O O17 0.500000 0.000000 0.000000
O O18 0.500000 0.000000 0.500000
#
# Coordination Sequence:
#
# PCOD8018027 Si02
#       8
#     2   2   2   2   2   2   2   2
#     4  10  22  41  65  90 129 171 210 270 342 383
#     4  12  25  41  66  97 130 179 222 266 334 392
#     4  11  23  41  63  92 129 169 216 272 326 394
#     4  11  23  45  68  92 136 177 212 275 331 390
#     4  10  22  40  60  91 127 168 213 268 324 391
#     4  10  22  41  65  91 127 167 219 267 333 393
#     4  11  24  38  62  95 130 168 218 273 324 390
#     4  11  24  40  67  96 126 171 223 267 327 386
#
# _framework density 20.105706000000001
#
# number of rings (size 3 to 8) (size 9 to 14) (size 15 to 20)
#    0.000    1.250    2.500    4.125    1.750    7.000 
#    0.000    0.000    0.000    0.000    0.000    0.000 
#    0.000    0.000    0.000    0.000    0.000    0.000 
#
# Total GULP energy -198443.532440 kJ/mol
# GULP energy per Si atom -12402.720777 kJ/mol
# Density = 2.005994 g / cm^3
# Si number density = 20.105706 Si / 1000 Ang^3
#
#
#
# Elastic Constant Matrix: (Units=GPa)
#
#
# Indices 1 2 3 4 5 6 
#
# 1 121.9805 59.7312 56.1404 -6.5964 -1.8642 -16.1160
# 2 59.7312 136.9784 51.8091 3.4892 3.0878 8.0942
# 3 56.1404 51.8091 120.2402 9.0397 -8.1476 -3.7523
# 4 -6.5964 3.4892 9.0397 35.0405 -7.8440 6.5269
# 5 -1.8642 3.0878 -8.1476 -7.8440 37.4894 -0.9930
# 6 -16.1160 8.0942 -3.7523 6.5269 -0.9930 50.0640
#
#
#
# Elastic Compliance Matrix: (Units=1/GPa)
#
#
# Indices 1 2 3 4 5 6 
#
# 1 0.013092 -0.004454 -0.004259 0.003433 0.000922 0.004186
# 2 -0.004454 0.010484 -0.002592 -0.001050 -0.001954 -0.003225
# 3 -0.004259 -0.002592 0.011806 -0.003237 0.001901 0.000393
# 4 0.003433 -0.001050 -0.003237 0.032072 0.006184 -0.003026
# 5 0.000922 -0.001954 0.001901 0.006184 0.028602 0.000516
# 6 0.004186 -0.003225 0.000393 -0.003026 0.000516 0.022277
#
#
# Mechanical properties :
#
#
# Convention : Reuss Voigt Hill
#
# Bulk Modulus (GPa) = 78.28646 79.39563 78.84104
# Shear Modulus (GPa) = 34.43525 38.62002 36.52764
#
# Velocity S-wave (km/s) = 4.14298 4.38750 4.26699
# Velocity P-wave (km/s) = 7.86814 8.07724 7.97338
#
# Compressibility (1/GPa) = 0.01277360
#
# Stress axis : x y z
#
# Youngs Moduli (GPa) = 76.38470 95.38138 84.70050
#
# Poissons Ratio (x) = 0.42479 0.36070
# Poissons Ratio (y) = 0.34019 0.21955
# Poissons Ratio (z) = 0.32529 0.24724
#
# Static dielectric constant tensor:
#      x y z
#    x 3.661480 -0.014950 0.047600 
#    y -0.014950 3.861280 -0.027760 
#    z 0.047600 -0.027760 3.915780 
# 
# 
# High freq. dielectric constant tensor:
#      x y z
#    x 1.780240 0.001040 -0.004700 
#    y 0.001040 1.804650 0.001200 
#    z -0.004700 0.001200 1.794560 
# 
# From -- ./inp_files/216648.got.cif
#   From: 2010.06.25/outbox.cif.g09.slc.cpg/sg2_109_cif.got.tgz:216648.got - 2010.06.27 13:26:56.
