data_PCOD8018840
_publ_section_title
;
Structure prediction by ZEFSAII (Michael W. Deem and Ramdas Pophale) SiO2 
 PCOD8018840
Probable space group: P -1
;
_chemical_formula_sum "Si O2"
_cell_formula_units_Z 16
_cell_length_a 20.064847
_cell_length_b 15.195778
_cell_length_c 12.456237
_cell_angle_alpha 27.457404
_cell_angle_beta 28.348646
_cell_angle_gamma 36.244084
_cell_volume 825.832470
_symmetry_space_group_name_H-M "P -1"
_symmetry_group_IT_number 2
_symmetry_cell_setting 'triclinic'
loop_
_space_group_symop_operation_xyz
x,y,z
-x,-y,-z
loop_
_atom_site_type_symbol
_atom_site_label
_atom_site_fract_x
_atom_site_fract_y
_atom_site_fract_z
Si Si1 0.544200 0.481660 0.282496
Si Si2 0.335103 0.309500 0.633094
Si Si3 0.778787 0.908404 0.149582
Si Si4 0.333510 0.667960 0.106098
Si Si5 0.109933 0.368890 0.058091
Si Si6 0.952318 0.025883 0.417542
Si Si7 0.289260 0.647357 0.607499
Si Si8 0.353404 0.373918 0.224920
O O1 0.487656 0.317942 0.463755
O O2 0.412838 0.617921 0.374394
O O3 0.645171 0.375952 0.342360
O O4 0.633253 0.609979 0.940440
O O5 0.335294 0.144010 0.721872
O O6 0.287757 0.519625 0.420761
O O7 0.227514 0.264813 0.925246
O O8 0.757772 0.777389 0.425846
O O9 0.937648 0.862201 0.927493
O O10 0.759535 0.130247 0.967001
O O11 0.304185 0.582131 0.123010
O O12 0.496754 0.701527 0.851107
O O13 0.047459 0.189864 0.397731
O O14 0.178545 0.492780 0.916372
O O15 0.000000 0.500000 0.000000
O O16 0.795825 0.141891 0.508830
O O17 0.000000 0.000000 0.500000
#
# Coordination Sequence:
#
# PCOD8018840 Si02
#       8
#     2   2   2   2   2   2   2   2
#     4   9  20  40  62  79 117 156 184 236 284 342
#     4   9  18  31  53  81 112 143 184 224 282 330
#     4  11  20  33  55  88 117 146 185 235 284 331
#     4   9  18  32  52  84 115 144 186 236 278 333
#     4  11  19  33  55  83 111 148 182 230 284 330
#     4  12  23  35  58  88 115 149 188 237 284 337
#     4  10  22  41  59  85 115 149 192 232 289 342
#     4   9  19  34  54  82 111 149 191 229 278 331
#
# _framework density 19.374389000000001
#
# number of rings (size 3 to 8) (size 9 to 14) (size 15 to 20)
#    0.000    2.000    2.500    1.875    3.500    1.000 
#    0.000   10.000    0.000    1.500    0.000    0.000 
#    0.000    0.000    0.000    0.000    0.000    0.000 
#
# Total GULP energy -198323.611198 kJ/mol
# GULP energy per Si atom -12395.225700 kJ/mol
# Density = 1.933029 g / cm^3
# Si number density = 19.374389 Si / 1000 Ang^3
#
#
#
# Elastic Constant Matrix: (Units=GPa)
#
#
# Indices 1 2 3 4 5 6 
#
# 1 104.5992 40.7046 37.1060 -3.8057 8.1620 -2.9024
# 2 40.7046 94.5366 32.3228 -13.3687 2.2406 -6.2074
# 3 37.1060 32.3228 123.3447 2.0679 11.2671 1.5432
# 4 -3.8057 -13.3687 2.0679 29.7435 6.4991 -1.9010
# 5 8.1620 2.2406 11.2671 6.4991 22.9380 1.6281
# 6 -2.9024 -6.2074 1.5432 -1.9010 1.6281 25.3528
#
#
#
# Elastic Compliance Matrix: (Units=1/GPa)
#
#
# Indices 1 2 3 4 5 6 
#
# 1 0.012343 -0.004331 -0.002319 0.000501 -0.003023 0.000725
# 2 -0.004331 0.014519 -0.002592 0.006551 -0.000726 0.003755
# 3 -0.002319 -0.002592 0.009821 -0.001533 -0.003211 -0.001407
# 4 0.000501 0.006551 -0.001533 0.039639 -0.011685 0.005477
# 5 -0.003023 -0.000726 -0.003211 -0.011685 0.049944 -0.004412
# 6 0.000725 0.003755 -0.001407 0.005477 -0.004412 0.041225
#
#
# Mechanical properties :
#
#
# Convention : Reuss Voigt Hill
#
# Bulk Modulus (GPa) = 54.95382 60.30527 57.62954
# Shear Modulus (GPa) = 26.03585 29.76333 27.89959
#
# Velocity S-wave (km/s) = 3.66980 3.92372 3.79888
# Velocity P-wave (km/s) = 6.81046 7.19175 7.00370
#
# Compressibility (1/GPa) = 0.01819710
#
# Stress axis : x y z
#
# Youngs Moduli (GPa) = 81.01848 68.87393 101.82182
#
# Poissons Ratio (x) = 0.29832 0.23617
# Poissons Ratio (y) = 0.35092 0.26395
# Poissons Ratio (z) = 0.18792 0.17854
#
# Static dielectric constant tensor:
#      x y z
#    x 3.335120 0.211370 -0.070920 
#    y 0.211370 3.421450 0.100980 
#    z -0.070920 0.100980 3.888440 
# 
# 
# High freq. dielectric constant tensor:
#      x y z
#    x 1.714130 0.018200 -0.003490 
#    y 0.018200 1.740670 0.006470 
#    z -0.003490 0.006470 1.767020 
# 
# From -- ./inp_files/471201.got.cif
#   From: 2010.06.25/outbox.cif.g09.slc.cpg/sg2_236_cif.got.tgz:471201.got - 2010.06.27 13:26:56.
