data_PCOD8018322
_publ_section_title
;
Structure prediction by ZEFSAII (Michael W. Deem and Ramdas Pophale) SiO2 
 PCOD8018322
Probable space group: P -1
;
_chemical_formula_sum "Si O2"
_cell_formula_units_Z 16
_cell_length_a 9.293071
_cell_length_b 21.802679
_cell_length_c 8.163066
_cell_angle_alpha 46.439142
_cell_angle_beta 72.029724
_cell_angle_gamma 106.810768
_cell_volume 781.564020
_symmetry_space_group_name_H-M "P -1"
_symmetry_group_IT_number 2
_symmetry_cell_setting 'triclinic'
loop_
_space_group_symop_operation_xyz
x,y,z
-x,-y,-z
loop_
_atom_site_type_symbol
_atom_site_label
_atom_site_fract_x
_atom_site_fract_y
_atom_site_fract_z
Si Si1 0.462095 0.667092 0.321993
Si Si2 0.097054 0.616520 0.654211
Si Si3 0.254901 0.295831 0.118736
Si Si4 0.236339 0.916799 0.425703
Si Si5 0.657341 0.515485 0.041110
Si Si6 0.766563 0.933641 0.642463
Si Si7 0.449364 0.849075 0.336218
Si Si8 0.766481 0.877543 0.379501
O O1 0.227508 0.620450 0.454825
O O2 0.454846 0.611576 0.598279
O O3 0.540058 0.641832 0.188723
O O4 0.619530 0.811254 0.029834
O O5 0.265843 0.743335 0.466576
O O6 0.000000 0.500000 0.000000
O O7 0.884464 0.586049 0.732225
O O8 0.249551 0.230036 0.396237
O O9 0.027455 0.193250 0.291124
O O10 0.282172 0.401021 0.980225
O O11 0.331143 0.860541 0.493554
O O12 0.287143 0.989652 0.440403
O O13 0.347879 0.014988 0.059340
O O14 0.500000 0.500000 0.000000
O O15 0.732368 0.908499 0.508927
O O16 0.000000 0.000000 0.500000
O O17 0.559932 0.815733 0.451327
O O18 0.000000 0.000000 0.000000
#
# Coordination Sequence:
#
# PCOD8018322 Si02
#       8
#     2   2   2   2   2   2   2   2
#     4  10  22  41  64  87 126 169 202 248 317 372
#     4  10  22  40  65  85 121 168 207 250 315 367
#     4  11  22  41  65  93 127 163 208 253 317 373
#     4  11  21  38  63  92 127 168 198 252 324 373
#     4  11  25  43  65  94 119 163 217 264 300 371
#     4  11  20  38  63  91 127 164 202 248 316 372
#     4  11  22  39  62  90 129 164 206 260 305 375
#     4  11  23  36  62  95 122 163 209 254 304 379
#
# _framework density 20.471772000000001
#
# number of rings (size 3 to 8) (size 9 to 14) (size 15 to 20)
#    0.000    1.250    6.250    0.375    3.500    0.500 
#    0.000    3.125    0.000    0.000    0.000    0.000 
#    0.000    0.000    0.000    0.000    0.000    0.000 
#
# Total GULP energy -198219.678641 kJ/mol
# GULP energy per Si atom -12388.729915 kJ/mol
# Density = 2.042518 g / cm^3
# Si number density = 20.471772 Si / 1000 Ang^3
#
#
#
# Elastic Constant Matrix: (Units=GPa)
#
#
# Indices 1 2 3 4 5 6 
#
# 1 118.1317 17.3583 44.7038 8.8926 -21.2948 -4.6781
# 2 17.3583 67.9668 24.9582 -2.1770 -9.4272 -18.6160
# 3 44.7038 24.9582 111.5965 5.2072 -15.8373 -5.4089
# 4 8.8926 -2.1770 5.2072 28.1608 -7.4382 -3.2888
# 5 -21.2948 -9.4272 -15.8373 -7.4382 33.7920 7.1679
# 6 -4.6781 -18.6160 -5.4089 -3.2888 7.1679 37.4195
#
#
#
# Elastic Compliance Matrix: (Units=1/GPa)
#
#
# Indices 1 2 3 4 5 6 
#
# 1 0.010865 -0.001140 -0.003383 -0.001734 0.004721 -0.000755
# 2 -0.001140 0.019033 -0.003266 0.004012 0.002075 0.008809
# 3 -0.003383 -0.003266 0.011366 -0.000784 0.002306 -0.000915
# 4 -0.001734 0.004012 -0.000784 0.038907 0.007447 0.003659
# 5 0.004721 0.002075 0.002306 0.007447 0.036809 -0.004440
# 6 -0.000755 0.008809 -0.000915 0.003659 -0.004440 0.032052
#
#
# Mechanical properties :
#
#
# Convention : Reuss Voigt Hill
#
# Bulk Modulus (GPa) = 38.93167 52.41507 45.67337
# Shear Modulus (GPa) = 28.87336 33.91943 31.39640
#
# Velocity S-wave (km/s) = 3.75960 4.07490 3.92042
# Velocity P-wave (km/s) = 6.15668 6.91368 6.54613
#
# Compressibility (1/GPa) = 0.02568603
#
# Stress axis : x y z
#
# Youngs Moduli (GPa) = 92.04247 52.54153 87.98372
#
# Poissons Ratio (x) = 0.05989 0.29764
# Poissons Ratio (y) = 0.10492 0.28733
# Poissons Ratio (z) = 0.31137 0.17158
#
# Static dielectric constant tensor:
#      x y z
#    x 3.788020 -0.500600 0.010240 
#    y -0.500600 3.119610 0.368390 
#    z 0.010240 0.368390 3.024410 
# 
# 
# High freq. dielectric constant tensor:
#      x y z
#    x 1.793970 -0.036300 -0.020180 
#    y -0.036300 1.793110 -0.009860 
#    z -0.020180 -0.009860 1.808830 
# 
# From -- ./inp_files/225218.got.cif
#   From: 2010.06.25/outbox.cif.g09.slc.cpg/sg2_113_cif.got.tgz:225218.got - 2010.06.27 13:26:56.
