data_PCOD8018734
_publ_section_title
;
Structure prediction by ZEFSAII (Michael W. Deem and Ramdas Pophale) SiO2 
 PCOD8018734
Probable space group: P -1
;
_chemical_formula_sum "Si O2"
_cell_formula_units_Z 16
_cell_length_a 8.220092
_cell_length_b 14.216507
_cell_length_c 9.142420
_cell_angle_alpha 43.859417
_cell_angle_beta 66.895138
_cell_angle_gamma 67.405649
_cell_volume 672.251658
_symmetry_space_group_name_H-M "P -1"
_symmetry_group_IT_number 2
_symmetry_cell_setting 'triclinic'
loop_
_space_group_symop_operation_xyz
x,y,z
-x,-y,-z
loop_
_atom_site_type_symbol
_atom_site_label
_atom_site_fract_x
_atom_site_fract_y
_atom_site_fract_z
Si Si1 0.919053 0.436605 0.458356
Si Si2 0.239457 0.371058 0.199898
Si Si3 0.205578 0.113685 0.333780
Si Si4 0.457300 0.008651 0.837371
Si Si5 0.850182 0.173177 0.246790
Si Si6 0.519142 0.294090 0.413140
Si Si7 0.280866 0.765408 0.093418
Si Si8 0.625823 0.538818 0.238037
O O1 0.860375 0.290992 0.686709
O O2 0.744757 0.537490 0.344551
O O3 0.000000 0.500000 0.500000
O O4 0.056009 0.416824 0.298596
O O5 0.265322 0.211312 0.326391
O O6 0.404646 0.388068 0.227329
O O7 0.250538 0.463655 0.948338
O O8 0.371833 0.059947 0.235018
O O9 0.048135 0.199304 0.193878
O O10 0.139745 0.990881 0.584155
O O11 0.410154 0.171114 0.634815
O O12 0.295803 0.923188 0.953924
O O13 0.500000 0.000000 0.000000
O O14 0.714856 0.232945 0.354325
O O15 0.792745 0.244402 0.033752
O O16 0.541038 0.396876 0.424957
O O17 0.476155 0.673238 0.140752
#
# Coordination Sequence:
#
# PCOD8018734 Si02
#       8
#     2   2   2   2   2   2   2   2
#     4  12  30  45  67 108 150 182 235 303 358 414
#     4  12  24  45  74 100 140 192 240 286 351 424
#     4  10  22  43  69 104 139 184 238 289 344 424
#     4  11  24  44  70 101 142 188 232 295 359 415
#     4  10  22  40  70 102 141 181 236 291 348 419
#     4  11  23  43  73 106 139 185 244 288 349 427
#     4  12  25  45  72 101 142 185 237 290 360 416
#     4  12  25  47  74 101 142 192 240 286 356 428
#
# _framework density 23.800609000000001
#
# number of rings (size 3 to 8) (size 9 to 14) (size 15 to 20)
#    0.000    0.750    2.500    4.125    3.500    6.000 
#    0.000    1.875    0.000    0.000    0.000    0.000 
#    0.000    0.000    0.000    0.000    0.000    0.000 
#
# Total GULP energy -198426.828826 kJ/mol
# GULP energy per Si atom -12401.676802 kJ/mol
# Density = 2.374644 g / cm^3
# Si number density = 23.800609 Si / 1000 Ang^3
#
#
#
# Elastic Constant Matrix: (Units=GPa)
#
#
# Indices 1 2 3 4 5 6 
#
# 1 112.6637 14.1879 35.0006 -3.4925 17.2206 14.6616
# 2 14.1879 70.4676 21.4811 -5.0977 -2.7550 11.2806
# 3 35.0006 21.4811 119.9490 -0.6097 -4.8281 8.6753
# 4 -3.4925 -5.0977 -0.6097 41.3742 4.4960 -1.7490
# 5 17.2206 -2.7550 -4.8281 4.4960 51.0575 2.3508
# 6 14.6616 11.2806 8.6753 -1.7490 2.3508 30.8650
#
#
#
# Elastic Compliance Matrix: (Units=1/GPa)
#
#
# Indices 1 2 3 4 5 6 
#
# 1 0.011021 -0.000795 -0.002956 0.001060 -0.003960 -0.003752
# 2 -0.000795 0.015953 -0.002228 0.001553 0.001003 -0.004815
# 3 -0.002956 -0.002228 0.009721 -0.000615 0.001882 -0.000692
# 4 0.001060 0.001553 -0.000615 0.024747 -0.002543 0.000697
# 5 -0.003960 0.001003 0.001882 -0.002543 0.021414 -0.000790
# 6 -0.003752 -0.004815 -0.000692 0.000697 -0.000790 0.036235
#
#
# Mechanical properties :
#
#
# Convention : Reuss Voigt Hill
#
# Bulk Modulus (GPa) = 40.42804 49.37995 44.90399
# Shear Modulus (GPa) = 35.89487 40.15339 38.02413
#
# Velocity S-wave (km/s) = 3.88770 4.11186 4.00135
# Velocity P-wave (km/s) = 6.09716 6.58297 6.34472
#
# Compressibility (1/GPa) = 0.02473531
#
# Stress axis : x y z
#
# Youngs Moduli (GPa) = 90.73643 62.68552 102.86818
#
# Poissons Ratio (x) = 0.04986 0.30409
# Poissons Ratio (y) = 0.07217 0.22922
# Poissons Ratio (z) = 0.26822 0.13968
#
# Static dielectric constant tensor:
#      x y z
#    x 4.379420 0.203530 -0.153020 
#    y 0.203530 4.173170 -0.185210 
#    z -0.153020 -0.185210 4.616690 
# 
# 
# High freq. dielectric constant tensor:
#      x y z
#    x 1.949230 0.012710 -0.002720 
#    y 0.012710 1.935790 -0.002480 
#    z -0.002720 -0.002480 1.955460 
# 
# From -- ./inp_files/205013.got.cif
#   From: 2010.06.25/outbox.cif.g09.slc.cpg/sg2_103_cif.got.tgz:205013.got - 2010.06.27 13:26:56.
