data_PCOD8018405
_publ_section_title
;
Structure prediction by ZEFSAII (Michael W. Deem and Ramdas Pophale) SiO2 
 PCOD8018405
Probable space group: P -1
;
_chemical_formula_sum "Si O2"
_cell_formula_units_Z 16
_cell_length_a 5.103889
_cell_length_b 5.971892
_cell_length_c 26.998564
_cell_angle_alpha 96.122518
_cell_angle_beta 124.458976
_cell_angle_gamma 83.827646
_cell_volume 673.529635
_symmetry_space_group_name_H-M "P -1"
_symmetry_group_IT_number 2
_symmetry_cell_setting 'triclinic'
loop_
_space_group_symop_operation_xyz
x,y,z
-x,-y,-z
loop_
_atom_site_type_symbol
_atom_site_label
_atom_site_fract_x
_atom_site_fract_y
_atom_site_fract_z
Si Si1 0.342365 0.795558 0.645289
Si Si2 0.107824 0.831093 0.125445
Si Si3 0.576531 0.907909 0.429394
Si Si4 0.250698 0.310081 0.464673
Si Si5 0.460160 0.609320 0.070797
Si Si6 0.735449 0.188433 0.042208
Si Si7 0.199957 0.611164 0.315985
Si Si8 0.461655 0.177084 0.734876
O O1 0.270095 0.981966 0.599192
O O2 0.681164 0.653741 0.676020
O O3 0.065984 0.617979 0.600499
O O4 0.321012 0.938233 0.697318
O O5 0.271675 0.639250 0.102850
O O6 0.332027 0.878155 0.196173
O O7 0.767880 0.759231 0.106852
O O8 0.061819 0.065468 0.094846
O O9 0.398284 0.096979 0.446909
O O10 0.832141 0.767791 0.489174
O O11 0.323286 0.732057 0.380693
O O12 0.500000 0.500000 0.500000
O O13 0.582593 0.349497 0.072515
O O14 0.216876 0.672460 0.000410
O O15 0.500000 0.000000 0.000000
O O16 0.316473 0.726861 0.281233
O O17 0.817345 0.634406 0.277323
#
# Coordination Sequence:
#
# PCOD8018405 Si02
#       8
#     2   2   2   2   2   2   2   2
#     4  11  25  44  69  91 134 176 220 276 347 403
#     4  11  23  41  65  95 136 176 225 276 328 389
#     4  10  23  41  64  97 132 164 217 276 337 418
#     4  11  23  39  69 100 131 165 216 279 350 410
#     4  10  22  40  66 101 135 173 222 274 331 395
#     4   9  21  40  67 100 137 177 216 273 337 390
#     4  11  25  44  71  91 132 173 226 275 340 393
#     4  11  26  45  65  97 130 179 231 280 323 402
#
# _framework density 23.75545
#
# number of rings (size 3 to 8) (size 9 to 14) (size 15 to 20)
#    0.000    1.500    1.250    2.250    3.500   11.500 
#    0.000    0.000    0.000    0.000    0.000    0.000 
#    0.000    0.000    0.000    0.000    0.000    0.000 
#
# Total GULP energy -198339.336394 kJ/mol
# GULP energy per Si atom -12396.208525 kJ/mol
# Density = 2.370138 g / cm^3
# Si number density = 23.755450 Si / 1000 Ang^3
#
#
#
# Elastic Constant Matrix: (Units=GPa)
#
#
# Indices 1 2 3 4 5 6 
#
# 1 66.4659 14.4123 36.6728 -0.2364 -4.2301 -22.7446
# 2 14.4123 106.9757 54.4421 -0.3956 -0.9858 -19.8558
# 3 36.6728 54.4421 182.8543 -6.5692 1.4075 -18.8904
# 4 -0.2364 -0.3956 -6.5692 22.5230 -8.2320 4.2923
# 5 -4.2301 -0.9858 1.4075 -8.2320 34.2657 -2.4994
# 6 -22.7446 -19.8558 -18.8904 4.2923 -2.4994 28.0431
#
#
#
# Elastic Compliance Matrix: (Units=1/GPa)
#
#
# Indices 1 2 3 4 5 6 
#
# 1 0.023132 0.002154 -0.003481 -0.002943 0.003719 0.018724
# 2 0.002154 0.012341 -0.003292 -0.002043 0.000897 0.008660
# 3 -0.003481 -0.003292 0.007151 0.001976 -0.000392 -0.000674
# 4 -0.002943 -0.002043 0.001976 0.050698 0.010999 -0.009282
# 5 0.003719 0.000897 -0.000392 0.010999 0.032664 0.004615
# 6 0.018724 0.008660 -0.000674 -0.009282 0.004615 0.058355
#
#
# Mechanical properties :
#
#
# Convention : Reuss Voigt Hill
#
# Bulk Modulus (GPa) = 29.95187 63.03895 46.49541
# Shear Modulus (GPa) = 24.42495 33.68427 29.05461
#
# Velocity S-wave (km/s) = 3.21001 3.76967 3.50104
# Velocity P-wave (km/s) = 5.13563 6.74844 5.99650
#
# Compressibility (1/GPa) = 0.03338690
#
# Stress axis : x y z
#
# Youngs Moduli (GPa) = 43.22964 81.02927 139.83205
#
# Poissons Ratio (x) = -0.17450 0.48670
# Poissons Ratio (y) = -0.09310 0.46033
# Poissons Ratio (z) = 0.15046 0.26675
#
# Static dielectric constant tensor:
#      x y z
#    x 4.079690 0.047670 -0.071420 
#    y 0.047670 4.795800 -0.330310 
#    z -0.071420 -0.330310 4.770050 
# 
# 
# High freq. dielectric constant tensor:
#      x y z
#    x 1.925750 -0.011470 -0.003510 
#    y -0.011470 1.944100 0.001510 
#    z -0.003510 0.001510 1.944660 
# 
# From -- ./inp_files/121147.got.cif
#   From: 2010.06.25/outbox.cif.g09.slc.cpg/sg2_61_cif.got.tgz:121147.got - 2010.06.27 13:26:56.
