data_PCOD8018092
_publ_section_title
;
Structure prediction by ZEFSAII (Michael W. Deem and Ramdas Pophale) SiO2 
 PCOD8018092
Probable space group: P -1
;
_chemical_formula_sum "Si O2"
_cell_formula_units_Z 16
_cell_length_a 14.815386
_cell_length_b 8.939604
_cell_length_c 5.488552
_cell_angle_alpha 118.375470
_cell_angle_beta 68.695332
_cell_angle_gamma 107.941348
_cell_volume 587.695664
_symmetry_space_group_name_H-M "P -1"
_symmetry_group_IT_number 2
_symmetry_cell_setting 'triclinic'
loop_
_space_group_symop_operation_xyz
x,y,z
-x,-y,-z
loop_
_atom_site_type_symbol
_atom_site_label
_atom_site_fract_x
_atom_site_fract_y
_atom_site_fract_z
Si Si1 0.242138 0.540414 0.351824
Si Si2 0.231911 0.900862 0.802700
Si Si3 0.858322 0.694839 0.335429
Si Si4 0.062823 0.562631 0.253302
Si Si5 0.569108 0.940527 0.189894
Si Si6 0.525200 0.267984 0.280393
Si Si7 0.353090 0.398477 0.759197
Si Si8 0.120995 0.926283 0.429288
O O1 0.269247 0.714099 0.617894
O O2 0.172937 0.381274 0.428604
O O3 0.178885 0.591588 0.225268
O O4 0.340446 0.477963 0.102205
O O5 0.322265 0.060312 0.809053
O O6 0.161333 0.922665 0.664176
O O7 0.192409 0.917775 0.125268
O O8 0.755664 0.692060 0.287821
O O9 0.917013 0.891608 0.424987
O O10 0.939540 0.577800 0.071859
O O11 0.038345 0.752878 0.354256
O O12 0.000000 0.500000 0.500000
O O13 0.581407 0.105275 0.119625
O O14 0.500000 0.000000 0.500000
O O15 0.530129 0.761221 0.951563
O O16 0.436922 0.273634 0.575812
O O17 0.603040 0.445237 0.347268
#
# Coordination Sequence:
#
# PCOD8018092 Si02
#       8
#     2   2   2   2   2   2   2   2
#     4  10  22  42  71  94 132 185 224 280 346 417
#     4  11  24  44  69  97 140 182 238 284 340 413
#     4  11  23  42  70 101 133 179 234 277 341 416
#     4  10  24  47  70 103 143 176 220 284 349 417
#     4  11  24  36  61  88 130 181 231 287 348 393
#     4  10  23  39  57  94 129 175 229 291 340 402
#     4  10  22  40  62  89 133 172 230 281 345 396
#     4  11  26  44  74 105 135 184 230 281 345 413
#
# _framework density 27.224976000000002
#
# number of rings (size 3 to 8) (size 9 to 14) (size 15 to 20)
#    0.000    1.500    1.250    2.250   12.250    2.000 
#    0.000    3.750    0.000    0.000    0.000    0.000 
#    0.000    0.000    0.000    0.000    0.000    0.000 
#
# Total GULP energy -198246.780933 kJ/mol
# GULP energy per Si atom -12390.423808 kJ/mol
# Density = 2.716301 g / cm^3
# Si number density = 27.224976 Si / 1000 Ang^3
#
#
#
# Elastic Constant Matrix: (Units=GPa)
#
#
# Indices 1 2 3 4 5 6 
#
# 1 52.8420 19.8176 21.3946 17.2034 -2.8923 -5.3063
# 2 19.8176 136.6673 53.6572 15.9772 -7.5988 16.0776
# 3 21.3946 53.6572 167.6286 2.4505 -28.1262 6.9708
# 4 17.2034 15.9772 2.4505 52.8151 2.7206 -0.9848
# 5 -2.8923 -7.5988 -28.1262 2.7206 41.3320 8.8763
# 6 -5.3063 16.0776 6.9708 -0.9848 8.8763 39.5525
#
#
#
# Elastic Compliance Matrix: (Units=1/GPa)
#
#
# Indices 1 2 3 4 5 6 
#
# 1 0.023354 -0.002199 -0.002542 -0.006686 -0.001034 0.004540
# 2 -0.002199 0.009321 -0.002350 -0.002117 0.000945 -0.003935
# 3 -0.002542 -0.002350 0.007979 0.000866 0.005177 -0.001932
# 4 -0.006686 -0.002117 0.000866 0.021823 -0.001870 0.000774
# 5 -0.001034 0.000945 0.005177 -0.001870 0.029691 -0.008145
# 6 0.004540 -0.003935 -0.001932 0.000774 -0.008145 0.029679
#
#
# Mechanical properties :
#
#
# Convention : Reuss Voigt Hill
#
# Bulk Modulus (GPa) = 37.77354 60.76408 49.26881
# Shear Modulus (GPa) = 34.51799 44.22447 39.37123
#
# Velocity S-wave (km/s) = 3.56459 4.03477 3.80695
# Velocity P-wave (km/s) = 5.55396 6.63879 6.12046
#
# Compressibility (1/GPa) = 0.02647356
#
# Stress axis : x y z
#
# Youngs Moduli (GPa) = 42.81919 107.28052 125.33560
#
# Poissons Ratio (x) = 0.23587 0.31855
# Poissons Ratio (y) = 0.09414 0.29454
# Poissons Ratio (z) = 0.10883 0.25211
#
# Static dielectric constant tensor:
#      x y z
#    x 4.706310 0.625240 -0.021350 
#    y 0.625240 4.125170 0.521020 
#    z -0.021350 0.521020 5.004010 
# 
# 
# High freq. dielectric constant tensor:
#      x y z
#    x 2.107660 -0.001840 0.004800 
#    y -0.001840 2.107290 0.010930 
#    z 0.004800 0.010930 2.100990 
# 
# From -- ./inp_files/107138.got.cif
#   From: 2010.06.25/outbox.cif.g09.slc.cpg/sg2_54_cif.got.tgz:107138.got - 2010.06.27 13:26:56.
