data_PCOD8018661
_publ_section_title
;
Structure prediction by ZEFSAII (Michael W. Deem and Ramdas Pophale) SiO2 
 PCOD8018661
Probable space group: P -1
;
_chemical_formula_sum "Si O2"
_cell_formula_units_Z 16
_cell_length_a 10.289110
_cell_length_b 16.418959
_cell_length_c 8.776123
_cell_angle_alpha 36.321682
_cell_angle_beta 120.412484
_cell_angle_gamma 102.606681
_cell_volume 703.235832
_symmetry_space_group_name_H-M "P -1"
_symmetry_group_IT_number 2
_symmetry_cell_setting 'triclinic'
loop_
_space_group_symop_operation_xyz
x,y,z
-x,-y,-z
loop_
_atom_site_type_symbol
_atom_site_label
_atom_site_fract_x
_atom_site_fract_y
_atom_site_fract_z
Si Si1 0.986844 0.568283 0.720763
Si Si2 0.680234 0.758518 0.086076
Si Si3 0.459842 0.164985 0.664651
Si Si4 0.919560 0.174636 0.188240
Si Si5 0.261344 0.957811 0.198434
Si Si6 0.054289 0.835596 0.441143
Si Si7 0.177166 0.288501 0.086829
Si Si8 0.455559 0.672090 0.262266
O O1 0.050764 0.701492 0.539048
O O2 0.801480 0.629552 0.460021
O O3 0.096548 0.458885 0.825151
O O4 0.000000 0.500000 0.000000
O O5 0.503443 0.751128 0.025889
O O6 0.676365 0.919625 0.882836
O O7 0.718193 0.728702 0.976384
O O8 0.287241 0.205214 0.419855
O O9 0.446842 0.291589 0.591745
O O10 0.594374 0.164441 0.622355
O O11 0.500000 0.000000 0.000000
O O12 0.929429 0.228940 0.282738
O O13 0.030819 0.229669 0.061193
O O14 0.731529 0.245469 0.923380
O O15 0.000000 0.000000 0.500000
O O16 0.207531 0.878610 0.425124
O O17 0.111753 0.023090 0.893322
O O18 0.500000 0.500000 0.500000
#
# Coordination Sequence:
#
# PCOD8018661 Si02
#       8
#     2   2   2   2   2   2   2   2
#     4  11  22  43  72 101 144 195 237 290 368 446
#     4  11  25  45  71 107 145 187 246 304 364 432
#     4  12  25  46  73 102 143 197 247 291 368 446
#     4  12  25  43  70 104 145 188 244 296 364 437
#     4  10  22  42  71 101 141 184 240 304 356 426
#     4  10  22  40  69 102 135 182 240 296 355 429
#     4  12  26  43  74 103 145 191 247 296 369 439
#     4  12  28  46  72 106 154 189 239 308 375 436
#
# _framework density 22.751968999999999
#
# number of rings (size 3 to 8) (size 9 to 14) (size 15 to 20)
#    0.000    0.750    2.500    4.875    3.500    3.500 
#    0.000    1.250    0.000    0.000    0.000    0.000 
#    0.000    0.000    0.000    0.000    0.000    0.000 
#
# Total GULP energy -198368.506809 kJ/mol
# GULP energy per Si atom -12398.031676 kJ/mol
# Density = 2.270018 g / cm^3
# Si number density = 22.751969 Si / 1000 Ang^3
#
#
#
# Elastic Constant Matrix: (Units=GPa)
#
#
# Indices 1 2 3 4 5 6 
#
# 1 152.1006 45.7411 18.8341 -6.7690 5.0631 6.1842
# 2 45.7411 109.8390 31.0792 -9.8683 1.4401 -7.5743
# 3 18.8341 31.0792 76.4546 -3.4894 8.5934 8.9500
# 4 -6.7690 -9.8683 -3.4894 40.4137 -4.0868 0.8004
# 5 5.0631 1.4401 8.5934 -4.0868 31.7326 -0.2690
# 6 6.1842 -7.5743 8.9500 0.8004 -0.2690 40.5216
#
#
#
# Elastic Compliance Matrix: (Units=1/GPa)
#
#
# Indices 1 2 3 4 5 6 
#
# 1 0.007690 -0.003196 -0.000265 0.000421 -0.000971 -0.001727
# 2 -0.003196 0.012191 -0.004685 0.002117 0.001530 0.003770
# 3 -0.000265 -0.004685 0.016023 -0.000136 -0.004139 -0.004399
# 4 0.000421 0.002117 -0.000136 0.025643 0.003175 -0.000124
# 5 -0.000971 0.001530 -0.004139 0.003175 0.033141 0.001506
# 6 -0.001727 0.003770 -0.004399 -0.000124 0.001506 0.026631
#
#
# Mechanical properties :
#
#
# Convention : Reuss Voigt Hill
#
# Bulk Modulus (GPa) = 50.98721 58.85589 54.92155
# Shear Modulus (GPa) = 34.68657 38.71622 36.70139
#
# Velocity S-wave (km/s) = 3.90879 4.12960 4.02071
# Velocity P-wave (km/s) = 6.54448 6.97587 6.76361
#
# Compressibility (1/GPa) = 0.01961276
#
# Stress axis : x y z
#
# Youngs Moduli (GPa) = 130.04294 82.02850 62.40901
#
# Poissons Ratio (x) = 0.26216 0.01651
# Poissons Ratio (y) = 0.41562 0.29238
# Poissons Ratio (z) = 0.03441 0.38430
#
# Static dielectric constant tensor:
#      x y z
#    x 4.566910 -0.111540 0.090290 
#    y -0.111540 4.269390 0.054010 
#    z 0.090290 0.054010 4.037990 
# 
# 
# High freq. dielectric constant tensor:
#      x y z
#    x 1.911260 -0.001430 0.007230 
#    y -0.001430 1.905850 -0.004470 
#    z 0.007230 -0.004470 1.885110 
# 
# From -- ./inp_files/216573.got.cif
#   From: 2010.06.25/outbox.cif.g09.slc.cpg/sg2_109_cif.got.tgz:216573.got - 2010.06.27 13:26:56.
