data_PCOD8018923
_publ_section_title
;
Structure prediction by ZEFSAII (Michael W. Deem and Ramdas Pophale) SiO2 
 PCOD8018923
Probable space group: P -1
;
_chemical_formula_sum "Si O2"
_cell_formula_units_Z 12
_cell_length_a 6.244323
_cell_length_b 15.210464
_cell_length_c 5.204160
_cell_angle_alpha 84.168961
_cell_angle_beta 95.008403
_cell_angle_gamma 83.071125
_cell_volume 485.650568
_symmetry_space_group_name_H-M "P -1"
_symmetry_group_IT_number 2
_symmetry_cell_setting 'triclinic'
loop_
_space_group_symop_operation_xyz
x,y,z
-x,-y,-z
loop_
_atom_site_type_symbol
_atom_site_label
_atom_site_fract_x
_atom_site_fract_y
_atom_site_fract_z
Si Si1 0.441176 0.217603 0.425948
Si Si2 0.123551 0.098051 0.225012
Si Si3 0.848808 0.105901 0.707386
Si Si4 0.657730 0.371723 0.191290
Si Si5 0.270561 0.537283 0.328355
Si Si6 0.902215 0.635402 0.545257
O O1 0.339275 0.145146 0.264390
O O2 0.623411 0.171180 0.651342
O O3 0.535017 0.285462 0.219822
O O4 0.256322 0.274521 0.564430
O O5 0.975465 0.113778 0.454961
O O6 0.205533 0.993785 0.222152
O O7 0.987310 0.136612 0.950615
O O8 0.596217 0.444540 0.398457
O O9 0.915297 0.338161 0.246020
O O10 0.604860 0.422262 0.904064
O O11 0.235855 0.434706 0.308370
O O12 0.025561 0.591665 0.317929
#
# Coordination Sequence:
#
# PCOD8018923 Si02
#       6
#     2   2   2   2   2   2
#     4  12  24  42  71 111 132 178 231 288 338 402
#     4  10  24  48  72  97 142 179 217 281 346 411
#     4  10  24  48  71 100 137 180 224 274 343 418
#     4  10  22  41  62  95 136 174 232 277 333 400
#     4   9  21  45  62  88 140 187 220 276 340 393
#     4   9  22  42  66  93 137 180 229 282 327 397
#
# _framework density 24.709123999999999
#
# number of rings (size 3 to 8) (size 9 to 14) (size 15 to 20)
#    1.000    1.000    0.000    2.000    0.000    6.667 
#    6.000    5.000    0.000    0.000    0.000    0.000 
#    0.000    0.000    0.000    0.000    0.000    0.000 
#
# Total GULP energy -148803.879382 kJ/mol
# GULP energy per Si atom -12400.323282 kJ/mol
# Density = 2.465288 g / cm^3
# Si number density = 24.709124 Si / 1000 Ang^3
#
#
#
# Elastic Constant Matrix: (Units=GPa)
#
#
# Indices 1 2 3 4 5 6 
#
# 1 114.1676 56.7776 38.8997 -13.6962 16.8613 11.4458
# 2 56.7776 116.6382 43.5479 -17.4453 5.3495 7.7600
# 3 38.8997 43.5479 149.1490 -5.4167 11.7096 -5.5625
# 4 -13.6962 -17.4453 -5.4167 20.0250 -1.5879 6.5746
# 5 16.8613 5.3495 11.7096 -1.5879 29.3675 -8.9119
# 6 11.4458 7.7600 -5.5625 6.5746 -8.9119 57.9690
#
#
#
# Elastic Compliance Matrix: (Units=1/GPa)
#
#
# Indices 1 2 3 4 5 6 
#
# 1 0.013794 -0.004662 -0.001604 0.005679 -0.007346 -0.004027
# 2 -0.004662 0.013055 -0.002457 0.008208 0.001172 -0.001814
# 3 -0.001604 -0.002457 0.007947 -0.001654 -0.001474 0.001369
# 4 0.005679 0.008208 -0.001654 0.063565 -0.003744 -0.010164
# 5 -0.007346 0.001172 -0.001474 -0.003744 0.040824 0.007853
# 6 -0.004027 -0.001814 0.001369 -0.010164 0.007853 0.020780
#
#
# Mechanical properties :
#
#
# Convention : Reuss Voigt Hill
#
# Bulk Modulus (GPa) = 57.63571 73.15611 65.39591
# Shear Modulus (GPa) = 27.29351 37.52094 32.40722
#
# Velocity S-wave (km/s) = 3.32715 3.90103 3.62546
# Velocity P-wave (km/s) = 6.17545 7.06837 6.63695
#
# Compressibility (1/GPa) = 0.01735036
#
# Stress axis : x y z
#
# Youngs Moduli (GPa) = 72.49710 76.59985 125.83049
#
# Poissons Ratio (x) = 0.35708 0.20179
# Poissons Ratio (y) = 0.33795 0.30922
# Poissons Ratio (z) = 0.11626 0.18824
#
# Static dielectric constant tensor:
#      x y z
#    x 4.678420 -0.064040 0.068210 
#    y -0.064040 4.573200 -0.045330 
#    z 0.068210 -0.045330 3.985300 
# 
# 
# High freq. dielectric constant tensor:
#      x y z
#    x 2.009170 -0.004530 0.004310 
#    y -0.004530 1.994000 -0.005290 
#    z 0.004310 -0.005290 1.954460 
# 
# From -- ./inp_files/4424.got.cif
#   From: 2010.06.25/outbox.cif.g09.slc.cpg/sg2_3_cif.got.tgz:4424.got - 2010.06.27 13:26:56.
