data_PCOD8018645
_publ_section_title
;
Structure prediction by ZEFSAII (Michael W. Deem and Ramdas Pophale) SiO2 
 PCOD8018645
Probable space group: P -1
;
_chemical_formula_sum "Si O2"
_cell_formula_units_Z 16
_cell_length_a 14.311716
_cell_length_b 13.722529
_cell_length_c 14.216515
_cell_angle_alpha 34.690121
_cell_angle_beta 30.888297
_cell_angle_gamma 32.678638
_cell_volume 721.869716
_symmetry_space_group_name_H-M "P -1"
_symmetry_group_IT_number 2
_symmetry_cell_setting 'triclinic'
loop_
_space_group_symop_operation_xyz
x,y,z
-x,-y,-z
loop_
_atom_site_type_symbol
_atom_site_label
_atom_site_fract_x
_atom_site_fract_y
_atom_site_fract_z
Si Si1 0.965931 0.715781 0.371298
Si Si2 0.211758 0.992853 0.350108
Si Si3 0.357296 0.047251 0.675983
Si Si4 0.406443 0.660550 0.030021
Si Si5 0.300960 0.941647 0.535431
Si Si6 0.371287 0.606616 0.439060
Si Si7 0.321365 0.558006 0.863073
Si Si8 0.962991 0.587329 0.859258
O O1 0.184400 0.696264 0.226318
O O2 0.000000 0.500000 0.500000
O O3 0.875190 0.814901 0.268794
O O4 0.818814 0.845013 0.481418
O O5 0.255129 0.950982 0.457078
O O6 0.360866 0.817817 0.292911
O O7 0.000000 0.000000 0.500000
O O8 0.216417 0.189623 0.160059
O O9 0.452203 0.139353 0.597141
O O10 0.500000 0.000000 0.500000
O O11 0.373076 0.859944 0.859550
O O12 0.575142 0.581171 0.028534
O O13 0.500000 0.500000 0.000000
O O14 0.241273 0.789159 0.761027
O O15 0.500000 0.500000 0.500000
O O16 0.497774 0.508629 0.315910
O O17 0.158508 0.590955 0.637168
O O18 0.119592 0.536776 0.030051
O O19 0.000000 0.500000 0.000000
#
# Coordination Sequence:
#
# PCOD8018645 Si02
#       8
#     2   2   2   2   2   2   2   2
#     4  11  24  44  73  99 133 181 230 291 356 417
#     4  10  22  40  68  98 143 181 226 281 345 415
#     4  10  22  44  68  95 132 175 225 285 348 416
#     4  12  25  45  68 102 136 175 232 294 353 427
#     4  11  22  44  69 101 137 180 229 289 353 419
#     4  11  22  46  70 101 141 190 231 288 352 408
#     4  12  25  45  71 104 142 184 236 292 351 425
#     4  11  23  43  67 100 142 186 234 289 343 416
#
# _framework density 22.164663999999998
#
# number of rings (size 3 to 8) (size 9 to 14) (size 15 to 20)
#    0.000    1.000    2.500    5.625    3.500    0.500 
#    4.500    0.000    0.000    0.000    0.000    0.000 
#    0.000    0.000    0.000    0.000    0.000    0.000 
#
# Total GULP energy -198213.475742 kJ/mol
# GULP energy per Si atom -12388.342234 kJ/mol
# Density = 2.211422 g / cm^3
# Si number density = 22.164664 Si / 1000 Ang^3
#
#
#
# Elastic Constant Matrix: (Units=GPa)
#
#
# Indices 1 2 3 4 5 6 
#
# 1 152.4725 26.5285 33.4880 -8.2016 -8.8551 -23.0760
# 2 26.5285 92.9732 27.8588 -24.4769 -3.4306 1.8002
# 3 33.4880 27.8588 101.5032 -24.6081 -10.9170 -0.6301
# 4 -8.2016 -24.4769 -24.6081 53.0237 -2.3160 3.7568
# 5 -8.8551 -3.4306 -10.9170 -2.3160 46.7197 -5.0096
# 6 -23.0760 1.8002 -0.6301 3.7568 -5.0096 41.8448
#
#
#
# Elastic Compliance Matrix: (Units=1/GPa)
#
#
# Indices 1 2 3 4 5 6 
#
# 1 0.008133 -0.001953 -0.002202 -0.000945 0.001350 0.004782
# 2 -0.001953 0.013240 -0.001725 0.005169 0.000229 -0.002109
# 3 -0.002202 -0.001725 0.012488 0.004845 0.002498 -0.001088
# 4 -0.000945 0.005169 0.004845 0.023624 0.002233 -0.002524
# 5 0.001350 0.000229 0.002498 0.002233 0.022724 0.003292
# 6 0.004782 -0.002109 -0.001088 -0.002524 0.003292 0.027230
#
#
# Mechanical properties :
#
#
# Convention : Reuss Voigt Hill
#
# Bulk Modulus (GPa) = 45.24315 58.07773 51.66044
# Shear Modulus (GPa) = 39.50504 45.58921 42.54712
#
# Velocity S-wave (km/s) = 4.22636 4.54016 4.38607
# Velocity P-wave (km/s) = 6.65378 7.33102 7.00059
#
# Compressibility (1/GPa) = 0.02210279
#
# Stress axis : x y z
#
# Youngs Moduli (GPa) = 122.95289 75.52963 80.07532
#
# Poissons Ratio (x) = 0.14748 0.17630
# Poissons Ratio (y) = 0.24007 0.13813
# Poissons Ratio (z) = 0.27070 0.13029
#
# Static dielectric constant tensor:
#      x y z
#    x 4.327110 -0.221260 -0.370180 
#    y -0.221260 4.189390 -0.151030 
#    z -0.370180 -0.151030 3.978530 
# 
# 
# High freq. dielectric constant tensor:
#      x y z
#    x 1.892790 -0.014000 -0.012760 
#    y -0.014000 1.878340 -0.022350 
#    z -0.012760 -0.022350 1.866320 
# 
# From -- ./inp_files/534055.got.cif
#   From: 2010.06.25/outbox.cif.g09.slc.cpg/sg2_268_cif.got.tgz:534055.got - 2010.06.27 13:26:56.
