data_PCOD8018177
_publ_section_title
;
Structure prediction by ZEFSAII (Michael W. Deem and Ramdas Pophale) SiO2 
 PCOD8018177
Probable space group: P -1
;
_chemical_formula_sum "Si O2"
_cell_formula_units_Z 14
_cell_length_a 17.902899
_cell_length_b 13.734746
_cell_length_c 16.371166
_cell_angle_alpha 163.232121
_cell_angle_beta 34.132767
_cell_angle_gamma 145.908507
_cell_volume 635.694333
_symmetry_space_group_name_H-M "P -1"
_symmetry_group_IT_number 2
_symmetry_cell_setting 'triclinic'
loop_
_space_group_symop_operation_xyz
x,y,z
-x,-y,-z
loop_
_atom_site_type_symbol
_atom_site_label
_atom_site_fract_x
_atom_site_fract_y
_atom_site_fract_z
Si Si1 0.760880 0.866398 0.211548
Si Si2 0.227980 0.636792 0.544479
Si Si3 0.537003 0.349042 0.429528
Si Si4 0.821846 0.459909 0.315709
Si Si5 0.503294 0.577475 0.825303
Si Si6 0.084092 0.704918 0.442462
Si Si7 0.025816 0.829883 0.184284
O O1 0.614894 0.699394 0.246934
O O2 0.732977 0.041879 0.293104
O O3 0.833647 0.165156 0.446660
O O4 0.860011 0.608437 0.898026
O O5 0.221340 0.778675 0.756773
O O6 0.350658 0.429337 0.270508
O O7 0.077191 0.402435 0.474051
O O8 0.500000 0.500000 0.500000
O O9 0.699519 0.414477 0.326257
O O10 0.498935 0.523981 0.687979
O O11 0.468473 0.944629 0.170456
O O12 0.862718 0.866018 0.630189
O O13 0.938988 0.315284 0.050907
O O14 0.101101 0.999905 0.591870
O O15 0.000000 0.500000 0.000000
#
# Coordination Sequence:
#
# PCOD8018177 Si02
#       7
#     2   2   2   2   2   2   2
#     4  12  25  42  65  98 131 163 206 276 320 355
#     4  10  23  45  67  90 129 175 212 253 316 388
#     4  11  23  42  65  91 125 167 209 264 316 370
#     4  10  22  40  63  92 121 166 221 253 304 392
#     4  11  25  43  66  97 127 166 218 258 312 387
#     4  11  24  41  64  97 128 165 216 257 313 386
#     4  11  23  41  63  91 127 168 207 263 317 370
#
# _framework density 22.023164000000001
#
# number of rings (size 3 to 8) (size 9 to 14) (size 15 to 20)
#    0.000    1.143    0.000    7.286    0.000    9.143 
#    0.000    5.000    0.000    0.000    0.000    0.000 
#    0.000    0.000    0.000    0.000    0.000    0.000 
#
# Total GULP energy -173483.618505 kJ/mol
# GULP energy per Si atom -12391.687036 kJ/mol
# Density = 2.197304 g / cm^3
# Si number density = 22.023164 Si / 1000 Ang^3
#
#
#
# Elastic Constant Matrix: (Units=GPa)
#
#
# Indices 1 2 3 4 5 6 
#
# 1 123.5067 41.5035 34.1877 7.2800 -7.0662 -10.9044
# 2 41.5035 89.8958 28.9249 3.2174 -8.8050 -6.1988
# 3 34.1877 28.9249 95.5324 4.6895 5.7951 -13.0151
# 4 7.2800 3.2174 4.6895 28.2601 -7.4199 -9.1635
# 5 -7.0662 -8.8050 5.7951 -7.4199 39.9900 9.8977
# 6 -10.9044 -6.1988 -13.0151 -9.1635 9.8977 42.6297
#
#
#
# Elastic Compliance Matrix: (Units=1/GPa)
#
#
# Indices 1 2 3 4 5 6 
#
# 1 0.010225 -0.003760 -0.002393 -0.001302 0.000872 0.000856
# 2 -0.003760 0.014151 -0.003225 0.000557 0.003146 -0.000499
# 3 -0.002393 -0.003225 0.013102 -0.001095 -0.004137 0.003644
# 4 -0.001302 0.000557 -0.001095 0.039478 0.005751 0.006564
# 5 0.000872 0.003146 -0.004137 0.005751 0.029026 -0.006085
# 6 0.000856 -0.000499 0.003644 0.006564 -0.006085 0.027540
#
#
# Mechanical properties :
#
#
# Convention : Reuss Voigt Hill
#
# Bulk Modulus (GPa) = 53.41454 57.57412 55.49433
# Shear Modulus (GPa) = 31.54198 35.79722 33.66960
#
# Velocity S-wave (km/s) = 3.78857 4.03604 3.91426
# Velocity P-wave (km/s) = 6.59122 6.92234 6.75881
#
# Compressibility (1/GPa) = 0.01872149
#
# Stress axis : x y z
#
# Youngs Moduli (GPa) = 97.80178 70.66492 76.32517
#
# Poissons Ratio (x) = 0.26567 0.18266
# Poissons Ratio (y) = 0.36769 0.24618
# Poissons Ratio (z) = 0.23406 0.22793
#
# Static dielectric constant tensor:
#      x y z
#    x 4.133110 -0.080560 -0.042860 
#    y -0.080560 4.178040 0.008450 
#    z -0.042860 0.008450 4.038670 
# 
# 
# High freq. dielectric constant tensor:
#      x y z
#    x 1.880160 -0.007690 0.001900 
#    y -0.007690 1.858750 -0.000380 
#    z 0.001900 -0.000380 1.874750 
# 
# From -- ./inp_files/538378.got.cif
#   From: 2010.06.25/outbox.cif.g09.slc.cpg/sg2_270_cif.got.tgz:538378.got - 2010.06.27 13:26:56.
