data_PCOD8018167
_publ_section_title
;
Structure prediction by ZEFSAII (Michael W. Deem and Ramdas Pophale) SiO2 
 PCOD8018167
Probable space group: P -1
;
_chemical_formula_sum "Si O2"
_cell_formula_units_Z 14
_cell_length_a 14.650181
_cell_length_b 14.361984
_cell_length_c 8.970902
_cell_angle_alpha 120.469387
_cell_angle_beta 101.156795
_cell_angle_gamma 28.849245
_cell_volume 626.375359
_symmetry_space_group_name_H-M "P -1"
_symmetry_group_IT_number 2
_symmetry_cell_setting 'triclinic'
loop_
_space_group_symop_operation_xyz
x,y,z
-x,-y,-z
loop_
_atom_site_type_symbol
_atom_site_label
_atom_site_fract_x
_atom_site_fract_y
_atom_site_fract_z
Si Si1 0.237811 0.251329 0.276429
Si Si2 0.610353 0.379596 0.773260
Si Si3 0.137379 0.692671 0.112072
Si Si4 0.362028 0.933315 0.237527
Si Si5 0.576380 0.075442 0.190319
Si Si6 0.190337 0.066682 0.590053
Si Si7 0.710652 0.129274 0.105502
O O1 0.000000 0.500000 0.500000
O O2 0.417410 0.990319 0.226813
O O3 0.330456 0.273185 0.293497
O O4 0.231480 0.197593 0.069915
O O5 0.835751 0.219744 0.728074
O O6 0.679136 0.188025 0.586329
O O7 0.429207 0.613289 0.776249
O O8 0.500000 0.500000 0.000000
O O9 0.392242 0.380220 0.879037
O O10 0.060072 0.688971 0.211294
O O11 0.949890 0.901188 0.086821
O O12 0.174359 0.139930 0.482750
O O13 0.227054 0.999988 0.131959
O O14 0.672069 0.991824 0.317466
O O15 0.538207 0.234234 0.232146
#
# Coordination Sequence:
#
# PCOD8018167 Si02
#       7
#     2   2   2   2   2   2   2
#     4  10  22  44  68  93 128 167 210 266 332 376
#     4  11  21  41  63  96 134 165 219 262 302 383
#     4  10  22  40  63  90 132 173 216 254 320 371
#     4  10  22  42  63  94 133 160 216 271 306 383
#     4   9  22  40  63  96 129 160 219 260 312 390
#     4  11  22  40  63  95 129 170 214 259 319 369
#     4   9  20  41  65  90 130 173 208 261 313 371
#
# _framework density 22.350815000000001
#
# number of rings (size 3 to 8) (size 9 to 14) (size 15 to 20)
#    0.000    2.000    2.857    0.429    0.000   11.429 
#    0.000    7.857    0.000    0.000    0.000    0.000 
#    0.000    0.000    0.000    0.000    0.000    0.000 
#
# Total GULP energy -173437.981080 kJ/mol
# GULP energy per Si atom -12388.427220 kJ/mol
# Density = 2.229994 g / cm^3
# Si number density = 22.350815 Si / 1000 Ang^3
#
#
#
# Elastic Constant Matrix: (Units=GPa)
#
#
# Indices 1 2 3 4 5 6 
#
# 1 88.1203 35.2282 31.4037 -9.2066 -0.9761 -11.9803
# 2 35.2282 120.8448 28.7536 -16.5464 -2.2512 -15.4704
# 3 31.4037 28.7536 96.0235 -18.6593 -11.9383 -16.4083
# 4 -9.2066 -16.5464 -18.6593 35.7818 5.1588 -1.8938
# 5 -0.9761 -2.2512 -11.9383 5.1588 32.4602 -2.2429
# 6 -11.9803 -15.4704 -16.4083 -1.8938 -2.2429 31.7716
#
#
#
# Elastic Compliance Matrix: (Units=1/GPa)
#
#
# Indices 1 2 3 4 5 6 
#
# 1 0.014073 -0.002950 -0.003326 0.000776 -0.000981 0.002129
# 2 -0.002950 0.010316 -0.000738 0.003824 0.000007 0.003758
# 3 -0.003326 -0.000738 0.014630 0.006103 0.004718 0.006639
# 4 0.000776 0.003824 0.006103 0.033815 -0.002346 0.007157
# 5 -0.000981 0.000007 0.004718 -0.002346 0.033181 0.004273
# 6 0.002129 0.003758 0.006639 0.007157 0.004273 0.038264
#
#
# Mechanical properties :
#
#
# Convention : Reuss Voigt Hill
#
# Bulk Modulus (GPa) = 40.01760 55.08440 47.55100
# Shear Modulus (GPa) = 30.00529 33.97625 31.99077
#
# Velocity S-wave (km/s) = 3.66795 3.90312 3.78736
# Velocity P-wave (km/s) = 5.99013 6.70905 6.35976
#
# Compressibility (1/GPa) = 0.02498900
#
# Stress axis : x y z
#
# Youngs Moduli (GPa) = 71.05974 96.94104 68.35318
#
# Poissons Ratio (x) = 0.28602 0.22736
# Poissons Ratio (y) = 0.20966 0.05044
# Poissons Ratio (z) = 0.23636 0.07153
#
# Static dielectric constant tensor:
#      x y z
#    x 4.426030 0.169300 -0.036770 
#    y 0.169300 3.925890 -0.226420 
#    z -0.036770 -0.226420 4.177260 
# 
# 
# High freq. dielectric constant tensor:
#      x y z
#    x 1.893970 0.012090 -0.006740 
#    y 0.012090 1.857820 -0.023000 
#    z -0.006740 -0.023000 1.879380 
# 
# From -- ./inp_files/313949.got.cif
#   From: 2010.06.25/outbox.cif.g09.slc.cpg/sg2_157_cif.got.tgz:313949.got - 2010.06.27 13:26:56.
