data_PCOD8018838
_publ_section_title
;
Structure prediction by ZEFSAII (Michael W. Deem and Ramdas Pophale) SiO2 
 PCOD8018838
Probable space group: P -1
;
_chemical_formula_sum "Si O2"
_cell_formula_units_Z 16
_cell_length_a 19.347578
_cell_length_b 10.335654
_cell_length_c 7.878734
_cell_angle_alpha 74.423039
_cell_angle_beta 59.153459
_cell_angle_gamma 35.308329
_cell_volume 745.275603
_symmetry_space_group_name_H-M "P -1"
_symmetry_group_IT_number 2
_symmetry_cell_setting 'triclinic'
loop_
_space_group_symop_operation_xyz
x,y,z
-x,-y,-z
loop_
_atom_site_type_symbol
_atom_site_label
_atom_site_fract_x
_atom_site_fract_y
_atom_site_fract_z
Si Si1 0.153422 0.698804 0.722471
Si Si2 0.874769 0.042749 0.088995
Si Si3 0.765104 0.768178 0.656761
Si Si4 0.460172 0.784485 0.979911
Si Si5 0.381691 0.213245 0.442422
Si Si6 0.873447 0.073749 0.601663
Si Si7 0.969709 0.725923 0.377057
Si Si8 0.357656 0.683048 0.937399
O O1 0.154374 0.761358 0.889734
O O2 0.257455 0.433329 0.647010
O O3 0.205143 0.751167 0.521799
O O4 0.987138 0.882795 0.844101
O O5 0.952882 0.851759 0.201768
O O6 0.720367 0.192427 0.188966
O O7 0.679899 0.819913 0.588534
O O8 0.872437 0.730866 0.458396
O O9 0.863840 0.530906 0.721541
O O10 0.658313 0.972155 0.858082
O O11 0.564594 0.745749 0.770065
O O12 0.521151 0.596089 0.110592
O O13 0.401734 0.770308 0.908333
O O14 0.500000 0.000000 0.500000
O O15 0.761766 0.224667 0.835457
O O16 0.921712 0.857588 0.569267
O O17 0.000000 0.000000 0.500000
#
# Coordination Sequence:
#
# PCOD8018838 Si02
#       8
#     2   2   2   2   2   2   2   2
#     4  10  22  41  59 101 125 164 223 266 331 381
#     4  10  23  38  71  96 130 162 216 292 323 378
#     4  11  25  47  65  93 135 177 221 267 328 404
#     4  11  26  45  64  97 130 179 224 261 333 398
#     4  12  28  43  66  94 137 186 219 261 322 405
#     4  11  18  38  67  92 127 162 219 273 330 378
#     4  10  24  42  68  99 126 172 217 280 336 381
#     4  11  23  41  69  97 127 170 218 285 325 385
#
# _framework density 21.468568000000001
#
# number of rings (size 3 to 8) (size 9 to 14) (size 15 to 20)
#    0.000    1.250    3.750    1.125    5.250    0.000 
#    0.000    2.500    0.000    0.000    0.000    0.000 
#    0.000    0.000    0.000    0.000    0.000    0.000 
#
# Total GULP energy -198220.125107 kJ/mol
# GULP energy per Si atom -12388.757819 kJ/mol
# Density = 2.141970 g / cm^3
# Si number density = 21.468568 Si / 1000 Ang^3
#
#
#
# Elastic Constant Matrix: (Units=GPa)
#
#
# Indices 1 2 3 4 5 6 
#
# 1 135.8862 57.6588 8.2916 2.8874 -8.0286 -4.9150
# 2 57.6588 114.5643 17.1665 23.2560 19.9314 -0.8142
# 3 8.2916 17.1665 50.1308 14.5229 1.2043 4.5147
# 4 2.8874 23.2560 14.5229 37.4584 5.9257 0.5039
# 5 -8.0286 19.9314 1.2043 5.9257 24.2667 1.0714
# 6 -4.9150 -0.8142 4.5147 0.5039 1.0714 33.2989
#
#
#
# Elastic Compliance Matrix: (Units=1/GPa)
#
#
# Indices 1 2 3 4 5 6 
#
# 1 0.011205 -0.007744 -0.000269 0.002545 0.009409 0.001160
# 2 -0.007744 0.016874 -0.002217 -0.006699 -0.014682 0.000144
# 3 -0.000269 -0.002217 0.023299 -0.008016 0.002675 -0.003218
# 4 0.002545 -0.006699 -0.008016 0.034009 -0.001600 0.000835
# 5 0.009409 -0.014682 0.002675 -0.001600 0.056689 -0.001133
# 6 0.001160 0.000144 -0.003218 0.000835 -0.001133 0.030666
#
#
# Mechanical properties :
#
#
# Convention : Reuss Voigt Hill
#
# Bulk Modulus (GPa) = 32.34387 51.86836 42.10611
# Shear Modulus (GPa) = 24.56901 33.50241 29.03571
#
# Velocity S-wave (km/s) = 3.38659 3.95464 3.68159
# Velocity P-wave (km/s) = 5.51275 6.71304 6.14228
#
# Compressibility (1/GPa) = 0.03091776
#
# Stress axis : x y z
#
# Youngs Moduli (GPa) = 89.24248 59.26353 42.91991
#
# Poissons Ratio (x) = 0.45897 0.01155
# Poissons Ratio (y) = 0.69114 0.09514
# Poissons Ratio (z) = 0.02401 0.13137
#
# Static dielectric constant tensor:
#      x y z
#    x 3.851920 0.282460 -0.451710 
#    y 0.282460 3.573920 0.716050 
#    z -0.451710 0.716050 3.265680 
# 
# 
# High freq. dielectric constant tensor:
#      x y z
#    x 1.851600 -0.001180 -0.003740 
#    y -0.001180 1.846040 0.010120 
#    z -0.003740 0.010120 1.837090 
# 
# From -- ./inp_files/328847.got.cif
#   From: 2010.06.25/outbox.cif.g09.slc.cpg/sg2_165_cif.got.tgz:328847.got - 2010.06.27 13:26:56.
