data_PCOD8018142
_publ_section_title
;
Structure prediction by ZEFSAII (Michael W. Deem and Ramdas Pophale) SiO2 
 PCOD8018142
Probable space group: P -1
;
_chemical_formula_sum "Si O2"
_cell_formula_units_Z 16
_cell_length_a 7.223098
_cell_length_b 8.520578
_cell_length_c 17.379002
_cell_angle_alpha 133.662271
_cell_angle_beta 98.009412
_cell_angle_gamma 90.447450
_cell_volume 758.098269
_symmetry_space_group_name_H-M "P -1"
_symmetry_group_IT_number 2
_symmetry_cell_setting 'triclinic'
loop_
_space_group_symop_operation_xyz
x,y,z
-x,-y,-z
loop_
_atom_site_type_symbol
_atom_site_label
_atom_site_fract_x
_atom_site_fract_y
_atom_site_fract_z
Si Si1 0.583703 0.853373 0.593918
Si Si2 0.281046 0.431133 0.947528
Si Si3 0.938195 0.734893 0.823812
Si Si4 0.951099 0.876108 0.533870
Si Si5 0.764588 0.494944 0.311570
Si Si6 0.706512 0.840991 0.295897
Si Si7 0.998880 0.757871 0.008431
Si Si8 0.398025 0.436425 0.358519
O O1 0.766329 0.949333 0.587445
O O2 0.439662 0.684924 0.477061
O O3 0.650445 0.733264 0.632207
O O4 0.490999 0.064969 0.684636
O O5 0.259523 0.291655 0.822296
O O6 0.182298 0.285480 0.961692
O O7 0.500000 0.500000 0.000000
O O8 0.175387 0.642512 0.005492
O O9 0.775754 0.580694 0.716291
O O10 0.141475 0.689012 0.789504
O O11 0.918266 0.987238 0.897907
O O12 0.924039 0.673295 0.891854
O O13 0.908681 0.614821 0.425669
O O14 0.000000 0.000000 0.500000
O O15 0.130140 0.946467 0.622914
O O16 0.709735 0.682671 0.315475
O O17 0.578928 0.373735 0.301880
#
# Coordination Sequence:
#
# PCOD8018142 Si02
#       8
#     2   2   2   2   2   2   2   2
#     4  10  23  41  62 101 129 164 211 253 311 384
#     4  11  26  45  66  95 125 161 217 272 313 368
#     4  11  23  43  67  89 129 169 208 262 315 374
#     4   9  21  39  63  94 130 161 203 255 311 378
#     4  10  22  40  62  98 125 164 209 251 316 384
#     4  11  23  39  67  92 125 168 209 259 319 370
#     4  10  26  45  65  94 122 166 220 263 317 371
#     4  10  24  40  65  94 133 166 205 256 314 379
#
# _framework density 21.105442
#
# number of rings (size 3 to 8) (size 9 to 14) (size 15 to 20)
#    0.000    1.750    1.250    0.750    7.000    7.500 
#    0.000    6.250    0.000    0.000    0.000    0.000 
#    0.000    0.000    0.000    0.000    0.000    0.000 
#
# Total GULP energy -198428.043692 kJ/mol
# GULP energy per Si atom -12401.752731 kJ/mol
# Density = 2.105741 g / cm^3
# Si number density = 21.105442 Si / 1000 Ang^3
#
#
#
# Elastic Constant Matrix: (Units=GPa)
#
#
# Indices 1 2 3 4 5 6 
#
# 1 107.2220 30.4286 18.4418 -1.9144 -8.3167 20.8604
# 2 30.4286 58.3983 10.3504 -6.9233 3.1722 12.3168
# 3 18.4418 10.3504 58.6066 -11.8598 -3.2570 7.3935
# 4 -1.9144 -6.9233 -11.8598 21.7486 -7.4039 -9.1275
# 5 -8.3167 3.1722 -3.2570 -7.4039 41.6352 -2.3418
# 6 20.8604 12.3168 7.3935 -9.1275 -2.3418 32.5902
#
#
#
# Elastic Compliance Matrix: (Units=1/GPa)
#
#
# Indices 1 2 3 4 5 6 
#
# 1 0.012665 -0.005289 -0.003041 -0.004456 0.001534 -0.006556
# 2 -0.005289 0.021378 -0.001093 0.003398 -0.002373 -0.003665
# 3 -0.003041 -0.001093 0.020742 0.012426 0.003386 0.001377
# 4 -0.004456 0.003398 0.012426 0.065186 0.012421 0.017898
# 5 0.001534 -0.002373 0.003386 0.012421 0.027237 0.004583
# 6 -0.006556 -0.003665 0.001377 0.017898 0.004583 0.041295
#
#
# Mechanical properties :
#
#
# Convention : Reuss Voigt Hill
#
# Bulk Modulus (GPa) = 27.82497 38.07428 32.94963
# Shear Modulus (GPa) = 22.79684 30.19520 26.49602
#
# Velocity S-wave (km/s) = 3.29011 3.78654 3.54702
# Velocity P-wave (km/s) = 5.25790 6.09888 5.69394
#
# Compressibility (1/GPa) = 0.03593895
#
# Stress axis : x y z
#
# Youngs Moduli (GPa) = 78.95536 46.77663 48.21196
#
# Poissons Ratio (x) = 0.24742 0.14660
# Poissons Ratio (y) = 0.41762 0.05270
# Poissons Ratio (z) = 0.24009 0.05113
#
# Static dielectric constant tensor:
#      x y z
#    x 3.928990 0.129470 0.031010 
#    y 0.129470 3.685650 -0.163200 
#    z 0.031010 -0.163200 4.103750 
# 
# 
# High freq. dielectric constant tensor:
#      x y z
#    x 1.833850 0.008760 -0.011810 
#    y 0.008760 1.817970 -0.008270 
#    z -0.011810 -0.008270 1.835150 
# 
# From -- ./inp_files/522441.got.cif
#   From: 2010.06.25/outbox.cif.g09.slc.cpg/sg2_262_cif.got.tgz:522441.got - 2010.06.27 13:26:56.
