data_PCOD8018295
_publ_section_title
;
Structure prediction by ZEFSAII (Michael W. Deem and Ramdas Pophale) SiO2 
 PCOD8018295
Probable space group: P -1
;
_chemical_formula_sum "Si O2"
_cell_formula_units_Z 14
_cell_length_a 11.535558
_cell_length_b 9.001226
_cell_length_c 25.540304
_cell_angle_alpha 151.171080
_cell_angle_beta 31.063726
_cell_angle_gamma 142.295363
_cell_volume 650.923156
_symmetry_space_group_name_H-M "P -1"
_symmetry_group_IT_number 2
_symmetry_cell_setting 'triclinic'
loop_
_space_group_symop_operation_xyz
x,y,z
-x,-y,-z
loop_
_atom_site_type_symbol
_atom_site_label
_atom_site_fract_x
_atom_site_fract_y
_atom_site_fract_z
Si Si1 0.185316 0.810760 0.515471
Si Si2 0.347445 0.923963 0.313517
Si Si3 0.238823 0.976765 0.756325
Si Si4 0.295043 0.175570 0.687331
Si Si5 0.359716 0.230869 0.936621
Si Si6 0.962512 0.271183 0.029388
Si Si7 0.859013 0.709418 0.412807
O O1 0.434539 0.711008 0.388531
O O2 0.000000 0.500000 0.500000
O O3 0.173540 0.040452 0.639844
O O4 0.143131 0.009180 0.541304
O O5 0.474611 0.965093 0.220558
O O6 0.117476 0.678552 0.319273
O O7 0.525445 0.807058 0.249197
O O8 0.274670 0.232741 0.464015
O O9 0.238250 0.634540 0.678107
O O10 0.244886 0.921107 0.674596
O O11 0.028647 0.137644 0.906520
O O12 0.174640 0.450459 0.840872
O O13 0.500000 0.500000 0.000000
O O14 0.190625 0.376259 0.007840
O O15 0.209552 0.999465 0.961316
#
# Coordination Sequence:
#
# PCOD8018295 Si02
#       7
#     2   2   2   2   2   2   2
#     4  11  28  44  65  99 137 172 218 269 330 391
#     4  10  23  37  67  94 130 164 220 268 322 377
#     4  11  23  44  67  97 131 169 223 267 326 389
#     4  11  26  43  68  96 135 176 211 273 334 384
#     4  10  22  40  64  97 128 173 218 269 320 388
#     4  10  24  41  65  95 132 169 221 267 327 388
#     4  11  24  41  69  97 127 175 219 268 324 389
#
# _framework density 21.507915000000001
#
# number of rings (size 3 to 8) (size 9 to 14) (size 15 to 20)
#    0.000    1.429    1.429    1.714   14.000    0.000 
#    0.000    0.000    0.000    6.857    0.000    0.000 
#    0.000    0.000    0.000    0.000    0.000    0.000 
#
# Total GULP energy -173455.265628 kJ/mol
# GULP energy per Si atom -12389.661831 kJ/mol
# Density = 2.145896 g / cm^3
# Si number density = 21.507915 Si / 1000 Ang^3
#
#
#
# Elastic Constant Matrix: (Units=GPa)
#
#
# Indices 1 2 3 4 5 6 
#
# 1 91.3220 50.5808 47.4468 -3.4586 14.4840 9.3677
# 2 50.5808 83.8733 50.5877 0.3660 -0.6763 11.4038
# 3 47.4468 50.5877 149.1890 -20.8404 3.0391 12.1951
# 4 -3.4586 0.3660 -20.8404 34.7167 -3.2917 -2.7402
# 5 14.4840 -0.6763 3.0391 -3.2917 36.7585 -1.8598
# 6 9.3677 11.4038 12.1951 -2.7402 -1.8598 28.5972
#
#
#
# Elastic Compliance Matrix: (Units=1/GPa)
#
#
# Indices 1 2 3 4 5 6 
#
# 1 0.019047 -0.009806 -0.002479 -0.000350 -0.007603 -0.001800
# 2 -0.009806 0.020939 -0.004299 -0.003656 0.004106 -0.003388
# 3 -0.002479 -0.004299 0.009817 0.005657 0.000538 -0.001083
# 4 -0.000350 -0.003656 0.005657 0.032650 0.002651 0.002461
# 5 -0.007603 0.004106 0.000538 0.002651 0.030614 0.002869
# 6 -0.001800 -0.003388 -0.001083 0.002461 0.002869 0.037793
#
#
# Mechanical properties :
#
#
# Convention : Reuss Voigt Hill
#
# Bulk Modulus (GPa) = 60.11797 69.06833 64.59315
# Shear Modulus (GPa) = 26.37499 31.73241 29.05370
#
# Velocity S-wave (km/s) = 3.50564 3.84524 3.67936
# Velocity P-wave (km/s) = 6.66320 7.20397 6.93886
#
# Compressibility (1/GPa) = 0.01663396
#
# Stress axis : x y z
#
# Youngs Moduli (GPa) = 52.50161 47.75765 101.86504
#
# Poissons Ratio (x) = 0.46832 0.25256
# Poissons Ratio (y) = 0.51484 0.43791
# Poissons Ratio (z) = 0.13017 0.20531
#
# Static dielectric constant tensor:
#      x y z
#    x 4.070060 0.043270 -0.064940 
#    y 0.043270 3.876830 -0.284070 
#    z -0.064940 -0.284070 4.173670 
# 
# 
# High freq. dielectric constant tensor:
#      x y z
#    x 1.846270 0.013490 0.006280 
#    y 0.013490 1.825710 -0.026910 
#    z 0.006280 -0.026910 1.863130 
# 
# From -- ./inp_files/285859.got.cif
#   From: 2010.06.25/outbox.cif.g09.slc.cpg/sg2_143_cif.got.tgz:285859.got - 2010.06.27 13:26:56.
