data_PCOD8018980
_publ_section_title
;
Structure prediction by ZEFSAII (Michael W. Deem and Ramdas Pophale) SiO2 
 PCOD8018980
Probable space group: P -1
;
_chemical_formula_sum "Si O2"
_cell_formula_units_Z 14
_cell_length_a 6.949735
_cell_length_b 16.079662
_cell_length_c 8.830363
_cell_angle_alpha 51.474039
_cell_angle_beta 122.266702
_cell_angle_gamma 99.263120
_cell_volume 630.439059
_symmetry_space_group_name_H-M "P -1"
_symmetry_group_IT_number 2
_symmetry_cell_setting 'triclinic'
loop_
_space_group_symop_operation_xyz
x,y,z
-x,-y,-z
loop_
_atom_site_type_symbol
_atom_site_label
_atom_site_fract_x
_atom_site_fract_y
_atom_site_fract_z
Si Si1 0.426235 0.675437 0.284605
Si Si2 0.876431 0.500030 0.608530
Si Si3 0.238630 0.576033 0.821594
Si Si4 0.783706 0.844313 0.830039
Si Si5 0.241505 0.906140 0.477549
Si Si6 0.888085 0.246539 0.184233
Si Si7 0.840535 0.228676 0.672129
O O1 0.693996 0.617034 0.431914
O O2 0.252139 0.595246 0.319678
O O3 0.389728 0.745349 0.344587
O O4 0.334331 0.755075 0.014320
O O5 0.000000 0.500000 0.500000
O O6 0.075722 0.491414 0.830144
O O7 0.183320 0.636054 0.891915
O O8 0.172628 0.666647 0.558390
O O9 0.500000 0.500000 0.000000
O O10 0.507939 0.850197 0.709783
O O11 0.886126 0.767874 0.814641
O O12 0.826054 0.963797 0.683308
O O13 0.917759 0.796892 0.096704
O O14 0.070873 0.856754 0.568254
O O15 0.188297 0.875419 0.318560
#
# Coordination Sequence:
#
# PCOD8018980 Si02
#       7
#     2   2   2   2   2   2   2
#     4  10  23  38  61  90 116 170 209 246 312 363
#     4  11  22  39  60  81 126 163 209 256 295 360
#     4  11  24  39  62  90 128 171 207 258 310 363
#     4  10  22  42  66  93 119 170 201 258 326 363
#     4  10  22  41  67  91 129 154 209 262 313 380
#     4  10  23  39  61  93 125 158 206 260 306 372
#     4  10  22  41  63  93 125 162 211 253 309 376
#
# _framework density 22.206745999999999
#
# number of rings (size 3 to 8) (size 9 to 14) (size 15 to 20)
#    0.000    1.714    1.429    1.714    6.000    5.143 
#    0.000    0.000    0.000    8.571    0.000    0.000 
#    0.000    0.000    0.000    0.000    0.000    0.000 
#
# Total GULP energy -173504.148942 kJ/mol
# GULP energy per Si atom -12393.153496 kJ/mol
# Density = 2.215620 g / cm^3
# Si number density = 22.206746 Si / 1000 Ang^3
#
#
#
# Elastic Constant Matrix: (Units=GPa)
#
#
# Indices 1 2 3 4 5 6 
#
# 1 81.2383 31.9121 32.7042 12.6515 10.8891 -18.7015
# 2 31.9121 92.9639 17.3901 17.6831 -3.7188 -22.4032
# 3 32.7042 17.3901 100.7964 8.6042 9.2774 -13.1408
# 4 12.6515 17.6831 8.6042 33.8321 -3.7347 -1.6045
# 5 10.8891 -3.7188 9.2774 -3.7347 36.8347 3.5984
# 6 -18.7015 -22.4032 -13.1408 -1.6045 3.5984 38.9487
#
#
#
# Elastic Compliance Matrix: (Units=1/GPa)
#
#
# Indices 1 2 3 4 5 6 
#
# 1 0.017873 -0.003501 -0.003553 -0.004312 -0.005738 0.005722
# 2 -0.003501 0.014694 -0.000196 -0.005871 0.001354 0.006337
# 3 -0.003553 -0.000196 0.011767 -0.001710 -0.002331 0.002296
# 4 -0.004312 -0.005871 -0.001710 0.035003 0.005156 -0.005059
# 5 -0.005738 0.001354 -0.002331 0.005156 0.030617 -0.005380
# 6 0.005722 0.006337 0.002296 -0.005059 -0.005380 0.033131
#
#
# Mechanical properties :
#
#
# Convention : Reuss Voigt Hill
#
# Bulk Modulus (GPa) = 33.51922 48.77903 41.14912
# Shear Modulus (GPa) = 29.84549 34.78924 32.31736
#
# Velocity S-wave (km/s) = 3.67001 3.96233 3.81897
# Velocity P-wave (km/s) = 5.75201 6.55339 6.16574
#
# Compressibility (1/GPa) = 0.02983363
#
# Stress axis : x y z
#
# Youngs Moduli (GPa) = 55.95044 68.05711 84.98007
#
# Poissons Ratio (x) = 0.23828 0.30191
# Poissons Ratio (y) = 0.19589 0.01668
# Poissons Ratio (z) = 0.19878 0.01336
#
# Static dielectric constant tensor:
#      x y z
#    x 3.965080 -0.299650 0.032140 
#    y -0.299650 4.235250 0.147350 
#    z 0.032140 0.147350 4.102960 
# 
# 
# High freq. dielectric constant tensor:
#      x y z
#    x 1.870750 -0.019580 -0.001610 
#    y -0.019580 1.876450 0.005420 
#    z -0.001610 0.005420 1.878670 
# 
# From -- ./inp_files/47220.got.cif
#   From: 2010.06.25/outbox.cif.g09.slc.cpg/sg2_24_cif.got.tgz:47220.got - 2010.06.27 13:26:56.
