data_PCOD8018942
_publ_section_title
;
Structure prediction by ZEFSAII (Michael W. Deem and Ramdas Pophale) SiO2 
 PCOD8018942
Probable space group: P -1
;
_chemical_formula_sum "Si O2"
_cell_formula_units_Z 14
_cell_length_a 8.235083
_cell_length_b 15.784278
_cell_length_c 19.216139
_cell_angle_alpha 18.266322
_cell_angle_beta 67.142233
_cell_angle_gamma 76.932747
_cell_volume 627.105869
_symmetry_space_group_name_H-M "P -1"
_symmetry_group_IT_number 2
_symmetry_cell_setting 'triclinic'
loop_
_space_group_symop_operation_xyz
x,y,z
-x,-y,-z
loop_
_atom_site_type_symbol
_atom_site_label
_atom_site_fract_x
_atom_site_fract_y
_atom_site_fract_z
Si Si1 0.384432 0.738860 0.665655
Si Si2 0.118946 0.322564 0.138945
Si Si3 0.173828 0.753478 0.363605
Si Si4 0.998095 0.671615 0.704993
Si Si5 0.541829 0.432053 0.780773
Si Si6 0.223649 0.342191 0.570438
Si Si7 0.894349 0.325848 0.858033
O O1 0.213943 0.787004 0.617138
O O2 0.525665 0.706348 0.609572
O O3 0.500000 0.000000 0.500000
O O4 0.297475 0.430364 0.969170
O O5 0.175490 0.419141 0.135809
O O6 0.999064 0.949576 0.443554
O O7 0.000000 0.500000 0.000000
O O8 0.280846 0.615537 0.403394
O O9 0.986333 0.751043 0.359132
O O10 0.095706 0.537340 0.614165
O O11 0.333983 0.108819 0.076372
O O12 0.947382 0.389525 0.881598
O O13 0.592153 0.533403 0.612558
O O14 0.722466 0.405879 0.805254
O O15 0.193521 0.040450 0.853029
#
# Coordination Sequence:
#
# PCOD8018942 Si02
#       7
#     2   2   2   2   2   2   2
#     4  11  25  40  61  90 127 166 214 264 313 375
#     4   9  21  39  62  84 116 165 211 258 309 369
#     4  10  22  45  66  94 132 165 210 263 322 385
#     4  10  22  41  63  86 121 170 206 261 320 371
#     4  11  25  40  63  98 131 165 216 269 314 380
#     4  10  23  42  69  94 126 173 208 259 325 385
#     4  11  24  39  67  96 130 165 214 260 322 385
#
# _framework density 22.324778999999999
#
# number of rings (size 3 to 8) (size 9 to 14) (size 15 to 20)
#    0.000    1.714    0.000    2.571    8.000    6.857 
#    0.000    0.000    0.000    0.000    0.000    0.000 
#    0.000    0.000    0.000    0.000    0.000    0.000 
#
# Total GULP energy -173515.949413 kJ/mol
# GULP energy per Si atom -12393.996387 kJ/mol
# Density = 2.227397 g / cm^3
# Si number density = 22.324779 Si / 1000 Ang^3
#
#
#
# Elastic Constant Matrix: (Units=GPa)
#
#
# Indices 1 2 3 4 5 6 
#
# 1 53.4280 18.2657 16.1360 -3.9660 3.7882 -1.7103
# 2 18.2657 136.7601 30.9902 0.2731 -3.9621 -16.8987
# 3 16.1360 30.9902 114.8065 9.5021 8.5463 -7.4763
# 4 -3.9660 0.2731 9.5021 45.0411 -1.1920 -3.8167
# 5 3.7882 -3.9621 8.5463 -1.1920 32.5109 -4.1955
# 6 -1.7103 -16.8987 -7.4763 -3.8167 -4.1955 34.5175
#
#
#
# Elastic Compliance Matrix: (Units=1/GPa)
#
#
# Indices 1 2 3 4 5 6 
#
# 1 0.020512 -0.002359 -0.002316 0.002199 -0.002072 -0.000649
# 2 -0.002359 0.008639 -0.001961 0.000559 0.002385 0.004039
# 3 -0.002316 -0.001961 0.009986 -0.002324 -0.002613 0.000513
# 4 0.002199 0.000559 -0.002324 0.023148 0.001612 0.002635
# 5 -0.002072 0.002385 -0.002613 0.001612 0.032636 0.004644
# 6 -0.000649 0.004039 0.000513 0.002635 0.004644 0.031883
#
#
# Mechanical properties :
#
#
# Convention : Reuss Voigt Hill
#
# Bulk Modulus (GPa) = 38.66484 48.41983 43.54234
# Shear Modulus (GPa) = 33.62507 38.38740 36.00624
#
# Velocity S-wave (km/s) = 3.88516 4.15118 4.02037
# Velocity P-wave (km/s) = 6.12232 6.68673 6.41074
#
# Compressibility (1/GPa) = 0.02586329
#
# Stress axis : x y z
#
# Youngs Moduli (GPa) = 48.75131 115.75871 100.14512
#
# Poissons Ratio (x) = 0.27312 0.23195
# Poissons Ratio (y) = 0.11502 0.19639
# Poissons Ratio (z) = 0.11292 0.22701
#
# Static dielectric constant tensor:
#      x y z
#    x 3.732530 -0.130890 0.031960 
#    y -0.130890 4.520840 0.494540 
#    z 0.031960 0.494540 4.505970 
# 
# 
# High freq. dielectric constant tensor:
#      x y z
#    x 1.856040 -0.007790 0.013450 
#    y -0.007790 1.900740 0.007220 
#    z 0.013450 0.007220 1.883880 
# 
# From -- ./inp_files/46136.got.cif
#   From: 2010.06.25/outbox.cif.g09.slc.cpg/sg2_24_cif.got.tgz:46136.got - 2010.06.27 13:26:56.
