data_PCOD8018589
_publ_section_title
;
Structure prediction by ZEFSAII (Michael W. Deem and Ramdas Pophale) SiO2 
 PCOD8018589
Probable space group: P -1
;
_chemical_formula_sum "Si O2"
_cell_formula_units_Z 16
_cell_length_a 23.255870
_cell_length_b 8.631990
_cell_length_c 8.385460
_cell_angle_alpha 94.763842
_cell_angle_beta 137.892236
_cell_angle_gamma 54.391842
_cell_volume 705.102735
_symmetry_space_group_name_H-M "P -1"
_symmetry_group_IT_number 2
_symmetry_cell_setting 'triclinic'
loop_
_space_group_symop_operation_xyz
x,y,z
-x,-y,-z
loop_
_atom_site_type_symbol
_atom_site_label
_atom_site_fract_x
_atom_site_fract_y
_atom_site_fract_z
Si Si1 0.247855 0.007864 0.120284
Si Si2 0.363599 0.755056 0.657174
Si Si3 0.854876 0.536360 0.888134
Si Si4 0.095566 0.997766 0.275894
Si Si5 0.361284 0.110484 0.776340
Si Si6 0.861258 0.124724 0.282048
Si Si7 0.313972 0.404612 0.222900
Si Si8 0.395058 0.993606 0.177538
O O1 0.357208 0.778986 0.451939
O O2 0.320331 0.952215 0.098721
O O3 0.162493 0.269552 0.050165
O O4 0.143460 0.026149 0.844554
O O5 0.230932 0.839256 0.437335
O O6 0.359906 0.931704 0.728733
O O7 0.500000 0.500000 0.000000
O O8 0.763582 0.637764 0.553086
O O9 0.812483 0.452608 0.909089
O O10 0.011306 0.280075 0.139972
O O11 0.146432 0.880507 0.545385
O O12 0.000000 0.000000 0.000000
O O13 0.500000 0.000000 0.000000
O O14 0.328563 0.168079 0.901045
O O15 0.734616 0.416707 0.004139
O O16 0.000000 0.000000 0.500000
O O17 0.450844 0.284940 0.574151
O O18 0.379617 0.146332 0.292202
#
# Coordination Sequence:
#
# PCOD8018589 Si02
#       8
#     2   2   2   2   2   2   2   2
#     4  10  25  46  69  99 140 182 238 292 343 415
#     4  11  28  46  68 106 142 185 237 289 356 422
#     4  10  23  47  68  98 142 184 234 289 346 426
#     4  12  28  47  72 106 144 187 235 294 364 417
#     4  11  23  40  72 103 140 188 231 287 355 412
#     4  12  25  44  70 102 135 186 229 289 356 412
#     4  10  22  40  67  99 136 174 234 279 341 417
#     4  10  22  41  67 101 134 181 226 285 346 409
#
# _framework density 22.69173
#
# number of rings (size 3 to 8) (size 9 to 14) (size 15 to 20)
#    0.000    1.250    2.500    1.500    8.750    3.000 
#    2.250    0.000    0.000    0.000    0.000    0.000 
#    0.000    0.000    0.000    0.000    0.000    0.000 
#
# Total GULP energy -198239.679475 kJ/mol
# GULP energy per Si atom -12389.979967 kJ/mol
# Density = 2.264008 g / cm^3
# Si number density = 22.691730 Si / 1000 Ang^3
#
#
#
# Elastic Constant Matrix: (Units=GPa)
#
#
# Indices 1 2 3 4 5 6 
#
# 1 133.9994 22.2291 56.4434 -6.1425 -10.0110 3.4131
# 2 22.2291 52.0949 42.6633 2.2165 5.2544 12.7093
# 3 56.4434 42.6633 126.3127 -4.8688 -7.9773 10.7506
# 4 -6.1425 2.2165 -4.8688 33.2309 5.7413 0.9431
# 5 -10.0110 5.2544 -7.9773 5.7413 54.2333 3.1555
# 6 3.4131 12.7093 10.7506 0.9431 3.1555 30.0928
#
#
#
# Elastic Compliance Matrix: (Units=1/GPa)
#
#
# Indices 1 2 3 4 5 6 
#
# 1 0.009346 -0.001293 -0.003681 0.001056 0.001160 0.000646
# 2 -0.001293 0.029794 -0.009078 -0.002675 -0.003670 -0.008725
# 3 -0.003681 -0.009078 0.012860 0.001486 0.001969 -0.000596
# 4 0.001056 -0.002675 0.001486 0.031141 -0.002611 -0.000223
# 5 0.001160 -0.003670 0.001969 -0.002611 0.019648 -0.001263
# 6 0.000646 -0.008725 -0.000596 -0.000223 -0.001263 0.037194
#
#
# Mechanical properties :
#
#
# Convention : Reuss Voigt Hill
#
# Bulk Modulus (GPa) = 41.84593 61.67540 51.76067
# Shear Modulus (GPa) = 28.40052 36.24949 32.32500
#
# Velocity S-wave (km/s) = 3.54161 4.00118 3.77839
# Velocity P-wave (km/s) = 5.93338 6.97027 6.47262
#
# Compressibility (1/GPa) = 0.02389719
#
# Stress axis : x y z
#
# Youngs Moduli (GPa) = 106.99519 33.56351 77.76081
#
# Poissons Ratio (x) = 0.04341 0.28621
# Poissons Ratio (y) = 0.13839 0.70588
# Poissons Ratio (z) = 0.39381 0.30468
#
# Static dielectric constant tensor:
#      x y z
#    x 3.890070 0.978510 -0.329650 
#    y 0.978510 3.160540 -0.130590 
#    z -0.329650 -0.130590 4.697170 
# 
# 
# High freq. dielectric constant tensor:
#      x y z
#    x 1.909520 0.011030 -0.010370 
#    y 0.011030 1.885910 0.006740 
#    z -0.010370 0.006740 1.904010 
# 
# From -- ./inp_files/350023.got.cif
#   From: 2010.06.25/outbox.cif.g09.slc.cpg/sg2_176_cif.got.tgz:350023.got - 2010.06.27 13:26:56.
