data_PCOD8018606
_publ_section_title
;
Structure prediction by ZEFSAII (Michael W. Deem and Ramdas Pophale) SiO2 
 PCOD8018606
Probable space group: P -1
;
_chemical_formula_sum "Si O2"
_cell_formula_units_Z 14
_cell_length_a 9.258562
_cell_length_b 9.981089
_cell_length_c 16.429353
_cell_angle_alpha 55.024712
_cell_angle_beta 86.475381
_cell_angle_gamma 44.420446
_cell_volume 692.193662
_symmetry_space_group_name_H-M "P -1"
_symmetry_group_IT_number 2
_symmetry_cell_setting 'triclinic'
loop_
_space_group_symop_operation_xyz
x,y,z
-x,-y,-z
loop_
_atom_site_type_symbol
_atom_site_label
_atom_site_fract_x
_atom_site_fract_y
_atom_site_fract_z
Si Si1 0.810027 0.525197 0.308954
Si Si2 0.564888 0.606705 0.132631
Si Si3 0.188931 0.934266 0.742997
Si Si4 0.649986 0.509425 0.770636
Si Si5 0.350609 0.470587 0.522339
Si Si6 0.592508 0.084118 0.503382
Si Si7 0.190114 0.103849 0.849704
O O1 0.683062 0.607620 0.198025
O O2 0.649036 0.590101 0.363523
O O3 0.805261 0.724227 0.252480
O O4 0.100193 0.184265 0.418470
O O5 0.341951 0.695070 0.146234
O O6 0.789993 0.282181 0.196860
O O7 0.441832 0.841587 0.987948
O O8 0.178981 0.977172 0.824251
O O9 0.942353 0.237962 0.600000
O O10 0.447365 0.777332 0.749898
O O11 0.540223 0.645165 0.636779
O O12 0.931648 0.326132 0.836483
O O13 0.500000 0.500000 0.500000
O O14 0.497292 0.194336 0.560951
O O15 0.500000 0.000000 0.500000
#
# Coordination Sequence:
#
# PCOD8018606 Si02
#       7
#     2   2   2   2   2   2   2
#     4  12  25  41  65  96 133 163 204 265 323 368
#     4  10  24  43  63  91 133 168 210 257 306 376
#     4  10  23  40  67  93 122 166 220 254 310 371
#     4  10  22  40  68  91 125 163 213 255 314 364
#     4  12  25  40  65  95 129 164 208 261 323 377
#     4  12  23  41  66  96 131 158 209 267 318 371
#     4  12  23  43  66  93 127 170 214 255 309 376
#
# _framework density 20.225553000000001
#
# number of rings (size 3 to 8) (size 9 to 14) (size 15 to 20)
#    0.857    0.000    4.286    3.000    2.000    2.857 
#    0.000    0.000    0.000    4.286    0.000    0.000 
#    0.000    0.000    0.000    0.000    0.000    0.000 
#
# Total GULP energy -173602.156147 kJ/mol
# GULP energy per Si atom -12400.154010 kJ/mol
# Density = 2.017952 g / cm^3
# Si number density = 20.225553 Si / 1000 Ang^3
#
#
#
# Elastic Constant Matrix: (Units=GPa)
#
#
# Indices 1 2 3 4 5 6 
#
# 1 85.8518 38.0654 10.8799 5.0427 -2.3749 -1.7033
# 2 38.0654 122.6765 27.4172 8.1378 2.9364 1.9758
# 3 10.8799 27.4172 93.0053 5.6109 4.7831 2.5846
# 4 5.0427 8.1378 5.6109 22.6895 8.8638 0.1652
# 5 -2.3749 2.9364 4.7831 8.8638 28.4536 6.0302
# 6 -1.7033 1.9758 2.5846 0.1652 6.0302 29.8788
#
#
#
# Elastic Compliance Matrix: (Units=1/GPa)
#
#
# Indices 1 2 3 4 5 6 
#
# 1 0.013719 -0.004076 -0.000393 -0.002366 0.002232 0.000648
# 2 -0.004076 0.010092 -0.002346 -0.002045 -0.000214 -0.000642
# 3 -0.000393 -0.002346 0.011657 -0.001501 -0.001148 -0.000636
# 4 -0.002366 -0.002045 -0.001501 0.052194 -0.016673 0.003207
# 5 0.002232 -0.000214 -0.001148 -0.016673 0.042487 -0.008242
# 6 0.000648 -0.000642 -0.000636 0.003207 -0.008242 0.035249
#
#
# Mechanical properties :
#
#
# Convention : Reuss Voigt Hill
#
# Bulk Modulus (GPa) = 45.79361 50.47317 48.13339
# Shear Modulus (GPa) = 26.83766 31.21580 29.02673
#
# Velocity S-wave (km/s) = 3.64664 3.93285 3.79245
# Velocity P-wave (km/s) = 6.35777 6.75518 6.55949
#
# Compressibility (1/GPa) = 0.02183711
#
# Stress axis : x y z
#
# Youngs Moduli (GPa) = 72.89410 99.09229 85.78625
#
# Poissons Ratio (x) = 0.40387 0.03374
# Poissons Ratio (y) = 0.29710 0.20125
# Poissons Ratio (z) = 0.02867 0.23246
#
# Static dielectric constant tensor:
#      x y z
#    x 3.506570 -0.105530 0.012150 
#    y -0.105530 3.738150 -0.005280 
#    z 0.012150 -0.005280 3.630690 
# 
# 
# High freq. dielectric constant tensor:
#      x y z
#    x 1.778400 -0.003490 0.001220 
#    y -0.003490 1.792430 -0.001000 
#    z 0.001220 -0.001000 1.790870 
# 
# From -- ./inp_files/331874.got.cif
#   From: 2010.06.25/outbox.cif.g09.slc.cpg/sg2_166_cif.got.tgz:331874.got - 2010.06.27 13:26:56.
