data_PCOD8018114
_publ_section_title
;
Structure prediction by ZEFSAII (Michael W. Deem and Ramdas Pophale) SiO2 
 PCOD8018114
Probable space group: P -1
;
_chemical_formula_sum "Si O2"
_cell_formula_units_Z 12
_cell_length_a 15.992581
_cell_length_b 7.332507
_cell_length_c 7.576409
_cell_angle_alpha 125.595749
_cell_angle_beta 115.980187
_cell_angle_gamma 97.476890
_cell_volume 551.996475
_symmetry_space_group_name_H-M "P -1"
_symmetry_group_IT_number 2
_symmetry_cell_setting 'triclinic'
loop_
_space_group_symop_operation_xyz
x,y,z
-x,-y,-z
loop_
_atom_site_type_symbol
_atom_site_label
_atom_site_fract_x
_atom_site_fract_y
_atom_site_fract_z
Si Si1 0.488140 0.802388 0.130578
Si Si2 0.106998 0.793131 0.086754
Si Si3 0.330299 0.248199 0.598284
Si Si4 0.436638 0.211152 0.199591
Si Si5 0.061639 0.236464 0.827996
Si Si6 0.228427 0.136718 0.088878
O O1 0.582298 0.846721 0.379855
O O2 0.464125 0.034065 0.251506
O O3 0.377978 0.515764 0.908558
O O4 0.530036 0.787650 0.968061
O O5 0.007328 0.811103 0.083305
O O6 0.214344 0.000314 0.419406
O O7 0.128465 0.874940 0.945011
O O8 0.083624 0.500718 0.905539
O O9 0.311859 0.324572 0.426304
O O10 0.500000 0.500000 0.500000
O O11 0.304269 0.079789 0.000698
O O12 0.177876 0.277092 0.011468
O O13 0.000000 0.000000 0.500000
#
# Coordination Sequence:
#
# PCOD8018114 Si02
#       6
#     2   2   2   2   2   2
#     4  10  22  40  62  92 130 166 205 248 306 379
#     4   9  23  45  60  91 126 162 199 270 311 356
#     4   9  21  42  61  91 125 168 201 253 311 363
#     4  11  22  38  60  95 125 165 210 253 304 371
#     4  11  24  42  67  91 119 163 213 260 314 373
#     4  10  23  41  63  92 124 164 204 259 314 358
#
# _framework density 21.739269
#
# number of rings (size 3 to 8) (size 9 to 14) (size 15 to 20)
#    1.000    1.000    1.667    0.500    4.667    2.667 
#    6.000    0.000    0.000    0.000    0.000    0.000 
#    0.000    0.000    0.000    0.000    0.000    0.000 
#
# Total GULP energy -148679.823338 kJ/mol
# GULP energy per Si atom -12389.985278 kJ/mol
# Density = 2.168979 g / cm^3
# Si number density = 21.739269 Si / 1000 Ang^3
#
#
#
# Elastic Constant Matrix: (Units=GPa)
#
#
# Indices 1 2 3 4 5 6 
#
# 1 106.7928 37.9315 24.2983 12.9891 2.3752 -18.3242
# 2 37.9315 98.1210 38.4415 14.7114 -1.3057 -36.5590
# 3 24.2983 38.4415 79.8612 9.2301 7.2379 -20.9850
# 4 12.9891 14.7114 9.2301 43.1344 -4.7837 9.1977
# 5 2.3752 -1.3057 7.2379 -4.7837 26.0262 -4.5836
# 6 -18.3242 -36.5590 -20.9850 9.1977 -4.5836 47.4575
#
#
#
# Elastic Compliance Matrix: (Units=1/GPa)
#
#
# Indices 1 2 3 4 5 6 
#
# 1 0.011331 -0.002672 -0.001149 -0.002846 -0.000973 0.002266
# 2 -0.002672 0.019077 -0.004289 -0.007284 0.003434 0.013511
# 3 -0.001149 -0.004289 0.016712 -0.003093 -0.004658 0.003792
# 4 -0.002846 -0.007284 -0.003093 0.030529 0.003969 -0.013611
# 5 -0.000973 0.003434 -0.004658 0.003969 0.041313 0.003431
# 6 0.002266 0.013511 0.003792 -0.013611 0.003431 0.037001
#
#
# Mechanical properties :
#
#
# Convention : Reuss Voigt Hill
#
# Bulk Modulus (GPa) = 32.36225 54.01306 43.18766
# Shear Modulus (GPa) = 27.40012 35.59720 31.49866
#
# Velocity S-wave (km/s) = 3.55406 4.05094 3.81061
# Velocity P-wave (km/s) = 5.63566 6.83959 6.26660
#
# Compressibility (1/GPa) = 0.03090020
#
# Stress axis : x y z
#
# Youngs Moduli (GPa) = 88.25288 52.42045 59.83875
#
# Poissons Ratio (x) = 0.14007 0.06874
# Poissons Ratio (y) = 0.23582 0.25663
# Poissons Ratio (z) = 0.10137 0.22482
#
# Static dielectric constant tensor:
#      x y z
#    x 4.092060 -0.019200 0.203720 
#    y -0.019200 4.018530 0.008000 
#    z 0.203720 0.008000 3.650450 
# 
# 
# High freq. dielectric constant tensor:
#      x y z
#    x 1.856350 -0.001090 0.014060 
#    y -0.001090 1.858220 0.000550 
#    z 0.014060 0.000550 1.832360 
# 
# From -- ./inp_files/293810.got.cif
#   From: 2010.06.25/outbox.cif.g09.slc.cpg/sg2_147_cif.got.tgz:293810.got - 2010.06.27 13:26:56.
