data_PCOD8018308
_publ_section_title
;
Structure prediction by ZEFSAII (Michael W. Deem and Ramdas Pophale) SiO2 
 PCOD8018308
Probable space group: P -1
;
_chemical_formula_sum "Si O2"
_cell_formula_units_Z 14
_cell_length_a 16.607795
_cell_length_b 8.635692
_cell_length_c 9.500385
_cell_angle_alpha 116.659072
_cell_angle_beta 143.672286
_cell_angle_gamma 80.576791
_cell_volume 669.155156
_symmetry_space_group_name_H-M "P -1"
_symmetry_group_IT_number 2
_symmetry_cell_setting 'triclinic'
loop_
_space_group_symop_operation_xyz
x,y,z
-x,-y,-z
loop_
_atom_site_type_symbol
_atom_site_label
_atom_site_fract_x
_atom_site_fract_y
_atom_site_fract_z
Si Si1 0.176476 0.164593 0.622429
Si Si2 0.162210 0.454642 0.184651
Si Si3 0.163514 0.155119 0.285725
Si Si4 0.086210 0.709774 0.657897
Si Si5 0.145161 0.745582 0.443444
Si Si6 0.341686 0.014068 0.273508
Si Si7 0.648872 0.670218 0.796918
O O1 0.216553 0.238263 0.550032
O O2 0.023976 0.178993 0.462766
O O3 0.154762 0.948823 0.499475
O O4 0.308707 0.278963 0.959227
O O5 0.151961 0.318927 0.243966
O O6 0.244889 0.668366 0.450700
O O7 0.241777 0.414392 0.147506
O O8 0.007751 0.416630 0.877949
O O9 0.289092 0.088106 0.371048
O O10 0.000000 0.000000 0.000000
O O11 0.169743 0.724707 0.634078
O O12 0.000000 0.500000 0.500000
O O13 0.216880 0.809497 0.991490
O O14 0.500000 0.000000 0.500000
O O15 0.346578 0.144800 0.200697
O O16 0.500000 0.500000 0.500000
#
# Coordination Sequence:
#
# PCOD8018308 Si02
#       7
#     2   2   2   2   2   2   2
#     4  12  22  42  70  99 130 175 236 284 332 399
#     4  10  22  40  64  99 134 168 222 280 345 403
#     4  11  21  41  69 100 135 176 226 284 341 408
#     4  12  24  39  70 102 136 177 234 282 342 412
#     4  11  21  37  67  98 128 166 223 290 326 396
#     4  11  26  45  66 101 145 179 222 285 352 409
#     4  11  25  47  67  91 138 188 226 280 347 409
#
# _framework density 20.921906
#
# number of rings (size 3 to 8) (size 9 to 14) (size 15 to 20)
#    0.000    0.857    5.714    2.143    2.000    1.143 
#    2.571    2.857    0.000    0.000    0.000    0.000 
#    0.000    0.000    0.000    0.000    0.000    0.000 
#
# Total GULP energy -173490.505430 kJ/mol
# GULP energy per Si atom -12392.178959 kJ/mol
# Density = 2.087429 g / cm^3
# Si number density = 20.921906 Si / 1000 Ang^3
#
#
#
# Elastic Constant Matrix: (Units=GPa)
#
#
# Indices 1 2 3 4 5 6 
#
# 1 83.3596 21.1099 42.0319 -9.5178 -26.6437 -6.5990
# 2 21.1099 81.2541 29.8084 14.6120 -4.4914 -20.1062
# 3 42.0319 29.8084 130.1610 2.5640 -12.8701 -7.9921
# 4 -9.5178 14.6120 2.5640 35.5534 1.2792 -1.2885
# 5 -26.6437 -4.4914 -12.8701 1.2792 42.1010 -0.5796
# 6 -6.5990 -20.1062 -7.9921 -1.2885 -0.5796 35.8297
#
#
#
# Elastic Compliance Matrix: (Units=1/GPa)
#
#
# Indices 1 2 3 4 5 6 
#
# 1 0.019313 -0.003831 -0.004426 0.006724 0.010268 0.000828
# 2 -0.003831 0.017514 -0.002196 -0.007731 -0.000878 0.008340
# 3 -0.004426 -0.002196 0.009632 -0.000972 -0.000060 0.000065
# 4 0.006724 -0.007731 -0.000972 0.033023 0.002101 -0.002095
# 5 0.010268 -0.000878 -0.000060 0.002101 0.030101 0.001948
# 6 0.000828 0.008340 0.000065 -0.002095 0.001948 0.032713
#
#
# Mechanical properties :
#
#
# Convention : Reuss Voigt Hill
#
# Bulk Modulus (GPa) = 39.13358 53.40835 46.27097
# Shear Modulus (GPa) = 29.11735 36.15179 32.63457
#
# Velocity S-wave (km/s) = 3.73462 4.16136 3.95375
# Velocity P-wave (km/s) = 6.11079 6.97654 6.55796
#
# Compressibility (1/GPa) = 0.02555350
#
# Stress axis : x y z
#
# Youngs Moduli (GPa) = 51.77868 57.09857 103.81965
#
# Poissons Ratio (x) = 0.21873 0.45947
# Poissons Ratio (y) = 0.19835 0.22800
# Poissons Ratio (z) = 0.22916 0.12540
#
# Static dielectric constant tensor:
#      x y z
#    x 7.030470 -2.185570 -0.198290 
#    y -2.185570 5.306140 -0.026010 
#    z -0.198290 -0.026010 3.747540 
# 
# 
# High freq. dielectric constant tensor:
#      x y z
#    x 1.826910 -0.011600 -0.029390 
#    y -0.011600 1.827940 0.004470 
#    z -0.029390 0.004470 1.805920 
# 
# From -- ./inp_files/157192.got.cif
#   From: 2010.06.25/outbox.cif.g09.slc.cpg/sg2_79_cif.got.tgz:157192.got - 2010.06.27 13:26:56.
