data_PCOD8018886
_publ_section_title
;
Structure prediction by ZEFSAII (Michael W. Deem and Ramdas Pophale) SiO2 
 PCOD8018886
Probable space group: P -1
;
_chemical_formula_sum "Si O2"
_cell_formula_units_Z 16
_cell_length_a 15.543465
_cell_length_b 12.686300
_cell_length_c 10.032106
_cell_angle_alpha 58.829757
_cell_angle_beta 55.995394
_cell_angle_gamma 26.229555
_cell_volume 724.114425
_symmetry_space_group_name_H-M "P -1"
_symmetry_group_IT_number 2
_symmetry_cell_setting 'triclinic'
loop_
_space_group_symop_operation_xyz
x,y,z
-x,-y,-z
loop_
_atom_site_type_symbol
_atom_site_label
_atom_site_fract_x
_atom_site_fract_y
_atom_site_fract_z
Si Si1 0.062521 0.576033 0.890298
Si Si2 0.161452 0.110643 0.357919
Si Si3 0.036014 0.603608 0.423202
Si Si4 0.762963 0.058592 0.204288
Si Si5 0.312347 0.721017 0.614619
Si Si6 0.435013 0.274244 0.159254
Si Si7 0.136829 0.692951 0.950838
Si Si8 0.482862 0.064937 0.823567
O O1 0.062338 0.635719 0.998279
O O2 0.285385 0.348359 0.784121
O O3 0.897011 0.821959 0.790114
O O4 0.000000 0.500000 0.000000
O O5 0.971047 0.357679 0.440205
O O6 0.188532 0.941765 0.487226
O O7 0.342961 0.015224 0.306481
O O8 0.000000 0.500000 0.500000
O O9 0.251491 0.432598 0.309810
O O10 0.852457 0.853151 0.340530
O O11 0.652130 0.260061 0.277714
O O12 0.603131 0.179589 0.153517
O O13 0.954144 0.930313 0.046800
O O14 0.500000 0.500000 0.500000
O O15 0.182762 0.730594 0.755822
O O16 0.520569 0.055068 0.183416
O O17 0.348113 0.451710 0.001707
O O18 0.500000 0.000000 0.000000
#
# Coordination Sequence:
#
# PCOD8018886 Si02
#       8
#     2   2   2   2   2   2   2   2
#     4  12  24  39  68 102 134 176 224 275 345 406
#     4  11  25  44  64  99 139 176 226 280 339 408
#     4  10  22  41  61  97 142 175 213 277 345 410
#     4  10  25  44  70 100 130 183 234 275 345 409
#     4  11  26  48  71  95 138 181 235 291 339 401
#     4  11  23  41  70 101 136 177 225 279 342 410
#     4  11  24  45  69  98 138 179 230 287 335 402
#     4  12  22  38  65  99 141 171 218 279 335 401
#
# _framework density 22.095956000000001
#
# number of rings (size 3 to 8) (size 9 to 14) (size 15 to 20)
#    0.000    1.000    3.750    1.875    3.500    4.500 
#    0.000    3.750    0.000    0.000    0.000    0.000 
#    0.000    0.000    0.000    0.000    0.000    0.000 
#
# Total GULP energy -198253.785124 kJ/mol
# GULP energy per Si atom -12390.861570 kJ/mol
# Density = 2.204566 g / cm^3
# Si number density = 22.095956 Si / 1000 Ang^3
#
#
#
# Elastic Constant Matrix: (Units=GPa)
#
#
# Indices 1 2 3 4 5 6 
#
# 1 101.8499 41.5530 29.6277 -4.2667 11.6939 1.9726
# 2 41.5530 102.8428 34.3664 15.7232 6.1322 4.8631
# 3 29.6277 34.3664 99.8251 8.4391 -11.0343 0.7140
# 4 -4.2667 15.7232 8.4391 39.8502 3.9034 9.1714
# 5 11.6939 6.1322 -11.0343 3.9034 42.0357 -3.9610
# 6 1.9726 4.8631 0.7140 9.1714 -3.9610 32.0538
#
#
#
# Elastic Compliance Matrix: (Units=1/GPa)
#
#
# Indices 1 2 3 4 5 6 
#
# 1 0.013470 -0.004732 -0.003274 0.004911 -0.004561 -0.002007
# 2 -0.004732 0.013450 -0.002907 -0.005017 -0.000978 -0.000370
# 3 -0.003274 -0.002907 0.012782 -0.002826 0.005122 0.001799
# 4 0.004911 -0.005017 -0.002826 0.030743 -0.005070 -0.008901
# 5 -0.004561 -0.000978 0.005122 -0.005070 0.027503 0.005164
# 6 -0.002007 -0.000370 0.001799 -0.008901 0.005164 0.034522
#
#
# Mechanical properties :
#
#
# Convention : Reuss Voigt Hill
#
# Bulk Modulus (GPa) = 55.94216 57.29022 56.61619
# Shear Modulus (GPa) = 31.20043 36.05266 33.62654
#
# Velocity S-wave (km/s) = 3.76179 4.04374 3.90531
# Velocity P-wave (km/s) = 6.65138 6.91279 6.78335
#
# Compressibility (1/GPa) = 0.01787561
#
# Stress axis : x y z
#
# Youngs Moduli (GPa) = 74.24060 74.34978 78.23419
#
# Poissons Ratio (x) = 0.35186 0.25611
# Poissons Ratio (y) = 0.35134 0.22743
# Poissons Ratio (z) = 0.24303 0.21614
#
# Static dielectric constant tensor:
#      x y z
#    x 3.875530 0.048390 -0.084790 
#    y 0.048390 4.626140 0.188950 
#    z -0.084790 0.188950 4.201920 
# 
# 
# High freq. dielectric constant tensor:
#      x y z
#    x 1.864660 0.010440 -0.001990 
#    y 0.010440 1.876720 0.010000 
#    z -0.001990 0.010000 1.877740 
# 
# From -- ./inp_files/306961.got.cif
#   From: 2010.06.25/outbox.cif.g09.slc.cpg/sg2_154_cif.got.tgz:306961.got - 2010.06.27 13:26:56.
