data_PCOD8018563
_publ_section_title
;
Structure prediction by ZEFSAII (Michael W. Deem and Ramdas Pophale) SiO2 
 PCOD8018563
Probable space group: P -1
;
_chemical_formula_sum "Si O2"
_cell_formula_units_Z 16
_cell_length_a 8.087359
_cell_length_b 14.731714
_cell_length_c 9.417035
_cell_angle_alpha 126.136822
_cell_angle_beta 103.096671
_cell_angle_gamma 110.282230
_cell_volume 698.937302
_symmetry_space_group_name_H-M "P -1"
_symmetry_group_IT_number 2
_symmetry_cell_setting 'triclinic'
loop_
_space_group_symop_operation_xyz
x,y,z
-x,-y,-z
loop_
_atom_site_type_symbol
_atom_site_label
_atom_site_fract_x
_atom_site_fract_y
_atom_site_fract_z
Si Si1 0.647046 0.899986 0.334327
Si Si2 0.707091 0.544606 0.775880
Si Si3 0.251546 0.416710 0.485396
Si Si4 0.066537 0.198537 0.749949
Si Si5 0.373560 0.035965 0.911238
Si Si6 0.228498 0.148731 0.193245
Si Si7 0.056874 0.739728 0.484811
Si Si8 0.421365 0.740238 0.415003
O O1 0.766463 0.835275 0.250240
O O2 0.534239 0.908500 0.179861
O O3 0.457559 0.799721 0.317146
O O4 0.821015 0.056556 0.579387
O O5 0.483801 0.522751 0.700183
O O6 0.769327 0.521877 0.609132
O O7 0.679198 0.425332 0.762247
O O8 0.887008 0.701074 0.015675
O O9 0.215113 0.275630 0.291310
O O10 0.075037 0.383410 0.535903
O O11 0.101844 0.288429 0.698706
O O12 0.134762 0.887716 0.709359
O O13 0.367978 0.154200 0.095796
O O14 0.500000 0.000000 0.000000
O O15 0.345647 0.165293 0.378903
O O16 0.000000 0.000000 0.000000
O O17 0.260459 0.754693 0.481948
#
# Coordination Sequence:
#
# PCOD8018563 Si02
#       8
#     2   2   2   2   2   2   2   2
#     4  10  24  41  68 100 129 169 223 271 324 391
#     4  10  23  43  65  95 129 173 225 268 326 383
#     4  10  22  40  67  95 127 175 223 274 317 391
#     4  10  22  42  69  96 129 170 221 273 321 394
#     4  11  22  41  63 100 136 166 209 274 341 386
#     4  11  21  37  69  95 131 170 221 272 324 381
#     4  11  23  41  62  96 137 170 217 269 331 388
#     4  11  25  42  61  99 138 172 218 273 324 402
#
# _framework density 22.891898999999999
#
# number of rings (size 3 to 8) (size 9 to 14) (size 15 to 20)
#    0.000    1.500    2.500    2.250    5.250    5.000 
#    2.250    0.000    0.000    0.000    0.000    0.000 
#    0.000    0.000    0.000    0.000    0.000    0.000 
#
# Total GULP energy -198347.901324 kJ/mol
# GULP energy per Si atom -12396.743833 kJ/mol
# Density = 2.283980 g / cm^3
# Si number density = 22.891899 Si / 1000 Ang^3
#
#
#
# Elastic Constant Matrix: (Units=GPa)
#
#
# Indices 1 2 3 4 5 6 
#
# 1 67.0521 40.8626 15.5270 -8.5169 -2.1083 0.8182
# 2 40.8626 157.5061 39.9409 -24.1198 4.3858 20.8567
# 3 15.5270 39.9409 98.5712 -5.0177 -1.7342 -16.9289
# 4 -8.5169 -24.1198 -5.0177 35.0055 -4.4752 -4.9851
# 5 -2.1083 4.3858 -1.7342 -4.4752 22.9114 -4.8545
# 6 0.8182 20.8567 -16.9289 -4.9851 -4.8545 31.0997
#
#
#
# Elastic Compliance Matrix: (Units=1/GPa)
#
#
# Indices 1 2 3 4 5 6 
#
# 1 0.018329 -0.005060 -0.000009 0.002011 0.003859 0.003831
# 2 -0.005060 0.011059 -0.005353 0.003579 -0.004476 -0.010322
# 3 -0.000009 -0.005353 0.014575 0.000795 0.004914 0.012419
# 4 0.002011 0.003579 0.000795 0.033150 0.006963 0.004380
# 5 0.003859 -0.004476 0.004914 0.006963 0.049650 0.014441
# 6 0.003831 -0.010322 0.012419 0.004380 0.014441 0.048693
#
#
# Mechanical properties :
#
#
# Convention : Reuss Voigt Hill
#
# Bulk Modulus (GPa) = 43.25354 57.31004 50.28179
# Shear Modulus (GPa) = 24.50896 32.92325 28.71610
#
# Velocity S-wave (km/s) = 3.27561 3.79648 3.54562
# Velocity P-wave (km/s) = 5.76558 6.65636 6.22692
#
# Compressibility (1/GPa) = 0.02311949
#
# Stress axis : x y z
#
# Youngs Moduli (GPa) = 54.55717 90.42601 68.60948
#
# Poissons Ratio (x) = 0.45755 0.00060
# Poissons Ratio (y) = 0.27605 0.36729
# Poissons Ratio (z) = 0.00048 0.48408
#
# Static dielectric constant tensor:
#      x y z
#    x 3.828680 -0.029080 -0.075180 
#    y -0.029080 4.465010 -0.070640 
#    z -0.075180 -0.070640 4.254720 
# 
# 
# High freq. dielectric constant tensor:
#      x y z
#    x 1.877260 -0.004610 -0.005200 
#    y -0.004610 1.910320 -0.009280 
#    z -0.005200 -0.009280 1.904110 
# 
# From -- ./inp_files/208779.got.cif
#   From: 2010.06.25/outbox.cif.g09.slc.cpg/sg2_105_cif.got.tgz:208779.got - 2010.06.27 13:26:56.
