data_PCOD8018261
_publ_section_title
;
Structure prediction by ZEFSAII (Michael W. Deem and Ramdas Pophale) SiO2 
 PCOD8018261
Probable space group: P -1
;
_chemical_formula_sum "Si O2"
_cell_formula_units_Z 14
_cell_length_a 29.637603
_cell_length_b 29.579520
_cell_length_c 11.785999
_cell_angle_alpha 22.484048
_cell_angle_beta 158.938401
_cell_angle_gamma 170.473455
_cell_volume 613.380170
_symmetry_space_group_name_H-M "P -1"
_symmetry_group_IT_number 2
_symmetry_cell_setting 'triclinic'
loop_
_space_group_symop_operation_xyz
x,y,z
-x,-y,-z
loop_
_atom_site_type_symbol
_atom_site_label
_atom_site_fract_x
_atom_site_fract_y
_atom_site_fract_z
Si Si1 0.872378 0.206554 0.755454
Si Si2 0.872619 0.899291 0.059900
Si Si3 0.758656 0.573453 0.264509
Si Si4 0.586851 0.195479 0.052637
Si Si5 0.010495 0.254847 0.213553
Si Si6 0.987129 0.555114 0.959330
Si Si7 0.633055 0.307614 0.369228
O O1 0.701755 0.185183 0.423773
O O2 0.190570 0.496358 0.779834
O O3 0.700074 0.980126 0.784045
O O4 0.889020 0.153167 0.036838
O O5 0.895813 0.797784 0.417669
O O6 0.533843 0.644519 0.848171
O O7 0.000000 0.000000 0.000000
O O8 0.059441 0.156352 0.970048
O O9 0.967669 0.677853 0.599896
O O10 0.672767 0.427676 0.289619
O O11 0.695695 0.270258 0.004893
O O12 0.715408 0.426410 0.869693
O O13 0.237213 0.909313 0.899714
O O14 0.000000 0.500000 0.000000
O O15 0.266877 0.743738 0.248660
#
# Coordination Sequence:
#
# PCOD8018261 Si02
#       7
#     2   2   2   2   2   2   2
#     4  11  22  40  62  92 123 155 196 251 305 361
#     4  12  25  42  62  89 122 163 206 247 290 354
#     4  11  23  42  63  89 122 161 202 249 299 352
#     4  11  21  38  62  91 121 157 196 248 306 359
#     4  12  24  40  61  89 123 162 203 245 296 356
#     4   9  20  38  63  91 120 153 194 247 306 357
#     4  10  22  40  64  93 122 153 198 251 305 361
#
# _framework density 22.824344
#
# number of rings (size 3 to 8) (size 9 to 14) (size 15 to 20)
#    0.000    1.143    0.000    7.286    0.000    2.286 
#    0.000   16.429    0.000    0.000    0.000    0.000 
#    0.000    0.000    0.000    0.000    0.000    0.000 
#
# Total GULP energy -173622.352179 kJ/mol
# GULP energy per Si atom -12401.596584 kJ/mol
# Density = 2.277239 g / cm^3
# Si number density = 22.824344 Si / 1000 Ang^3
#
#
#
# Elastic Constant Matrix: (Units=GPa)
#
#
# Indices 1 2 3 4 5 6 
#
# 1 93.3186 5.2237 51.3844 5.2012 -11.9701 -1.8177
# 2 5.2237 72.0216 27.8027 -7.8009 1.0011 -5.4470
# 3 51.3844 27.8027 147.5610 -7.7591 -3.6869 -10.4141
# 4 5.2012 -7.8009 -7.7591 30.6451 -1.5036 8.8046
# 5 -11.9701 1.0011 -3.6869 -1.5036 33.5938 0.1393
# 6 -1.8177 -5.4470 -10.4141 8.8046 0.1393 34.9205
#
#
#
# Elastic Compliance Matrix: (Units=1/GPa)
#
#
# Indices 1 2 3 4 5 6 
#
# 1 0.014259 0.000525 -0.005125 -0.003411 0.004350 0.000138
# 2 0.000525 0.015333 -0.002875 0.002818 -0.000463 0.000853
# 3 -0.005125 -0.002875 0.009303 0.002016 -0.000636 0.001553
# 4 -0.003411 0.002818 0.002016 0.036893 0.000608 -0.008441
# 5 0.004350 -0.000463 -0.000636 0.000608 0.031290 -0.000314
# 6 0.000138 0.000853 0.001553 -0.008441 -0.000314 0.031370
#
#
# Mechanical properties :
#
#
# Convention : Reuss Voigt Hill
#
# Bulk Modulus (GPa) = 41.76309 53.52477 47.64393
# Shear Modulus (GPa) = 30.98277 35.06456 33.02367
#
# Velocity S-wave (km/s) = 3.68835 3.92379 3.80789
# Velocity P-wave (km/s) = 6.03953 6.63550 6.34451
#
# Compressibility (1/GPa) = 0.02394459
#
# Stress axis : x y z
#
# Youngs Moduli (GPa) = 70.12882 65.22038 107.49187
#
# Poissons Ratio (x) = -0.03423 0.55093
# Poissons Ratio (y) = -0.03681 0.30902
# Poissons Ratio (z) = 0.35943 0.18750
#
# Static dielectric constant tensor:
#      x y z
#    x 4.034570 0.107240 0.086050 
#    y 0.107240 4.143020 -0.066250 
#    z 0.086050 -0.066250 4.389090 
# 
# 
# High freq. dielectric constant tensor:
#      x y z
#    x 1.904540 -0.000360 0.000620 
#    y -0.000360 1.908880 -0.007650 
#    z 0.000620 -0.007650 1.896020 
# 
# From -- ./inp_files/71216.got.cif
#   From: 2010.06.25/outbox.cif.g09.slc.cpg/sg2_36_cif.got.tgz:71216.got - 2010.06.27 13:26:56.
