data_PCOD8018638
_publ_section_title
;
Structure prediction by ZEFSAII (Michael W. Deem and Ramdas Pophale) SiO2 
 PCOD8018638
Probable space group: P -1
;
_chemical_formula_sum "Si O2"
_cell_formula_units_Z 16
_cell_length_a 12.284188
_cell_length_b 19.400872
_cell_length_c 15.823439
_cell_angle_alpha 19.589671
_cell_angle_beta 48.571336
_cell_angle_gamma 38.861757
_cell_volume 745.548655
_symmetry_space_group_name_H-M "P -1"
_symmetry_group_IT_number 2
_symmetry_cell_setting 'triclinic'
loop_
_space_group_symop_operation_xyz
x,y,z
-x,-y,-z
loop_
_atom_site_type_symbol
_atom_site_label
_atom_site_fract_x
_atom_site_fract_y
_atom_site_fract_z
Si Si1 0.199879 0.722174 0.210160
Si Si2 0.174944 0.634291 0.137626
Si Si3 0.878755 0.927011 0.611235
Si Si4 0.461651 0.719809 0.202876
Si Si5 0.533977 0.260527 0.305103
Si Si6 0.176758 0.358203 0.891193
Si Si7 0.871474 0.897408 0.466173
Si Si8 0.196137 0.263766 0.803739
O O1 0.251919 0.652034 0.166306
O O2 0.350068 0.740037 0.155202
O O3 0.211502 0.491953 0.515415
O O4 0.000000 0.000000 0.000000
O O5 0.335320 0.355770 0.330836
O O6 0.003706 0.635919 0.240781
O O7 0.114378 0.879133 0.828870
O O8 0.969571 0.788472 0.633920
O O9 0.666248 0.182281 0.409023
O O10 0.879684 0.743436 0.888742
O O11 0.000000 0.000000 0.500000
O O12 0.500000 0.500000 0.500000
O O13 0.657164 0.641124 0.163732
O O14 0.351495 0.999577 0.981409
O O15 0.653699 0.020154 0.452207
O O16 0.500000 0.500000 0.000000
O O17 0.225990 0.197966 0.964353
O O18 0.989696 0.652710 0.625297
#
# Coordination Sequence:
#
# PCOD8018638 Si02
#       8
#     2   2   2   2   2   2   2   2
#     4  12  26  45  69 103 141 184 234 286 345 413
#     4  11  21  42  73  94 139 185 225 282 354 404
#     4  10  22  40  68  97 133 172 232 279 340 409
#     4  12  27  48  68 101 146 179 239 292 334 422
#     4   8  20  38  65  91 130 169 219 276 330 405
#     4  12  24  41  72  98 138 187 223 280 361 399
#     4   9  21  44  62  96 140 167 227 287 332 416
#     4  12  26  43  70 103 144 179 234 291 343 416
#
# _framework density 21.460705000000001
#
# number of rings (size 3 to 8) (size 9 to 14) (size 15 to 20)
#    0.750    0.500    2.500    3.375    1.750    1.000 
#    0.000    0.625    0.000    0.000    0.000    0.000 
#    0.000    0.000    0.000    0.000    0.000    0.000 
#
# Total GULP energy -198226.171967 kJ/mol
# GULP energy per Si atom -12389.135748 kJ/mol
# Density = 2.141186 g / cm^3
# Si number density = 21.460705 Si / 1000 Ang^3
#
#
#
# Elastic Constant Matrix: (Units=GPa)
#
#
# Indices 1 2 3 4 5 6 
#
# 1 95.6303 27.8846 27.4293 4.0658 1.5645 0.9298
# 2 27.8846 116.9522 40.7850 -12.7097 -5.5088 -7.3716
# 3 27.4293 40.7850 99.6887 -5.8761 -1.9099 -7.5574
# 4 4.0658 -12.7097 -5.8761 43.7096 -2.3517 8.7146
# 5 1.5645 -5.5088 -1.9099 -2.3517 24.8403 -0.6535
# 6 0.9298 -7.3716 -7.5574 8.7146 -0.6535 34.8548
#
#
#
# Elastic Compliance Matrix: (Units=1/GPa)
#
#
# Indices 1 2 3 4 5 6 
#
# 1 0.011995 -0.002321 -0.002571 -0.002050 -0.001685 -0.000887
# 2 -0.002321 0.010812 -0.003498 0.002843 0.002569 0.000928
# 3 -0.002571 -0.003498 0.012352 0.000531 0.000436 0.001883
# 4 -0.002050 0.002843 0.000531 0.025223 0.003044 -0.005478
# 5 -0.001685 0.002569 0.000436 0.003044 0.041273 0.000695
# 6 -0.000887 0.000928 0.001883 -0.005478 0.000695 0.030701
#
#
# Mechanical properties :
#
#
# Convention : Reuss Voigt Hill
#
# Bulk Modulus (GPa) = 54.41096 56.05212 55.23154
# Shear Modulus (GPa) = 32.20360 35.09242 33.64801
#
# Velocity S-wave (km/s) = 3.87794 4.04814 3.96395
# Velocity P-wave (km/s) = 6.74241 6.93002 6.83685
#
# Compressibility (1/GPa) = 0.01837865
#
# Stress axis : x y z
#
# Youngs Moduli (GPa) = 83.37082 92.48871 80.95878
#
# Poissons Ratio (x) = 0.21470 0.20814
# Poissons Ratio (y) = 0.19353 0.28317
# Poissons Ratio (z) = 0.21435 0.32350
#
# Static dielectric constant tensor:
#      x y z
#    x 3.840570 -0.003260 0.307230 
#    y -0.003260 4.221260 0.013170 
#    z 0.307230 0.013170 3.234750 
# 
# 
# High freq. dielectric constant tensor:
#      x y z
#    x 1.828190 0.001760 0.018290 
#    y 0.001760 1.857460 -0.002910 
#    z 0.018290 -0.002910 1.843330 
# 
# From -- ./inp_files/570534.got.cif
#   From: 2010.06.25/outbox.cif.g09.slc.cpg/sg2_286_cif.got.tgz:570534.got - 2010.06.27 13:26:56.
