data_PCOD8018971
_publ_section_title
;
Structure prediction by ZEFSAII (Michael W. Deem and Ramdas Pophale) SiO2 
 PCOD8018971
Probable space group: P -1
;
_chemical_formula_sum "Si O2"
_cell_formula_units_Z 14
_cell_length_a 21.764374
_cell_length_b 17.810053
_cell_length_c 9.040846
_cell_angle_alpha 44.421989
_cell_angle_beta 144.341106
_cell_angle_gamma 160.409607
_cell_volume 661.009062
_symmetry_space_group_name_H-M "P -1"
_symmetry_group_IT_number 2
_symmetry_cell_setting 'triclinic'
loop_
_space_group_symop_operation_xyz
x,y,z
-x,-y,-z
loop_
_atom_site_type_symbol
_atom_site_label
_atom_site_fract_x
_atom_site_fract_y
_atom_site_fract_z
Si Si1 0.703238 0.318096 0.116858
Si Si2 0.823789 0.890881 0.696041
Si Si3 0.864063 0.233980 0.496299
Si Si4 0.815233 0.114288 0.258055
Si Si5 0.008060 0.084757 0.258735
Si Si6 0.850916 0.581337 0.767302
Si Si7 0.381841 0.209397 0.295576
O O1 0.722703 0.207098 0.320379
O O2 0.879927 0.534379 0.267848
O O3 0.752676 0.395112 0.934799
O O4 0.456286 0.132303 0.950645
O O5 0.796317 0.780211 0.664432
O O6 0.609392 0.723519 0.619033
O O7 0.907770 0.077940 0.523265
O O8 0.000000 0.000000 0.000000
O O9 0.877790 0.250746 0.321730
O O10 0.738980 0.014213 0.612156
O O11 0.937720 0.266026 0.134726
O O12 0.065344 0.255010 0.182296
O O13 0.000000 0.000000 0.500000
O O14 0.757608 0.852614 0.016064
O O15 0.650205 0.440027 0.461085
#
# Coordination Sequence:
#
# PCOD8018971 Si02
#       7
#     2   2   2   2   2   2   2
#     4  11  23  44  68  92 123 171 208 261 316 371
#     4   9  19  39  60  84 125 165 208 250 305 363
#     4  10  22  44  67  91 128 162 211 262 317 370
#     4  11  23  42  62  96 128 162 212 258 311 381
#     4  11  22  40  61  92 130 163 213 260 306 374
#     4  12  24  39  66  95 128 167 209 254 319 373
#     4  10  22  41  63  92 127 165 208 262 308 379
#
# _framework density 21.179739999999999
#
# number of rings (size 3 to 8) (size 9 to 14) (size 15 to 20)
#    0.000    1.429    5.714    0.429    0.000    2.857 
#    0.000    1.429    0.000    0.000    0.000    0.000 
#    0.000    0.000    0.000    0.000    0.000    0.000 
#
# Total GULP energy -173523.073903 kJ/mol
# GULP energy per Si atom -12394.505279 kJ/mol
# Density = 2.113153 g / cm^3
# Si number density = 21.179740 Si / 1000 Ang^3
#
#
#
# Elastic Constant Matrix: (Units=GPa)
#
#
# Indices 1 2 3 4 5 6 
#
# 1 114.4571 46.8239 34.7836 13.7319 -4.6732 3.2236
# 2 46.8239 61.7516 40.2328 18.8684 2.1094 26.3186
# 3 34.7836 40.2328 108.7673 18.6560 -4.1602 10.0986
# 4 13.7319 18.8684 18.6560 33.2549 -2.9374 -2.6214
# 5 -4.6732 2.1094 -4.1602 -2.9374 30.4324 3.3492
# 6 3.2236 26.3186 10.0986 -2.6214 3.3492 33.7770
#
#
#
# Elastic Compliance Matrix: (Units=1/GPa)
#
#
# Indices 1 2 3 4 5 6 
#
# 1 0.016035 -0.020512 0.000122 0.006357 0.002905 0.014621
# 2 -0.020512 0.068580 -0.009271 -0.029786 -0.006502 -0.050374
# 3 0.000122 -0.009271 0.012614 -0.001452 0.001900 0.003140
# 4 0.006357 -0.029786 -0.001452 0.047634 0.004548 0.026282
# 5 0.002905 -0.006502 0.001900 0.004548 0.034326 0.001170
# 6 0.014621 -0.050374 0.003140 0.026282 0.001170 0.068447
#
#
# Mechanical properties :
#
#
# Convention : Reuss Voigt Hill
#
# Bulk Modulus (GPa) = 26.37860 58.73963 42.55912
# Shear Modulus (GPa) = 15.64493 30.36857 23.00675
#
# Velocity S-wave (km/s) = 2.72081 3.79073 3.29942
# Velocity P-wave (km/s) = 4.72780 6.85227 5.88666
#
# Compressibility (1/GPa) = 0.03790952
#
# Stress axis : x y z
#
# Youngs Moduli (GPa) = 62.36334 14.58148 79.27575
#
# Poissons Ratio (x) = 0.29909 -0.00971
# Poissons Ratio (y) = 1.27917 0.73495
# Poissons Ratio (z) = -0.00764 0.13518
#
# Static dielectric constant tensor:
#      x y z
#    x 4.461320 -0.057360 0.122220 
#    y -0.057360 3.537450 0.009070 
#    z 0.122220 0.009070 4.057830 
# 
# 
# High freq. dielectric constant tensor:
#      x y z
#    x 1.834420 -0.007630 0.000800 
#    y -0.007630 1.803230 -0.001020 
#    z 0.000800 -0.001020 1.843080 
# 
# From -- ./inp_files/315692.got.cif
#   From: 2010.06.25/outbox.cif.g09.slc.cpg/sg2_158_cif.got.tgz:315692.got - 2010.06.27 13:26:56.
