data_PCOD8018937
_publ_section_title
;
Structure prediction by ZEFSAII (Michael W. Deem and Ramdas Pophale) SiO2 
 PCOD8018937
Probable space group: P -1
;
_chemical_formula_sum "Si O2"
_cell_formula_units_Z 16
_cell_length_a 12.133485
_cell_length_b 17.819110
_cell_length_c 20.369362
_cell_angle_alpha 20.343674
_cell_angle_beta 29.328625
_cell_angle_gamma 38.244559
_cell_volume 736.521994
_symmetry_space_group_name_H-M "P -1"
_symmetry_group_IT_number 2
_symmetry_cell_setting 'triclinic'
loop_
_space_group_symop_operation_xyz
x,y,z
-x,-y,-z
loop_
_atom_site_type_symbol
_atom_site_label
_atom_site_fract_x
_atom_site_fract_y
_atom_site_fract_z
Si Si1 0.843002 0.550557 0.735731
Si Si2 0.933115 0.767024 0.193446
Si Si3 0.608901 0.410459 0.712820
Si Si4 0.442971 0.079813 0.811906
Si Si5 0.354858 0.771383 0.285602
Si Si6 0.237823 0.625798 0.800262
Si Si7 0.358959 0.507169 0.972151
Si Si8 0.746922 0.980471 0.618948
O O1 0.618266 0.626072 0.759636
O O2 0.862625 0.323838 0.874066
O O3 0.075290 0.734003 0.453953
O O4 0.806690 0.501180 0.872420
O O5 0.835681 0.600935 0.440308
O O6 0.761290 0.796881 0.199689
O O7 0.000000 0.000000 0.000000
O O8 0.651024 0.172056 0.909384
O O9 0.554225 0.399195 0.671208
O O10 0.416861 0.485836 0.794009
O O11 0.599367 0.077634 0.669384
O O12 0.588528 0.242708 0.655855
O O13 0.500000 0.000000 0.000000
O O14 0.259569 0.638365 0.857683
O O15 0.266275 0.875817 0.557142
O O16 0.000000 0.500000 0.000000
O O17 0.362726 0.264867 0.142134
O O18 0.000000 0.000000 0.500000
#
# Coordination Sequence:
#
# PCOD8018937 Si02
#       8
#     2   2   2   2   2   2   2   2
#     4  10  24  45  69 100 137 190 221 285 351 403
#     4  11  24  42  66  98 133 175 224 275 343 408
#     4  10  22  41  63 101 132 165 230 277 336 402
#     4  11  21  40  66  96 133 177 219 288 336 397
#     4   9  21  41  65  97 132 174 229 280 338 400
#     4  12  24  40  68 103 130 179 227 278 337 406
#     4  11  24  46  68  98 148 175 229 281 343 419
#     4  12  22  40  67  99 137 179 229 279 341 406
#
# _framework density 21.723723
#
# number of rings (size 3 to 8) (size 9 to 14) (size 15 to 20)
#    0.000    1.250    3.750    1.500    0.000    4.500 
#    4.500    6.250    0.000    0.000    0.000    0.000 
#    0.000    0.000    0.000    0.000    0.000    0.000 
#
# Total GULP energy -198244.779049 kJ/mol
# GULP energy per Si atom -12390.298691 kJ/mol
# Density = 2.167428 g / cm^3
# Si number density = 21.723723 Si / 1000 Ang^3
#
#
#
# Elastic Constant Matrix: (Units=GPa)
#
#
# Indices 1 2 3 4 5 6 
#
# 1 132.8780 18.3456 46.9664 14.8556 9.8884 4.7690
# 2 18.3456 71.7279 7.1563 20.1032 4.9517 14.3071
# 3 46.9664 7.1563 105.1737 8.2123 -0.3412 0.1122
# 4 14.8556 20.1032 8.2123 33.7957 -4.4978 3.4208
# 5 9.8884 4.9517 -0.3412 -4.4978 39.6161 -3.5755
# 6 4.7690 14.3071 0.1122 3.4208 -3.5755 39.2538
#
#
#
# Elastic Compliance Matrix: (Units=1/GPa)
#
#
# Indices 1 2 3 4 5 6 
#
# 1 0.009638 -0.000858 -0.004017 -0.003032 -0.002752 -0.000833
# 2 -0.000858 0.018618 -0.000064 -0.010578 -0.003866 -0.006112
# 3 -0.004017 -0.000064 0.011378 -0.000886 0.001067 0.000653
# 4 -0.003032 -0.010578 -0.000886 0.038148 0.006538 0.001497
# 5 -0.002752 -0.003866 0.001067 0.006538 0.027496 0.003675
# 6 -0.000833 -0.006112 0.000653 0.001497 0.003675 0.028006
#
#
# Mechanical properties :
#
#
# Convention : Reuss Voigt Hill
#
# Bulk Modulus (GPa) = 33.60610 50.52401 42.06506
# Shear Modulus (GPa) = 32.66269 38.35389 35.50829
#
# Velocity S-wave (km/s) = 3.88177 4.20638 4.04733
# Velocity P-wave (km/s) = 5.96609 6.84832 6.42237
#
# Compressibility (1/GPa) = 0.02975650
#
# Stress axis : x y z
#
# Youngs Moduli (GPa) = 103.76055 53.71116 87.88897
#
# Poissons Ratio (x) = 0.04610 0.35302
# Poissons Ratio (y) = 0.08906 0.00559
# Poissons Ratio (z) = 0.41677 0.00341
#
# Static dielectric constant tensor:
#      x y z
#    x 3.926320 0.515150 0.780320 
#    y 0.515150 3.906720 -0.205040 
#    z 0.780320 -0.205040 2.713090 
# 
# 
# High freq. dielectric constant tensor:
#      x y z
#    x 1.857460 0.017090 -0.000330 
#    y 0.017090 1.850480 0.004830 
#    z -0.000330 0.004830 1.861790 
# 
# From -- ./inp_files/427834.got.cif
#   From: 2010.06.25/outbox.cif.g09.slc.cpg/sg2_214_cif.got.tgz:427834.got - 2010.06.27 13:26:56.
