data_PCOD8019800
_publ_section_title
;
Structure prediction by ZEFSAII (Michael W. Deem and Ramdas Pophale) SiO2 
 PCOD8019800
Probable space group: P -1
;
_chemical_formula_sum "Si O2"
_cell_formula_units_Z 14
_cell_length_a 5.197748
_cell_length_b 16.709280
_cell_length_c 8.709670
_cell_angle_alpha 109.164780
_cell_angle_beta 110.030301
_cell_angle_gamma 104.876152
_cell_volume 610.454515
_symmetry_space_group_name_H-M "P -1"
_symmetry_group_IT_number 2
_symmetry_cell_setting 'triclinic'
loop_
_space_group_symop_operation_xyz
x,y,z
-x,-y,-z
loop_
_atom_site_type_symbol
_atom_site_label
_atom_site_fract_x
_atom_site_fract_y
_atom_site_fract_z
Si Si1 0.844587 0.708229 0.634578
Si Si2 0.844624 0.210504 0.537532
Si Si3 0.738649 0.389178 0.704437
Si Si4 0.478243 0.716496 0.851766
Si Si5 0.321423 0.056507 0.440266
Si Si6 0.171984 0.129631 0.756433
Si Si7 0.324601 0.560224 0.949778
O O1 0.565896 0.619035 0.448926
O O2 0.711848 0.741889 0.774118
O O3 0.958014 0.787432 0.572667
O O4 0.128627 0.684934 0.716289
O O5 0.841260 0.311104 0.615455
O O6 0.506614 0.128880 0.389093
O O7 0.965652 0.184545 0.704226
O O8 0.991233 0.491580 0.782712
O O9 0.688610 0.377054 0.869776
O O10 0.497831 0.630253 0.892771
O O11 0.576211 0.809146 0.033111
O O12 0.307811 0.120897 0.616593
O O13 0.500000 0.000000 0.500000
O O14 0.000939 0.974902 0.271734
O O15 0.500000 0.500000 0.000000
#
# Coordination Sequence:
#
# PCOD8019800 Si02
#       7
#     2   2   2   2   2   2   2
#     4  12  27  45  66 101 144 187 217 276 357 405
#     4  11  21  45  71  97 138 183 228 279 342 411
#     4  11  24  46  71 100 133 184 229 279 344 407
#     4  12  28  44  70 101 143 178 228 282 340 415
#     4   9  20  38  72 102 131 175 235 286 333 392
#     4  10  22  41  73 102 132 177 238 284 333 399
#     4  11  26  45  74 102 131 177 241 284 334 398
#
# _framework density 22.933731999999999
#
# number of rings (size 3 to 8) (size 9 to 14) (size 15 to 20)
#    0.000    1.143    1.429    4.286   10.000    1.143 
#    0.000    1.429    0.000    0.000    0.000    0.000 
#    0.000    0.000    0.000    0.000    0.000    0.000 
#
# Total GULP energy -173504.123020 kJ/mol
# GULP energy per Si atom -12393.151644 kJ/mol
# Density = 2.288153 g / cm^3
# Si number density = 22.933732 Si / 1000 Ang^3
#
#
#
# Elastic Constant Matrix: (Units=GPa)
#
#
# Indices 1 2 3 4 5 6 
#
# 1 120.9868 36.9000 55.0166 6.8059 2.2529 15.5304
# 2 36.9000 73.8835 75.4723 10.3217 -13.4971 21.8391
# 3 55.0166 75.4723 132.3136 13.3769 10.5266 16.3826
# 4 6.8059 10.3217 13.3769 21.0062 0.3479 -0.5366
# 5 2.2529 -13.4971 10.5266 0.3479 29.3008 -2.4033
# 6 15.5304 21.8391 16.3826 -0.5366 -2.4033 41.5266
#
#
#
# Elastic Compliance Matrix: (Units=1/GPa)
#
#
# Indices 1 2 3 4 5 6 
#
# 1 0.010440 -0.001198 -0.003311 -0.000731 -0.000320 -0.001996
# 2 -0.001198 0.068937 -0.039169 -0.009738 0.044567 -0.017901
# 3 -0.003311 -0.039169 0.032657 0.000188 -0.028925 0.007282
# 4 -0.000731 -0.009738 0.000188 0.052731 -0.004653 0.005732
# 5 -0.000320 0.044567 -0.028925 -0.004653 0.064454 -0.008237
# 6 -0.001996 -0.017901 0.007282 0.005732 -0.008237 0.030966
#
#
# Mechanical properties :
#
#
# Convention : Reuss Voigt Hill
#
# Bulk Modulus (GPa) = 40.52125 73.55131 57.03628
# Shear Modulus (GPa) = 14.05415 29.01972 21.53693
#
# Velocity S-wave (km/s) = 2.47820 3.56107 3.06779
# Velocity P-wave (km/s) = 5.08879 7.00351 6.12148
#
# Compressibility (1/GPa) = 0.02467841
#
# Stress axis : x y z
#
# Youngs Moduli (GPa) = 95.78845 14.50589 30.62120
#
# Poissons Ratio (x) = 0.01738 0.10138
# Poissons Ratio (y) = 0.11479 1.19939
# Poissons Ratio (z) = 0.31713 0.56818
#
# Static dielectric constant tensor:
#      x y z
#    x 4.276410 0.544690 0.097950 
#    y 0.544690 4.419990 0.308170 
#    z 0.097950 0.308170 4.273950 
# 
# 
# High freq. dielectric constant tensor:
#      x y z
#    x 1.921460 0.015900 0.003750 
#    y 0.015900 1.898580 0.012890 
#    z 0.003750 0.012890 1.889080 
# 
# From -- ./inp_files/39500.got.cif
#   From: 2010.06.25/outbox.cif.g09.slc.cpg/sg2_20_cif.got.tgz:39500.got - 2010.06.27 13:26:56.
