data_PCOD8019636
_publ_section_title
;
Structure prediction by ZEFSAII (Michael W. Deem and Ramdas Pophale) SiO2 
 PCOD8019636
Probable space group: P -1
;
_chemical_formula_sum "Si O2"
_cell_formula_units_Z 14
_cell_length_a 5.357754
_cell_length_b 22.127257
_cell_length_c 6.867090
_cell_angle_alpha 112.403876
_cell_angle_beta 85.314959
_cell_angle_gamma 58.248522
_cell_volume 597.347310
_symmetry_space_group_name_H-M "P -1"
_symmetry_group_IT_number 2
_symmetry_cell_setting 'triclinic'
loop_
_space_group_symop_operation_xyz
x,y,z
-x,-y,-z
loop_
_atom_site_type_symbol
_atom_site_label
_atom_site_fract_x
_atom_site_fract_y
_atom_site_fract_z
Si Si1 0.528630 0.755037 0.398623
Si Si2 0.170188 0.218442 0.264942
Si Si3 0.041997 0.099647 0.552643
Si Si4 0.510787 0.651242 0.543576
Si Si5 0.545805 0.083828 0.770257
Si Si6 0.189150 0.333986 0.117292
Si Si7 0.258281 0.503710 0.877701
O O1 0.682649 0.792590 0.544843
O O2 0.687720 0.666615 0.385633
O O3 0.148544 0.827432 0.505046
O O4 0.616667 0.735442 0.142261
O O5 0.108570 0.294314 0.237163
O O6 0.808844 0.255426 0.350109
O O7 0.393744 0.130814 0.040210
O O8 0.256693 0.115500 0.681651
O O9 0.784761 0.101278 0.700466
O O10 0.265596 0.012872 0.320367
O O11 0.618524 0.639655 0.747210
O O12 0.533706 0.572988 0.378178
O O13 0.887608 0.415701 0.143386
O O14 0.500000 0.500000 0.000000
O O15 0.000000 0.500000 0.000000
#
# Coordination Sequence:
#
# PCOD8019636 Si02
#       7
#     2   2   2   2   2   2   2
#     4  11  23  42  67 100 131 178 223 275 333 396
#     4  11  25  40  69 101 131 177 225 277 330 402
#     4  10  22  41  69  95 134 180 219 274 332 397
#     4  11  26  43  68 100 134 175 227 272 337 398
#     4  10  22  42  66  99 133 176 225 269 336 396
#     4  11  24  45  69  94 138 176 220 276 337 393
#     4  12  27  46  72 100 135 177 225 275 333 400
#
# _framework density 23.436951000000001
#
# number of rings (size 3 to 8) (size 9 to 14) (size 15 to 20)
#    0.000    1.143    2.857    2.143    8.000    3.429 
#    0.000    0.714    0.000    0.000    0.000    0.000 
#    0.000    0.000    0.000    0.000    0.000    0.000 
#
# Total GULP energy -173460.482914 kJ/mol
# GULP energy per Si atom -12390.034494 kJ/mol
# Density = 2.338361 g / cm^3
# Si number density = 23.436951 Si / 1000 Ang^3
#
#
#
# Elastic Constant Matrix: (Units=GPa)
#
#
# Indices 1 2 3 4 5 6 
#
# 1 81.2406 14.6410 30.9995 -7.6314 23.0343 -23.9127
# 2 14.6410 130.3798 49.5716 -5.2989 17.6617 -23.9012
# 3 30.9995 49.5716 162.3967 9.0883 35.6105 -15.6109
# 4 -7.6314 -5.2989 9.0883 41.5223 -5.3465 3.3395
# 5 23.0343 17.6617 35.6105 -5.3465 36.9821 -6.8715
# 6 -23.9127 -23.9012 -15.6109 3.3395 -6.8715 40.1552
#
#
#
# Elastic Compliance Matrix: (Units=1/GPa)
#
#
# Indices 1 2 3 4 5 6 
#
# 1 0.017902 0.001400 -0.001132 0.001838 -0.008715 0.009410
# 2 0.001400 0.009698 -0.002341 0.001318 -0.002087 0.005229
# 3 -0.001132 -0.002341 0.008889 -0.003409 -0.007146 0.000449
# 4 0.001838 0.001318 -0.003409 0.026056 0.005139 -0.000734
# 5 -0.008715 -0.002087 -0.007146 0.005139 0.040589 -0.002692
# 6 0.009410 0.005229 0.000449 -0.000734 -0.002692 0.033395
#
#
# Mechanical properties :
#
#
# Convention : Reuss Voigt Hill
#
# Bulk Modulus (GPa) = 30.91757 62.71571 46.81664
# Shear Modulus (GPa) = 33.01307 42.31889 37.66598
#
# Velocity S-wave (km/s) = 3.75719 4.25390 4.01324
# Velocity P-wave (km/s) = 5.66060 7.13758 6.44156
#
# Compressibility (1/GPa) = 0.03234407
#
# Stress axis : x y z
#
# Youngs Moduli (GPa) = 55.85934 103.11803 112.49473
#
# Poissons Ratio (x) = -0.14441 0.12734
# Poissons Ratio (y) = -0.07822 0.26334
# Poissons Ratio (z) = 0.06323 0.24139
#
# Static dielectric constant tensor:
#      x y z
#    x 4.267560 -0.084760 0.094450 
#    y -0.084760 4.312230 0.145610 
#    z 0.094450 0.145610 4.222820 
# 
# 
# High freq. dielectric constant tensor:
#      x y z
#    x 1.922930 -0.004360 0.008100 
#    y -0.004360 1.944710 0.007930 
#    z 0.008100 0.007930 1.931170 
# 
# From -- ./inp_files/7444.got.cif
#   From: 2010.06.25/outbox.cif.g09.slc.cpg/sg2_4_cif.got.tgz:7444.got - 2010.06.27 13:26:56.
