data_PCOD8019634
_publ_section_title
;
Structure prediction by ZEFSAII (Michael W. Deem and Ramdas Pophale) SiO2 
 PCOD8019634
Probable space group: P -1
;
_chemical_formula_sum "Si O2"
_cell_formula_units_Z 16
_cell_length_a 5.252989
_cell_length_b 12.536901
_cell_length_c 11.870234
_cell_angle_alpha 86.726366
_cell_angle_beta 71.294218
_cell_angle_gamma 107.454229
_cell_volume 696.103904
_symmetry_space_group_name_H-M "P -1"
_symmetry_group_IT_number 2
_symmetry_cell_setting 'triclinic'
loop_
_space_group_symop_operation_xyz
x,y,z
-x,-y,-z
loop_
_atom_site_type_symbol
_atom_site_label
_atom_site_fract_x
_atom_site_fract_y
_atom_site_fract_z
Si Si1 0.868402 0.529070 0.328707
Si Si2 0.840859 0.750796 0.949217
Si Si3 0.193410 0.358643 0.259623
Si Si4 0.647516 0.000613 0.659171
Si Si5 0.768982 0.534793 0.099435
Si Si6 0.558487 0.106677 0.066636
Si Si7 0.291858 0.340632 0.481792
Si Si8 0.684593 0.881330 0.435788
O O1 0.893494 0.587722 0.199527
O O2 0.544796 0.450783 0.399842
O O3 0.937366 0.624214 0.411605
O O4 0.079214 0.458489 0.305849
O O5 0.968972 0.726505 0.811711
O O6 0.618180 0.816310 0.959181
O O7 0.104628 0.822278 0.985466
O O8 0.678873 0.629924 0.039941
O O9 0.511596 0.417367 0.162425
O O10 0.158822 0.283673 0.383777
O O11 0.480249 0.088190 0.648272
O O12 0.977367 0.066363 0.631643
O O13 0.523354 0.930751 0.792081
O O14 0.589925 0.917005 0.566330
O O15 0.000000 0.500000 0.000000
O O16 0.500000 0.000000 0.000000
O O17 0.403543 0.254694 0.541671
#
# Coordination Sequence:
#
# PCOD8019634 Si02
#       8
#     2   2   2   2   2   2   2   2
#     4  10  23  40  63  95 146 175 222 278 331 407
#     4  12  26  43  76  99 129 191 227 276 352 407
#     4  11  23  40  69  99 141 176 229 281 328 417
#     4  10  23  43  66  96 127 165 225 287 337 384
#     4  11  23  42  64 104 142 176 234 281 329 408
#     4  12  28  48  69  99 138 173 232 294 345 407
#     4  10  23  40  62 100 135 183 219 272 350 404
#     4  10  22  41  69  95 128 170 219 279 334 408
#
# _framework density 22.985074000000001
#
# number of rings (size 3 to 8) (size 9 to 14) (size 15 to 20)
#    0.000    1.250    1.250    3.375    7.000    3.000 
#    0.000    0.000    0.000    0.000    0.000    0.000 
#    0.000    0.000    0.000    0.000    0.000    0.000 
#
# Total GULP energy -198364.993209 kJ/mol
# GULP energy per Si atom -12397.812076 kJ/mol
# Density = 2.293276 g / cm^3
# Si number density = 22.985074 Si / 1000 Ang^3
#
#
#
# Elastic Constant Matrix: (Units=GPa)
#
#
# Indices 1 2 3 4 5 6 
#
# 1 109.2676 31.8007 28.9419 7.1785 -0.3982 -28.3916
# 2 31.8007 99.4905 32.5423 9.7612 5.1941 -30.9345
# 3 28.9419 32.5423 93.0669 1.9805 -3.9228 -7.0770
# 4 7.1785 9.7612 1.9805 27.3318 -11.4110 11.5879
# 5 -0.3982 5.1941 -3.9228 -11.4110 23.6189 2.4749
# 6 -28.3916 -30.9345 -7.0770 11.5879 2.4749 46.8012
#
#
#
# Elastic Compliance Matrix: (Units=1/GPa)
#
#
# Indices 1 2 3 4 5 6 
#
# 1 0.013990 0.003386 -0.004558 -0.014680 -0.009845 0.014191
# 2 0.003386 0.022873 -0.007557 -0.028075 -0.022324 0.024162
# 3 -0.004558 -0.007557 0.014331 0.010812 0.010112 -0.008805
# 4 -0.014680 -0.028075 0.010812 0.097414 0.060354 -0.053139
# 5 -0.009845 -0.022324 0.010112 0.060354 0.081953 -0.038477
# 6 0.014191 0.024162 -0.008805 -0.053139 -0.038477 0.059807
#
#
# Mechanical properties :
#
#
# Convention : Reuss Voigt Hill
#
# Bulk Modulus (GPa) = 29.64185 54.26610 41.95398
# Shear Modulus (GPa) = 15.67050 33.45306 24.56178
#
# Velocity S-wave (km/s) = 2.61390 3.81914 3.27249
# Velocity P-wave (km/s) = 4.69405 6.56569 5.70712
#
# Compressibility (1/GPa) = 0.03373608
#
# Stress axis : x y z
#
# Youngs Moduli (GPa) = 71.48206 43.71876 69.77652
#
# Poissons Ratio (x) = -0.14803 0.31803
# Poissons Ratio (y) = -0.24203 0.52732
# Poissons Ratio (z) = 0.32581 0.33039
#
# Static dielectric constant tensor:
#      x y z
#    x 4.268040 -0.059160 0.227610 
#    y -0.059160 4.102720 0.067150 
#    z 0.227610 0.067150 4.656460 
# 
# 
# High freq. dielectric constant tensor:
#      x y z
#    x 1.909630 -0.014460 0.011040 
#    y -0.014460 1.897290 0.000480 
#    z 0.011040 0.000480 1.919570 
# 
# From -- ./inp_files/364456.got.cif
#   From: 2010.06.25/outbox.cif.g09.slc.cpg/sg2_183_cif.got.tgz:364456.got - 2010.06.27 13:26:56.
