data_PCOD8019457
_publ_section_title
;
Structure prediction by ZEFSAII (Michael W. Deem and Ramdas Pophale) SiO2 
 PCOD8019457
Probable space group: P -1
;
_chemical_formula_sum "Si O2"
_cell_formula_units_Z 14
_cell_length_a 22.966703
_cell_length_b 5.198548
_cell_length_c 14.246247
_cell_angle_alpha 84.882884
_cell_angle_beta 21.043973
_cell_angle_gamma 83.503930
_cell_volume 606.207280
_symmetry_space_group_name_H-M "P -1"
_symmetry_group_IT_number 2
_symmetry_cell_setting 'triclinic'
loop_
_space_group_symop_operation_xyz
x,y,z
-x,-y,-z
loop_
_atom_site_type_symbol
_atom_site_label
_atom_site_fract_x
_atom_site_fract_y
_atom_site_fract_z
Si Si1 0.139554 0.642816 0.110515
Si Si2 0.818253 0.555576 0.149290
Si Si3 0.904233 0.205888 0.201852
Si Si4 0.514915 0.263422 0.415293
Si Si5 0.976660 0.129230 0.429247
Si Si6 0.436232 0.762243 0.207125
Si Si7 0.605701 0.235816 0.949967
O O1 0.091233 0.367284 0.233342
O O2 0.010692 0.888591 0.314162
O O3 0.167429 0.632646 0.956363
O O4 0.309926 0.719939 0.899934
O O5 0.840528 0.436651 0.222151
O O6 0.641094 0.712263 0.419249
O O7 0.971655 0.729238 0.903679
O O8 0.744008 0.124031 0.495891
O O9 0.000000 0.000000 0.000000
O O10 0.500000 0.500000 0.500000
O O11 0.500000 0.000000 0.500000
O O12 0.795208 0.257242 0.683542
O O13 0.000000 0.000000 0.500000
O O14 0.441070 0.755563 0.088573
O O15 0.502038 0.473393 0.151422
O O16 0.553692 0.958843 0.072664
#
# Coordination Sequence:
#
# PCOD8019457 Si02
#       7
#     2   2   2   2   2   2   2
#     4  11  24  44  72  97 137 186 224 288 347 420
#     4  10  25  42  65 100 138 184 226 273 354 419
#     4  11  26  41  67 104 144 177 228 290 346 416
#     4  10  22  41  67  98 132 176 232 269 331 420
#     4  12  26  44  69 102 134 172 238 294 351 399
#     4  10  23  43  67  95 133 173 229 273 339 402
#     4  10  23  43  69  95 127 182 224 278 336 407
#
# _framework density 23.094411999999998
#
# number of rings (size 3 to 8) (size 9 to 14) (size 15 to 20)
#    0.000    1.429    0.000    3.857   12.000    3.429 
#    0.000    0.000    0.000    0.000    0.000    0.000 
#    0.000    0.000    0.000    0.000    0.000    0.000 
#
# Total GULP energy -173465.327842 kJ/mol
# GULP energy per Si atom -12390.380560 kJ/mol
# Density = 2.304185 g / cm^3
# Si number density = 23.094412 Si / 1000 Ang^3
#
#
#
# Elastic Constant Matrix: (Units=GPa)
#
#
# Indices 1 2 3 4 5 6 
#
# 1 58.4234 24.2317 25.2076 -0.1565 -28.7685 2.2074
# 2 24.2317 162.4395 56.9827 -2.6053 -14.2369 12.4617
# 3 25.2076 56.9827 147.4644 -1.7575 -32.3711 18.0801
# 4 -0.1565 -2.6053 -1.7575 49.8224 1.6539 1.1515
# 5 -28.7685 -14.2369 -32.3711 1.6539 40.7131 9.5939
# 6 2.2074 12.4617 18.0801 1.1515 9.5939 20.8913
#
#
#
# Elastic Compliance Matrix: (Units=1/GPa)
#
#
# Indices 1 2 3 4 5 6 
#
# 1 0.031304 -0.002130 0.004236 -0.000393 0.029264 -0.019120
# 2 -0.002130 0.007426 -0.002295 0.000358 -0.000247 -0.002125
# 3 0.004236 -0.002295 0.012726 0.000204 0.016463 -0.017664
# 4 -0.000393 0.000358 0.000204 0.020141 -0.000521 -0.001219
# 5 0.029264 -0.000247 0.016463 -0.000521 0.069871 -0.049251
# 6 -0.019120 -0.002125 -0.017664 -0.001219 -0.049251 0.089126
#
#
# Mechanical properties :
#
#
# Convention : Reuss Voigt Hill
#
# Bulk Modulus (GPa) = 19.57826 64.57459 42.07642
# Shear Modulus (GPa) = 20.16136 39.74572 29.95354
#
# Velocity S-wave (km/s) = 2.95786 4.15301 3.60530
# Velocity P-wave (km/s) = 4.49011 7.14272 5.96572
#
# Compressibility (1/GPa) = 0.05107707
#
# Stress axis : x y z
#
# Youngs Moduli (GPa) = 31.94501 134.66142 78.57843
#
# Poissons Ratio (x) = 0.28686 -0.33282
# Poissons Ratio (y) = 0.06805 0.18032
# Poissons Ratio (z) = -0.13531 0.30902
#
# Static dielectric constant tensor:
#      x y z
#    x 4.114350 0.159760 -0.554040 
#    y 0.159760 4.333050 0.034610 
#    z -0.554040 0.034610 4.942240 
# 
# 
# High freq. dielectric constant tensor:
#      x y z
#    x 1.896840 0.004220 -0.016860 
#    y 0.004220 1.919810 0.003680 
#    z -0.016860 0.003680 1.928330 
# 
# From -- ./inp_files/72360.got.cif
#   From: 2010.06.25/outbox.cif.g09.slc.cpg/sg2_37_cif.got.tgz:72360.got - 2010.06.27 13:26:56.
