data_PCOD8019940
_publ_section_title
;
Structure prediction by ZEFSAII (Michael W. Deem and Ramdas Pophale) SiO2 
 PCOD8019940
Probable space group: P -1
;
_chemical_formula_sum "Si O2"
_cell_formula_units_Z 14
_cell_length_a 20.668556
_cell_length_b 7.959145
_cell_length_c 7.799500
_cell_angle_alpha 120.052931
_cell_angle_beta 57.192157
_cell_angle_gamma 137.747121
_cell_volume 713.731640
_symmetry_space_group_name_H-M "P -1"
_symmetry_group_IT_number 2
_symmetry_cell_setting 'triclinic'
loop_
_space_group_symop_operation_xyz
x,y,z
-x,-y,-z
loop_
_atom_site_type_symbol
_atom_site_label
_atom_site_fract_x
_atom_site_fract_y
_atom_site_fract_z
Si Si1 0.589979 0.774255 0.942322
Si Si2 0.235762 0.823148 0.552296
Si Si3 0.886162 0.356286 0.044420
Si Si4 0.462068 0.231859 0.358496
Si Si5 0.200983 0.418905 0.597388
Si Si6 0.407725 0.837761 0.675376
Si Si7 0.198170 0.981955 0.336360
O O1 0.553497 0.815434 0.843795
O O2 0.687485 0.801406 0.780748
O O3 0.500000 0.500000 0.000000
O O4 0.623507 0.997355 0.137987
O O5 0.185738 0.848262 0.804184
O O6 0.205983 0.544245 0.470874
O O7 0.356394 0.025116 0.502078
O O8 0.194432 0.850794 0.450490
O O9 0.867203 0.559524 0.165231
O O10 0.000000 0.500000 0.000000
O O11 0.866207 0.230621 0.823667
O O12 0.500000 0.500000 0.500000
O O13 0.550909 0.223879 0.260317
O O14 0.312482 0.577160 0.596662
O O15 0.153768 0.127214 0.499182
O O16 0.500000 0.000000 0.500000
#
# Coordination Sequence:
#
# PCOD8019940 Si02
#       7
#     2   2   2   2   2   2   2
#     4  11  23  35  56  90 120 169 206 247 313 370
#     4   9  22  43  60  96 130 162 214 263 308 379
#     4  10  23  45  69  95 128 163 213 273 320 375
#     4  11  22  35  58  88 123 168 211 246 311 380
#     4  10  22  42  63  92 127 166 213 261 316 376
#     4  12  19  37  57  83 127 161 202 258 299 369
#     4  11  22  44  66  90 132 167 211 265 318 378
#
# _framework density 19.615214000000002
#
# number of rings (size 3 to 8) (size 9 to 14) (size 15 to 20)
#    0.857    0.571    2.857    3.857    2.000    1.143 
#    2.571    0.714    0.000    0.000    0.000    0.000 
#    0.000    0.000    0.000    0.000    0.000    0.000 
#
# Total GULP energy -173486.823518 kJ/mol
# GULP energy per Si atom -12391.915966 kJ/mol
# Density = 1.957057 g / cm^3
# Si number density = 19.615214 Si / 1000 Ang^3
#
#
#
# Elastic Constant Matrix: (Units=GPa)
#
#
# Indices 1 2 3 4 5 6 
#
# 1 118.1036 47.6329 46.1927 10.3913 -4.4807 0.2200
# 2 47.6329 50.9978 33.0924 6.8093 -3.7584 -8.1168
# 3 46.1927 33.0924 106.1644 20.5561 -1.8903 -3.3804
# 4 10.3913 6.8093 20.5561 35.6476 -2.6104 -7.4704
# 5 -4.4807 -3.7584 -1.8903 -2.6104 33.1962 0.8028
# 6 0.2200 -8.1168 -3.3804 -7.4704 0.8028 29.1477
#
#
#
# Elastic Compliance Matrix: (Units=1/GPa)
#
#
# Indices 1 2 3 4 5 6 
#
# 1 0.014589 -0.012612 -0.002275 -0.001394 0.000405 -0.004254
# 2 -0.012612 0.036791 -0.006094 0.002452 0.002062 0.010205
# 3 -0.002275 -0.006094 0.013472 -0.006353 -0.000688 -0.001727
# 4 -0.001394 0.002452 -0.006353 0.033595 0.002164 0.008507
# 5 0.000405 0.002062 -0.000688 0.002164 0.030538 0.000205
# 6 -0.004254 0.010205 -0.001727 0.008507 0.000205 0.039156
#
#
# Mechanical properties :
#
#
# Convention : Reuss Voigt Hill
#
# Bulk Modulus (GPa) = 43.68516 58.78908 51.23712
# Shear Modulus (GPa) = 22.96382 29.48816 26.22599
#
# Velocity S-wave (km/s) = 3.42528 3.88149 3.66050
# Velocity P-wave (km/s) = 6.16140 7.07984 6.63653
#
# Compressibility (1/GPa) = 0.02289107
#
# Stress axis : x y z
#
# Youngs Moduli (GPa) = 68.54321 27.18037 74.22918
#
# Poissons Ratio (x) = 0.34279 0.16888
# Poissons Ratio (y) = 0.86443 0.45235
# Poissons Ratio (z) = 0.15595 0.16564
#
# Static dielectric constant tensor:
#      x y z
#    x 4.006380 0.034660 -0.079590 
#    y 0.034660 3.255600 -0.130990 
#    z -0.079590 -0.130990 3.680240 
# 
# 
# High freq. dielectric constant tensor:
#      x y z
#    x 1.773860 -0.001180 -0.000910 
#    y -0.001180 1.739270 0.000510 
#    z -0.000910 0.000510 1.762110 
# 
# From -- ./inp_files/192295.got.cif
#   From: 2010.06.25/outbox.cif.g09.slc.cpg/sg2_97_cif.got.tgz:192295.got - 2010.06.27 13:26:56.
