data_PCOD8019389
_publ_section_title
;
Structure prediction by ZEFSAII (Michael W. Deem and Ramdas Pophale) SiO2 
 PCOD8019389
Probable space group: P -1
;
_chemical_formula_sum "Si O2"
_cell_formula_units_Z 16
_cell_length_a 21.730854
_cell_length_b 5.125350
_cell_length_c 9.146360
_cell_angle_alpha 100.975283
_cell_angle_beta 133.824302
_cell_angle_gamma 89.196464
_cell_volume 711.468069
_symmetry_space_group_name_H-M "P -1"
_symmetry_group_IT_number 2
_symmetry_cell_setting 'triclinic'
loop_
_space_group_symop_operation_xyz
x,y,z
-x,-y,-z
loop_
_atom_site_type_symbol
_atom_site_label
_atom_site_fract_x
_atom_site_fract_y
_atom_site_fract_z
Si Si1 0.642518 0.306342 0.629882
Si Si2 0.203305 0.372339 0.799757
Si Si3 0.247553 0.141186 0.137648
Si Si4 0.513728 0.890716 0.851409
Si Si5 0.110981 0.681357 0.904466
Si Si6 0.937607 0.821649 0.680462
Si Si7 0.607888 0.404849 0.899300
Si Si8 0.061858 0.313392 0.018587
O O1 0.707971 0.564517 0.699732
O O2 0.579512 0.186506 0.385346
O O3 0.592347 0.403743 0.697767
O O4 0.692604 0.079710 0.752888
O O5 0.151778 0.589718 0.813324
O O6 0.143892 0.207082 0.562771
O O7 0.231217 0.161488 0.939322
O O8 0.290416 0.529446 0.886019
O O9 0.153499 0.001523 0.039610
O O10 0.558028 0.627214 0.911154
O O11 0.572590 0.114018 0.876043
O O12 0.500000 0.000000 0.000000
O O13 0.006175 0.624252 0.725695
O O14 0.136590 0.488423 0.057839
O O15 0.900268 0.801771 0.783170
O O16 0.998848 0.105773 0.791641
O O17 0.000000 0.500000 0.000000
#
# Coordination Sequence:
#
# PCOD8019389 Si02
#       8
#     2   2   2   2   2   2   2   2
#     4  11  23  45  74 101 136 179 230 277 353 414
#     4  11  24  41  67 105 136 172 237 287 348 388
#     4  11  22  40  67 107 136 171 226 294 332 403
#     4  12  26  48  72 104 140 178 228 277 353 424
#     4  11  21  40  67  98 141 173 240 283 339 398
#     4  10  22  41  67  93 139 191 230 282 340 401
#     4  11  23  45  72 102 140 180 223 292 337 418
#     4   9  21  42  59  93 130 189 235 272 338 413
#
# _framework density 22.488710999999999
#
# number of rings (size 3 to 8) (size 9 to 14) (size 15 to 20)
#    0.000    1.250    2.500    4.500    0.000    4.000 
#    2.250    3.750    0.000    0.000    0.000    0.000 
#    0.000    0.000    0.000    0.000    0.000    0.000 
#
# Total GULP energy -198272.971239 kJ/mol
# GULP energy per Si atom -12392.060702 kJ/mol
# Density = 2.243753 g / cm^3
# Si number density = 22.488711 Si / 1000 Ang^3
#
#
#
# Elastic Constant Matrix: (Units=GPa)
#
#
# Indices 1 2 3 4 5 6 
#
# 1 61.5370 15.6288 58.5655 17.3927 6.4334 17.5087
# 2 15.6288 129.2774 51.6812 11.0969 9.4931 27.6157
# 3 58.5655 51.6812 190.9556 23.0248 8.4133 12.3212
# 4 17.3927 11.0969 23.0248 21.5715 -2.7783 5.3158
# 5 6.4334 9.4931 8.4133 -2.7783 27.1432 5.6409
# 6 17.5087 27.6157 12.3212 5.3158 5.6409 47.3696
#
#
#
# Elastic Compliance Matrix: (Units=1/GPa)
#
#
# Indices 1 2 3 4 5 6 
#
# 1 0.030096 0.002895 -0.007192 -0.016779 -0.005898 -0.008356
# 2 0.002895 0.010169 -0.002730 -0.003614 -0.002608 -0.005572
# 3 -0.007192 -0.002730 0.008342 -0.002387 -0.000675 0.002428
# 4 -0.016779 -0.003614 -0.002387 0.065928 0.012726 0.000016
# 5 -0.005898 -0.002608 -0.000675 0.012726 0.041174 -0.002455
# 6 -0.008356 -0.005572 0.002428 0.000016 -0.002455 0.027106
#
#
# Mechanical properties :
#
#
# Convention : Reuss Voigt Hill
#
# Bulk Modulus (GPa) = 28.94025 70.39121 49.66573
# Shear Modulus (GPa) = 23.99389 36.27648 30.13518
#
# Velocity S-wave (km/s) = 3.26993 4.02070 3.66459
# Velocity P-wave (km/s) = 5.21089 7.27484 6.32758
#
# Compressibility (1/GPa) = 0.03455395
#
# Stress axis : x y z
#
# Youngs Moduli (GPa) = 33.22698 98.34176 119.87347
#
# Poissons Ratio (x) = -0.28469 0.86209
# Poissons Ratio (y) = -0.09619 0.32722
# Poissons Ratio (z) = 0.23896 0.26844
#
# Static dielectric constant tensor:
#      x y z
#    x 4.827180 0.336560 -0.112750 
#    y 0.336560 4.304850 0.123490 
#    z -0.112750 0.123490 3.939810 
# 
# 
# High freq. dielectric constant tensor:
#      x y z
#    x 1.892270 0.001070 0.013590 
#    y 0.001070 1.912290 0.004030 
#    z 0.013590 0.004030 1.860620 
# 
# From -- ./inp_files/339887.got.cif
#   From: 2010.06.25/outbox.cif.g09.slc.cpg/sg2_170_cif.got.tgz:339887.got - 2010.06.27 13:26:56.
