data_PCOD8019545
_publ_section_title
;
Structure prediction by ZEFSAII (Michael W. Deem and Ramdas Pophale) SiO2 
 PCOD8019545
Probable space group: P -1
;
_chemical_formula_sum "Si O2"
_cell_formula_units_Z 16
_cell_length_a 12.459249
_cell_length_b 9.292553
_cell_length_c 22.788422
_cell_angle_alpha 47.239991
_cell_angle_beta 152.839689
_cell_angle_gamma 142.230400
_cell_volume 734.858200
_symmetry_space_group_name_H-M "P -1"
_symmetry_group_IT_number 2
_symmetry_cell_setting 'triclinic'
loop_
_space_group_symop_operation_xyz
x,y,z
-x,-y,-z
loop_
_atom_site_type_symbol
_atom_site_label
_atom_site_fract_x
_atom_site_fract_y
_atom_site_fract_z
Si Si1 0.704744 0.753923 0.431734
Si Si2 0.532180 0.240426 0.025990
Si Si3 0.658515 0.263465 0.952170
Si Si4 0.952040 0.442603 0.357486
Si Si5 0.517078 0.006365 0.336292
Si Si6 0.388473 0.801207 0.549661
Si Si7 0.098781 0.323478 0.843304
Si Si8 0.697351 0.543213 0.783822
O O1 0.505388 0.668501 0.300789
O O2 0.795925 0.576007 0.541816
O O3 0.538366 0.783888 0.394845
O O4 0.000000 0.000000 0.500000
O O5 0.303668 0.233074 0.960439
O O6 0.511636 0.995006 0.090083
O O7 0.503764 0.269473 0.934274
O O8 0.820863 0.470441 0.127492
O O9 0.971747 0.334536 0.104104
O O10 0.652681 0.442508 0.855748
O O11 0.659590 0.196303 0.299857
O O12 0.904418 0.589487 0.247352
O O13 0.078865 0.582890 0.441080
O O14 0.672956 0.113803 0.443664
O O15 0.189634 0.908525 0.210854
O O16 0.619785 0.736750 0.690556
O O17 0.500000 0.000000 0.500000
#
# Coordination Sequence:
#
# PCOD8019545 Si02
#       8
#     2   2   2   2   2   2   2   2
#     4   9  21  40  61  96 130 164 216 262 321 394
#     4  10  24  43  61  94 128 171 220 278 329 376
#     4  10  22  43  66  94 127 175 224 269 324 385
#     4  10  23  41  63  95 132 172 213 265 330 398
#     4  11  22  40  66  92 127 175 212 261 330 393
#     4  11  22  42  64 100 136 168 215 271 326 397
#     4  11  23  43  64  94 135 166 218 278 329 386
#     4  10  22  41  68  96 130 171 222 268 323 397
#
# _framework density 21.772908999999999
#
# number of rings (size 3 to 8) (size 9 to 14) (size 15 to 20)
#    0.000    1.750    1.250    1.875    5.250    0.500 
#    2.250    1.250    0.000    0.000    0.000    0.000 
#    0.000    0.000    0.000    0.000    0.000    0.000 
#
# Total GULP energy -198298.959549 kJ/mol
# GULP energy per Si atom -12393.684972 kJ/mol
# Density = 2.172335 g / cm^3
# Si number density = 21.772909 Si / 1000 Ang^3
#
#
#
# Elastic Constant Matrix: (Units=GPa)
#
#
# Indices 1 2 3 4 5 6 
#
# 1 98.8241 37.5258 26.1185 -0.0779 3.7535 -14.9421
# 2 37.5258 94.0208 39.2592 8.6041 1.0797 -4.4261
# 3 26.1185 39.2592 76.0094 -1.3220 -6.9411 -4.9957
# 4 -0.0779 8.6041 -1.3220 41.1891 4.3344 -8.9859
# 5 3.7535 1.0797 -6.9411 4.3344 13.9640 12.2700
# 6 -14.9421 -4.4261 -4.9957 -8.9859 12.2700 43.6726
#
#
#
# Elastic Compliance Matrix: (Units=1/GPa)
#
#
# Indices 1 2 3 4 5 6 
#
# 1 0.014588 -0.004134 -0.003549 0.004350 -0.014822 0.009226
# 2 -0.004134 0.015425 -0.006812 -0.003475 -0.001602 -0.000895
# 3 -0.003549 -0.006812 0.018949 -0.000327 0.014379 -0.003844
# 4 0.004350 -0.003475 -0.000327 0.030348 -0.022487 0.013661
# 5 -0.014822 -0.001602 0.014379 -0.022487 0.128886 -0.044427
# 6 0.009226 -0.000895 -0.003844 0.013661 -0.044427 0.040816
#
#
# Mechanical properties :
#
#
# Convention : Reuss Voigt Hill
#
# Bulk Modulus (GPa) = 50.07124 52.74016 51.40570
# Shear Modulus (GPa) = 17.56487 30.82851 24.19669
#
# Velocity S-wave (km/s) = 2.84338 3.76694 3.33726
# Velocity P-wave (km/s) = 5.81607 6.57231 6.20572
#
# Compressibility (1/GPa) = 0.01997154
#
# Stress axis : x y z
#
# Youngs Moduli (GPa) = 68.54925 64.83160 52.77337
#
# Poissons Ratio (x) = 0.26801 0.18730
# Poissons Ratio (y) = 0.28338 0.35949
# Poissons Ratio (z) = 0.24329 0.44163
#
# Static dielectric constant tensor:
#      x y z
#    x 4.107890 -0.362750 0.163510 
#    y -0.362750 4.167190 0.190220 
#    z 0.163510 0.190220 3.890390 
# 
# 
# High freq. dielectric constant tensor:
#      x y z
#    x 1.857910 -0.014230 0.002210 
#    y -0.014230 1.866320 0.015210 
#    z 0.002210 0.015210 1.842050 
# 
# From -- ./inp_files/399720.got.cif
#   From: 2010.06.25/outbox.cif.g09.slc.cpg/sg2_200_cif.got.tgz:399720.got - 2010.06.27 13:26:56.
