data_PCOD8019892
_publ_section_title
;
Structure prediction by ZEFSAII (Michael W. Deem and Ramdas Pophale) SiO2 
 PCOD8019892
Probable space group: P -1
;
_chemical_formula_sum "Si O2"
_cell_formula_units_Z 16
_cell_length_a 16.807566
_cell_length_b 8.398604
_cell_length_c 11.690269
_cell_angle_alpha 51.470183
_cell_angle_beta 125.991057
_cell_angle_gamma 85.790910
_cell_volume 751.706130
_symmetry_space_group_name_H-M "P -1"
_symmetry_group_IT_number 2
_symmetry_cell_setting 'triclinic'
loop_
_space_group_symop_operation_xyz
x,y,z
-x,-y,-z
loop_
_atom_site_type_symbol
_atom_site_label
_atom_site_fract_x
_atom_site_fract_y
_atom_site_fract_z
Si Si1 0.998686 0.765113 0.597042
Si Si2 0.229183 0.392027 0.789940
Si Si3 0.756155 0.205397 0.476468
Si Si4 0.955237 0.345250 0.061215
Si Si5 0.696423 0.837091 0.508097
Si Si6 0.520970 0.153374 0.639126
Si Si7 0.276516 0.068835 0.755206
Si Si8 0.537277 0.505631 0.345449
O O1 0.081074 0.578595 0.638274
O O2 0.072027 0.598951 0.851325
O O3 0.844115 0.908526 0.394849
O O4 0.000000 0.000000 0.500000
O O5 0.280808 0.551810 0.746766
O O6 0.221871 0.299074 0.702063
O O7 0.326481 0.128386 0.074614
O O8 0.677959 0.340363 0.469872
O O9 0.712411 0.052253 0.455069
O O10 0.922315 0.982344 0.728244
O O11 0.816066 0.511414 0.798645
O O12 0.000000 0.500000 0.000000
O O13 0.562483 0.935750 0.410591
O O14 0.681996 0.848326 0.353607
O O15 0.522594 0.289741 0.465794
O O16 0.450420 0.376215 0.583955
O O17 0.406932 0.751828 0.048055
#
# Coordination Sequence:
#
# PCOD8019892 Si02
#       8
#     2   2   2   2   2   2   2   2
#     4  12  23  42  66  91 128 160 207 261 305 364
#     4  11  24  41  67  91 125 167 207 251 314 368
#     4  11  22  42  63  92 125 164 207 252 309 366
#     4  10  22  42  62  91 126 161 204 257 308 363
#     4  11  23  41  67  90 128 164 208 256 306 367
#     4  10  24  43  61  95 124 165 206 259 309 366
#     4  11  23  43  64  93 125 167 206 251 312 373
#     4  10  24  42  64  89 131 160 208 258 308 371
#
# _framework density 21.284911000000001
#
# number of rings (size 3 to 8) (size 9 to 14) (size 15 to 20)
#    0.000    1.250    3.750    1.875    5.250    5.500 
#    0.000    2.500    0.000    0.000    0.000    0.000 
#    0.000    0.000    0.000    0.000    0.000    0.000 
#
# Total GULP energy -198323.251117 kJ/mol
# GULP energy per Si atom -12395.203195 kJ/mol
# Density = 2.123647 g / cm^3
# Si number density = 21.284911 Si / 1000 Ang^3
#
#
#
# Elastic Constant Matrix: (Units=GPa)
#
#
# Indices 1 2 3 4 5 6 
#
# 1 109.2990 21.7888 27.2413 -1.3411 -17.6676 -6.4654
# 2 21.7888 55.3260 37.3369 -8.5096 -6.4899 -8.4315
# 3 27.2413 37.3369 97.5445 8.8552 -21.1794 -6.5987
# 4 -1.3411 -8.5096 8.8552 31.9246 -3.6235 1.4668
# 5 -17.6676 -6.4899 -21.1794 -3.6235 38.5647 -1.1880
# 6 -6.4654 -8.4315 -6.5987 1.4668 -1.1880 41.2903
#
#
#
# Elastic Compliance Matrix: (Units=1/GPa)
#
#
# Indices 1 2 3 4 5 6 
#
# 1 0.010666 -0.002855 -0.000997 0.000362 0.003924 0.001028
# 2 -0.002855 0.028674 -0.011243 0.010315 -0.001590 0.003199
# 3 -0.000997 -0.011243 0.016883 -0.007040 0.006282 0.000677
# 4 0.000362 0.010315 -0.007040 0.036213 0.001432 -0.000207
# 5 0.003924 -0.001590 0.006282 0.001432 0.031111 0.002138
# 6 0.001028 0.003199 0.000677 -0.000207 0.002138 0.025210
#
#
# Mechanical properties :
#
#
# Convention : Reuss Voigt Hill
#
# Bulk Modulus (GPa) = 38.41417 48.32262 43.36839
# Shear Modulus (GPa) = 26.64867 34.07608 30.36238
#
# Velocity S-wave (km/s) = 3.54220 4.00553 3.78097
# Velocity P-wave (km/s) = 5.90054 6.64412 6.28334
#
# Compressibility (1/GPa) = 0.02603206
#
# Stress axis : x y z
#
# Youngs Moduli (GPa) = 93.75153 34.87447 59.23214
#
# Poissons Ratio (x) = 0.09957 0.05907
# Poissons Ratio (y) = 0.26767 0.66597
# Poissons Ratio (z) = 0.09350 0.39210
#
# Static dielectric constant tensor:
#      x y z
#    x 4.379650 -0.279300 -0.324910 
#    y -0.279300 3.784640 -0.067000 
#    z -0.324910 -0.067000 2.390960 
# 
# 
# High freq. dielectric constant tensor:
#      x y z
#    x 1.852430 -0.009210 -0.010370 
#    y -0.009210 1.820140 -0.008400 
#    z -0.010370 -0.008400 1.839710 
# 
# From -- ./inp_files/298714.got.cif
#   From: 2010.06.25/outbox.cif.g09.slc.cpg/sg2_150_cif.got.tgz:298714.got - 2010.06.27 13:26:56.
