data_PCOD8019913
_publ_section_title
;
Structure prediction by ZEFSAII (Michael W. Deem and Ramdas Pophale) SiO2 
 PCOD8019913
Probable space group: P -1
;
_chemical_formula_sum "Si O2"
_cell_formula_units_Z 16
_cell_length_a 15.660733
_cell_length_b 16.236381
_cell_length_c 6.964980
_cell_angle_alpha 139.643763
_cell_angle_beta 133.886826
_cell_angle_gamma 43.686997
_cell_volume 751.018661
_symmetry_space_group_name_H-M "P -1"
_symmetry_group_IT_number 2
_symmetry_cell_setting 'triclinic'
loop_
_space_group_symop_operation_xyz
x,y,z
-x,-y,-z
loop_
_atom_site_type_symbol
_atom_site_label
_atom_site_fract_x
_atom_site_fract_y
_atom_site_fract_z
Si Si1 0.620594 0.982828 0.280927
Si Si2 0.196735 0.717747 0.658660
Si Si3 0.947530 0.922094 0.426501
Si Si4 0.341362 0.231867 0.741470
Si Si5 0.709366 0.191910 0.682526
Si Si6 0.567495 0.334284 0.333650
Si Si7 0.785391 0.769292 0.856958
Si Si8 0.152908 0.445010 0.121443
O O1 0.614129 0.922129 0.372159
O O2 0.622042 0.135296 0.576672
O O3 0.739018 0.876230 0.151541
O O4 0.500000 0.000000 0.000000
O O5 0.307002 0.732370 0.724706
O O6 0.195985 0.568011 0.363695
O O7 0.057430 0.843666 0.618758
O O8 0.232407 0.722417 0.945002
O O9 0.823981 0.049881 0.542258
O O10 0.911417 0.800902 0.052404
O O11 0.000000 0.000000 0.500000
O O12 0.307151 0.213365 0.436717
O O13 0.461622 0.274898 0.012250
O O14 0.214969 0.339129 0.851804
O O15 0.619471 0.292839 0.557329
O O16 0.500000 0.500000 0.500000
O O17 0.803545 0.622365 0.719135
O O18 0.000000 0.500000 0.000000
#
# Coordination Sequence:
#
# PCOD8019913 Si02
#       8
#     2   2   2   2   2   2   2   2
#     4  10  22  42  62  95 130 165 222 264 315 399
#     4  12  26  43  71  97 135 182 218 278 336 392
#     4  11  23  46  68  99 135 169 233 277 328 400
#     4  11  25  43  68  95 135 175 217 273 333 396
#     4  11  26  43  68  98 134 179 219 278 335 388
#     4  12  26  45  64 101 141 174 225 270 327 411
#     4  10  25  42  67  95 131 175 213 278 329 384
#     4  11  24  46  65  97 132 170 230 271 323 401
#
# _framework density 21.304397000000002
#
# number of rings (size 3 to 8) (size 9 to 14) (size 15 to 20)
#    0.000    1.000    5.000    0.375    5.250    2.500 
#    0.000    0.000    0.000    0.000    0.000    0.000 
#    0.000    0.000    0.000    0.000    0.000    0.000 
#
# Total GULP energy -198235.468851 kJ/mol
# GULP energy per Si atom -12389.716803 kJ/mol
# Density = 2.125591 g / cm^3
# Si number density = 21.304397 Si / 1000 Ang^3
#
#
#
# Elastic Constant Matrix: (Units=GPa)
#
#
# Indices 1 2 3 4 5 6 
#
# 1 79.7593 31.9234 23.4992 -5.6616 23.9362 21.8853
# 2 31.9234 130.0004 37.7084 -18.5987 2.3174 25.1396
# 3 23.4992 37.7084 106.2934 -26.3636 9.4055 19.8159
# 4 -5.6616 -18.5987 -26.3636 38.6583 2.9422 0.9402
# 5 23.9362 2.3174 9.4055 2.9422 26.5930 -6.2112
# 6 21.8853 25.1396 19.8159 0.9402 -6.2112 41.2300
#
#
#
# Elastic Compliance Matrix: (Units=1/GPa)
#
#
# Indices 1 2 3 4 5 6 
#
# 1 0.028129 -0.002209 0.003131 0.008101 -0.031817 -0.020067
# 2 -0.002209 0.009981 -0.001363 0.003640 0.000190 -0.004313
# 3 0.003131 -0.001363 0.014792 0.011004 -0.011465 -0.009918
# 4 0.008101 0.003640 0.011004 0.038163 -0.019366 -0.015596
# 5 -0.031817 0.000190 -0.011465 -0.019366 0.080566 0.034862
# 6 -0.020067 -0.004313 -0.009918 -0.015596 0.034862 0.047910
#
#
# Mechanical properties :
#
#
# Convention : Reuss Voigt Hill
#
# Bulk Modulus (GPa) = 19.22310 55.81281 37.51796
# Shear Modulus (GPa) = 21.02931 36.15772 28.59351
#
# Velocity S-wave (km/s) = 3.14520 4.12417 3.66750
# Velocity P-wave (km/s) = 4.71512 6.99522 5.96513
#
# Compressibility (1/GPa) = 0.05202074
#
# Stress axis : x y z
#
# Youngs Moduli (GPa) = 35.55036 100.18714 67.60344
#
# Poissons Ratio (x) = 0.22129 -0.21164
# Poissons Ratio (y) = 0.07852 0.09212
# Poissons Ratio (z) = -0.11129 0.13652
#
# Static dielectric constant tensor:
#      x y z
#    x 4.668360 1.012570 0.882130 
#    y 1.012570 4.765540 0.657220 
#    z 0.882130 0.657220 4.188880 
# 
# 
# High freq. dielectric constant tensor:
#      x y z
#    x 1.849850 0.011220 0.021110 
#    y 0.011220 1.850660 -0.002700 
#    z 0.021110 -0.002700 1.827170 
# 
# From -- ./inp_files/76968.got.cif
#   From: 2010.06.25/outbox.cif.g09.slc.cpg/sg2_39_cif.got.tgz:76968.got - 2010.06.27 13:26:56.
