data_PCOD8019600
_publ_section_title
;
Structure prediction by ZEFSAII (Michael W. Deem and Ramdas Pophale) SiO2 
 PCOD8019600
Probable space group: P -1
;
_chemical_formula_sum "Si O2"
_cell_formula_units_Z 16
_cell_length_a 14.480237
_cell_length_b 11.126096
_cell_length_c 11.987518
_cell_angle_alpha 82.437150
_cell_angle_beta 20.172335
_cell_angle_gamma 82.105350
_cell_volume 659.663587
_symmetry_space_group_name_H-M "P -1"
_symmetry_group_IT_number 2
_symmetry_cell_setting 'triclinic'
loop_
_space_group_symop_operation_xyz
x,y,z
-x,-y,-z
loop_
_atom_site_type_symbol
_atom_site_label
_atom_site_fract_x
_atom_site_fract_y
_atom_site_fract_z
Si Si1 0.426072 0.773083 0.135251
Si Si2 0.682663 0.457265 0.567196
Si Si3 0.741662 0.948832 0.355267
Si Si4 0.845780 0.387226 0.924359
Si Si5 0.884977 0.034772 0.404505
Si Si6 0.339099 0.618171 0.630485
Si Si7 0.029796 0.804748 0.377938
Si Si8 0.677505 0.837549 0.231037
O O1 0.408374 0.652887 0.242243
O O2 0.364191 0.894979 0.262373
O O3 0.213077 0.766327 0.278337
O O4 0.723831 0.777208 0.751818
O O5 0.823467 0.409217 0.296185
O O6 0.893715 0.531408 0.390014
O O7 0.418416 0.536581 0.823365
O O8 0.699756 0.826447 0.344144
O O9 0.783912 0.934354 0.441662
O O10 0.489518 0.039993 0.618798
O O11 0.000000 0.000000 0.000000
O O12 0.871549 0.270147 0.832396
O O13 0.840416 0.338829 0.065530
O O14 0.055408 0.949537 0.307993
O O15 0.044179 0.142570 0.151514
O O16 0.500000 0.500000 0.500000
O O17 0.546463 0.719380 0.346546
#
# Coordination Sequence:
#
# PCOD8019600 Si02
#       8
#     2   2   2   2   2   2   2   2
#     4  12  28  48  77 101 146 192 249 298 352 427
#     4  11  25  49  77 106 143 191 239 295 372 421
#     4   9  21  39  64 105 138 189 226 285 355 439
#     4  11  26  47  75 108 147 186 237 303 357 433
#     4  11  26  43  72 101 149 186 244 295 360 427
#     4  10  24  43  72 108 143 180 233 293 362 430
#     4  12  29  48  72 109 142 194 245 301 354 416
#     4  10  22  41  69 103 146 189 227 287 364 437
#
# _framework density 24.254788999999999
#
# number of rings (size 3 to 8) (size 9 to 14) (size 15 to 20)
#    0.000    1.250    0.000    3.375   14.000    5.000 
#    4.500    0.000    0.000    0.000    0.000    0.000 
#    0.000    0.000    0.000    0.000    0.000    0.000 
#
# Total GULP energy -198317.394633 kJ/mol
# GULP energy per Si atom -12394.837165 kJ/mol
# Density = 2.419958 g / cm^3
# Si number density = 24.254789 Si / 1000 Ang^3
#
#
#
# Elastic Constant Matrix: (Units=GPa)
#
#
# Indices 1 2 3 4 5 6 
#
# 1 57.4389 39.9257 3.6454 36.0245 10.6298 -16.1776
# 2 39.9257 65.8213 39.6977 -19.2917 6.7488 2.2302
# 3 3.6454 39.6977 69.2248 35.1982 11.1719 -19.7666
# 4 36.0245 -19.2917 35.1982 12.7447 -3.0055 12.2590
# 5 10.6298 6.7488 11.1719 -3.0055 42.3984 3.3250
# 6 -16.1776 2.2302 -19.7666 12.2590 3.3250 26.6836
#
#
#
# Elastic Compliance Matrix: (Units=1/GPa)
#
#
# Indices 1 2 3 4 5 6 
#
# 1 0.008497 0.002772 -0.008470 0.009219 0.000760 -0.005685
# 2 0.002772 0.009141 0.002651 -0.009994 -0.004184 0.007993
# 3 -0.008470 0.002651 0.008242 0.008244 0.000356 -0.003083
# 4 0.009219 -0.009994 0.008244 0.002045 -0.003693 0.012052
# 5 0.000760 -0.004184 0.000356 -0.003693 0.023720 -0.000185
# 6 -0.005685 0.007993 -0.003083 0.012052 -0.000185 0.025563
#
#
# Mechanical properties :
#
#
# Convention : Reuss Voigt Hill
#
# Bulk Modulus (GPa) = 50.54403 39.89138 45.21770
# Shear Modulus (GPa) = 55.61818 23.64643 39.63230
#
# Velocity S-wave (km/s) = 4.79381 3.12575 4.04666
# Velocity P-wave (km/s) = 7.17808 5.43228 6.36531
#
# Compressibility (1/GPa) = 0.01978473
#
# Stress axis : x y z
#
# Youngs Moduli (GPa) = 117.69051 109.39321 121.33140
#
# Poissons Ratio (x) = -0.30318 1.02774
# Poissons Ratio (y) = -0.32618 -0.32169
# Poissons Ratio (z) = 0.99690 -0.29004
#
# Static dielectric constant tensor:
#      x y z
#    x 5.197090 0.270960 0.178660 
#    y 0.270960 4.285090 0.115280 
#    z 0.178660 0.115280 4.418070 
# 
# 
# High freq. dielectric constant tensor:
#      x y z
#    x 1.980170 0.004240 0.005060 
#    y 0.004240 1.960000 0.008230 
#    z 0.005060 0.008230 1.964360 
# 
# From -- ./inp_files/452242.got.cif
#   From: 2010.06.25/outbox.cif.g09.slc.cpg/sg2_227_cif.got.tgz:452242.got - 2010.06.27 13:26:56.
