data_PCOD8019933
_publ_section_title
;
Structure prediction by ZEFSAII (Michael W. Deem and Ramdas Pophale) SiO2 
 PCOD8019933
Probable space group: P -1
;
_chemical_formula_sum "Si O2"
_cell_formula_units_Z 16
_cell_length_a 18.451349
_cell_length_b 8.846279
_cell_length_c 8.881084
_cell_angle_alpha 114.650904
_cell_angle_beta 129.624360
_cell_angle_gamma 98.190711
_cell_volume 824.145531
_symmetry_space_group_name_H-M "P -1"
_symmetry_group_IT_number 2
_symmetry_cell_setting 'triclinic'
loop_
_space_group_symop_operation_xyz
x,y,z
-x,-y,-z
loop_
_atom_site_type_symbol
_atom_site_label
_atom_site_fract_x
_atom_site_fract_y
_atom_site_fract_z
Si Si1 0.775734 0.462222 0.311204
Si Si2 0.421181 0.936313 0.582290
Si Si3 0.231463 0.228883 0.739536
Si Si4 0.782083 0.837704 0.955066
Si Si5 0.455481 0.301968 0.957008
Si Si6 0.338212 0.582284 0.543925
Si Si7 0.339250 0.948471 0.165686
Si Si8 0.023068 0.105141 0.234778
O O1 0.720763 0.539733 0.152390
O O2 0.711687 0.406511 0.360860
O O3 0.911707 0.648439 0.593741
O O4 0.757769 0.260587 0.136038
O O5 0.344026 0.746510 0.511804
O O6 0.338216 0.900014 0.319574
O O7 0.466777 0.147850 0.810797
O O8 0.532441 0.945291 0.684052
O O9 0.323800 0.187257 0.790681
O O10 0.108442 0.068595 0.426083
O O11 0.212810 0.205075 0.882113
O O12 0.745273 0.640172 0.729713
O O13 0.691402 0.890951 0.828659
O O14 0.907714 0.022096 0.140487
O O15 0.500000 0.500000 0.000000
O O16 0.535112 0.366273 0.237679
O O17 0.000000 0.000000 0.000000
#
# Coordination Sequence:
#
# PCOD8019933 Si02
#       8
#     2   2   2   2   2   2   2   2
#     4  10  22  42  63  90 129 166 211 261 326 368
#     4  11  25  39  63  93 142 165 209 257 332 380
#     4  10  23  39  65  96 125 167 212 265 316 377
#     4  12  24  41  70  93 128 167 227 260 317 378
#     4  12  21  39  67  97 131 171 213 256 321 387
#     4  12  23  39  65  97 129 176 205 261 319 390
#     4  11  24  42  62  96 128 171 207 274 314 384
#     4  10  22  44  68  91 124 172 215 271 318 372
#
# _framework density 19.414047
#
# number of rings (size 3 to 8) (size 9 to 14) (size 15 to 20)
#    0.750    0.250    3.750    3.000    3.500    4.500 
#    0.000    0.000    0.000    2.250    0.000    0.000 
#    0.000    0.000    0.000    0.000    0.000    0.000 
#
# Total GULP energy -198404.788505 kJ/mol
# GULP energy per Si atom -12400.299282 kJ/mol
# Density = 1.936986 g / cm^3
# Si number density = 19.414047 Si / 1000 Ang^3
#
#
#
# Elastic Constant Matrix: (Units=GPa)
#
#
# Indices 1 2 3 4 5 6 
#
# 1 84.8671 25.7782 23.4692 -5.6057 -0.6486 14.2020
# 2 25.7782 103.0292 28.4516 4.0683 -12.1999 16.2454
# 3 23.4692 28.4516 110.3717 0.8734 -9.2104 6.8297
# 4 -5.6057 4.0683 0.8734 33.9356 3.7153 -3.0923
# 5 -0.6486 -12.1999 -9.2104 3.7153 29.6248 -7.2783
# 6 14.2020 16.2454 6.8297 -3.0923 -7.2783 28.0890
#
#
#
# Elastic Compliance Matrix: (Units=1/GPa)
#
#
# Indices 1 2 3 4 5 6 
#
# 1 0.014293 -0.002503 -0.002323 0.002544 -0.003173 -0.005756
# 2 -0.002503 0.012135 -0.001995 -0.002625 0.003510 -0.004647
# 3 -0.002323 -0.001995 0.010257 -0.000645 0.002498 0.000411
# 4 0.002544 -0.002625 -0.000645 0.030948 -0.004458 0.002641
# 5 -0.003173 0.003510 0.002498 -0.004458 0.038547 0.008464
# 6 -0.005756 -0.004647 0.000411 0.002641 0.008464 0.043583
#
#
# Mechanical properties :
#
#
# Convention : Reuss Voigt Hill
#
# Bulk Modulus (GPa) = 43.39648 50.40733 46.90191
# Shear Modulus (GPa) = 29.22526 33.03447 31.12986
#
# Velocity S-wave (km/s) = 3.88411 4.12949 4.00868
# Velocity P-wave (km/s) = 6.52049 6.98267 6.75553
#
# Compressibility (1/GPa) = 0.02304334
#
# Stress axis : x y z
#
# Youngs Moduli (GPa) = 69.96500 82.40514 97.49880
#
# Poissons Ratio (x) = 0.20628 0.22646
# Poissons Ratio (y) = 0.17514 0.19448
# Poissons Ratio (z) = 0.16250 0.16437
#
# Static dielectric constant tensor:
#      x y z
#    x 3.363710 0.132640 0.327370 
#    y 0.132640 3.486100 -0.111840 
#    z 0.327370 -0.111840 2.690380 
# 
# 
# High freq. dielectric constant tensor:
#      x y z
#    x 1.755420 0.013420 -0.008200 
#    y 0.013420 1.752200 -0.002110 
#    z -0.008200 -0.002110 1.762090 
# 
# From -- ./inp_files/217648.got.cif
#   From: 2010.06.25/outbox.cif.g09.slc.cpg/sg2_109_cif.got.tgz:217648.got - 2010.06.27 13:26:56.
