data_PCOD8019954
_publ_section_title
;
Structure prediction by ZEFSAII (Michael W. Deem and Ramdas Pophale) SiO2 
 PCOD8019954
Probable space group: P -1
;
_chemical_formula_sum "Si O2"
_cell_formula_units_Z 16
_cell_length_a 24.003030
_cell_length_b 6.305660
_cell_length_c 9.927206
_cell_angle_alpha 131.490242
_cell_angle_beta 48.599998
_cell_angle_gamma 136.075693
_cell_volume 730.097144
_symmetry_space_group_name_H-M "P -1"
_symmetry_group_IT_number 2
_symmetry_cell_setting 'triclinic'
loop_
_space_group_symop_operation_xyz
x,y,z
-x,-y,-z
loop_
_atom_site_type_symbol
_atom_site_label
_atom_site_fract_x
_atom_site_fract_y
_atom_site_fract_z
Si Si1 0.289318 0.506525 0.725223
Si Si2 0.826300 0.434789 0.847937
Si Si3 0.558649 0.798659 0.202681
Si Si4 0.128613 0.354019 0.436154
Si Si5 0.564984 0.623958 0.568998
Si Si6 0.978643 0.403036 0.646580
Si Si7 0.570524 0.264609 0.822455
Si Si8 0.746931 0.674433 0.585394
O O1 0.342628 0.324565 0.598235
O O2 0.232975 0.347125 0.613302
O O3 0.354944 0.889063 0.753854
O O4 0.229460 0.459954 0.928679
O O5 0.844930 0.620263 0.752802
O O6 0.913681 0.538444 0.841198
O O7 0.778557 0.046460 0.733269
O O8 0.479540 0.672307 0.379005
O O9 0.523603 0.872655 0.152020
O O10 0.581799 0.511096 0.027958
O O11 0.211249 0.495710 0.460992
O O12 0.071377 0.534781 0.628618
O O13 0.071363 0.982337 0.415567
O O14 0.500000 0.500000 0.500000
O O15 0.578104 0.966718 0.748522
O O16 0.000000 0.500000 0.500000
O O17 0.644675 0.463090 0.677370
#
# Coordination Sequence:
#
# PCOD8019954 Si02
#       8
#     2   2   2   2   2   2   2   2
#     4  12  24  43  63  91 135 169 214 275 325 376
#     4  10  22  42  63  96 129 168 209 260 320 383
#     4  11  23  44  62  84 123 170 222 270 324 379
#     4   9  19  37  68  96 126 166 208 254 316 385
#     4  12  24  39  60  88 118 170 224 267 319 379
#     4   8  16  38  69  96 125 165 208 251 311 384
#     4  11  23  41  64  87 120 170 218 272 324 376
#     4  11  23  40  62  93 131 166 211 269 325 376
#
# _framework density 21.91489
#
# number of rings (size 3 to 8) (size 9 to 14) (size 15 to 20)
#    0.000    1.500    3.750    1.500    1.750    1.000 
#    4.500    0.625    0.000   25.500    0.000    0.000 
#    0.000    0.000    0.000    0.000    0.000    0.000 
#
# Total GULP energy -198228.416116 kJ/mol
# GULP energy per Si atom -12389.276007 kJ/mol
# Density = 2.186501 g / cm^3
# Si number density = 21.914890 Si / 1000 Ang^3
#
#
#
# Elastic Constant Matrix: (Units=GPa)
#
#
# Indices 1 2 3 4 5 6 
#
# 1 145.7166 8.9864 62.9871 3.3467 -15.7333 -13.2920
# 2 8.9864 66.3058 25.6123 -9.7796 -8.7433 -18.6892
# 3 62.9871 25.6123 113.4848 -3.5344 -18.4368 -3.8341
# 4 3.3467 -9.7796 -3.5344 35.4542 -2.5572 -1.5540
# 5 -15.7333 -8.7433 -18.4368 -2.5572 35.9613 1.1522
# 6 -13.2920 -18.6892 -3.8341 -1.5540 1.1522 25.9956
#
#
#
# Elastic Compliance Matrix: (Units=1/GPa)
#
#
# Indices 1 2 3 4 5 6 
#
# 1 0.009883 0.002744 -0.005600 -0.000330 0.001901 0.006096
# 2 0.002744 0.023219 -0.005307 0.006676 0.004038 0.017533
# 3 -0.005600 -0.005307 0.013517 0.000445 0.003376 -0.004808
# 4 -0.000330 0.006676 0.000445 0.030667 0.003684 0.006367
# 5 0.001901 0.004038 0.003376 0.003684 0.031511 0.003197
# 6 0.006096 0.017533 -0.004808 0.006367 0.003197 0.053720
#
#
# Mechanical properties :
#
#
# Convention : Reuss Voigt Hill
#
# Bulk Modulus (GPa) = 33.01049 57.85320 45.43185
# Shear Modulus (GPa) = 26.46314 34.67698 30.57006
#
# Velocity S-wave (km/s) = 3.47874 3.98219 3.73895
# Velocity P-wave (km/s) = 5.58849 6.89928 6.27819
#
# Compressibility (1/GPa) = 0.03029340
#
# Stress axis : x y z
#
# Youngs Moduli (GPa) = 101.18359 43.06842 73.97823
#
# Poissons Ratio (x) = -0.11818 0.41429
# Poissons Ratio (y) = -0.27765 0.39260
# Poissons Ratio (z) = 0.56664 0.22856
#
# Static dielectric constant tensor:
#      x y z
#    x 4.337950 0.000620 -0.573850 
#    y 0.000620 4.010550 -0.027620 
#    z -0.573850 -0.027620 3.868730 
# 
# 
# High freq. dielectric constant tensor:
#      x y z
#    x 1.869170 -0.009560 -0.022170 
#    y -0.009560 1.857890 -0.014090 
#    z -0.022170 -0.014090 1.844610 
# 
# From -- ./inp_files/351078.got.cif
#   From: 2010.06.25/outbox.cif.g09.slc.cpg/sg2_176_cif.got.tgz:351078.got - 2010.06.27 13:26:56.
