data_PCOD8019842
_publ_section_title
;
Structure prediction by ZEFSAII (Michael W. Deem and Ramdas Pophale) SiO2 
 PCOD8019842
Probable space group: P -1
;
_chemical_formula_sum "Si O2"
_cell_formula_units_Z 16
_cell_length_a 21.208033
_cell_length_b 11.390212
_cell_length_c 11.494763
_cell_angle_alpha 154.724857
_cell_angle_beta 41.701218
_cell_angle_gamma 138.589045
_cell_volume 760.824865
_symmetry_space_group_name_H-M "P -1"
_symmetry_group_IT_number 2
_symmetry_cell_setting 'triclinic'
loop_
_space_group_symop_operation_xyz
x,y,z
-x,-y,-z
loop_
_atom_site_type_symbol
_atom_site_label
_atom_site_fract_x
_atom_site_fract_y
_atom_site_fract_z
Si Si1 0.271495 0.826412 0.383087
Si Si2 0.933080 0.609408 0.340941
Si Si3 0.388410 0.187545 0.846558
Si Si4 0.743820 0.388584 0.546860
Si Si5 0.755845 0.592180 0.149438
Si Si6 0.940708 0.793072 0.237782
Si Si7 0.555312 0.265628 0.238486
Si Si8 0.478551 0.997521 0.333031
O O1 0.218231 0.731106 0.494558
O O2 0.275030 0.149912 0.638320
O O3 0.384807 0.810756 0.223255
O O4 0.214813 0.605970 0.166989
O O5 0.836074 0.579996 0.523714
O O6 0.905544 0.658215 0.290384
O O7 0.018960 0.868392 0.504020
O O8 0.972431 0.328912 0.043384
O O9 0.311366 0.879020 0.695495
O O10 0.470441 0.218939 0.863187
O O11 0.439697 0.195460 0.656540
O O12 0.333624 0.433406 0.154836
O O13 0.848012 0.723411 0.220143
O O14 0.669313 0.387738 0.159900
O O15 0.500000 0.500000 0.500000
O O16 0.553213 0.190347 0.311022
O O17 0.500000 0.000000 0.000000
#
# Coordination Sequence:
#
# PCOD8019842 Si02
#       8
#     2   2   2   2   2   2   2   2
#     4  11  23  40  63  85 134 166 205 251 310 355
#     4  10  22  45  67  93 122 158 201 264 325 365
#     4  10  24  38  65  90 128 165 213 262 302 362
#     4  11  23  42  65  94 121 167 212 260 309 376
#     4  12  23  42  61  95 123 168 207 251 306 375
#     4  10  23  42  69  91 127 157 199 262 320 375
#     4  12  24  39  62  91 128 171 208 248 299 374
#     4  10  22  42  59  92 128 170 210 254 309 354
#
# _framework density 21.029805
#
# number of rings (size 3 to 8) (size 9 to 14) (size 15 to 20)
#    0.000    1.250    2.500    3.000    1.750    6.500 
#    2.250    3.750    0.000    0.000    0.000    0.000 
#    0.000    0.000    0.000    0.000    0.000    0.000 
#
# Total GULP energy -198435.537355 kJ/mol
# GULP energy per Si atom -12402.221085 kJ/mol
# Density = 2.098194 g / cm^3
# Si number density = 21.029805 Si / 1000 Ang^3
#
#
#
# Elastic Constant Matrix: (Units=GPa)
#
#
# Indices 1 2 3 4 5 6 
#
# 1 102.8163 36.9655 20.1189 -2.6379 8.9180 -3.3288
# 2 36.9655 97.3906 20.5745 -16.2274 -7.6938 -12.9269
# 3 20.1189 20.5745 81.3305 8.8296 2.8577 -6.7090
# 4 -2.6379 -16.2274 8.8296 29.2036 1.6656 0.8868
# 5 8.9180 -7.6938 2.8577 1.6656 25.4523 5.4729
# 6 -3.3288 -12.9269 -6.7090 0.8868 5.4729 27.4203
#
#
#
# Elastic Compliance Matrix: (Units=1/GPa)
#
#
# Indices 1 2 3 4 5 6 
#
# 1 0.012245 -0.004919 -0.001503 -0.000855 -0.005538 -0.000067
# 2 -0.004919 0.015301 -0.003408 0.008656 0.005205 0.004463
# 3 -0.001503 -0.003408 0.014497 -0.006359 -0.002233 0.002409
# 4 -0.000855 0.008656 -0.006359 0.040826 0.000754 0.000950
# 5 -0.005538 0.005205 -0.002233 0.000754 0.044661 -0.007703
# 6 -0.000067 0.004463 0.002409 0.000950 -0.007703 0.040662
#
#
# Mechanical properties :
#
#
# Convention : Reuss Voigt Hill
#
# Bulk Modulus (GPa) = 44.67775 48.53946 46.60860
# Shear Modulus (GPa) = 25.60000 30.00713 27.80356
#
# Velocity S-wave (km/s) = 3.49280 3.78151 3.64002
# Velocity P-wave (km/s) = 6.12840 6.49598 6.31487
#
# Compressibility (1/GPa) = 0.02238251
#
# Stress axis : x y z
#
# Youngs Moduli (GPa) = 81.66617 65.35520 68.97982
#
# Poissons Ratio (x) = 0.32149 0.10366
# Poissons Ratio (y) = 0.40173 0.23511
# Poissons Ratio (z) = 0.12273 0.22275
#
# Static dielectric constant tensor:
#      x y z
#    x 3.829750 -0.216810 0.096080 
#    y -0.216810 3.958840 0.059920 
#    z 0.096080 0.059920 3.805020 
# 
# 
# High freq. dielectric constant tensor:
#      x y z
#    x 1.823140 -0.009590 0.007930 
#    y -0.009590 1.822120 0.010540 
#    z 0.007930 0.010540 1.831280 
# 
# From -- ./inp_files/474897.got.cif
#   From: 2010.06.25/outbox.cif.g09.slc.cpg/sg2_238_cif.got.tgz:474897.got - 2010.06.27 13:26:56.
