data_PCOD8019706
_publ_section_title
;
Structure prediction by ZEFSAII (Michael W. Deem and Ramdas Pophale) SiO2 
 PCOD8019706
Probable space group: P -1
;
_chemical_formula_sum "Si O2"
_cell_formula_units_Z 14
_cell_length_a 12.494538
_cell_length_b 11.394437
_cell_length_c 9.498829
_cell_angle_alpha 62.830406
_cell_angle_beta 132.328935
_cell_angle_gamma 139.417981
_cell_volume 646.149090
_symmetry_space_group_name_H-M "P -1"
_symmetry_group_IT_number 2
_symmetry_cell_setting 'triclinic'
loop_
_space_group_symop_operation_xyz
x,y,z
-x,-y,-z
loop_
_atom_site_type_symbol
_atom_site_label
_atom_site_fract_x
_atom_site_fract_y
_atom_site_fract_z
Si Si1 0.466237 0.777534 0.177455
Si Si2 0.132122 0.885148 0.118048
Si Si3 0.181484 0.168725 0.490391
Si Si4 0.491911 0.918240 0.832547
Si Si5 0.244796 0.196016 0.232615
Si Si6 0.690444 0.464411 0.573742
Si Si7 0.175371 0.655522 0.468912
O O1 0.624734 0.762775 0.297426
O O2 0.304347 0.612275 0.230882
O O3 0.554522 0.959659 0.237116
O O4 0.404165 0.778409 0.963120
O O5 0.129443 0.760790 0.288613
O O6 0.269354 0.946024 0.066089
O O7 0.233726 0.077903 0.170044
O O8 0.897107 0.766757 0.948112
O O9 0.160441 0.088085 0.363260
O O10 0.177915 0.324563 0.397599
O O11 0.000000 0.000000 0.500000
O O12 0.376348 0.804224 0.652939
O O13 0.473845 0.377372 0.372543
O O14 0.795448 0.442658 0.561827
O O15 0.000000 0.500000 0.500000
#
# Coordination Sequence:
#
# PCOD8019706 Si02
#       7
#     2   2   2   2   2   2   2
#     4  10  22  41  70  95 129 173 216 271 324 388
#     4  11  22  43  68  98 133 171 219 267 329 385
#     4  11  24  41  67  93 131 174 224 267 327 392
#     4  11  22  43  68  98 133 171 219 267 329 385
#     4  10  22  41  70  95 129 173 216 271 324 388
#     4  11  23  45  68  94 134 176 215 273 331 381
#     4  12  26  41  64  98 136 176 216 270 321 394
#
# _framework density 21.666827000000001
#
# number of rings (size 3 to 8) (size 9 to 14) (size 15 to 20)
#    0.000    1.143    2.857    4.714    4.000    2.286 
#    0.000    2.857    0.000    0.000    0.000    0.000 
#    0.000    0.000    0.000    0.000    0.000    0.000 
#
# Total GULP energy -173463.989589 kJ/mol
# GULP energy per Si atom -12390.284971 kJ/mol
# Density = 2.161751 g / cm^3
# Si number density = 21.666827 Si / 1000 Ang^3
#
#
#
# Elastic Constant Matrix: (Units=GPa)
#
#
# Indices 1 2 3 4 5 6 
#
# 1 125.2411 42.2613 42.5317 -22.4777 -2.2046 14.8605
# 2 42.2613 93.1687 40.7295 -34.8081 -8.7368 11.7865
# 3 42.5317 40.7295 104.3783 -25.4726 2.4359 6.5043
# 4 -22.4777 -34.8081 -25.4726 31.6353 0.2166 -3.2567
# 5 -2.2046 -8.7368 2.4359 0.2166 28.3369 -7.0252
# 6 14.8605 11.7865 6.5043 -3.2567 -7.0252 37.7217
#
#
#
# Elastic Compliance Matrix: (Units=1/GPa)
#
#
# Indices 1 2 3 4 5 6 
#
# 1 0.010413 -0.002389 -0.002530 0.002449 -0.000418 -0.002786
# 2 -0.002389 0.020819 -0.002522 0.018889 0.005701 -0.002436
# 3 -0.002530 -0.002522 0.013130 0.005976 -0.002243 -0.000381
# 4 0.002449 0.018889 0.005976 0.058711 0.004561 -0.001979
# 5 -0.000418 0.005701 -0.002243 0.004561 0.038755 0.006382
# 6 -0.002786 -0.002436 -0.000381 -0.001979 0.006382 0.029452
#
#
# Mechanical properties :
#
#
# Convention : Reuss Voigt Hill
#
# Bulk Modulus (GPa) = 33.92069 63.75924 48.83997
# Shear Modulus (GPa) = 25.51172 32.68982 29.10077
#
# Velocity S-wave (km/s) = 3.43513 3.88848 3.66881
# Velocity P-wave (km/s) = 5.60563 7.04637 6.36688
#
# Compressibility (1/GPa) = 0.02948053
#
# Stress axis : x y z
#
# Youngs Moduli (GPa) = 96.03794 48.03202 76.16229
#
# Poissons Ratio (x) = 0.11476 0.19266
# Poissons Ratio (y) = 0.22946 0.19207
# Poissons Ratio (z) = 0.24294 0.12113
#
# Static dielectric constant tensor:
#      x y z
#    x 4.554570 -0.234140 0.112480 
#    y -0.234140 3.843480 -0.200120 
#    z 0.112480 -0.200120 4.095840 
# 
# 
# High freq. dielectric constant tensor:
#      x y z
#    x 1.873320 -0.002410 -0.001380 
#    y -0.002410 1.835700 -0.012720 
#    z -0.001380 -0.012720 1.852390 
# 
# From -- ./inp_files/176536.got.cif
#   From: 2010.06.25/outbox.cif.g09.slc.cpg/sg2_89_cif.got.tgz:176536.got - 2010.06.27 13:26:56.
