data_PCOD8019911
_publ_section_title
;
Structure prediction by ZEFSAII (Michael W. Deem and Ramdas Pophale) SiO2 
 PCOD8019911
Probable space group: P -1
;
_chemical_formula_sum "Si O2"
_cell_formula_units_Z 16
_cell_length_a 15.883904
_cell_length_b 6.430319
_cell_length_c 8.526413
_cell_angle_alpha 98.654515
_cell_angle_beta 84.685117
_cell_angle_gamma 62.713552
_cell_volume 752.100941
_symmetry_space_group_name_H-M "P -1"
_symmetry_group_IT_number 2
_symmetry_cell_setting 'triclinic'
loop_
_space_group_symop_operation_xyz
x,y,z
-x,-y,-z
loop_
_atom_site_type_symbol
_atom_site_label
_atom_site_fract_x
_atom_site_fract_y
_atom_site_fract_z
Si Si1 0.908213 0.497336 0.207824
Si Si2 0.533238 0.486621 0.236776
Si Si3 0.570067 0.098483 0.940814
Si Si4 0.924776 0.389315 0.849593
Si Si5 0.063388 0.919100 0.630987
Si Si6 0.219648 0.050096 0.545509
Si Si7 0.252411 0.318937 0.302411
Si Si8 0.632249 0.457280 0.517479
O O1 0.908358 0.340184 0.336609
O O2 0.819245 0.761016 0.283865
O O3 0.015069 0.470650 0.181109
O O4 0.883285 0.426130 0.036763
O O5 0.477096 0.734747 0.182359
O O6 0.606093 0.522814 0.345752
O O7 0.461353 0.427242 0.343558
O O8 0.588564 0.258278 0.085940
O O9 0.671503 0.871273 0.853483
O O10 0.500000 0.000000 0.000000
O O11 0.835609 0.472654 0.755122
O O12 0.002100 0.109861 0.796364
O O13 0.159989 0.907906 0.551264
O O14 0.000000 0.000000 0.500000
O O15 0.208185 0.183783 0.398349
O O16 0.327432 0.831620 0.516162
O O17 0.298807 0.438932 0.421664
#
# Coordination Sequence:
#
# PCOD8019911 Si02
#       8
#     2   2   2   2   2   2   2   2
#     4  10  22  42  62  94 133 172 215 255 332 378
#     4  10  24  44  65  92 129 167 214 269 329 384
#     4  11  23  45  67  95 129 168 213 271 330 387
#     4  10  23  40  64  93 130 171 211 270 314 384
#     4  11  21  40  65  91 130 168 213 264 320 379
#     4  11  23  39  62  94 130 166 215 267 308 388
#     4  12  24  41  66  97 127 169 224 262 324 385
#     4  11  23  42  65  95 127 168 216 269 320 387
#
# _framework density 21.27374
#
# number of rings (size 3 to 8) (size 9 to 14) (size 15 to 20)
#    0.000    1.250    2.500    3.375    1.750    3.500 
#    2.250    0.000    0.000    0.000    0.000    0.000 
#    0.000    0.000    0.000    0.000    0.000    0.000 
#
# Total GULP energy -198333.959576 kJ/mol
# GULP energy per Si atom -12395.872474 kJ/mol
# Density = 2.122532 g / cm^3
# Si number density = 21.273740 Si / 1000 Ang^3
#
#
#
# Elastic Constant Matrix: (Units=GPa)
#
#
# Indices 1 2 3 4 5 6 
#
# 1 74.6509 26.3224 37.2763 1.3555 12.2126 -1.6528
# 2 26.3224 89.5338 30.3533 0.0851 2.3633 -2.3794
# 3 37.2763 30.3533 114.4420 1.7127 6.2199 -3.5918
# 4 1.3555 0.0851 1.7127 39.4396 -7.7260 -8.1033
# 5 12.2126 2.3633 6.2199 -7.7260 42.4748 -1.3666
# 6 -1.6528 -2.3794 -3.5918 -8.1033 -1.3666 33.2648
#
#
#
# Elastic Compliance Matrix: (Units=1/GPa)
#
#
# Indices 1 2 3 4 5 6 
#
# 1 0.017671 -0.003538 -0.004566 -0.001357 -0.004475 -0.000382
# 2 -0.003538 0.012993 -0.002321 0.000473 0.000741 0.000649
# 3 -0.004566 -0.002321 0.010875 -0.000193 -0.000162 0.000728
# 4 -0.001357 0.000473 -0.000193 0.027963 0.005703 0.006992
# 5 -0.004475 0.000741 -0.000162 0.005703 0.025923 0.002267
# 6 -0.000382 0.000649 0.000728 0.006992 0.002267 0.031964
#
#
# Mechanical properties :
#
#
# Convention : Reuss Voigt Hill
#
# Bulk Modulus (GPa) = 48.33210 51.83675 50.08442
# Shear Modulus (GPa) = 32.22972 35.34749 33.78860
#
# Velocity S-wave (km/s) = 3.89652 4.08064 3.98964
# Velocity P-wave (km/s) = 6.55838 6.82800 6.69455
#
# Compressibility (1/GPa) = 0.02069019
#
# Stress axis : x y z
#
# Youngs Moduli (GPa) = 56.58842 76.96380 91.95069
#
# Poissons Ratio (x) = 0.27230 0.41986
# Poissons Ratio (y) = 0.20021 0.21339
# Poissons Ratio (z) = 0.25839 0.17861
#
# Static dielectric constant tensor:
#      x y z
#    x 3.837420 -0.539900 -0.494850 
#    y -0.539900 5.361540 1.383180 
#    z -0.494850 1.383180 5.049540 
# 
# 
# High freq. dielectric constant tensor:
#      x y z
#    x 1.820220 -0.004270 -0.011250 
#    y -0.004270 1.841800 0.011630 
#    z -0.011250 0.011630 1.851700 
# 
# From -- ./inp_files/37328.got.cif
#   From: 2010.06.25/outbox.cif.g09.slc.cpg/sg2_19_cif.got.tgz:37328.got - 2010.06.27 13:26:56.
