data_PCOD8019417
_publ_section_title
;
Structure prediction by ZEFSAII (Michael W. Deem and Ramdas Pophale) SiO2 
 PCOD8019417
Probable space group: P -1
;
_chemical_formula_sum "Si O2"
_cell_formula_units_Z 16
_cell_length_a 5.137082
_cell_length_b 15.190719
_cell_length_c 10.831199
_cell_angle_alpha 106.529360
_cell_angle_beta 104.830128
_cell_angle_gamma 62.295278
_cell_volume 709.740001
_symmetry_space_group_name_H-M "P -1"
_symmetry_group_IT_number 2
_symmetry_cell_setting 'triclinic'
loop_
_space_group_symop_operation_xyz
x,y,z
-x,-y,-z
loop_
_atom_site_type_symbol
_atom_site_label
_atom_site_fract_x
_atom_site_fract_y
_atom_site_fract_z
Si Si1 0.299188 0.740542 0.003673
Si Si2 0.605716 0.009474 0.154543
Si Si3 0.023248 0.864685 0.786231
Si Si4 0.170264 0.213849 0.833759
Si Si5 0.672059 0.347041 0.373067
Si Si6 0.674563 0.520363 0.921083
Si Si7 0.994794 0.460815 0.350782
Si Si8 0.108566 0.622281 0.322752
O O1 0.517534 0.781592 0.108950
O O2 0.079785 0.723690 0.069706
O O3 0.100679 0.825688 0.918997
O O4 0.496237 0.638840 0.911811
O O5 0.837575 0.058152 0.198806
O O6 0.332556 0.076661 0.236830
O O7 0.779394 0.902007 0.200541
O O8 0.500000 0.000000 0.000000
O O9 0.140596 0.773325 0.665454
O O10 0.061859 0.264241 0.705449
O O11 0.325227 0.379655 0.319187
O O12 0.718190 0.378376 0.530679
O O13 0.783487 0.402559 0.302643
O O14 0.660994 0.449164 0.779283
O O15 0.500000 0.500000 0.000000
O O16 0.000000 0.500000 0.000000
O O17 0.895403 0.562164 0.293412
O O18 0.000000 0.500000 0.500000
#
# Coordination Sequence:
#
# PCOD8019417 Si02
#       8
#     2   2   2   2   2   2   2   2
#     4  12  22  40  62  96 130 170 213 270 323 395
#     4  12  23  44  70  97 128 171 221 284 341 391
#     4  12  24  43  70  96 131 165 232 283 323 398
#     4  12  25  40  66  97 129 170 219 265 346 386
#     4  11  25  44  68 100 129 185 222 266 330 392
#     4  12  24  39  59  95 135 172 210 257 324 394
#     4  10  22  41  67  95 131 178 226 256 314 394
#     4  11  24  44  66  94 144 174 216 271 322 399
#
# _framework density 22.543468000000001
#
# number of rings (size 3 to 8) (size 9 to 14) (size 15 to 20)
#    0.000    0.500    5.000    4.125    0.000    8.000 
#    0.000    1.250    0.000    0.000    0.000    0.000 
#    0.000    0.000    0.000    0.000    0.000    0.000 
#
# Total GULP energy -198331.128673 kJ/mol
# GULP energy per Si atom -12395.695542 kJ/mol
# Density = 2.249216 g / cm^3
# Si number density = 22.543468 Si / 1000 Ang^3
#
#
#
# Elastic Constant Matrix: (Units=GPa)
#
#
# Indices 1 2 3 4 5 6 
#
# 1 126.8268 30.1467 29.0950 -5.4490 -16.0045 -0.3210
# 2 30.1467 167.6453 29.1765 -9.4818 -11.8181 7.9688
# 3 29.0950 29.1765 58.6709 -2.7565 -10.8478 9.9813
# 4 -5.4490 -9.4818 -2.7565 36.1952 -1.7664 -7.1738
# 5 -16.0045 -11.8181 -10.8478 -1.7664 31.5311 1.8701
# 6 -0.3210 7.9688 9.9813 -7.1738 1.8701 42.0382
#
#
#
# Elastic Compliance Matrix: (Units=1/GPa)
#
#
# Indices 1 2 3 4 5 6 
#
# 1 0.009410 -0.000785 -0.003836 0.001314 0.003164 0.001215
# 2 -0.000785 0.006753 -0.002567 0.001424 0.001359 -0.000494
# 3 -0.003836 -0.002567 0.021976 -0.000334 0.004931 -0.005037
# 4 0.001314 0.001424 -0.000334 0.029224 0.002444 0.004698
# 5 0.003164 0.001359 0.004931 0.002444 0.035816 -0.002580
# 6 0.001215 -0.000494 -0.005037 0.004698 -0.002580 0.026003
#
#
# Mechanical properties :
#
#
# Convention : Reuss Voigt Hill
#
# Bulk Modulus (GPa) = 42.08168 58.88660 50.48414
# Shear Modulus (GPa) = 33.00795 39.60121 36.30458
#
# Velocity S-wave (km/s) = 3.83063 4.19580 4.01736
# Velocity P-wave (km/s) = 6.18647 7.04635 6.63036
#
# Compressibility (1/GPa) = 0.02376331
#
# Stress axis : x y z
#
# Youngs Moduli (GPa) = 106.26773 148.09127 45.50431
#
# Poissons Ratio (x) = 0.11624 0.17456
# Poissons Ratio (y) = 0.08341 0.11679
# Poissons Ratio (z) = 0.40766 0.38010
#
# Static dielectric constant tensor:
#      x y z
#    x 5.194440 0.418890 -0.125870 
#    y 0.418890 4.534330 0.226870 
#    z -0.125870 0.226870 3.625440 
# 
# 
# High freq. dielectric constant tensor:
#      x y z
#    x 1.907120 0.005520 -0.014070 
#    y 0.005520 1.899410 0.001690 
#    z -0.014070 0.001690 1.867600 
# 
# From -- ./inp_files/367868.got.cif
#   From: 2010.06.25/outbox.cif.g09.slc.cpg/sg2_184_cif.got.tgz:367868.got - 2010.06.27 13:26:56.
