data_PCOD8019818
_publ_section_title
;
Structure prediction by ZEFSAII (Michael W. Deem and Ramdas Pophale) SiO2 
 PCOD8019818
Probable space group: P -1
;
_chemical_formula_sum "Si O2"
_cell_formula_units_Z 14
_cell_length_a 12.380860
_cell_length_b 18.378508
_cell_length_c 9.058821
_cell_angle_alpha 147.217518
_cell_angle_beta 131.239489
_cell_angle_gamma 30.453315
_cell_volume 549.297091
_symmetry_space_group_name_H-M "P -1"
_symmetry_group_IT_number 2
_symmetry_cell_setting 'triclinic'
loop_
_space_group_symop_operation_xyz
x,y,z
-x,-y,-z
loop_
_atom_site_type_symbol
_atom_site_label
_atom_site_fract_x
_atom_site_fract_y
_atom_site_fract_z
Si Si1 0.575491 0.824016 0.579156
Si Si2 0.844150 0.785891 0.233937
Si Si3 0.065216 0.811222 0.678348
Si Si4 0.286704 0.336840 0.880666
Si Si5 0.458577 0.669224 0.666740
Si Si6 0.357111 0.502980 0.775373
Si Si7 0.885794 0.851466 0.873106
O O1 0.556917 0.779662 0.319242
O O2 0.609610 0.678369 0.472456
O O3 0.764740 0.800915 0.726617
O O4 0.334499 0.062261 0.798534
O O5 0.717853 0.804834 0.288764
O O6 0.937433 0.864298 0.504192
O O7 0.046306 0.549102 0.962803
O O8 0.325957 0.640197 0.582298
O O9 0.992545 0.754529 0.640431
O O10 0.000000 0.000000 0.000000
O O11 0.366145 0.385964 0.159385
O O12 0.578526 0.522876 0.381545
O O13 0.276893 0.906385 0.854580
O O14 0.100853 0.721828 0.948748
O O15 0.500000 0.500000 0.000000
#
# Coordination Sequence:
#
# PCOD8019818 Si02
#       7
#     2   2   2   2   2   2   2
#     4  12  25  47  73 103 149 184 230 298 348 422
#     4  11  23  41  71 110 139 176 236 290 356 413
#     4  10  22  41  74 107 141 179 232 294 353 412
#     4  11  24  43  77 111 135 180 239 298 351 418
#     4  11  26  47  75 104 146 186 232 301 356 416
#     4  12  32  48  68 104 145 195 241 284 360 428
#     4  11  24  48  74 105 141 186 242 289 354 420
#
# _framework density 25.487119
#
# number of rings (size 3 to 8) (size 9 to 14) (size 15 to 20)
#    0.000    0.857    2.857    3.429   10.000    3.429 
#    0.000    0.000    0.000    0.000    0.000    0.000 
#    0.000    0.000    0.000    0.000    0.000    0.000 
#
# Total GULP energy -173577.877088 kJ/mol
# GULP energy per Si atom -12398.419792 kJ/mol
# Density = 2.542911 g / cm^3
# Si number density = 25.487119 Si / 1000 Ang^3
#
#
#
# Elastic Constant Matrix: (Units=GPa)
#
#
# Indices 1 2 3 4 5 6 
#
# 1 120.2241 44.1042 35.0306 -1.5473 26.2124 -9.4924
# 2 44.1042 186.6841 29.1400 17.7632 16.8557 -25.8651
# 3 35.0306 29.1400 94.7177 -7.3431 13.9178 -9.8292
# 4 -1.5473 17.7632 -7.3431 48.6885 -2.0100 8.4880
# 5 26.2124 16.8557 13.9178 -2.0100 42.4166 1.5744
# 6 -9.4924 -25.8651 -9.8292 8.4880 1.5744 47.5257
#
#
#
# Elastic Compliance Matrix: (Units=1/GPa)
#
#
# Indices 1 2 3 4 5 6 
#
# 1 0.010891 -0.001568 -0.002667 0.000138 -0.005260 0.000920
# 2 -0.001568 0.006940 -0.001170 -0.003510 -0.001716 0.003905
# 3 -0.002667 -0.001170 0.012454 0.001945 -0.001923 0.001123
# 4 0.000138 -0.003510 0.001945 0.023190 0.001981 -0.005688
# 5 -0.005260 -0.001716 -0.001923 0.001981 0.028370 -0.003676
# 6 0.000920 0.003905 0.001123 -0.005688 -0.003676 0.024720
#
#
# Mechanical properties :
#
#
# Convention : Reuss Voigt Hill
#
# Bulk Modulus (GPa) = 51.34390 68.68615 60.01502
# Shear Modulus (GPa) = 40.36658 47.28292 43.82475
#
# Velocity S-wave (km/s) = 3.98402 4.31184 4.15117
# Velocity P-wave (km/s) = 6.43055 7.19702 6.82456
#
# Compressibility (1/GPa) = 0.01947651
#
# Stress axis : x y z
#
# Youngs Moduli (GPa) = 91.81778 144.10030 80.29745
#
# Poissons Ratio (x) = 0.22588 0.21412
# Poissons Ratio (y) = 0.14392 0.09394
# Poissons Ratio (z) = 0.24484 0.16858
#
# Static dielectric constant tensor:
#      x y z
#    x 5.186280 -0.421020 -0.023660 
#    y -0.421020 4.936530 0.289860 
#    z -0.023660 0.289860 4.425480 
# 
# 
# High freq. dielectric constant tensor:
#      x y z
#    x 2.021830 -0.017110 0.017490 
#    y -0.017110 2.043240 0.022830 
#    z 0.017490 0.022830 2.014670 
# 
# From -- ./inp_files/263403.got.cif
#   From: 2010.06.25/outbox.cif.g09.slc.cpg/sg2_132_cif.got.tgz:263403.got - 2010.06.27 13:26:56.
