data_PCOD8019495
_publ_section_title
;
Structure prediction by ZEFSAII (Michael W. Deem and Ramdas Pophale) SiO2 
 PCOD8019495
Probable space group: P -1
;
_chemical_formula_sum "Si O2"
_cell_formula_units_Z 16
_cell_length_a 16.772763
_cell_length_b 12.222043
_cell_length_c 8.622815
_cell_angle_alpha 135.793373
_cell_angle_beta 139.041764
_cell_angle_gamma 39.633563
_cell_volume 699.392662
_symmetry_space_group_name_H-M "P -1"
_symmetry_group_IT_number 2
_symmetry_cell_setting 'triclinic'
loop_
_space_group_symop_operation_xyz
x,y,z
-x,-y,-z
loop_
_atom_site_type_symbol
_atom_site_label
_atom_site_fract_x
_atom_site_fract_y
_atom_site_fract_z
Si Si1 0.398991 0.965232 0.208532
Si Si2 0.899660 0.853313 0.528637
Si Si3 0.549726 0.548220 0.966767
Si Si4 0.188656 0.510978 0.568476
Si Si5 0.871756 0.810538 0.798236
Si Si6 0.085185 0.857356 0.346036
Si Si7 0.354793 0.149619 0.009460
Si Si8 0.663920 0.510473 0.551208
O O1 0.500000 0.000000 0.500000
O O2 0.264990 0.006529 0.158317
O O3 0.476706 0.762982 0.055178
O O4 0.341939 0.099990 0.116060
O O5 0.908383 0.847860 0.720274
O O6 0.773190 0.826696 0.258192
O O7 0.046253 0.696288 0.514728
O O8 0.876801 0.044720 0.633463
O O9 0.491871 0.468526 0.667400
O O10 0.500000 0.500000 0.000000
O O11 0.718738 0.464889 0.133969
O O12 0.152489 0.359285 0.413828
O O13 0.284397 0.445882 0.489963
O O14 0.997854 0.768935 0.057913
O O15 0.230125 0.695478 0.456854
O O16 0.000000 0.000000 0.500000
O O17 0.347724 0.343815 0.191975
O O18 0.500000 0.000000 0.000000
#
# Coordination Sequence:
#
# PCOD8019495 Si02
#       8
#     2   2   2   2   2   2   2   2
#     4  12  22  44  73 103 139 192 244 292 361 428
#     4  12  27  46  68 109 146 185 243 299 362 432
#     4  10  22  41  68 107 139 182 238 292 355 430
#     4  11  23  43  74 103 146 189 239 296 355 437
#     4  12  25  44  71 102 144 191 239 297 360 431
#     4  12  25  46  74 107 145 189 236 298 363 434
#     4  12  27  48  74 105 141 186 247 306 362 429
#     4  11  23  46  74 107 141 191 242 300 364 428
#
# _framework density 22.876989999999999
#
# number of rings (size 3 to 8) (size 9 to 14) (size 15 to 20)
#    0.000    0.500    3.750    5.250    1.750    1.000 
#    2.250    1.250    0.000    0.000    0.000    0.000 
#    0.000    0.000    0.000    0.000    0.000    0.000 
#
# Total GULP energy -198449.500214 kJ/mol
# GULP energy per Si atom -12403.093763 kJ/mol
# Density = 2.282492 g / cm^3
# Si number density = 22.876990 Si / 1000 Ang^3
#
#
#
# Elastic Constant Matrix: (Units=GPa)
#
#
# Indices 1 2 3 4 5 6 
#
# 1 66.3066 20.4061 38.3864 3.6222 5.6107 0.1727
# 2 20.4061 113.1817 39.2477 1.0390 12.3506 -5.8332
# 3 38.3864 39.2477 154.5752 -19.1172 28.2571 -11.8977
# 4 3.6222 1.0390 -19.1172 43.2175 -1.6055 6.8812
# 5 5.6107 12.3506 28.2571 -1.6055 39.1859 -3.2965
# 6 0.1727 -5.8332 -11.8977 6.8812 -3.2965 47.4595
#
#
#
# Elastic Compliance Matrix: (Units=1/GPa)
#
#
# Indices 1 2 3 4 5 6 
#
# 1 0.018545 -0.001802 -0.004868 -0.003473 0.001203 -0.000922
# 2 -0.001802 0.010037 -0.001899 -0.001117 -0.001512 0.000821
# 3 -0.004868 -0.001899 0.009801 0.004390 -0.005489 0.001223
# 4 -0.003473 -0.001117 0.004390 0.025800 -0.001501 -0.002869
# 5 0.001203 -0.001512 -0.005489 -0.001501 0.029781 0.000720
# 6 -0.000922 0.000821 0.001223 -0.002869 0.000720 0.021948
#
#
# Mechanical properties :
#
#
# Convention : Reuss Voigt Hill
#
# Bulk Modulus (GPa) = 47.07479 58.90486 52.98983
# Shear Modulus (GPa) = 35.68081 41.70747 38.69414
#
# Velocity S-wave (km/s) = 3.95356 4.27443 4.11713
# Velocity P-wave (km/s) = 6.43917 7.08276 6.76862
#
# Compressibility (1/GPa) = 0.02124279
#
# Stress axis : x y z
#
# Youngs Moduli (GPa) = 53.92378 99.63616 102.02918
#
# Poissons Ratio (x) = 0.17958 0.49669
# Poissons Ratio (y) = 0.09719 0.19378
# Poissons Ratio (z) = 0.26251 0.18923
#
# Static dielectric constant tensor:
#      x y z
#    x 3.997260 0.045540 0.212220 
#    y 0.045540 4.237240 -0.244280 
#    z 0.212220 -0.244280 4.488800 
# 
# 
# High freq. dielectric constant tensor:
#      x y z
#    x 1.892740 0.005580 0.014360 
#    y 0.005580 1.913260 -0.007130 
#    z 0.014360 -0.007130 1.920570 
# 
# From -- ./inp_files/285159.got.cif
#   From: 2010.06.25/outbox.cif.g09.slc.cpg/sg2_143_cif.got.tgz:285159.got - 2010.06.27 13:26:56.
