data_PCOD8019767
_publ_section_title
;
Structure prediction by ZEFSAII (Michael W. Deem and Ramdas Pophale) SiO2 
 PCOD8019767
Probable space group: P -1
;
_chemical_formula_sum "Si O2"
_cell_formula_units_Z 16
_cell_length_a 15.697685
_cell_length_b 9.037104
_cell_length_c 9.925549
_cell_angle_alpha 65.190315
_cell_angle_beta 59.807492
_cell_angle_gamma 36.989408
_cell_volume 731.817982
_symmetry_space_group_name_H-M "P -1"
_symmetry_group_IT_number 2
_symmetry_cell_setting 'triclinic'
loop_
_space_group_symop_operation_xyz
x,y,z
-x,-y,-z
loop_
_atom_site_type_symbol
_atom_site_label
_atom_site_fract_x
_atom_site_fract_y
_atom_site_fract_z
Si Si1 0.308858 0.689982 0.948552
Si Si2 0.969924 0.853963 0.121465
Si Si3 0.303036 0.017390 0.290487
Si Si4 0.266706 0.371985 0.009261
Si Si5 0.306041 0.394953 0.450264
Si Si6 0.533806 0.905099 0.298826
Si Si7 0.636099 0.348678 0.791090
Si Si8 0.996189 0.692760 0.457035
O O1 0.313435 0.499901 0.959257
O O2 0.462722 0.594886 0.859170
O O3 0.201930 0.953645 0.856044
O O4 0.263622 0.739784 0.122943
O O5 0.996527 0.798117 0.280684
O O6 0.086841 0.596800 0.042091
O O7 0.000000 0.000000 0.000000
O O8 0.159774 0.093099 0.424083
O O9 0.429454 0.875433 0.361058
O O10 0.355195 0.847870 0.187639
O O11 0.286420 0.225660 0.175764
O O12 0.363731 0.183317 0.879844
O O13 0.350312 0.269523 0.607374
O O14 0.311655 0.583598 0.385957
O O15 0.136323 0.557626 0.491594
O O16 0.421654 0.190346 0.320908
O O17 0.000000 0.500000 0.500000
#
# Coordination Sequence:
#
# PCOD8019767 Si02
#       8
#     2   2   2   2   2   2   2   2
#     4  10  23  41  68  99 137 180 224 285 341 407
#     4  10  22  41  71  99 132 179 228 278 342 401
#     4  12  25  42  72 103 136 185 228 282 342 411
#     4  11  22  44  70  99 133 179 236 281 336 411
#     4  11  26  45  66  99 142 178 227 286 350 403
#     4  11  24  42  71  98 134 184 229 282 335 411
#     4  11  25  41  65 103 140 175 226 286 346 401
#     4  12  24  46  71  99 140 182 230 281 348 409
#
# _framework density 21.86336
#
# number of rings (size 3 to 8) (size 9 to 14) (size 15 to 20)
#    0.000    1.000    3.750    2.625    5.250    4.000 
#    0.000    1.250    0.000    0.000    0.000    0.000 
#    0.000    0.000    0.000    0.000    0.000    0.000 
#
# Total GULP energy -198225.878389 kJ/mol
# GULP energy per Si atom -12389.117399 kJ/mol
# Density = 2.181360 g / cm^3
# Si number density = 21.863360 Si / 1000 Ang^3
#
#
#
# Elastic Constant Matrix: (Units=GPa)
#
#
# Indices 1 2 3 4 5 6 
#
# 1 112.1739 48.4091 43.0488 -11.2691 6.6911 -19.3643
# 2 48.4091 92.7463 42.2543 4.1701 8.8635 -24.5532
# 3 43.0488 42.2543 105.9618 -2.2051 2.1395 -18.9544
# 4 -11.2691 4.1701 -2.2051 37.0517 -0.4473 0.2837
# 5 6.6911 8.8635 2.1395 -0.4473 34.5423 -0.7181
# 6 -19.3643 -24.5532 -18.9544 0.2837 -0.7181 46.5869
#
#
#
# Elastic Compliance Matrix: (Units=1/GPa)
#
#
# Indices 1 2 3 4 5 6 
#
# 1 0.012995 -0.005215 -0.002830 0.004349 -0.000917 0.001461
# 2 -0.005215 0.017083 -0.003766 -0.003810 -0.003080 0.005279
# 3 -0.002830 -0.003766 0.012419 0.000297 0.000789 0.001902
# 4 0.004349 -0.003810 0.000297 0.028766 0.000484 -0.000247
# 5 -0.000917 -0.003080 0.000789 0.000484 0.029850 -0.001226
# 6 0.001461 0.005279 0.001902 -0.000247 -0.001226 0.025612
#
#
# Mechanical properties :
#
#
# Convention : Reuss Voigt Hill
#
# Bulk Modulus (GPa) = 52.97697 64.25628 58.61662
# Shear Modulus (GPa) = 31.92072 35.44751 33.68411
#
# Velocity S-wave (km/s) = 3.82515 4.03093 3.92939
# Velocity P-wave (km/s) = 6.61760 7.14970 6.88879
#
# Compressibility (1/GPa) = 0.01887613
#
# Stress axis : x y z
#
# Youngs Moduli (GPa) = 76.95371 58.53745 80.51939
#
# Poissons Ratio (x) = 0.30525 0.22783
# Poissons Ratio (y) = 0.40128 0.30327
# Poissons Ratio (z) = 0.21774 0.22048
#
# Static dielectric constant tensor:
#      x y z
#    x 3.988870 -0.606750 0.149790 
#    y -0.606750 4.723150 -0.128520 
#    z 0.149790 -0.128520 3.395990 
# 
# 
# High freq. dielectric constant tensor:
#      x y z
#    x 1.857200 -0.015900 -0.004050 
#    y -0.015900 1.868580 0.000500 
#    z -0.004050 0.000500 1.852310 
# 
# From -- ./inp_files/297815.got.cif
#   From: 2010.06.25/outbox.cif.g09.slc.cpg/sg2_149_cif.got.tgz:297815.got - 2010.06.27 13:26:56.
