data_PCOD8019566
_publ_section_title
;
Structure prediction by ZEFSAII (Michael W. Deem and Ramdas Pophale) SiO2 
 PCOD8019566
Probable space group: P -1
;
_chemical_formula_sum "Si O2"
_cell_formula_units_Z 16
_cell_length_a 16.147410
_cell_length_b 7.656463
_cell_length_c 6.654900
_cell_angle_alpha 96.318375
_cell_angle_beta 80.208658
_cell_angle_gamma 64.295724
_cell_volume 714.718600
_symmetry_space_group_name_H-M "P -1"
_symmetry_group_IT_number 2
_symmetry_cell_setting 'triclinic'
loop_
_space_group_symop_operation_xyz
x,y,z
-x,-y,-z
loop_
_atom_site_type_symbol
_atom_site_label
_atom_site_fract_x
_atom_site_fract_y
_atom_site_fract_z
Si Si1 0.544913 0.808509 0.099760
Si Si2 0.894426 0.264001 0.911483
Si Si3 0.566954 0.331842 0.607325
Si Si4 0.293370 0.294275 0.258253
Si Si5 0.642437 0.913165 0.400060
Si Si6 0.178829 0.279732 0.962382
Si Si7 0.235525 0.707512 0.379261
Si Si8 0.898976 0.991799 0.219340
O O1 0.484792 0.694384 0.172424
O O2 0.564672 0.869301 0.319010
O O3 0.642171 0.663502 0.928119
O O4 0.500000 0.000000 0.000000
O O5 0.810877 0.250684 0.818160
O O6 0.996365 0.134729 0.744841
O O7 0.882826 0.483579 0.978408
O O8 0.895975 0.171872 0.115067
O O9 0.500000 0.500000 0.500000
O O10 0.652581 0.360940 0.669063
O O11 0.612622 0.142891 0.418106
O O12 0.358043 0.127142 0.366931
O O13 0.230243 0.505555 0.423012
O O14 0.229679 0.214492 0.152024
O O15 0.745885 0.777860 0.254426
O O16 0.119039 0.162110 0.931603
O O17 0.178369 0.903059 0.561604
#
# Coordination Sequence:
#
# PCOD8019566 Si02
#       8
#     2   2   2   2   2   2   2   2
#     4  11  24  41  64  90 127 178 229 276 327 394
#     4  10  24  42  67 101 131 171 217 278 335 406
#     4  12  26  41  65  96 132 179 224 280 334 394
#     4  10  23  42  66  94 130 183 220 275 332 398
#     4  11  22  43  65  91 136 177 225 272 335 395
#     4  10  22  41  68  98 133 175 219 270 336 405
#     4  11  24  43  64  96 135 170 220 279 333 395
#     4  11  22  42  70  97 134 171 219 272 340 401
#
# _framework density 22.386431999999999
#
# number of rings (size 3 to 8) (size 9 to 14) (size 15 to 20)
#    0.000    1.250    2.500    2.625    3.500    2.500 
#    0.000    0.000    0.000    8.250    0.000    0.000 
#    0.000    0.000    0.000    0.000    0.000    0.000 
#
# Total GULP energy -198270.827128 kJ/mol
# GULP energy per Si atom -12391.926696 kJ/mol
# Density = 2.233548 g / cm^3
# Si number density = 22.386432 Si / 1000 Ang^3
#
#
#
# Elastic Constant Matrix: (Units=GPa)
#
#
# Indices 1 2 3 4 5 6 
#
# 1 109.6861 35.4965 32.4515 -4.6499 22.1930 -9.3589
# 2 35.4965 131.6353 54.1046 -1.1414 11.7597 -8.7986
# 3 32.4515 54.1046 86.4575 -2.3204 13.3007 -2.1569
# 4 -4.6499 -1.1414 -2.3204 40.9008 4.1910 6.4885
# 5 22.1930 11.7597 13.3007 4.1910 35.2560 0.8180
# 6 -9.3589 -8.7986 -2.1569 6.4885 0.8180 34.6159
#
#
#
# Elastic Compliance Matrix: (Units=1/GPa)
#
#
# Indices 1 2 3 4 5 6 
#
# 1 0.011867 -0.001431 -0.002491 0.001403 -0.006279 0.002575
# 2 -0.001431 0.010619 -0.006015 -0.000494 -0.000360 0.002039
# 3 -0.002491 -0.006015 0.016693 0.000987 -0.002811 -0.001281
# 4 0.001403 -0.000494 0.000987 0.025767 -0.004051 -0.004419
# 5 -0.006279 -0.000360 -0.002811 -0.004051 0.034026 -0.002009
# 6 0.002575 0.002039 -0.001281 -0.004419 -0.002009 0.030899
#
#
# Mechanical properties :
#
#
# Convention : Reuss Voigt Hill
#
# Bulk Modulus (GPa) = 51.80143 63.54269 57.67206
# Shear Modulus (GPa) = 32.01465 35.86962 33.94213
#
# Velocity S-wave (km/s) = 3.78576 4.00721 3.89806
# Velocity P-wave (km/s) = 6.50378 7.06090 6.78806
#
# Compressibility (1/GPa) = 0.01930448
#
# Stress axis : x y z
#
# Youngs Moduli (GPa) = 84.27030 94.16915 59.90703
#
# Poissons Ratio (x) = 0.13475 0.14921
# Poissons Ratio (y) = 0.12059 0.36036
# Poissons Ratio (z) = 0.20989 0.56645
#
# Static dielectric constant tensor:
#      x y z
#    x 4.098900 -0.182960 0.121190 
#    y -0.182960 4.084140 0.204740 
#    z 0.121190 0.204740 3.903370 
# 
# 
# High freq. dielectric constant tensor:
#      x y z
#    x 1.881470 -0.012170 0.013480 
#    y -0.012170 1.894360 0.015450 
#    z 0.013480 0.015450 1.873980 
# 
# From -- ./inp_files/105383.got.cif
#   From: 2010.06.25/outbox.cif.g09.slc.cpg/sg2_53_cif.got.tgz:105383.got - 2010.06.27 13:26:56.
