data_PCOD8019696
_publ_section_title
;
Structure prediction by ZEFSAII (Michael W. Deem and Ramdas Pophale) SiO2 
 PCOD8019696
Probable space group: P -1
;
_chemical_formula_sum "Si O2"
_cell_formula_units_Z 16
_cell_length_a 8.719586
_cell_length_b 15.526780
_cell_length_c 13.361831
_cell_angle_alpha 27.529381
_cell_angle_beta 79.073988
_cell_angle_gamma 89.005956
_cell_volume 774.372356
_symmetry_space_group_name_H-M "P -1"
_symmetry_group_IT_number 2
_symmetry_cell_setting 'triclinic'
loop_
_space_group_symop_operation_xyz
x,y,z
-x,-y,-z
loop_
_atom_site_type_symbol
_atom_site_label
_atom_site_fract_x
_atom_site_fract_y
_atom_site_fract_z
Si Si1 0.703214 0.731652 0.405241
Si Si2 0.980677 0.280094 0.712666
Si Si3 0.787598 0.941454 0.786198
Si Si4 0.358506 0.816721 0.580793
Si Si5 0.451446 0.452651 0.858258
Si Si6 0.659487 0.210055 0.164396
Si Si7 0.667038 0.967461 0.989098
Si Si8 0.893127 0.088275 0.129209
O O1 0.553974 0.539783 0.654991
O O2 0.881979 0.709390 0.397555
O O3 0.731171 0.904700 0.306217
O O4 0.663795 0.780149 0.248031
O O5 0.808909 0.165457 0.800504
O O6 0.000000 0.500000 0.500000
O O7 0.995860 0.181586 0.919639
O O8 0.980501 0.976820 0.748755
O O9 0.772203 0.125293 0.533680
O O10 0.678139 0.924452 0.916049
O O11 0.710987 0.733176 0.953204
O O12 0.390818 0.618199 0.746640
O O13 0.279786 0.779200 0.739887
O O14 0.529432 0.996545 0.375720
O O15 0.578341 0.382019 0.982909
O O16 0.819333 0.237551 0.044492
O O17 0.500000 0.000000 0.000000
#
# Coordination Sequence:
#
# PCOD8019696 Si02
#       8
#     2   2   2   2   2   2   2   2
#     4  11  21  41  61  88 124 168 205 242 302 370
#     4  11  23  38  61  90 125 166 213 245 296 374
#     4  11  24  41  62  91 134 160 202 259 311 365
#     4  10  22  43  64  94 120 162 208 261 314 363
#     4  11  23  40  66  94 123 159 214 256 304 372
#     4  10  22  41  70  88 121 163 209 260 311 366
#     4  11  23  38  58  87 127 164 197 250 306 357
#     4  11  21  43  60  91 128 166 204 253 312 369
#
# _framework density 20.661895999999999
#
# number of rings (size 3 to 8) (size 9 to 14) (size 15 to 20)
#    0.000    1.250    3.750    2.625    7.000    3.000 
#    2.250    0.625    0.000    0.000    0.000    0.000 
#    0.000    0.000    0.000    0.000    0.000    0.000 
#
# Total GULP energy -198349.868919 kJ/mol
# GULP energy per Si atom -12396.866807 kJ/mol
# Density = 2.061487 g / cm^3
# Si number density = 20.661896 Si / 1000 Ang^3
#
#
#
# Elastic Constant Matrix: (Units=GPa)
#
#
# Indices 1 2 3 4 5 6 
#
# 1 64.6147 31.5134 -4.3989 -4.5888 20.1576 -4.5309
# 2 31.5134 98.8052 32.5623 2.3210 17.9858 -10.9378
# 3 -4.3989 32.5623 64.2167 -10.4412 19.2755 2.3957
# 4 -4.5888 2.3210 -10.4412 32.2817 -6.8035 8.6319
# 5 20.1576 17.9858 19.2755 -6.8035 33.3003 8.3300
# 6 -4.5309 -10.9378 2.3957 8.6319 8.3300 29.8712
#
#
#
# Elastic Compliance Matrix: (Units=1/GPa)
#
#
# Indices 1 2 3 4 5 6 
#
# 1 0.027265 -0.008928 0.012592 0.003367 -0.019354 0.004281
# 2 -0.008928 0.018313 -0.011041 -0.009212 -0.002369 0.009560
# 3 0.012592 -0.011041 0.028272 0.009206 -0.015455 -0.002751
# 4 0.003367 -0.009212 0.009206 0.042490 0.011031 -0.018955
# 5 -0.019354 -0.002369 -0.015455 0.011031 0.059837 -0.022438
# 6 0.004281 0.009560 -0.002751 -0.018955 -0.022438 0.049582
#
#
# Mechanical properties :
#
#
# Convention : Reuss Voigt Hill
#
# Bulk Modulus (GPa) = 16.92177 38.55449 27.73813
# Shear Modulus (GPa) = 19.21517 30.28795 24.75156
#
# Velocity S-wave (km/s) = 3.05287 3.83284 3.46487
# Velocity P-wave (km/s) = 4.54250 6.18771 5.42780
#
# Compressibility (1/GPa) = 0.05909546
#
# Stress axis : x y z
#
# Youngs Moduli (GPa) = 36.67734 54.60586 35.37103
#
# Poissons Ratio (x) = 0.48752 -0.44538
# Poissons Ratio (y) = 0.32745 0.39053
# Poissons Ratio (z) = -0.46183 0.60290
#
# Static dielectric constant tensor:
#      x y z
#    x 3.726370 0.337510 0.489260 
#    y 0.337510 4.364940 0.666400 
#    z 0.489260 0.666400 4.388180 
# 
# 
# High freq. dielectric constant tensor:
#      x y z
#    x 1.806290 -0.009180 0.010940 
#    y -0.009180 1.813640 0.003910 
#    z 0.010940 0.003910 1.800950 
# 
# From -- ./inp_files/201812.got.cif
#   From: 2010.06.25/outbox.cif.g09.slc.cpg/sg2_101_cif.got.tgz:201812.got - 2010.06.27 13:26:56.
