data_PCOD8019338
_publ_section_title
;
Structure prediction by ZEFSAII (Michael W. Deem and Ramdas Pophale) SiO2 
 PCOD8019338
Probable space group: P -1
;
_chemical_formula_sum "Si O2"
_cell_formula_units_Z 14
_cell_length_a 9.084643
_cell_length_b 12.192865
_cell_length_c 8.388614
_cell_angle_alpha 112.666084
_cell_angle_beta 113.337519
_cell_angle_gamma 112.503163
_cell_volume 610.176257
_symmetry_space_group_name_H-M "P -1"
_symmetry_group_IT_number 2
_symmetry_cell_setting 'triclinic'
loop_
_space_group_symop_operation_xyz
x,y,z
-x,-y,-z
loop_
_atom_site_type_symbol
_atom_site_label
_atom_site_fract_x
_atom_site_fract_y
_atom_site_fract_z
Si Si1 0.221468 0.172087 0.902235
Si Si2 0.289187 0.951831 0.947287
Si Si3 0.896817 0.359701 0.992036
Si Si4 0.213042 0.934793 0.275768
Si Si5 0.472155 0.488290 0.790214
Si Si6 0.052771 0.391519 0.411430
Si Si7 0.541146 0.768094 0.274960
O O1 0.281681 0.178209 0.747514
O O2 0.978780 0.068763 0.772208
O O3 0.286366 0.087978 0.980204
O O4 0.338357 0.346828 0.111233
O O5 0.110454 0.785439 0.699385
O O6 0.271953 0.939493 0.121646
O O7 0.500000 0.000000 0.000000
O O8 0.845347 0.224113 0.777072
O O9 0.683904 0.316200 0.949346
O O10 0.000000 0.500000 0.000000
O O11 0.052585 0.394049 0.219511
O O12 0.407208 0.084765 0.530869
O O13 0.268215 0.455412 0.617717
O O14 0.473522 0.348369 0.668149
O O15 0.500000 0.500000 0.000000
O O16 0.000000 0.500000 0.500000
#
# Coordination Sequence:
#
# PCOD8019338 Si02
#       7
#     2   2   2   2   2   2   2
#     4  11  22  41  66  96 131 170 218 273 327 389
#     4  11  24  43  64  96 134 173 219 271 327 393
#     4  11  25  44  65  98 136 174 219 271 328 393
#     4  11  24  42  65  97 131 172 219 272 327 389
#     4  10  22  41  66  99 132 170 219 272 326 389
#     4  11  23  42  67  96 130 173 220 271 327 388
#     4  11  23  43  68  98 132 174 219 270 328 391
#
# _framework density 22.944188
#
# number of rings (size 3 to 8) (size 9 to 14) (size 15 to 20)
#    0.000    1.143    0.000    7.286    0.000    6.857 
#    0.000    4.286    0.000    0.000    0.000    0.000 
#    0.000    0.000    0.000    0.000    0.000    0.000 
#
# Total GULP energy -173506.776686 kJ/mol
# GULP energy per Si atom -12393.341192 kJ/mol
# Density = 2.289197 g / cm^3
# Si number density = 22.944188 Si / 1000 Ang^3
#
#
#
# Elastic Constant Matrix: (Units=GPa)
#
#
# Indices 1 2 3 4 5 6 
#
# 1 97.7985 16.0547 31.2704 -8.4498 5.3862 7.8081
# 2 16.0547 147.7286 48.4307 17.9405 -7.7257 -19.1343
# 3 31.2704 48.4307 125.5453 4.5044 6.6873 -1.8055
# 4 -8.4498 17.9405 4.5044 37.8032 -18.5501 1.2220
# 5 5.3862 -7.7257 6.6873 -18.5501 41.5474 7.0501
# 6 7.8081 -19.1343 -1.8055 1.2220 7.0501 44.4375
#
#
#
# Elastic Compliance Matrix: (Units=1/GPa)
#
#
# Indices 1 2 3 4 5 6 
#
# 1 0.011840 -0.001235 -0.002721 0.004166 0.001043 -0.003003
# 2 -0.001235 0.008908 -0.002885 -0.004505 -0.000431 0.004128
# 3 -0.002721 -0.002885 0.009953 -0.001680 -0.002551 0.000091
# 4 0.004166 -0.004505 -0.001680 0.038328 0.017110 -0.006508
# 5 0.001043 -0.000431 -0.002551 0.017110 0.032951 -0.006171
# 6 -0.003003 0.004128 0.000091 -0.006508 -0.006171 0.025970
#
#
# Mechanical properties :
#
#
# Convention : Reuss Voigt Hill
#
# Bulk Modulus (GPa) = 58.75398 62.50933 60.63166
# Shear Modulus (GPa) = 33.94300 43.11206 38.52753
#
# Velocity S-wave (km/s) = 3.85043 4.33944 4.10223
# Velocity P-wave (km/s) = 6.74023 7.23954 6.99434
#
# Compressibility (1/GPa) = 0.01702012
#
# Stress axis : x y z
#
# Youngs Moduli (GPa) = 84.45931 112.25378 100.46872
#
# Poissons Ratio (x) = 0.13864 0.27336
# Poissons Ratio (y) = 0.10431 0.28985
# Poissons Ratio (z) = 0.22980 0.32385
#
# Static dielectric constant tensor:
#      x y z
#    x 3.137950 -1.732000 -1.571240 
#    y -1.732000 3.150590 -1.499450 
#    z -1.571240 -1.499450 1.888820 
# 
# 
# High freq. dielectric constant tensor:
#      x y z
#    x 1.907320 -0.021750 0.008280 
#    y -0.021750 1.926950 0.024640 
#    z 0.008280 0.024640 1.900330 
# 
# From -- ./inp_files/158777.got.cif
#   From: 2010.06.25/outbox.cif.g09.slc.cpg/sg2_80_cif.got.tgz:158777.got - 2010.06.27 13:26:56.
