data_PCOD8019058
_publ_section_title
;
Structure prediction by ZEFSAII (Michael W. Deem and Ramdas Pophale) SiO2 
 PCOD8019058
Probable space group: P -1
;
_chemical_formula_sum "Si O2"
_cell_formula_units_Z 16
_cell_length_a 14.249215
_cell_length_b 9.580586
_cell_length_c 9.736790
_cell_angle_alpha 110.136162
_cell_angle_beta 128.975058
_cell_angle_gamma 101.566549
_cell_volume 796.248256
_symmetry_space_group_name_H-M "P -1"
_symmetry_group_IT_number 2
_symmetry_cell_setting 'triclinic'
loop_
_space_group_symop_operation_xyz
x,y,z
-x,-y,-z
loop_
_atom_site_type_symbol
_atom_site_label
_atom_site_fract_x
_atom_site_fract_y
_atom_site_fract_z
Si Si1 0.774758 0.586380 0.969403
Si Si2 0.613486 0.796998 0.249786
Si Si3 0.333359 0.633341 0.477369
Si Si4 0.532980 0.018433 0.695238
Si Si5 0.066136 0.911850 0.445396
Si Si6 0.498085 0.444701 0.194839
Si Si7 0.867435 0.358850 0.492501
Si Si8 0.808888 0.360149 0.137205
O O1 0.752824 0.476847 0.774751
O O2 0.649981 0.623694 0.879802
O O3 0.755882 0.473159 0.051289
O O4 0.938380 0.770558 0.174231
O O5 0.547548 0.906586 0.272397
O O6 0.572789 0.643162 0.269351
O O7 0.790387 0.932141 0.451096
O O8 0.542767 0.707076 0.007334
O O9 0.379463 0.528444 0.578395
O O10 0.226324 0.669868 0.470424
O O11 0.481756 0.825000 0.641068
O O12 0.500000 0.000000 0.500000
O O13 0.708538 0.153191 0.923214
O O14 0.107422 0.801715 0.545123
O O15 0.000000 0.000000 0.500000
O O16 0.787471 0.360867 0.282043
O O17 0.022185 0.555010 0.714507
#
# Coordination Sequence:
#
# PCOD8019058 Si02
#       8
#     2   2   2   2   2   2   2   2
#     4  11  23  43  64  93 132 176 208 268 334 376
#     4  11  23  41  64  95 123 174 217 264 322 380
#     4  12  25  40  66  99 132 168 218 272 323 389
#     4  12  23  40  64  96 132 168 216 266 325 385
#     4  11  23  41  67  91 129 169 220 263 318 391
#     4  11  24  41  66  92 134 169 219 265 325 383
#     4  10  24  40  65  99 127 168 222 268 324 380
#     4  10  22  41  64  92 132 168 211 268 323 377
#
# _framework density 20.094234
#
# number of rings (size 3 to 8) (size 9 to 14) (size 15 to 20)
#    0.000    1.000    5.000    1.125    3.500    5.000 
#    0.000    0.625    0.000    0.000    0.000    0.000 
#    0.000    0.000    0.000    0.000    0.000    0.000 
#
# Total GULP energy -198440.506953 kJ/mol
# GULP energy per Si atom -12402.531685 kJ/mol
# Density = 2.004850 g / cm^3
# Si number density = 20.094234 Si / 1000 Ang^3
#
#
#
# Elastic Constant Matrix: (Units=GPa)
#
#
# Indices 1 2 3 4 5 6 
#
# 1 68.1294 26.5333 40.8344 -10.5161 -2.4144 6.1120
# 2 26.5333 80.4338 53.0380 -2.6223 0.5615 3.8568
# 3 40.8344 53.0380 142.2194 8.9630 3.9223 6.9888
# 4 -10.5161 -2.6223 8.9630 33.5579 9.8572 10.7968
# 5 -2.4144 0.5615 3.9223 9.8572 36.3900 7.6793
# 6 6.1120 3.8568 6.9888 10.7968 7.6793 31.1151
#
#
#
# Elastic Compliance Matrix: (Units=1/GPa)
#
#
# Indices 1 2 3 4 5 6 
#
# 1 0.020991 -0.002842 -0.005288 0.009509 0.000709 -0.006058
# 2 -0.002842 0.017271 -0.005717 0.002408 -0.000266 -0.001069
# 3 -0.005288 -0.005717 0.010967 -0.005346 -0.000250 0.001201
# 4 0.009509 0.002408 -0.005346 0.040769 -0.007051 -0.013372
# 5 0.000709 -0.000266 -0.000250 -0.007051 0.030554 -0.005144
# 6 -0.006058 -0.001069 0.001201 -0.013372 -0.005144 0.039101
#
#
# Mechanical properties :
#
#
# Convention : Reuss Voigt Hill
#
# Bulk Modulus (GPa) = 46.43692 59.06600 52.75146
# Shear Modulus (GPa) = 25.70376 31.57105 28.63740
#
# Velocity S-wave (km/s) = 3.58042 3.96807 3.77922
# Velocity P-wave (km/s) = 6.34447 7.10299 6.73442
#
# Compressibility (1/GPa) = 0.02153459
#
# Stress axis : x y z
#
# Youngs Moduli (GPa) = 47.64047 57.89910 91.18579
#
# Poissons Ratio (x) = 0.16453 0.48221
# Poissons Ratio (y) = 0.13538 0.52131
# Poissons Ratio (z) = 0.25193 0.33101
#
# Static dielectric constant tensor:
#      x y z
#    x 3.667770 0.150710 0.153750 
#    y 0.150710 3.712630 0.198580 
#    z 0.153750 0.198580 3.891180 
# 
# 
# High freq. dielectric constant tensor:
#      x y z
#    x 1.784210 0.008070 0.009880 
#    y 0.008070 1.783220 0.007570 
#    z 0.009880 0.007570 1.792930 
# 
# From -- ./inp_files/205531.got.cif
#   From: 2010.06.25/outbox.cif.g09.slc.cpg/sg2_103_cif.got.tgz:205531.got - 2010.06.27 13:26:56.
