data_PCOD8019076
_publ_section_title
;
Structure prediction by ZEFSAII (Michael W. Deem and Ramdas Pophale) SiO2 
 PCOD8019076
Probable space group: P -1
;
_chemical_formula_sum "Si O2"
_cell_formula_units_Z 12
_cell_length_a 12.157289
_cell_length_b 18.861196
_cell_length_c 14.495846
_cell_angle_alpha 149.953742
_cell_angle_beta 160.733608
_cell_angle_gamma 30.203450
_cell_volume 526.355265
_symmetry_space_group_name_H-M "P -1"
_symmetry_group_IT_number 2
_symmetry_cell_setting 'triclinic'
loop_
_space_group_symop_operation_xyz
x,y,z
-x,-y,-z
loop_
_atom_site_type_symbol
_atom_site_label
_atom_site_fract_x
_atom_site_fract_y
_atom_site_fract_z
Si Si1 0.188593 0.604760 0.317968
Si Si2 0.837099 0.845963 0.453873
Si Si3 0.254868 0.036694 0.082259
Si Si4 0.562789 0.269295 0.844965
Si Si5 0.345512 0.295420 0.337488
Si Si6 0.552647 0.415064 0.815828
O O1 0.500000 0.500000 0.500000
O O2 0.337991 0.704536 0.479059
O O3 0.931979 0.711472 0.306011
O O4 0.000000 0.500000 0.000000
O O5 0.535034 0.975902 0.315328
O O6 0.721708 0.791685 0.398170
O O7 0.162876 0.905506 0.804817
O O8 0.406734 0.126708 0.227832
O O9 0.924718 0.142124 0.991689
O O10 0.458148 0.312184 0.704408
O O11 0.602904 0.413749 0.090736
O O12 0.349114 0.396788 0.542862
O O13 0.969183 0.365485 0.071592
#
# Coordination Sequence:
#
# PCOD8019076 Si02
#       6
#     2   2   2   2   2   2
#     4  12  26  45  70  94 122 162 209 267 315 363
#     4  12  25  41  64  95 128 166 209 253 314 375
#     4  11  25  40  62  93 130 172 202 251 312 374
#     4  10  22  41  64  94 131 163 211 258 309 370
#     4  11  23  44  64  93 129 162 215 255 306 374
#     4  10  23  39  68  95 122 169 208 262 313 355
#
# _framework density 22.798290000000001
#
# number of rings (size 3 to 8) (size 9 to 14) (size 15 to 20)
#    0.000    1.000    0.000    7.000    0.000   12.667 
#    0.000    0.000    0.000    0.000    0.000    0.000 
#    0.000    0.000    0.000    0.000    0.000    0.000 
#
# Total GULP energy -148862.867526 kJ/mol
# GULP energy per Si atom -12405.238960 kJ/mol
# Density = 2.274640 g / cm^3
# Si number density = 22.798290 Si / 1000 Ang^3
#
#
#
# Elastic Constant Matrix: (Units=GPa)
#
#
# Indices 1 2 3 4 5 6 
#
# 1 87.1384 15.7732 35.9243 6.5401 35.2258 14.7598
# 2 15.7732 84.0966 13.5419 2.4716 9.5811 0.7801
# 3 35.9243 13.5419 110.8743 11.8055 7.7423 13.0868
# 4 6.5401 2.4716 11.8055 27.2716 6.7395 1.2551
# 5 35.2258 9.5811 7.7423 6.7395 45.0356 3.5088
# 6 14.7598 0.7801 13.0868 1.2551 3.5088 30.4220
#
#
#
# Elastic Compliance Matrix: (Units=1/GPa)
#
#
# Indices 1 2 3 4 5 6 
#
# 1 0.020658 -0.001388 -0.004889 0.001212 -0.014718 -0.006236
# 2 -0.001388 0.012484 -0.001089 -0.000012 -0.001458 0.000990
# 3 -0.004889 -0.001089 0.011290 -0.004225 0.002951 -0.002623
# 4 0.001212 -0.000012 -0.004225 0.039722 -0.006187 0.000304
# 5 -0.014718 -0.001458 0.002951 -0.006187 0.034273 0.002211
# 6 -0.006236 0.000990 -0.002623 0.000304 0.002211 0.036732
#
#
# Mechanical properties :
#
#
# Convention : Reuss Voigt Hill
#
# Bulk Modulus (GPa) = 33.67064 45.84312 39.75688
# Shear Modulus (GPa) = 27.81007 35.00384 31.40695
#
# Velocity S-wave (km/s) = 3.49640 3.92263 3.71563
# Velocity P-wave (km/s) = 5.57680 6.37713 5.99035
#
# Compressibility (1/GPa) = 0.02969947
#
# Stress axis : x y z
#
# Youngs Moduli (GPa) = 48.40756 80.10186 88.57723
#
# Poissons Ratio (x) = 0.11121 0.43306
# Poissons Ratio (y) = 0.06721 0.09643
# Poissons Ratio (z) = 0.23667 0.08721
#
# Static dielectric constant tensor:
#      x y z
#    x 8.725110 -3.181660 2.849290 
#    y -3.181660 6.653270 -1.829630 
#    z 2.849290 -1.829630 5.724950 
# 
# 
# High freq. dielectric constant tensor:
#      x y z
#    x 1.900590 0.009800 0.001030 
#    y 0.009800 1.906810 0.009170 
#    z 0.001030 0.009170 1.907690 
# 
# From -- ./inp_files/25241.got.cif
#   From: 2010.06.25/outbox.cif.g09.slc.cpg/sg2_13_cif.got.tgz:25241.got - 2010.06.27 13:26:56.
