data_PCOD8019708
_publ_section_title
;
Structure prediction by ZEFSAII (Michael W. Deem and Ramdas Pophale) SiO2 
 PCOD8019708
Probable space group: P -1
;
_chemical_formula_sum "Si O2"
_cell_formula_units_Z 16
_cell_length_a 8.579735
_cell_length_b 14.060626
_cell_length_c 9.049933
_cell_angle_alpha 132.992034
_cell_angle_beta 89.720323
_cell_angle_gamma 106.382522
_cell_volume 738.301251
_symmetry_space_group_name_H-M "P -1"
_symmetry_group_IT_number 2
_symmetry_cell_setting 'triclinic'
loop_
_space_group_symop_operation_xyz
x,y,z
-x,-y,-z
loop_
_atom_site_type_symbol
_atom_site_label
_atom_site_fract_x
_atom_site_fract_y
_atom_site_fract_z
Si Si1 0.919416 0.283870 0.048085
Si Si2 0.234837 0.410022 0.971759
Si Si3 0.479709 0.306820 0.722711
Si Si4 0.143576 0.442626 0.683498
Si Si5 0.699903 0.758474 0.626474
Si Si6 0.942352 0.177304 0.258303
Si Si7 0.400050 0.069529 0.974266
Si Si8 0.593015 0.132148 0.740509
O O1 0.847755 0.406283 0.213221
O O2 0.935802 0.209225 0.119067
O O3 0.786544 0.163393 0.817090
O O4 0.099447 0.349064 0.036835
O O5 0.314730 0.298277 0.806092
O O6 0.150458 0.447068 0.865997
O O7 0.394334 0.540822 0.172735
O O8 0.400409 0.208859 0.476516
O O9 0.598424 0.261292 0.778208
O O10 0.294639 0.399276 0.563851
O O11 0.966549 0.320229 0.502271
O O12 0.896373 0.865035 0.751595
O O13 0.608389 0.789303 0.802507
O O14 0.781659 0.050143 0.182337
O O15 0.488626 0.123527 0.878368
O O16 0.500000 0.000000 0.000000
O O17 0.500000 0.000000 0.500000
#
# Coordination Sequence:
#
# PCOD8019708 Si02
#       8
#     2   2   2   2   2   2   2   2
#     4  12  23  43  66 101 132 174 220 270 329 394
#     4  10  22  41  70  95 134 174 212 276 329 386
#     4  10  22  45  65 100 131 167 224 269 329 387
#     4   9  21  41  65  97 130 171 216 270 323 392
#     4   9  23  44  68  94 133 177 216 269 329 393
#     4  10  24  43  66  94 135 170 225 258 333 388
#     4  12  24  46  68  95 134 178 218 275 326 385
#     4  12  28  42  67  98 133 168 227 271 327 394
#
# _framework density 21.671368999999999
#
# number of rings (size 3 to 8) (size 9 to 14) (size 15 to 20)
#    0.750    0.750    2.500    1.875    3.500    1.000 
#    2.250    2.500    0.000    0.000    0.000    0.000 
#    0.000    0.000    0.000    0.000    0.000    0.000 
#
# Total GULP energy -198218.014002 kJ/mol
# GULP energy per Si atom -12388.625875 kJ/mol
# Density = 2.162204 g / cm^3
# Si number density = 21.671369 Si / 1000 Ang^3
#
#
#
# Elastic Constant Matrix: (Units=GPa)
#
#
# Indices 1 2 3 4 5 6 
#
# 1 89.4337 19.8592 39.8003 -6.3473 19.1161 18.4952
# 2 19.8592 49.2462 14.9793 -2.4395 11.7040 11.4690
# 3 39.8003 14.9793 103.4937 -3.4280 14.4324 3.7967
# 4 -6.3473 -2.4395 -3.4280 21.7909 -8.1653 4.4020
# 5 19.1161 11.7040 14.4324 -8.1653 46.5084 -8.7831
# 6 18.4952 11.4690 3.7967 4.4020 -8.7831 26.7388
#
#
#
# Elastic Compliance Matrix: (Units=1/GPa)
#
#
# Indices 1 2 3 4 5 6 
#
# 1 0.018976 -0.000142 -0.005392 0.004767 -0.008236 -0.015790
# 2 -0.000142 0.026281 -0.002023 0.002347 -0.008150 -0.013951
# 3 -0.005392 -0.002023 0.011984 -0.000700 -0.000584 0.002819
# 4 0.004767 0.002347 -0.000700 0.051405 0.004584 -0.011162
# 5 -0.008236 -0.008150 -0.000584 0.004584 0.031486 0.018863
# 6 -0.015790 -0.013951 0.002819 -0.011162 0.018863 0.061938
#
#
# Mechanical properties :
#
#
# Convention : Reuss Voigt Hill
#
# Bulk Modulus (GPa) = 23.73718 43.49456 33.61587
# Shear Modulus (GPa) = 21.62392 30.17659 25.90026
#
# Velocity S-wave (km/s) = 3.16224 3.73562 3.46083
# Velocity P-wave (km/s) = 4.93052 6.22255 5.61383
#
# Compressibility (1/GPa) = 0.04212799
#
# Stress axis : x y z
#
# Youngs Moduli (GPa) = 52.69686 38.05038 83.44800
#
# Poissons Ratio (x) = 0.00539 0.44991
# Poissons Ratio (y) = 0.00747 0.16884
# Poissons Ratio (z) = 0.28412 0.07699
#
# Static dielectric constant tensor:
#      x y z
#    x 3.446660 0.388120 0.522010 
#    y 0.388120 3.089530 -0.374820 
#    z 0.522010 -0.374820 4.025520 
# 
# 
# High freq. dielectric constant tensor:
#      x y z
#    x 1.854090 -0.008940 0.017030 
#    y -0.008940 1.819800 -0.004230 
#    z 0.017030 -0.004230 1.868510 
# 
# From -- ./inp_files/204274.got.cif
#   From: 2010.06.25/outbox.cif.g09.slc.cpg/sg2_103_cif.got.tgz:204274.got - 2010.06.27 13:26:56.
