data_PCOD8019032
_publ_section_title
;
Structure prediction by ZEFSAII (Michael W. Deem and Ramdas Pophale) SiO2 
 PCOD8019032
Probable space group: P -1
;
_chemical_formula_sum "Si O2"
_cell_formula_units_Z 16
_cell_length_a 24.250655
_cell_length_b 10.592314
_cell_length_c 26.875990
_cell_angle_alpha 24.918216
_cell_angle_beta 162.574070
_cell_angle_gamma 156.317740
_cell_volume 798.258179
_symmetry_space_group_name_H-M "P -1"
_symmetry_group_IT_number 2
_symmetry_cell_setting 'triclinic'
loop_
_space_group_symop_operation_xyz
x,y,z
-x,-y,-z
loop_
_atom_site_type_symbol
_atom_site_label
_atom_site_fract_x
_atom_site_fract_y
_atom_site_fract_z
Si Si1 0.287097 0.800438 0.412173
Si Si2 0.670597 0.567215 0.974792
Si Si3 0.170856 0.871609 0.883272
Si Si4 0.991389 0.885259 0.976570
Si Si5 0.262744 0.514450 0.599006
Si Si6 0.929154 0.183499 0.295546
Si Si7 0.407402 0.661383 0.902035
Si Si8 0.029622 0.382522 0.620923
O O1 0.323282 0.733514 0.523981
O O2 0.158490 0.450879 0.400528
O O3 0.500000 0.000000 0.500000
O O4 0.167211 0.031150 0.222127
O O5 0.448271 0.453480 0.803121
O O6 0.774962 0.334145 0.128069
O O7 0.666179 0.563391 0.031967
O O8 0.793264 0.933441 0.929073
O O9 0.118253 0.934662 0.759697
O O10 0.084597 0.067017 0.776667
O O11 0.065206 0.495192 0.940467
O O12 0.414231 0.989079 0.055469
O O13 0.000000 0.000000 0.000000
O O14 0.175709 0.705845 0.493668
O O15 0.099015 0.143054 0.580606
O O16 0.210039 0.675632 0.700948
O O17 0.500000 0.500000 0.000000
O O18 0.000000 0.500000 0.500000
#
# Coordination Sequence:
#
# PCOD8019032 Si02
#       8
#     2   2   2   2   2   2   2   2
#     4  11  25  39  61  96 133 166 202 266 327 365
#     4  11  22  40  66  93 128 168 212 255 315 383
#     4  11  22  42  68  92 123 172 216 252 312 383
#     4  11  22  42  63  90 132 171 208 252 315 389
#     4  12  23  40  63  96 130 162 212 269 316 363
#     4  11  22  40  65  96 124 167 213 261 318 375
#     4  10  22  41  64  91 121 169 215 251 306 377
#     4  11  22  42  64  95 130 161 206 272 314 362
#
# _framework density 20.04364
#
# number of rings (size 3 to 8) (size 9 to 14) (size 15 to 20)
#    0.000    1.000    5.000    3.750    0.000    1.000 
#    0.000    6.250    0.000    0.000    0.000    0.000 
#    0.000    0.000    0.000    0.000    0.000    0.000 
#
# Total GULP energy -198357.175758 kJ/mol
# GULP energy per Si atom -12397.323485 kJ/mol
# Density = 1.999802 g / cm^3
# Si number density = 20.043640 Si / 1000 Ang^3
#
#
#
# Elastic Constant Matrix: (Units=GPa)
#
#
# Indices 1 2 3 4 5 6 
#
# 1 143.8833 58.6473 46.0824 8.5679 -2.8886 13.6408
# 2 58.6473 128.2454 41.8152 0.4119 6.1297 19.7632
# 3 46.0824 41.8152 87.1201 8.8701 -4.4635 3.1138
# 4 8.5679 0.4119 8.8701 37.3128 -0.4551 -5.0360
# 5 -2.8886 6.1297 -4.4635 -0.4551 39.1370 1.9187
# 6 13.6408 19.7632 3.1138 -5.0360 1.9187 34.8296
#
#
#
# Elastic Compliance Matrix: (Units=1/GPa)
#
#
# Indices 1 2 3 4 5 6 
#
# 1 0.009546 -0.003008 -0.003323 -0.001631 0.000877 -0.002019
# 2 -0.003008 0.011236 -0.003833 0.000828 -0.002183 -0.004615
# 3 -0.003323 -0.003833 0.015386 -0.002610 0.002000 0.001613
# 4 -0.001631 0.000828 -0.002610 0.028393 -0.000440 0.004531
# 5 0.000877 -0.002183 0.002000 -0.000440 0.026220 -0.000791
# 6 -0.002019 -0.004615 0.001613 0.004531 -0.000791 0.032675
#
#
# Mechanical properties :
#
#
# Convention : Reuss Voigt Hill
#
# Bulk Modulus (GPa) = 63.12680 72.48206 67.80443
# Shear Modulus (GPa) = 33.54278 36.43616 34.98947
#
# Velocity S-wave (km/s) = 4.09527 4.26824 4.18265
# Velocity P-wave (km/s) = 7.34334 7.78018 7.56491
#
# Compressibility (1/GPa) = 0.01584113
#
# Stress axis : x y z
#
# Youngs Moduli (GPa) = 104.75162 89.00272 64.99235
#
# Poissons Ratio (x) = 0.26769 0.21596
# Poissons Ratio (y) = 0.31506 0.24912
# Poissons Ratio (z) = 0.34808 0.34116
#
# Static dielectric constant tensor:
#      x y z
#    x 3.842800 0.113320 -0.045030 
#    y 0.113320 3.589080 0.211730 
#    z -0.045030 0.211730 3.898390 
# 
# 
# High freq. dielectric constant tensor:
#      x y z
#    x 1.789620 0.005800 -0.005240 
#    y 0.005800 1.775350 0.014190 
#    z -0.005240 0.014190 1.788930 
# 
# From -- ./inp_files/347387.got.cif
#   From: 2010.06.25/outbox.cif.g09.slc.cpg/sg2_174_cif.got.tgz:347387.got - 2010.06.27 13:26:56.
