data_PCOD8019753
_publ_section_title
;
Structure prediction by ZEFSAII (Michael W. Deem and Ramdas Pophale) SiO2 
 PCOD8019753
Probable space group: P -1
;
_chemical_formula_sum "Si O2"
_cell_formula_units_Z 16
_cell_length_a 6.528814
_cell_length_b 15.094159
_cell_length_c 11.360798
_cell_angle_alpha 49.372221
_cell_angle_beta 104.841597
_cell_angle_gamma 78.801128
_cell_volume 715.035010
_symmetry_space_group_name_H-M "P -1"
_symmetry_group_IT_number 2
_symmetry_cell_setting 'triclinic'
loop_
_space_group_symop_operation_xyz
x,y,z
-x,-y,-z
loop_
_atom_site_type_symbol
_atom_site_label
_atom_site_fract_x
_atom_site_fract_y
_atom_site_fract_z
Si Si1 0.541900 0.320554 0.143019
Si Si2 0.708541 0.158113 0.888411
Si Si3 0.930821 0.546437 0.169583
Si Si4 0.671334 0.847042 0.661849
Si Si5 0.038952 0.135073 0.760589
Si Si6 0.967910 0.281898 0.387788
Si Si7 0.171778 0.345647 0.694585
Si Si8 0.873196 0.277244 0.011609
O O1 0.526566 0.200264 0.306871
O O2 0.695509 0.358896 0.223379
O O3 0.677878 0.282766 0.070596
O O4 0.257701 0.431242 0.984577
O O5 0.433760 0.277105 0.731166
O O6 0.813598 0.131202 0.794217
O O7 0.850000 0.210915 0.946346
O O8 0.733488 0.017863 0.063744
O O9 0.028035 0.392837 0.357546
O O10 0.789115 0.651339 0.162409
O O11 0.151840 0.573852 0.139667
O O12 0.827070 0.795370 0.611276
O O13 0.850152 0.813471 0.827341
O O14 0.500000 0.000000 0.500000
O O15 0.061469 0.250072 0.733601
O O16 0.985692 0.176704 0.580050
O O17 0.000000 0.500000 0.500000
#
# Coordination Sequence:
#
# PCOD8019753 Si02
#       8
#     2   2   2   2   2   2   2   2
#     4  10  23  42  67  97 133 182 218 279 350 401
#     4  11  25  46  71 100 139 187 232 284 355 422
#     4  11  22  43  67 101 139 176 229 286 347 405
#     4  10  25  42  65 100 137 180 227 282 339 410
#     4  11  26  45  69 106 138 184 232 289 348 415
#     4  11  25  43  67 104 137 176 233 285 340 421
#     4  12  24  46  68 100 140 183 236 288 347 409
#     4  10  22  41  71  94 133 181 225 277 340 418
#
# _framework density 22.376526999999999
#
# number of rings (size 3 to 8) (size 9 to 14) (size 15 to 20)
#    0.000    1.250    3.750    0.750    3.500    8.000 
#    4.500    0.000    0.000    0.000    0.000    0.000 
#    0.000    0.000    0.000    0.000    0.000    0.000 
#
# Total GULP energy -198270.580543 kJ/mol
# GULP energy per Si atom -12391.911284 kJ/mol
# Density = 2.232560 g / cm^3
# Si number density = 22.376527 Si / 1000 Ang^3
#
#
#
# Elastic Constant Matrix: (Units=GPa)
#
#
# Indices 1 2 3 4 5 6 
#
# 1 96.0611 39.4201 43.7666 2.4218 -17.7112 -3.2599
# 2 39.4201 81.0325 43.0184 -12.9409 -3.8482 5.6725
# 3 43.7666 43.0184 109.9279 -11.2829 -20.1774 5.5147
# 4 2.4218 -12.9409 -11.2829 37.4233 -4.6279 -9.9729
# 5 -17.7112 -3.8482 -20.1774 -4.6279 38.6883 -0.2933
# 6 -3.2599 5.6725 5.5147 -9.9729 -0.2933 34.9302
#
#
#
# Elastic Compliance Matrix: (Units=1/GPa)
#
#
# Indices 1 2 3 4 5 6 
#
# 1 0.015408 -0.006143 -0.003350 -0.003024 0.004350 0.002138
# 2 -0.006143 0.018591 -0.004819 0.004599 -0.002938 -0.001543
# 3 -0.003350 -0.004819 0.013687 0.003159 0.005498 -0.000743
# 4 -0.003024 0.004599 0.003159 0.032074 0.004615 0.007668
# 5 0.004350 -0.002938 0.005498 0.004615 0.030978 0.001593
# 6 0.002138 -0.001543 -0.000743 0.007668 0.001593 0.031399
#
#
# Mechanical properties :
#
#
# Convention : Reuss Voigt Hill
#
# Bulk Modulus (GPa) = 52.46161 59.93684 56.19923
# Shear Modulus (GPa) = 28.23042 32.92946 30.57994
#
# Velocity S-wave (km/s) = 3.55577 3.84032 3.70078
# Velocity P-wave (km/s) = 6.35246 6.81966 6.59020
#
# Compressibility (1/GPa) = 0.01906156
#
# Stress axis : x y z
#
# Youngs Moduli (GPa) = 64.90157 53.79086 73.06240
#
# Poissons Ratio (x) = 0.33045 0.24473
# Poissons Ratio (y) = 0.39871 0.35209
# Poissons Ratio (z) = 0.21739 0.25922
#
# Static dielectric constant tensor:
#      x y z
#    x 4.209070 0.434600 -0.043760 
#    y 0.434600 4.111470 0.058180 
#    z -0.043760 0.058180 4.013900 
# 
# 
# High freq. dielectric constant tensor:
#      x y z
#    x 1.885000 0.008320 -0.017820 
#    y 0.008320 1.882300 0.001840 
#    z -0.017820 0.001840 1.882770 
# 
# From -- ./inp_files/367525.got.cif
#   From: 2010.06.25/outbox.cif.g09.slc.cpg/sg2_184_cif.got.tgz:367525.got - 2010.06.27 13:26:56.
