data_PCOD8019578
_publ_section_title
;
Structure prediction by ZEFSAII (Michael W. Deem and Ramdas Pophale) SiO2 
 PCOD8019578
Probable space group: P -1
;
_chemical_formula_sum "Si O2"
_cell_formula_units_Z 16
_cell_length_a 10.780513
_cell_length_b 7.078278
_cell_length_c 17.308331
_cell_angle_alpha 95.130088
_cell_angle_beta 62.707102
_cell_angle_gamma 48.291018
_cell_volume 704.469779
_symmetry_space_group_name_H-M "P -1"
_symmetry_group_IT_number 2
_symmetry_cell_setting 'triclinic'
loop_
_space_group_symop_operation_xyz
x,y,z
-x,-y,-z
loop_
_atom_site_type_symbol
_atom_site_label
_atom_site_fract_x
_atom_site_fract_y
_atom_site_fract_z
Si Si1 0.749612 0.147341 0.769981
Si Si2 0.724459 0.764406 0.375414
Si Si3 0.019437 0.613667 0.572587
Si Si4 0.478885 0.132177 0.929392
Si Si5 0.004456 0.136609 0.933115
Si Si6 0.466210 0.330292 0.381786
Si Si7 0.808811 0.269847 0.283513
Si Si8 0.525629 0.210406 0.188266
O O1 0.664159 0.101078 0.862479
O O2 0.560462 0.515477 0.826601
O O3 0.789383 0.987621 0.671226
O O4 0.997451 0.971356 0.714218
O O5 0.937450 0.557020 0.367596
O O6 0.752509 0.552273 0.304779
O O7 0.500000 0.000000 0.500000
O O8 0.695752 0.966079 0.330763
O O9 0.233926 0.529816 0.501504
O O10 0.000000 0.500000 0.500000
O O11 0.536813 0.918198 0.838700
O O12 0.228365 0.497505 0.004880
O O13 0.500000 0.000000 0.000000
O O14 0.080224 0.923567 0.833359
O O15 0.198132 0.083831 0.892963
O O16 0.000000 0.000000 0.000000
O O17 0.556438 0.445579 0.376504
O O18 0.405283 0.349622 0.311299
#
# Coordination Sequence:
#
# PCOD8019578 Si02
#       8
#     2   2   2   2   2   2   2   2
#     4  11  25  44  65 100 137 178 231 288 349 401
#     4   9  21  40  65  93 130 176 219 274 334 397
#     4  10  22  41  68  99 137 181 221 284 345 409
#     4  12  27  45  69  99 137 183 234 284 351 415
#     4  11  24  43  69  96 133 181 224 283 350 394
#     4  10  23  42  66  99 132 179 228 270 346 413
#     4  10  24  41  66  96 134 175 224 282 335 413
#     4  11  25  43  69 100 131 178 229 286 341 423
#
# _framework density 22.712116000000002
#
# number of rings (size 3 to 8) (size 9 to 14) (size 15 to 20)
#    0.000    1.500    1.250    1.875    3.500   17.000 
#    0.000    1.250    0.000    0.000    0.000    0.000 
#    0.000    0.000    0.000    0.000    0.000    0.000 
#
# Total GULP energy -198283.066497 kJ/mol
# GULP energy per Si atom -12392.691656 kJ/mol
# Density = 2.266042 g / cm^3
# Si number density = 22.712116 Si / 1000 Ang^3
#
#
#
# Elastic Constant Matrix: (Units=GPa)
#
#
# Indices 1 2 3 4 5 6 
#
# 1 89.7223 17.3681 28.1024 0.9085 10.9052 -1.1155
# 2 17.3681 114.9715 33.0541 -2.1005 4.3411 -4.3413
# 3 28.1024 33.0541 74.0781 3.8781 -3.7314 1.7583
# 4 0.9085 -2.1005 3.8781 40.6063 -2.9204 2.2889
# 5 10.9052 4.3411 -3.7314 -2.9204 35.8586 5.6858
# 6 -1.1155 -4.3413 1.7583 2.2889 5.6858 23.1877
#
#
#
# Elastic Compliance Matrix: (Units=1/GPa)
#
#
# Indices 1 2 3 4 5 6 
#
# 1 0.013493 -0.000246 -0.005299 -0.000296 -0.005008 0.002262
# 2 -0.000246 0.010275 -0.004694 0.000687 -0.002030 0.002698
# 3 -0.005299 -0.004694 0.017982 -0.001323 0.004493 -0.003469
# 4 -0.000296 0.000687 -0.001323 0.025126 0.002367 -0.002846
# 5 -0.005008 -0.002030 0.004493 0.002367 0.031740 -0.008978
# 6 0.002262 0.002698 -0.003469 -0.002846 -0.008978 0.046486
#
#
# Mechanical properties :
#
#
# Convention : Reuss Voigt Hill
#
# Bulk Modulus (GPa) = 47.00995 48.42454 47.71725
# Shear Modulus (GPa) = 28.95686 33.28035 31.11861
#
# Velocity S-wave (km/s) = 3.57452 3.83209 3.70555
# Velocity P-wave (km/s) = 6.14649 6.39900 6.27402
#
# Compressibility (1/GPa) = 0.02127209
#
# Stress axis : x y z
#
# Youngs Moduli (GPa) = 74.11404 97.31888 55.61077
#
# Poissons Ratio (x) = 0.02390 0.29471
# Poissons Ratio (y) = 0.01820 0.26104
# Poissons Ratio (z) = 0.39277 0.45682
#
# Static dielectric constant tensor:
#      x y z
#    x 4.074030 -0.150330 -0.021540 
#    y -0.150330 4.655580 0.066350 
#    z -0.021540 0.066350 4.115840 
# 
# 
# High freq. dielectric constant tensor:
#      x y z
#    x 1.895500 -0.002500 0.003150 
#    y -0.002500 1.896100 0.004810 
#    z 0.003150 0.004810 1.903990 
# 
# From -- ./inp_files/564467.got.cif
#   From: 2010.06.25/outbox.cif.g09.slc.cpg/sg2_283_cif.got.tgz:564467.got - 2010.06.27 13:26:56.
