data_PCOD8019661
_publ_section_title
;
Structure prediction by ZEFSAII (Michael W. Deem and Ramdas Pophale) SiO2 
 PCOD8019661
Probable space group: P -1
;
_chemical_formula_sum "Si O2"
_cell_formula_units_Z 14
_cell_length_a 9.678402
_cell_length_b 12.891587
_cell_length_c 16.108060
_cell_angle_alpha 153.419502
_cell_angle_beta 132.304571
_cell_angle_gamma 58.644945
_cell_volume 644.565863
_symmetry_space_group_name_H-M "P -1"
_symmetry_group_IT_number 2
_symmetry_cell_setting 'triclinic'
loop_
_space_group_symop_operation_xyz
x,y,z
-x,-y,-z
loop_
_atom_site_type_symbol
_atom_site_label
_atom_site_fract_x
_atom_site_fract_y
_atom_site_fract_z
Si Si1 0.848916 0.838894 0.093897
Si Si2 0.452571 0.226443 0.684559
Si Si3 0.799509 0.084782 0.080919
Si Si4 0.779029 0.864283 0.746110
Si Si5 0.443915 0.525218 0.739653
Si Si6 0.944652 0.855986 0.458455
Si Si7 0.843688 0.332380 0.999546
O O1 0.779161 0.955142 0.068094
O O2 0.672790 0.628868 0.903669
O O3 0.909478 0.032294 0.329239
O O4 0.033041 0.734725 0.074447
O O5 0.387513 0.394007 0.710189
O O6 0.274273 0.133736 0.606813
O O7 0.500000 0.000000 0.500000
O O8 0.640179 0.371239 0.913381
O O9 0.670000 0.271338 0.166845
O O10 0.021615 0.216784 0.244334
O O11 0.726327 0.885207 0.836579
O O12 0.610225 0.666133 0.493640
O O13 0.804785 0.127375 0.906212
O O14 0.962193 0.583248 0.264381
O O15 0.000000 0.000000 0.500000
#
# Coordination Sequence:
#
# PCOD8019661 Si02
#       7
#     2   2   2   2   2   2   2
#     4  11  26  44  65 102 138 180 215 289 332 398
#     4  12  23  45  71  97 137 175 225 278 335 399
#     4  10  23  43  65  96 134 173 231 271 337 396
#     4  10  22  41  69  98 125 178 227 279 328 403
#     4  12  24  41  70  95 138 178 222 276 339 397
#     4  12  27  44  70 102 136 178 225 279 338 403
#     4  11  24  44  69  98 138 173 231 273 341 395
#
# _framework density 21.720047000000001
#
# number of rings (size 3 to 8) (size 9 to 14) (size 15 to 20)
#    0.000    0.857    2.857    3.857    2.000    7.429 
#    0.000    0.000    0.000    0.000    0.000    0.000 
#    0.000    0.000    0.000    0.000    0.000    0.000 
#
# Total GULP energy -173675.895134 kJ/mol
# GULP energy per Si atom -12405.421081 kJ/mol
# Density = 2.167061 g / cm^3
# Si number density = 21.720047 Si / 1000 Ang^3
#
#
#
# Elastic Constant Matrix: (Units=GPa)
#
#
# Indices 1 2 3 4 5 6 
#
# 1 112.5943 57.3956 52.3753 2.1339 2.9976 15.8603
# 2 57.3956 92.9688 37.0956 -12.0986 -2.1710 1.4483
# 3 52.3753 37.0956 161.8464 -18.2843 0.7233 8.6554
# 4 2.1339 -12.0986 -18.2843 36.4658 0.6839 -7.5945
# 5 2.9976 -2.1710 0.7233 0.6839 31.5304 -6.3386
# 6 15.8603 1.4483 8.6554 -7.5945 -6.3386 31.5337
#
#
#
# Elastic Compliance Matrix: (Units=1/GPa)
#
#
# Indices 1 2 3 4 5 6 
#
# 1 0.017641 -0.010448 -0.003697 -0.008408 -0.004189 -0.010245
# 2 -0.010448 0.018341 -0.000321 0.007953 0.003523 0.007124
# 3 -0.003697 -0.000321 0.007883 0.004219 0.000212 0.000769
# 4 -0.008408 0.007953 0.004219 0.035057 0.002846 0.011721
# 5 -0.004189 0.003523 0.000212 0.002846 0.034188 0.009445
# 6 -0.010245 0.007124 0.000769 0.011721 0.009445 0.041048
#
#
# Mechanical properties :
#
#
# Convention : Reuss Voigt Hill
#
# Bulk Modulus (GPa) = 66.96747 73.46027 70.21387
# Shear Modulus (GPa) = 26.58589 34.60885 30.59737
#
# Velocity S-wave (km/s) = 3.50240 3.99608 3.75736
# Velocity P-wave (km/s) = 6.87421 7.42875 7.15686
#
# Compressibility (1/GPa) = 0.01493262
#
# Stress axis : x y z
#
# Youngs Moduli (GPa) = 56.68454 54.52257 126.85018
#
# Poissons Ratio (x) = 0.56967 0.46902
# Poissons Ratio (y) = 0.59226 0.04070
# Poissons Ratio (z) = 0.20959 0.01749
#
# Static dielectric constant tensor:
#      x y z
#    x 4.138230 0.137670 -0.020170 
#    y 0.137670 4.111250 -0.156310 
#    z -0.020170 -0.156310 4.080310 
# 
# 
# High freq. dielectric constant tensor:
#      x y z
#    x 1.858170 -0.001290 -0.008150 
#    y -0.001290 1.856550 -0.007310 
#    z -0.008150 -0.007310 1.862670 
# 
# From -- ./inp_files/242296.got.cif
#   From: 2010.06.25/outbox.cif.g09.slc.cpg/sg2_122_cif.got.tgz:242296.got - 2010.06.27 13:26:56.
