data_PCOD8019105
_publ_section_title
;
Structure prediction by ZEFSAII (Michael W. Deem and Ramdas Pophale) SiO2 
 PCOD8019105
Probable space group: P -1
;
_chemical_formula_sum "Si O2"
_cell_formula_units_Z 16
_cell_length_a 24.962883
_cell_length_b 9.710670
_cell_length_c 15.022932
_cell_angle_alpha 46.150293
_cell_angle_beta 152.754874
_cell_angle_gamma 149.995693
_cell_volume 784.921859
_symmetry_space_group_name_H-M "P -1"
_symmetry_group_IT_number 2
_symmetry_cell_setting 'triclinic'
loop_
_space_group_symop_operation_xyz
x,y,z
-x,-y,-z
loop_
_atom_site_type_symbol
_atom_site_label
_atom_site_fract_x
_atom_site_fract_y
_atom_site_fract_z
Si Si1 0.134595 0.383278 0.752773
Si Si2 0.474384 0.586376 0.198594
Si Si3 0.541555 0.468938 0.171478
Si Si4 0.041471 0.565569 0.218833
Si Si5 0.661320 0.144373 0.788097
Si Si6 0.640316 0.954768 0.651477
Si Si7 0.844191 0.214308 0.512340
Si Si8 0.949650 0.867193 0.582408
O O1 0.161841 0.602830 0.635884
O O2 0.989401 0.244117 0.676834
O O3 0.323094 0.561617 0.996393
O O4 0.073954 0.128808 0.718801
O O5 0.509690 0.591418 0.143818
O O6 0.414074 0.324091 0.278210
O O7 0.651063 0.878916 0.376996
O O8 0.744353 0.652507 0.396731
O O9 0.412537 0.131209 0.146557
O O10 0.500000 0.500000 0.000000
O O11 0.104040 0.663862 0.367321
O O12 0.011502 0.306665 0.268259
O O13 0.186771 0.841661 0.246314
O O14 0.852208 0.437790 0.980940
O O15 0.525037 0.151507 0.597525
O O16 0.688755 0.140413 0.725864
O O17 0.000000 0.000000 0.500000
#
# Coordination Sequence:
#
# PCOD8019105 Si02
#       8
#     2   2   2   2   2   2   2   2
#     4  11  24  44  67  94 134 174 213 271 333 390
#     4  11  24  45  66  91 132 181 218 263 332 383
#     4  11  22  37  67 101 132 167 216 273 326 389
#     4  12  24  41  69  99 131 172 217 270 328 389
#     4  10  22  41  64  98 134 169 215 276 331 373
#     4  10  23  42  65  95 129 174 224 274 316 385
#     4  11  26  43  64  98 135 172 215 270 329 400
#     4  12  21  40  65 100 131 160 217 270 320 387
#
# _framework density 20.384194999999998
#
# number of rings (size 3 to 8) (size 9 to 14) (size 15 to 20)
#    0.000    1.000    3.750    3.750    0.000    2.500 
#    0.000    1.250    0.000    0.000    0.000    0.000 
#    0.000    0.000    0.000    0.000    0.000    0.000 
#
# Total GULP energy -198511.060922 kJ/mol
# GULP energy per Si atom -12406.941308 kJ/mol
# Density = 2.033780 g / cm^3
# Si number density = 20.384195 Si / 1000 Ang^3
#
#
#
# Elastic Constant Matrix: (Units=GPa)
#
#
# Indices 1 2 3 4 5 6 
#
# 1 -106.7326 -7.6711 -63.1999 -70.7204 122.0690 -18.2920
# 2 -7.6711 63.5813 9.9576 -10.7776 34.9804 -6.0676
# 3 -63.1999 9.9576 90.4667 -29.6609 84.5989 -3.0435
# 4 -70.7204 -10.7776 -29.6609 1.4993 55.7028 -5.1109
# 5 122.0690 34.9804 84.5989 55.7028 -42.5463 14.9753
# 6 -18.2920 -6.0676 -3.0435 -5.1109 14.9753 25.6076
#
#
#
# Elastic Compliance Matrix: (Units=1/GPa)
#
#
# Indices 1 2 3 4 5 6 
#
# 1 0.012179 -0.005768 -0.004393 -0.006770 0.012044 -0.001584
# 2 -0.005768 0.018013 -0.001746 -0.000166 -0.004528 0.002556
# 3 -0.004393 -0.001746 0.008565 -0.002818 -0.001483 -0.002229
# 4 -0.006770 -0.000166 -0.002818 0.025484 0.006764 -0.004080
# 5 0.012044 -0.004528 -0.001483 0.006764 0.013517 0.000799
# 6 -0.001584 0.002556 -0.002229 -0.004080 0.000799 0.036978
#
#
# Mechanical properties :
#
#
# Convention : Reuss Voigt Hill
#
# Bulk Modulus (GPa) = 66.91982 -8.27903 29.32039
# Shear Modulus (GPa) = 34.83564 4.12736 19.48150
#
# Velocity S-wave (km/s) = 4.13843 1.42449 3.09482
# Velocity P-wave (km/s) = 7.46566 1.16822 5.21399
#
# Compressibility (1/GPa) = 0.01494326
#
# Stress axis : x y z
#
# Youngs Moduli (GPa) = 82.10689 55.51685 116.75497
#
# Poissons Ratio (x) = 0.32021 0.51291
# Poissons Ratio (y) = 0.47358 0.20383
# Poissons Ratio (z) = 0.36070 0.09692
#
# Static dielectric constant tensor:
#      x y z
#    x 3.760100 0.088100 0.179870 
#    y 0.088100 3.676980 0.054300 
#    z 0.179870 0.054300 3.871410 
# 
# 
# High freq. dielectric constant tensor:
#      x y z
#    x 1.793760 0.011620 0.009870 
#    y 0.011620 1.798390 0.003630 
#    z 0.009870 0.003630 1.814310 
# 
# From -- ./inp_files/337997.got.cif
#   From: 2010.06.25/outbox.cif.g09.slc.cpg/sg2_169_cif.got.tgz:337997.got - 2010.06.27 13:26:56.
