data_PCOD8019991
_publ_section_title
;
Structure prediction by ZEFSAII (Michael W. Deem and Ramdas Pophale) SiO2 
 PCOD8019991
Probable space group: P -1
;
_chemical_formula_sum "Si O2"
_cell_formula_units_Z 16
_cell_length_a 14.966799
_cell_length_b 10.218050
_cell_length_c 9.321898
_cell_angle_alpha 80.709708
_cell_angle_beta 29.259911
_cell_angle_gamma 73.486742
_cell_volume 656.569879
_symmetry_space_group_name_H-M "P -1"
_symmetry_group_IT_number 2
_symmetry_cell_setting 'triclinic'
loop_
_space_group_symop_operation_xyz
x,y,z
-x,-y,-z
loop_
_atom_site_type_symbol
_atom_site_label
_atom_site_fract_x
_atom_site_fract_y
_atom_site_fract_z
Si Si1 0.818822 0.627845 0.209504
Si Si2 0.288965 0.742014 0.582657
Si Si3 0.922194 0.812226 0.259445
Si Si4 0.552869 0.031493 0.764370
Si Si5 0.339090 0.962130 0.826201
Si Si6 0.997776 0.772007 0.735170
Si Si7 0.930467 0.365936 0.644671
Si Si8 0.583638 0.358340 0.291661
O O1 0.807885 0.734461 0.333280
O O2 0.630196 0.579415 0.479291
O O3 0.000000 0.500000 0.000000
O O4 0.840793 0.696037 0.013433
O O5 0.455499 0.811286 0.294785
O O6 0.184723 0.714292 0.588128
O O7 0.399400 0.614854 0.562122
O O8 0.117477 0.824872 0.915011
O O9 0.941862 0.736680 0.398618
O O10 0.780523 0.965582 0.439725
O O11 0.407945 0.972163 0.889293
O O12 0.500000 0.000000 0.000000
O O13 0.500000 0.000000 0.500000
O O14 0.339138 0.808728 0.812645
O O15 0.117815 0.063869 0.109482
O O16 0.064280 0.726506 0.488950
O O17 0.000000 0.500000 0.500000
O O18 0.715068 0.424829 0.998302
#
# Coordination Sequence:
#
# PCOD8019991 Si02
#       8
#     2   2   2   2   2   2   2   2
#     4  11  22  44  71  99 132 182 241 285 338 418
#     4  10  23  39  65 101 138 183 220 274 348 427
#     4  10  22  42  64  91 133 183 229 276 342 402
#     4  12  23  36  61 102 143 175 217 280 347 415
#     4  12  21  41  70 104 147 177 229 287 347 433
#     4  11  24  41  69 104 138 181 231 291 351 409
#     4  11  26  48  68  98 143 188 239 295 343 409
#     4  11  24  44  73 102 140 191 230 287 359 412
#
# _framework density 24.369074000000001
#
# number of rings (size 3 to 8) (size 9 to 14) (size 15 to 20)
#    0.000    1.000    3.750    2.625    5.250    0.500 
#    0.000   17.500    0.000    0.000    0.000    0.000 
#    0.000    0.000    0.000    0.000    0.000    0.000 
#
# Total GULP energy -198227.959049 kJ/mol
# GULP energy per Si atom -12389.247441 kJ/mol
# Density = 2.431361 g / cm^3
# Si number density = 24.369074 Si / 1000 Ang^3
#
#
#
# Elastic Constant Matrix: (Units=GPa)
#
#
# Indices 1 2 3 4 5 6 
#
# 1 154.1627 19.1571 68.1835 -14.6753 9.9104 -11.6703
# 2 19.1571 62.2706 21.9525 -18.6989 0.9057 -3.3358
# 3 68.1835 21.9525 100.0380 -16.1078 -1.8529 -4.0355
# 4 -14.6753 -18.6989 -16.1078 40.9866 -8.5251 -4.7298
# 5 9.9104 0.9057 -1.8529 -8.5251 57.9260 1.0815
# 6 -11.6703 -3.3358 -4.0355 -4.7298 1.0815 40.6795
#
#
#
# Elastic Compliance Matrix: (Units=1/GPa)
#
#
# Indices 1 2 3 4 5 6 
#
# 1 0.009697 -0.000392 -0.006356 0.000681 -0.001798 0.002246
# 2 -0.000392 0.019681 -0.002622 0.008235 0.000847 0.002176
# 3 -0.006356 -0.002622 0.015415 0.002990 0.002066 -0.000217
# 4 0.000681 0.008235 0.002990 0.031012 0.004328 0.004658
# 5 -0.001798 0.000847 0.002066 0.004328 0.018265 -0.000224
# 6 0.002246 0.002176 -0.000217 0.004658 -0.000224 0.025931
#
#
# Mechanical properties :
#
#
# Convention : Reuss Voigt Hill
#
# Bulk Modulus (GPa) = 38.38428 59.45085 48.91756
# Shear Modulus (GPa) = 33.91516 41.73030 37.82273
#
# Velocity S-wave (km/s) = 3.73464 4.14264 3.94392
# Velocity P-wave (km/s) = 5.86362 6.87975 6.39191
#
# Compressibility (1/GPa) = 0.02605233
#
# Stress axis : x y z
#
# Youngs Moduli (GPa) = 103.12376 50.81010 64.87119
#
# Poissons Ratio (x) = 0.01989 0.41235
# Poissons Ratio (y) = 0.04038 0.17012
# Poissons Ratio (z) = 0.65551 0.13325
#
# Static dielectric constant tensor:
#      x y z
#    x 4.701530 0.365790 0.086550 
#    y 0.365790 4.868170 -0.270560 
#    z 0.086550 -0.270560 4.288630 
# 
# 
# High freq. dielectric constant tensor:
#      x y z
#    x 1.991520 -0.005150 -0.006840 
#    y -0.005150 1.968850 -0.001620 
#    z -0.006840 -0.001620 1.960850 
# 
# From -- ./inp_files/307236.got.cif
#   From: 2010.06.25/outbox.cif.g09.slc.cpg/sg2_154_cif.got.tgz:307236.got - 2010.06.27 13:26:56.
