data_PCOD8019925
_publ_section_title
;
Structure prediction by ZEFSAII (Michael W. Deem and Ramdas Pophale) SiO2 
 PCOD8019925
Probable space group: P -1
;
_chemical_formula_sum "Si O2"
_cell_formula_units_Z 10
_cell_length_a 13.466307
_cell_length_b 6.767405
_cell_length_c 11.210352
_cell_angle_alpha 64.261616
_cell_angle_beta 147.506129
_cell_angle_gamma 114.456779
_cell_volume 491.963124
_symmetry_space_group_name_H-M "P -1"
_symmetry_group_IT_number 2
_symmetry_cell_setting 'triclinic'
loop_
_space_group_symop_operation_xyz
x,y,z
-x,-y,-z
loop_
_atom_site_type_symbol
_atom_site_label
_atom_site_fract_x
_atom_site_fract_y
_atom_site_fract_z
Si Si1 0.705226 0.926350 0.242985
Si Si2 0.990229 0.757022 0.410666
Si Si3 0.401943 0.818959 0.361424
Si Si4 0.024659 0.956390 0.897293
Si Si5 0.294778 0.344668 0.455504
O O1 0.792609 0.831505 0.236410
O O2 0.705246 0.728358 0.389018
O O3 0.838779 0.136890 0.365343
O O4 0.500000 0.000000 0.000000
O O5 0.000000 0.500000 0.500000
O O6 0.018130 0.833193 0.280983
O O7 0.322420 0.608554 0.413864
O O8 0.538391 0.757180 0.414022
O O9 0.500000 0.000000 0.500000
O O10 0.235654 0.914576 0.097608
O O11 0.895237 0.740028 0.782005
O O12 0.000000 0.000000 0.000000
#
# Coordination Sequence:
#
# PCOD8019925 Si02
#       5
#     2   2   2   2   2
#     4  10  22  42  63  87 123 162 201 252 306 358
#     4  10  24  41  62  92 122 158 208 248 299 368
#     4  11  22  38  59  92 121 153 204 249 296 362
#     4  11  22  40  62  88 123 161 196 246 304 356
#     4  10  23  39  61  89 121 160 199 250 302 355
#
# _framework density 20.326726000000001
#
# number of rings (size 3 to 8) (size 9 to 14) (size 15 to 20)
#    0.000    1.600    2.000    1.800    2.800    2.400 
#    3.600    0.000    0.000    0.000    0.000    0.000 
#    0.000    0.000    0.000    0.000    0.000    0.000 
#
# Total GULP energy -124017.947724 kJ/mol
# GULP energy per Si atom -12401.794772 kJ/mol
# Density = 2.028046 g / cm^3
# Si number density = 20.326726 Si / 1000 Ang^3
#
#
#
# Elastic Constant Matrix: (Units=GPa)
#
#
# Indices 1 2 3 4 5 6 
#
# 1 99.1853 44.2782 44.6476 0.4618 -10.0776 4.4780
# 2 44.2782 162.8167 53.9730 -2.4112 -7.5036 13.2152
# 3 44.6476 53.9730 128.6447 9.5654 19.2159 -3.8600
# 4 0.4618 -2.4112 9.5654 24.5057 3.3341 4.4967
# 5 -10.0776 -7.5036 19.2159 3.3341 43.5239 -1.3222
# 6 4.4780 13.2152 -3.8600 4.4967 -1.3222 26.4987
#
#
#
# Elastic Compliance Matrix: (Units=1/GPa)
#
#
# Indices 1 2 3 4 5 6 
#
# 1 0.013623 -0.001656 -0.004919 0.001232 0.004880 -0.002158
# 2 -0.001656 0.008323 -0.003611 0.002823 0.002285 -0.004762
# 3 -0.004919 -0.003611 0.012537 -0.005155 -0.006750 0.004996
# 4 0.001232 0.002823 -0.005155 0.045012 -0.000705 -0.010040
# 5 0.004880 0.002285 -0.006750 -0.000705 0.027490 -0.001456
# 6 -0.002158 -0.004762 0.004996 -0.010040 -0.001456 0.042836
#
#
# Mechanical properties :
#
#
# Convention : Reuss Voigt Hill
#
# Bulk Modulus (GPa) = 70.86549 75.16049 73.01299
# Shear Modulus (GPa) = 28.58839 35.42220 32.00530
#
# Velocity S-wave (km/s) = 3.75433 4.17903 3.97236
# Velocity P-wave (km/s) = 7.33022 7.76802 7.55229
#
# Compressibility (1/GPa) = 0.01411124
#
# Stress axis : x y z
#
# Youngs Moduli (GPa) = 73.40477 120.14998 79.76388
#
# Poissons Ratio (x) = 0.19896 0.39234
# Poissons Ratio (y) = 0.12155 0.28805
# Poissons Ratio (z) = 0.36106 0.43389
#
# Static dielectric constant tensor:
#      x y z
#    x 3.779690 0.201160 0.089760 
#    y 0.201160 3.675430 0.086540 
#    z 0.089760 0.086540 3.834250 
# 
# 
# High freq. dielectric constant tensor:
#      x y z
#    x 1.806590 0.011460 0.007230 
#    y 0.011460 1.793920 0.000030 
#    z 0.007230 0.000030 1.800770 
# 
# From -- ./inp_files/2020.got.cif
#   From: 2010.06.25/outbox.cif.g09.slc.cpg/sg2_2_cif.got.tgz:2020.got - 2010.06.27 13:26:56.
