data_PCOD8019690
_publ_section_title
;
Structure prediction by ZEFSAII (Michael W. Deem and Ramdas Pophale) SiO2 
 PCOD8019690
Probable space group: P -1
;
_chemical_formula_sum "Si O2"
_cell_formula_units_Z 14
_cell_length_a 12.495058
_cell_length_b 18.764204
_cell_length_c 12.690870
_cell_angle_alpha 27.683194
_cell_angle_beta 31.643799
_cell_angle_gamma 25.036689
_cell_volume 566.552444
_symmetry_space_group_name_H-M "P -1"
_symmetry_group_IT_number 2
_symmetry_cell_setting 'triclinic'
loop_
_space_group_symop_operation_xyz
x,y,z
-x,-y,-z
loop_
_atom_site_type_symbol
_atom_site_label
_atom_site_fract_x
_atom_site_fract_y
_atom_site_fract_z
Si Si1 0.524349 0.375683 0.797017
Si Si2 0.904442 0.349599 0.355056
Si Si3 0.539131 0.163117 0.248553
Si Si4 0.220698 0.047722 0.166458
Si Si5 0.154362 0.936190 0.682118
Si Si6 0.992972 0.457493 0.804822
Si Si7 0.496688 0.688721 0.540396
O O1 0.724448 0.311665 0.619370
O O2 0.239241 0.501113 0.817460
O O3 0.528496 0.501608 0.719443
O O4 0.585310 0.190199 0.052051
O O5 0.988781 0.440612 0.244188
O O6 0.135001 0.127341 0.414405
O O7 0.786726 0.098522 0.196575
O O8 0.285248 0.370694 0.237569
O O9 0.500000 0.000000 0.500000
O O10 0.114460 0.028771 0.168298
O O11 0.250807 0.887120 0.427824
O O12 0.002879 0.278351 0.077271
O O13 0.500000 0.000000 0.000000
O O14 0.410613 0.743045 0.662779
O O15 0.223836 0.362005 0.650129
#
# Coordination Sequence:
#
# PCOD8019690 Si02
#       7
#     2   2   2   2   2   2   2
#     4  10  23  43  73  98 141 187 240 296 350 416
#     4  10  22  44  73 104 129 192 246 289 352 408
#     4  12  27  46  65 107 150 188 236 289 354 429
#     4  10  22  41  70 106 138 173 237 302 345 411
#     4  12  24  43  71 101 143 187 234 284 367 420
#     4  10  23  44  66 103 147 182 238 293 344 420
#     4  10  22  42  70 104 136 184 239 298 346 417
#
# _framework density 24.710864000000001
#
# number of rings (size 3 to 8) (size 9 to 14) (size 15 to 20)
#    0.000    1.429    2.857    1.286    4.000    5.143 
#    2.571    0.000    0.000    0.000    0.000    0.000 
#    0.000    0.000    0.000    0.000    0.000    0.000 
#
# Total GULP energy -173436.804548 kJ/mol
# GULP energy per Si atom -12388.343182 kJ/mol
# Density = 2.465462 g / cm^3
# Si number density = 24.710864 Si / 1000 Ang^3
#
#
#
# Elastic Constant Matrix: (Units=GPa)
#
#
# Indices 1 2 3 4 5 6 
#
# 1 142.6453 7.6981 33.0126 -7.3909 -0.7244 -19.5817
# 2 7.6981 76.0806 9.5796 -14.5552 -1.4728 0.1065
# 3 33.0126 9.5796 110.0890 -25.2892 8.1704 -2.1291
# 4 -7.3909 -14.5552 -25.2892 48.3823 9.4192 1.9376
# 5 -0.7244 -1.4728 8.1704 9.4192 35.0872 -12.2189
# 6 -19.5817 0.1065 -2.1291 1.9376 -12.2189 42.4270
#
#
#
# Elastic Compliance Matrix: (Units=1/GPa)
#
#
# Indices 1 2 3 4 5 6 
#
# 1 0.008262 -0.000648 -0.002778 -0.001079 0.002642 0.004485
# 2 -0.000648 0.014019 0.000017 0.004326 -0.000862 -0.000779
# 3 -0.002778 0.000017 0.011887 0.006992 -0.005615 -0.002622
# 4 -0.001079 0.004326 0.006992 0.027670 -0.010439 -0.004428
# 5 0.002642 -0.000862 -0.005615 -0.010439 0.036814 0.012019
# 6 0.004485 -0.000779 -0.002622 -0.004428 0.012019 0.029174
#
#
# Mechanical properties :
#
#
# Convention : Reuss Voigt Hill
#
# Bulk Modulus (GPa) = 36.56209 47.71062 42.13636
# Shear Modulus (GPa) = 34.77979 43.74760 39.26370
#
# Velocity S-wave (km/s) = 3.75570 4.21215 3.99046
# Velocity P-wave (km/s) = 5.79958 6.55788 6.19035
#
# Compressibility (1/GPa) = 0.02735073
#
# Stress axis : x y z
#
# Youngs Moduli (GPa) = 121.04233 71.32938 84.12216
#
# Poissons Ratio (x) = 0.04620 0.23371
# Poissons Ratio (y) = 0.07840 -0.00143
# Poissons Ratio (z) = 0.33628 -0.00121
#
# Static dielectric constant tensor:
#      x y z
#    x 4.351740 -0.182260 -0.109410 
#    y -0.182260 4.718480 -0.270550 
#    z -0.109410 -0.270550 4.520340 
# 
# 
# High freq. dielectric constant tensor:
#      x y z
#    x 1.974400 -0.005970 -0.015430 
#    y -0.005970 1.987640 -0.018170 
#    z -0.015430 -0.018170 1.980290 
# 
# From -- ./inp_files/437195.got.cif
#   From: 2010.06.25/outbox.cif.g09.slc.cpg/sg2_219_cif.got.tgz:437195.got - 2010.06.27 13:26:56.
