data_PCOD8019327
_publ_section_title
;
Structure prediction by ZEFSAII (Michael W. Deem and Ramdas Pophale) SiO2 
 PCOD8019327
Probable space group: P -1
;
_chemical_formula_sum "Si O2"
_cell_formula_units_Z 14
_cell_length_a 9.679370
_cell_length_b 12.179784
_cell_length_c 9.668329
_cell_angle_alpha 120.203847
_cell_angle_beta 136.683017
_cell_angle_gamma 80.630313
_cell_volume 634.863481
_symmetry_space_group_name_H-M "P -1"
_symmetry_group_IT_number 2
_symmetry_cell_setting 'triclinic'
loop_
_space_group_symop_operation_xyz
x,y,z
-x,-y,-z
loop_
_atom_site_type_symbol
_atom_site_label
_atom_site_fract_x
_atom_site_fract_y
_atom_site_fract_z
Si Si1 0.922174 0.694345 0.590094
Si Si2 0.438571 0.324302 0.094274
Si Si3 0.987670 0.121448 0.657584
Si Si4 0.248427 0.572121 0.862093
Si Si5 0.434503 0.810753 0.652843
Si Si6 0.519760 0.389455 0.658391
Si Si7 0.900338 0.000651 0.077017
O O1 0.847119 0.589158 0.340983
O O2 0.722463 0.701431 0.538558
O O3 0.069233 0.640849 0.762636
O O4 0.046409 0.847245 0.727325
O O5 0.553374 0.356340 0.050002
O O6 0.541094 0.231478 0.198179
O O7 0.474522 0.462849 0.292181
O O8 0.185677 0.253078 0.842748
O O9 0.766657 0.141853 0.476607
O O10 0.002320 0.086583 0.807670
O O11 0.000000 0.000000 0.500000
O O12 0.325902 0.593289 0.087488
O O13 0.395020 0.681023 0.445000
O O14 0.643574 0.934954 0.839351
O O15 0.000000 0.000000 0.000000
#
# Coordination Sequence:
#
# PCOD8019327 Si02
#       7
#     2   2   2   2   2   2   2
#     4  10  22  41  66  98 131 162 218 267 322 373
#     4  10  24  43  64  96 133 170 214 266 324 378
#     4  11  29  43  65  95 132 176 219 259 321 393
#     4  10  24  39  72  98 124 173 217 266 320 376
#     4  11  26  44  64  99 131 174 210 266 331 380
#     4  11  23  42  70  97 129 165 225 267 318 382
#     4  11  25  44  69  94 133 167 214 270 323 381
#
# _framework density 22.051984999999998
#
# number of rings (size 3 to 8) (size 9 to 14) (size 15 to 20)
#    0.000    1.429    1.429    2.143   10.000    4.571 
#    0.000    0.000    0.000    0.000    0.000    0.000 
#    0.000    0.000    0.000    0.000    0.000    0.000 
#
# Total GULP energy -173658.308062 kJ/mol
# GULP energy per Si atom -12404.164862 kJ/mol
# Density = 2.200179 g / cm^3
# Si number density = 22.051985 Si / 1000 Ang^3
#
#
#
# Elastic Constant Matrix: (Units=GPa)
#
#
# Indices 1 2 3 4 5 6 
#
# 1 40.0539 19.4077 44.7487 -10.3227 7.5136 -13.2064
# 2 19.4077 80.8612 45.0956 -4.7353 14.7305 -6.6045
# 3 44.7487 45.0956 105.4610 -1.0473 30.0326 6.7062
# 4 -10.3227 -4.7353 -1.0473 44.2008 -7.7280 7.1367
# 5 7.5136 14.7305 30.0326 -7.7280 31.9771 -7.2995
# 6 -13.2064 -6.6045 6.7062 7.1367 -7.2995 37.8796
#
#
#
# Elastic Compliance Matrix: (Units=1/GPa)
#
#
# Indices 1 2 3 4 5 6 
#
# 1 0.128449 0.009917 -0.080910 0.029380 0.063769 0.067589
# 2 0.009917 0.017711 -0.013933 0.003329 0.005560 0.009457
# 3 -0.080910 -0.013933 0.068388 -0.020396 -0.055030 -0.049507
# 4 0.029380 0.003329 -0.020396 0.031004 0.021102 0.012659
# 5 0.063769 0.005560 -0.055030 0.021102 0.080673 0.044515
# 6 0.067589 0.009457 -0.049507 0.012659 0.044515 0.066571
#
#
# Mechanical properties :
#
#
# Convention : Reuss Voigt Hill
#
# Bulk Modulus (GPa) = 22.37250 49.43113 35.90182
# Shear Modulus (GPa) = 8.65730 30.61976 19.63853
#
# Velocity S-wave (km/s) = 1.98353 3.73034 2.98746
# Velocity P-wave (km/s) = 3.92597 6.40455 5.31185
#
# Compressibility (1/GPa) = 0.04469772
#
# Stress axis : x y z
#
# Youngs Moduli (GPa) = 7.78517 56.46056 14.62240
#
# Poissons Ratio (x) = -0.55994 1.18310
# Poissons Ratio (y) = -0.07721 0.20374
# Poissons Ratio (z) = 0.62990 0.78668
#
# Static dielectric constant tensor:
#      x y z
#    x 3.727790 0.020890 0.177890 
#    y 0.020890 4.235720 0.056190 
#    z 0.177890 0.056190 4.175140 
# 
# 
# High freq. dielectric constant tensor:
#      x y z
#    x 1.859480 0.001190 0.009380 
#    y 0.001190 1.878290 0.002270 
#    z 0.009380 0.002270 1.881000 
# 
# From -- ./inp_files/190526.got.cif
#   From: 2010.06.25/outbox.cif.g09.slc.cpg/sg2_96_cif.got.tgz:190526.got - 2010.06.27 13:26:56.
