data_PCOD8019280
_publ_section_title
;
Structure prediction by ZEFSAII (Michael W. Deem and Ramdas Pophale) SiO2 
 PCOD8019280
Probable space group: P -1
;
_chemical_formula_sum "Si O2"
_cell_formula_units_Z 16
_cell_length_a 9.801185
_cell_length_b 9.200647
_cell_length_c 15.157612
_cell_angle_alpha 98.491051
_cell_angle_beta 128.623676
_cell_angle_gamma 115.637000
_cell_volume 775.165180
_symmetry_space_group_name_H-M "P -1"
_symmetry_group_IT_number 2
_symmetry_cell_setting 'triclinic'
loop_
_space_group_symop_operation_xyz
x,y,z
-x,-y,-z
loop_
_atom_site_type_symbol
_atom_site_label
_atom_site_fract_x
_atom_site_fract_y
_atom_site_fract_z
Si Si1 0.746696 0.722019 0.604000
Si Si2 0.930164 0.031709 0.566320
Si Si3 0.248625 0.077277 0.209627
Si Si4 0.559862 0.640921 0.116963
Si Si5 0.277326 0.258240 0.066243
Si Si6 0.722956 0.200308 0.419318
Si Si7 0.462330 0.806425 0.959630
Si Si8 0.947146 0.361486 0.339825
O O1 0.500000 0.500000 0.500000
O O2 0.804658 0.862399 0.719423
O O3 0.956191 0.722450 0.682280
O O4 0.746293 0.819065 0.523215
O O5 0.798542 0.109670 0.503514
O O6 0.161504 0.190810 0.734396
O O7 0.000000 0.000000 0.500000
O O8 0.353703 0.245597 0.192255
O O9 0.438651 0.055961 0.299730
O O10 0.002510 0.863729 0.059436
O O11 0.420194 0.492727 0.130696
O O12 0.500000 0.500000 0.000000
O O13 0.458501 0.741241 0.052800
O O14 0.331576 0.161269 0.007848
O O15 0.797666 0.215374 0.349697
O O16 0.836705 0.415636 0.520146
O O17 0.217658 0.637547 0.792491
O O18 0.500000 0.000000 0.000000
#
# Coordination Sequence:
#
# PCOD8019280 Si02
#       8
#     2   2   2   2   2   2   2   2
#     4  12  25  44  63 100 139 176 213 278 347 397
#     4  12  26  43  71 102 136 177 227 284 338 402
#     4  11  23  41  67  95 139 174 221 273 346 399
#     4  10  22  41  66  95 128 175 230 270 326 400
#     4  10  22  41  66  93 130 181 220 271 336 403
#     4  11  23  41  70  94 132 173 230 271 331 411
#     4  11  21  38  67  95 129 166 228 278 323 393
#     4  11  22  41  68  99 125 179 227 271 330 406
#
# _framework density 20.640761999999999
#
# number of rings (size 3 to 8) (size 9 to 14) (size 15 to 20)
#    0.000    1.000    3.750    4.500    3.500    0.500 
#    2.250    0.000    0.000    3.000    0.000    0.000 
#    0.000    0.000    0.000    0.000    0.000    0.000 
#
# Total GULP energy -198421.334117 kJ/mol
# GULP energy per Si atom -12401.333382 kJ/mol
# Density = 2.059378 g / cm^3
# Si number density = 20.640762 Si / 1000 Ang^3
#
#
#
# Elastic Constant Matrix: (Units=GPa)
#
#
# Indices 1 2 3 4 5 6 
#
# 1 104.5211 45.0007 33.9407 -9.9323 7.7534 0.7974
# 2 45.0007 151.0852 42.1766 -24.8057 13.4286 9.5503
# 3 33.9407 42.1766 117.5802 -19.4866 21.7385 -0.7876
# 4 -9.9323 -24.8057 -19.4866 36.6012 -1.7728 1.9208
# 5 7.7534 13.4286 21.7385 -1.7728 37.8489 -4.7176
# 6 0.7974 9.5503 -0.7876 1.9208 -4.7176 31.9072
#
#
#
# Elastic Compliance Matrix: (Units=1/GPa)
#
#
# Indices 1 2 3 4 5 6 
#
# 1 0.011529 -0.002829 -0.002326 -0.000052 0.000039 0.000510
# 2 -0.002829 0.008975 -0.001262 0.004713 -0.002063 -0.003236
# 3 -0.002326 -0.001262 0.011345 0.004309 -0.005433 -0.000347
# 4 -0.000052 0.004713 0.004309 0.032843 -0.003063 -0.003733
# 5 0.000039 -0.002063 -0.005433 -0.003063 0.030772 0.005216
# 6 0.000510 -0.003236 -0.000347 -0.003733 0.005216 0.033284
#
#
# Mechanical properties :
#
#
# Convention : Reuss Voigt Hill
#
# Bulk Modulus (GPa) = 52.58644 68.38029 60.48336
# Shear Modulus (GPa) = 33.80191 38.07601 35.93896
#
# Velocity S-wave (km/s) = 4.05115 4.29966 4.17725
# Velocity P-wave (km/s) = 6.88584 7.60592 7.25482
#
# Compressibility (1/GPa) = 0.01901631
#
# Stress axis : x y z
#
# Youngs Moduli (GPa) = 86.73886 111.41605 88.14347
#
# Poissons Ratio (x) = 0.31518 0.20498
# Poissons Ratio (y) = 0.24537 0.11125
# Poissons Ratio (z) = 0.20171 0.14063
#
# Static dielectric constant tensor:
#      x y z
#    x 3.720790 0.022120 0.137650 
#    y 0.022120 4.702000 -0.732380 
#    z 0.137650 -0.732380 4.344600 
# 
# 
# High freq. dielectric constant tensor:
#      x y z
#    x 1.796340 0.002290 0.001440 
#    y 0.002290 1.809150 -0.010440 
#    z 0.001440 -0.010440 1.819810 
# 
# From -- ./inp_files/207637.got.cif
#   From: 2010.06.25/outbox.cif.g09.slc.cpg/sg2_104_cif.got.tgz:207637.got - 2010.06.27 13:26:56.
