data_PCOD8019813
_publ_section_title
;
Structure prediction by ZEFSAII (Michael W. Deem and Ramdas Pophale) SiO2 
 PCOD8019813
Probable space group: P -1
;
_chemical_formula_sum "Si O2"
_cell_formula_units_Z 14
_cell_length_a 8.808209
_cell_length_b 8.644553
_cell_length_c 25.947893
_cell_angle_alpha 30.666333
_cell_angle_beta 48.243088
_cell_angle_gamma 68.784980
_cell_volume 625.582694
_symmetry_space_group_name_H-M "P -1"
_symmetry_group_IT_number 2
_symmetry_cell_setting 'triclinic'
loop_
_space_group_symop_operation_xyz
x,y,z
-x,-y,-z
loop_
_atom_site_type_symbol
_atom_site_label
_atom_site_fract_x
_atom_site_fract_y
_atom_site_fract_z
Si Si1 0.592715 0.848719 0.816106
Si Si2 0.011296 0.867869 0.905381
Si Si3 0.410286 0.148589 0.586653
Si Si4 0.516705 0.665518 0.104944
Si Si5 0.285585 0.194448 0.387173
Si Si6 0.460050 0.530266 0.362728
Si Si7 0.896668 0.782056 0.847687
O O1 0.609428 0.624384 0.830022
O O2 0.806756 0.957287 0.777252
O O3 0.647724 0.223788 0.672290
O O4 0.329692 0.630594 0.968275
O O5 0.978883 0.014604 0.815622
O O6 0.249373 0.189967 0.786797
O O7 0.000000 0.500000 0.000000
O O8 0.792810 0.779174 0.017632
O O9 0.500000 0.500000 0.500000
O O10 0.386723 0.232523 0.508655
O O11 0.609594 0.051957 0.578386
O O12 0.138123 0.811263 0.762301
O O13 0.394581 0.523877 0.228244
O O14 0.500000 0.000000 0.000000
O O15 0.358650 0.326122 0.390894
O O16 0.000000 0.000000 0.500000
#
# Coordination Sequence:
#
# PCOD8019813 Si02
#       7
#     2   2   2   2   2   2   2
#     4  10  24  44  72 108 136 182 234 292 350 414
#     4  11  21  44  73 105 139 174 238 292 348 415
#     4  12  26  47  75 101 139 192 234 285 354 420
#     4  11  26  43  74 104 141 183 233 291 350 410
#     4  12  32  49  65 105 150 185 235 293 349 416
#     4  12  26  44  75 100 144 189 231 287 351 415
#     4  10  22  41  74 102 142 172 242 284 348 414
#
# _framework density 22.379135000000002
#
# number of rings (size 3 to 8) (size 9 to 14) (size 15 to 20)
#    0.000    0.857    4.286    2.143   12.000    2.286 
#    0.000    0.000    0.000    0.000    0.000    0.000 
#    0.000    0.000    0.000    0.000    0.000    0.000 
#
# Total GULP energy -173552.646441 kJ/mol
# GULP energy per Si atom -12396.617603 kJ/mol
# Density = 2.232820 g / cm^3
# Si number density = 22.379135 Si / 1000 Ang^3
#
#
#
# Elastic Constant Matrix: (Units=GPa)
#
#
# Indices 1 2 3 4 5 6 
#
# 1 159.1473 54.1460 49.5795 8.0112 -9.2406 6.0076
# 2 54.1460 114.5374 44.8623 2.5600 -5.1366 -4.1572
# 3 49.5795 44.8623 83.8964 22.1196 -0.1060 -4.4073
# 4 8.0112 2.5600 22.1196 41.8182 -2.8721 1.2164
# 5 -9.2406 -5.1366 -0.1060 -2.8721 52.7194 0.1001
# 6 6.0076 -4.1572 -4.4073 1.2164 0.1001 54.1530
#
#
#
# Elastic Compliance Matrix: (Units=1/GPa)
#
#
# Indices 1 2 3 4 5 6 
#
# 1 0.008441 -0.002457 -0.003948 0.000752 0.001276 -0.001466
# 2 -0.002457 0.012145 -0.005746 0.002808 0.000893 0.000672
# 3 -0.003948 -0.005746 0.019957 -0.009621 -0.001739 0.001840
# 4 0.000752 0.002808 -0.009621 0.028858 0.001961 -0.001303
# 5 0.001276 0.000893 -0.001739 0.001961 0.019383 -0.000294
# 6 -0.001466 0.000672 0.001840 -0.001303 -0.000294 0.018860
#
#
# Mechanical properties :
#
#
# Convention : Reuss Voigt Hill
#
# Bulk Modulus (GPa) = 61.57814 72.75076 67.16445
# Shear Modulus (GPa) = 36.40101 43.67100 40.03600
#
# Velocity S-wave (km/s) = 4.03744 4.42228 4.23423
# Velocity P-wave (km/s) = 7.02212 7.65861 7.34726
#
# Compressibility (1/GPa) = 0.01623953
#
# Stress axis : x y z
#
# Youngs Moduli (GPa) = 118.47150 82.34160 50.10893
#
# Poissons Ratio (x) = 0.20228 0.19784
# Poissons Ratio (y) = 0.29104 0.28794
# Poissons Ratio (z) = 0.46775 0.47316
#
# Static dielectric constant tensor:
#      x y z
#    x 4.601480 -0.038970 0.036670 
#    y -0.038970 3.895230 0.238110 
#    z 0.036670 0.238110 4.131580 
# 
# 
# High freq. dielectric constant tensor:
#      x y z
#    x 1.911320 -0.000180 0.004410 
#    y -0.000180 1.864090 0.015050 
#    z 0.004410 0.015050 1.878040 
# 
# From -- ./inp_files/616587.got.cif
#   From: 2010.06.25/outbox.cif.g09.slc.cpg/sg2_309_cif.got.tgz:616587.got - 2010.06.27 13:26:56.
