data_PCOD8019080
_publ_section_title
;
Structure prediction by ZEFSAII (Michael W. Deem and Ramdas Pophale) SiO2 
 PCOD8019080
Probable space group: P -1
;
_chemical_formula_sum "Si O2"
_cell_formula_units_Z 16
_cell_length_a 24.546193
_cell_length_b 5.085698
_cell_length_c 5.595983
_cell_angle_alpha 92.650825
_cell_angle_beta 123.868331
_cell_angle_gamma 92.306513
_cell_volume 577.579462
_symmetry_space_group_name_H-M "P -1"
_symmetry_group_IT_number 2
_symmetry_cell_setting 'triclinic'
loop_
_space_group_symop_operation_xyz
x,y,z
-x,-y,-z
loop_
_atom_site_type_symbol
_atom_site_label
_atom_site_fract_x
_atom_site_fract_y
_atom_site_fract_z
Si Si1 0.371433 0.979012 0.069798
Si Si2 0.835533 0.100581 0.223061
Si Si3 0.278645 0.245870 0.156888
Si Si4 0.507173 0.280300 0.705700
Si Si5 0.257220 0.608189 0.685651
Si Si6 0.077302 0.001058 0.173452
Si Si7 0.137480 0.506780 0.090025
Si Si8 0.605858 0.615049 0.257390
O O1 0.449665 0.946856 0.318573
O O2 0.329911 0.024756 0.209370
O O3 0.333235 0.725520 0.828171
O O4 0.371311 0.232601 0.917195
O O5 0.783771 0.156507 0.306168
O O6 0.892253 0.941559 0.483436
O O7 0.864184 0.374200 0.178228
O O8 0.791410 0.901304 0.923960
O O9 0.322294 0.439762 0.454456
O O10 0.257011 0.383970 0.871871
O O11 0.500000 0.500000 0.500000
O O12 0.435824 0.212436 0.649858
O O13 0.557164 0.363393 0.052727
O O14 0.215695 0.503421 0.345970
O O15 0.102596 0.212148 0.037931
O O16 0.097336 0.706573 0.155848
O O17 0.000000 0.000000 0.000000
#
# Coordination Sequence:
#
# PCOD8019080 Si02
#       8
#     2   2   2   2   2   2   2   2
#     4  11  23  40  62  92 123 169 218 280 350 412
#     4  10  24  42  68 100 138 184 229 289 348 414
#     4  11  23  42  66  94 131 171 224 289 344 415
#     4  11  25  44  60  87 127 169 216 282 350 419
#     4  10  22  41  64  94 135 171 224 283 346 415
#     4  11  25  45  70 107 147 187 239 291 345 419
#     4  11  24  43  72 102 142 192 235 290 351 419
#     4  11  24  39  64  90 121 169 224 275 347 428
#
# _framework density 27.701816000000001
#
# number of rings (size 3 to 8) (size 9 to 14) (size 15 to 20)
#    0.000    1.250    1.250    3.750    1.750    9.000 
#    0.000    0.000    0.000    0.000    0.000    0.000 
#    0.000    0.000    0.000    0.000    0.000    0.000 
#
# Total GULP energy -198257.927625 kJ/mol
# GULP energy per Si atom -12391.120477 kJ/mol
# Density = 2.763877 g / cm^3
# Si number density = 27.701816 Si / 1000 Ang^3
#
#
#
# Elastic Constant Matrix: (Units=GPa)
#
#
# Indices 1 2 3 4 5 6 
#
# 1 122.1099 2.6292 44.8296 -1.3927 53.0805 25.0369
# 2 2.6292 82.4575 24.8168 -12.8207 13.6122 26.0489
# 3 44.8296 24.8168 147.1776 -12.9392 40.4650 15.6306
# 4 -1.3927 -12.8207 -12.9392 41.7795 7.6623 -1.4023
# 5 53.0805 13.6122 40.4650 7.6623 53.3534 -0.8533
# 6 25.0369 26.0489 15.6306 -1.4023 -0.8533 46.0226
#
#
#
# Elastic Compliance Matrix: (Units=1/GPa)
#
#
# Indices 1 2 3 4 5 6 
#
# 1 0.025984 0.012591 0.002248 0.010667 -0.032657 -0.022307
# 2 0.012591 0.023015 0.001275 0.011097 -0.021285 -0.020366
# 3 0.002248 0.001275 0.009953 0.005380 -0.010969 -0.005364
# 4 0.010667 0.011097 0.005380 0.033039 -0.022482 -0.013322
# 5 -0.032657 -0.021285 -0.010969 -0.022482 0.068758 0.034129
# 6 -0.022307 -0.020366 -0.005364 -0.013322 0.034129 0.047440
#
#
# Mechanical properties :
#
#
# Convention : Reuss Voigt Hill
#
# Bulk Modulus (GPa) = 10.96720 55.14400 33.05560
# Shear Modulus (GPa) = 24.23007 46.86238 35.54622
#
# Velocity S-wave (km/s) = 2.96070 4.11746 3.58603
# Velocity P-wave (km/s) = 3.95667 6.52335 5.39487
#
# Compressibility (1/GPa) = 0.09118097
#
# Stress axis : x y z
#
# Youngs Moduli (GPa) = 38.48471 43.44907 100.46768
#
# Poissons Ratio (x) = -0.54709 -0.22583
# Poissons Ratio (y) = -0.48458 -0.12806
# Poissons Ratio (z) = -0.08651 -0.05538
#
# Static dielectric constant tensor:
#      x y z
#    x 5.487300 -0.273100 0.264790 
#    y -0.273100 5.029800 0.468490 
#    z 0.264790 0.468490 5.500030 
# 
# 
# High freq. dielectric constant tensor:
#      x y z
#    x 2.141280 -0.021060 0.011880 
#    y -0.021060 2.113060 0.016380 
#    z 0.011880 0.016380 2.124960 
# 
# From -- ./inp_files/10587.got.cif
#   From: 2010.06.25/outbox.cif.g09.slc.cpg/sg2_6_cif.got.tgz:10587.got - 2010.06.27 13:26:56.
