data_PCOD8019168
_publ_section_title
;
Structure prediction by ZEFSAII (Michael W. Deem and Ramdas Pophale) SiO2 
 PCOD8019168
Probable space group: P -1
;
_chemical_formula_sum "Si O2"
_cell_formula_units_Z 16
_cell_length_a 17.452580
_cell_length_b 7.295160
_cell_length_c 20.269302
_cell_angle_alpha 118.245011
_cell_angle_beta 160.216022
_cell_angle_gamma 60.249000
_cell_volume 758.183951
_symmetry_space_group_name_H-M "P -1"
_symmetry_group_IT_number 2
_symmetry_cell_setting 'triclinic'
loop_
_space_group_symop_operation_xyz
x,y,z
-x,-y,-z
loop_
_atom_site_type_symbol
_atom_site_label
_atom_site_fract_x
_atom_site_fract_y
_atom_site_fract_z
Si Si1 0.541480 0.297378 0.761293
Si Si2 0.691939 0.602357 0.708873
Si Si3 0.193479 0.419047 0.052542
Si Si4 0.895213 0.029913 0.090339
Si Si5 0.413760 0.005197 0.504394
Si Si6 0.783683 0.398383 0.162449
Si Si7 0.417393 0.774706 0.899771
Si Si8 0.854566 0.460918 0.438921
O O1 0.642071 0.502584 0.854675
O O2 0.410112 0.223010 0.578303
O O3 0.361259 0.355488 0.685728
O O4 0.755893 0.123967 0.929090
O O5 0.500000 0.500000 0.500000
O O6 0.719491 0.536041 0.796132
O O7 0.595242 0.849517 0.668849
O O8 0.933107 0.543707 0.855705
O O9 0.212231 0.172000 0.008564
O O10 0.893207 0.209641 0.173155
O O11 0.163357 0.942511 0.280805
O O12 0.500000 0.000000 0.500000
O O13 0.681653 0.271807 0.116972
O O14 0.968506 0.545914 0.358847
O O15 0.610345 0.568161 0.009515
O O16 0.237168 0.757872 0.690755
O O17 0.500000 0.000000 0.000000
O O18 0.000000 0.500000 0.500000
#
# Coordination Sequence:
#
# PCOD8019168 Si02
#       8
#     2   2   2   2   2   2   2   2
#     4  12  25  44  66 101 134 174 231 276 330 407
#     4  11  22  44  63  95 136 174 223 277 329 396
#     4  11  26  40  67  96 133 176 224 276 334 388
#     4  12  24  43  66  96 132 176 217 278 335 390
#     4  12  25  42  69  96 135 184 224 273 338 394
#     4  10  22  41  65  93 129 167 212 265 333 394
#     4  10  22  41  67  95 128 166 212 269 328 396
#     4  10  22  44  68  96 134 172 214 276 334 395
#
# _framework density 21.103057
#
# number of rings (size 3 to 8) (size 9 to 14) (size 15 to 20)
#    0.000    1.000    5.000    1.500    3.500    1.500 
#    0.000    3.750    0.000    0.000    0.000    0.000 
#    0.000    0.000    0.000    0.000    0.000    0.000 
#
# Total GULP energy -198212.579022 kJ/mol
# GULP energy per Si atom -12388.286189 kJ/mol
# Density = 2.105503 g / cm^3
# Si number density = 21.103057 Si / 1000 Ang^3
#
#
#
# Elastic Constant Matrix: (Units=GPa)
#
#
# Indices 1 2 3 4 5 6 
#
# 1 95.0228 43.2449 52.8507 4.8244 4.2718 -12.1629
# 2 43.2449 107.4972 45.8015 22.6358 5.3793 4.2109
# 3 52.8507 45.8015 130.0275 19.2741 -7.1790 1.7204
# 4 4.8244 22.6358 19.2741 44.6743 -10.4715 -4.9585
# 5 4.2718 5.3793 -7.1790 -10.4715 32.0850 5.1547
# 6 -12.1629 4.2109 1.7204 -4.9585 5.1547 30.3749
#
#
#
# Elastic Compliance Matrix: (Units=1/GPa)
#
#
# Indices 1 2 3 4 5 6 
#
# 1 0.017500 -0.005484 -0.006035 0.003815 -0.003001 0.009242
# 2 -0.005484 0.014163 -0.001840 -0.007157 -0.003652 -0.004604
# 3 -0.006035 -0.001840 0.011473 -0.003018 0.003315 -0.003867
# 4 0.003815 -0.007157 -0.003018 0.029614 0.008710 0.006047
# 5 -0.003001 -0.003652 0.003315 0.008710 0.036677 -0.005685
# 6 0.009242 -0.004604 -0.003867 0.006047 -0.005685 0.039432
#
#
# Mechanical properties :
#
#
# Convention : Reuss Voigt Hill
#
# Bulk Modulus (GPa) = 60.90386 68.48241 64.69313
# Shear Modulus (GPa) = 27.61700 34.13687 30.87693
#
# Velocity S-wave (km/s) = 3.62148 4.02634 3.82926
# Velocity P-wave (km/s) = 6.81247 7.35779 7.09037
#
# Compressibility (1/GPa) = 0.01641932
#
# Stress axis : x y z
#
# Youngs Moduli (GPa) = 57.14224 70.60801 87.16026
#
# Poissons Ratio (x) = 0.38722 0.52599
# Poissons Ratio (y) = 0.31337 0.16033
# Poissons Ratio (z) = 0.34484 0.12988
#
# Static dielectric constant tensor:
#      x y z
#    x 3.782130 -0.277370 -0.029460 
#    y -0.277370 3.694890 0.223480 
#    z -0.029460 0.223480 4.176740 
# 
# 
# High freq. dielectric constant tensor:
#      x y z
#    x 1.822570 -0.020000 -0.008250 
#    y -0.020000 1.811690 0.010500 
#    z -0.008250 0.010500 1.853950 
# 
# From -- ./inp_files/599041.got.cif
#   From: 2010.06.25/outbox.cif.g09.slc.cpg/sg2_300_cif.got.tgz:599041.got - 2010.06.27 13:26:56.
