data_PCOD8019480
_publ_section_title
;
Structure prediction by ZEFSAII (Michael W. Deem and Ramdas Pophale) SiO2 
 PCOD8019480
Probable space group: P -1
;
_chemical_formula_sum "Si O2"
_cell_formula_units_Z 12
_cell_length_a 8.858844
_cell_length_b 17.800256
_cell_length_c 6.496823
_cell_angle_alpha 53.412057
_cell_angle_beta 103.793095
_cell_angle_gamma 137.184891
_cell_volume 520.641950
_symmetry_space_group_name_H-M "P -1"
_symmetry_group_IT_number 2
_symmetry_cell_setting 'triclinic'
loop_
_space_group_symop_operation_xyz
x,y,z
-x,-y,-z
loop_
_atom_site_type_symbol
_atom_site_label
_atom_site_fract_x
_atom_site_fract_y
_atom_site_fract_z
Si Si1 0.809782 0.137333 0.088284
Si Si2 0.382735 0.822838 0.371735
Si Si3 0.112523 0.655015 0.945517
Si Si4 0.812098 0.839800 0.784985
Si Si5 0.434510 0.576775 0.806641
Si Si6 0.462785 0.713253 0.233471
O O1 0.810285 0.209867 0.157907
O O2 0.062066 0.200683 0.058071
O O3 0.597101 0.966783 0.336544
O O4 0.776046 0.170804 0.801631
O O5 0.217301 0.691524 0.691230
O O6 0.497384 0.807478 0.264686
O O7 0.217083 0.619777 0.181141
O O8 0.830605 0.519163 0.051035
O O9 0.609098 0.727869 0.733479
O O10 0.691060 0.823612 0.979131
O O11 0.000000 0.000000 0.500000
O O12 0.449721 0.606037 0.518091
O O13 0.500000 0.500000 0.000000
#
# Coordination Sequence:
#
# PCOD8019480 Si02
#       6
#     2   2   2   2   2   2
#     4  10  22  41  68 102 138 182 235 285 343 409
#     4  10  23  43  71 103 136 189 231 284 346 413
#     4  11  23  46  70  99 141 184 235 285 341 418
#     4  12  27  46  72 104 142 183 233 291 348 412
#     4  12  27  46  70 108 140 186 230 287 353 408
#     4  11  26  45  72 103 142 181 237 283 349 412
#
# _framework density 23.048469999999998
#
# number of rings (size 3 to 8) (size 9 to 14) (size 15 to 20)
#    0.000    1.000    1.667    4.000    2.333   11.333 
#    0.000    0.000    0.000    0.000    0.000    0.000 
#    0.000    0.000    0.000    0.000    0.000    0.000 
#
# Total GULP energy -148843.050807 kJ/mol
# GULP energy per Si atom -12403.587567 kJ/mol
# Density = 2.299601 g / cm^3
# Si number density = 23.048470 Si / 1000 Ang^3
#
#
#
# Elastic Constant Matrix: (Units=GPa)
#
#
# Indices 1 2 3 4 5 6 
#
# 1 140.7547 49.2714 82.6791 12.5074 -2.2499 20.3760
# 2 49.2714 130.8618 59.0732 -4.6775 -10.3852 10.3827
# 3 82.6791 59.0732 176.8416 1.1004 -8.1220 13.3699
# 4 12.5074 -4.6775 1.1004 30.1197 1.3887 0.5211
# 5 -2.2499 -10.3852 -8.1220 1.3887 43.6881 4.6978
# 6 20.3760 10.3827 13.3699 0.5211 4.6978 41.7936
#
#
#
# Elastic Compliance Matrix: (Units=1/GPa)
#
#
# Indices 1 2 3 4 5 6 
#
# 1 0.011329 -0.002254 -0.004258 -0.004828 -0.000212 -0.003517
# 2 -0.002254 0.009723 -0.002058 0.002452 0.001831 -0.000895
# 3 -0.004258 -0.002058 0.008379 0.001107 0.000836 -0.000201
# 4 -0.004828 0.002452 0.001107 0.035561 -0.000701 0.001026
# 5 -0.000212 0.001831 0.000836 -0.000701 0.023845 -0.003290
# 6 -0.003517 -0.000895 -0.000201 0.001026 -0.003290 0.026286
#
#
# Mechanical properties :
#
#
# Convention : Reuss Voigt Hill
#
# Bulk Modulus (GPa) = 81.34552 92.27840 86.81196
# Shear Modulus (GPa) = 36.66754 40.28258 38.47506
#
# Velocity S-wave (km/s) = 3.99292 4.18513 4.09015
# Velocity P-wave (km/s) = 7.52514 7.96726 7.74936
#
# Compressibility (1/GPa) = 0.01229324
#
# Stress axis : x y z
#
# Youngs Moduli (GPa) = 88.26589 102.84746 119.33957
#
# Poissons Ratio (x) = 0.23182 0.50811
# Poissons Ratio (y) = 0.19896 0.24556
# Poissons Ratio (z) = 0.37581 0.21162
#
# Static dielectric constant tensor:
#      x y z
#    x 4.351630 0.197540 0.260150 
#    y 0.197540 4.220000 0.153710 
#    z 0.260150 0.153710 4.156610 
# 
# 
# High freq. dielectric constant tensor:
#      x y z
#    x 1.924600 0.009740 0.013680 
#    y 0.009740 1.918200 0.006440 
#    z 0.013680 0.006440 1.910070 
# 
# From -- ./inp_files/26549.got.cif
#   From: 2010.06.25/outbox.cif.g09.slc.cpg/sg2_14_cif.got.tgz:26549.got - 2010.06.27 13:26:56.
