data_PCOD8019918
_publ_section_title
;
Structure prediction by ZEFSAII (Michael W. Deem and Ramdas Pophale) SiO2 
 PCOD8019918
Probable space group: P -1
;
_chemical_formula_sum "Si O2"
_cell_formula_units_Z 16
_cell_length_a 16.358414
_cell_length_b 8.766088
_cell_length_c 15.035889
_cell_angle_alpha 84.410281
_cell_angle_beta 27.976842
_cell_angle_gamma 65.873660
_cell_volume 727.442140
_symmetry_space_group_name_H-M "P -1"
_symmetry_group_IT_number 2
_symmetry_cell_setting 'triclinic'
loop_
_space_group_symop_operation_xyz
x,y,z
-x,-y,-z
loop_
_atom_site_type_symbol
_atom_site_label
_atom_site_fract_x
_atom_site_fract_y
_atom_site_fract_z
Si Si1 0.109396 0.820444 0.977191
Si Si2 0.471111 0.631038 0.389175
Si Si3 0.587190 0.688311 0.090410
Si Si4 0.051819 0.517430 0.549185
Si Si5 0.473051 0.072152 0.249463
Si Si6 0.636014 0.977085 0.455494
Si Si7 0.127713 0.833990 0.464819
Si Si8 0.043928 0.061378 0.190156
O O1 0.360935 0.598131 0.711164
O O2 0.920074 0.797918 0.172826
O O3 0.000000 0.000000 0.000000
O O4 0.156261 0.871086 0.024852
O O5 0.616014 0.580460 0.161542
O O6 0.206238 0.718117 0.622454
O O7 0.446138 0.798345 0.461945
O O8 0.416416 0.689920 0.189211
O O9 0.437554 0.935081 0.239502
O O10 0.844616 0.566786 0.806123
O O11 0.000000 0.500000 0.500000
O O12 0.311917 0.298181 0.343505
O O13 0.061640 0.694798 0.535746
O O14 0.406927 0.104795 0.414694
O O15 0.758741 0.930570 0.979411
O O16 0.500000 0.000000 0.500000
O O17 0.030652 0.969289 0.642352
O O18 0.000000 0.000000 0.500000
#
# Coordination Sequence:
#
# PCOD8019918 Si02
#       8
#     2   2   2   2   2   2   2   2
#     4  11  23  41  65  99 136 176 227 283 338 416
#     4   9  22  42  66  96 134 181 224 279 346 395
#     4  10  23  45  66  94 137 175 226 283 337 403
#     4  12  27  43  68 103 133 183 228 283 351 407
#     4  11  23  44  69  96 137 177 228 285 340 412
#     4  10  22  42  63 100 133 179 227 282 340 407
#     4  11  25  45  68  98 136 182 226 283 343 408
#     4  10  23  41  67  94 132 174 229 279 337 405
#
# _framework density 21.994875
#
# number of rings (size 3 to 8) (size 9 to 14) (size 15 to 20)
#    0.000    1.500    1.250    3.000    5.250    5.000 
#    2.250    0.000    0.000    0.000    0.000    0.000 
#    0.000    0.000    0.000    0.000    0.000    0.000 
#
# Total GULP energy -198361.435101 kJ/mol
# GULP energy per Si atom -12397.589694 kJ/mol
# Density = 2.194481 g / cm^3
# Si number density = 21.994875 Si / 1000 Ang^3
#
#
#
# Elastic Constant Matrix: (Units=GPa)
#
#
# Indices 1 2 3 4 5 6 
#
# 1 127.4767 33.6856 39.8406 6.9403 -14.8820 0.5099
# 2 33.6856 92.4866 45.3591 11.4893 -18.0763 -8.9104
# 3 39.8406 45.3591 142.9272 -2.0291 -24.5052 -0.0527
# 4 6.9403 11.4893 -2.0291 40.7941 4.0607 -8.9251
# 5 -14.8820 -18.0763 -24.5052 4.0607 36.5675 -1.6962
# 6 0.5099 -8.9104 -0.0527 -8.9251 -1.6962 29.8314
#
#
#
# Elastic Compliance Matrix: (Units=1/GPa)
#
#
# Indices 1 2 3 4 5 6 
#
# 1 0.009201 -0.002157 -0.001608 -0.001458 0.001709 -0.001144
# 2 -0.002157 0.015025 -0.003384 -0.003711 0.004864 0.003685
# 3 -0.001608 -0.003384 0.009163 0.001233 0.003658 -0.000390
# 4 -0.001458 -0.003711 0.001233 0.027834 -0.004368 0.006998
# 5 0.001709 0.004864 0.003658 -0.004368 0.033478 0.002027
# 6 -0.001144 0.003685 -0.000390 0.006998 0.002027 0.036850
#
#
# Mechanical properties :
#
#
# Convention : Reuss Voigt Hill
#
# Bulk Modulus (GPa) = 52.38496 66.74013 59.56255
# Shear Modulus (GPa) = 32.84882 37.70560 35.27721
#
# Velocity S-wave (km/s) = 3.86874 4.14489 4.00920
# Velocity P-wave (km/s) = 6.62003 7.30179 6.96926
#
# Compressibility (1/GPa) = 0.01908945
#
# Stress axis : x y z
#
# Youngs Moduli (GPa) = 108.68697 66.55760 109.12979
#
# Poissons Ratio (x) = 0.14359 0.17549
# Poissons Ratio (y) = 0.23448 0.36931
# Poissons Ratio (z) = 0.17478 0.22524
#
# Static dielectric constant tensor:
#      x y z
#    x 4.105860 0.050910 0.012680 
#    y 0.050910 3.831550 -0.225390 
#    z 0.012680 -0.225390 4.260760 
# 
# 
# High freq. dielectric constant tensor:
#      x y z
#    x 1.875770 -0.002190 -0.003310 
#    y -0.002190 1.849240 -0.010800 
#    z -0.003310 -0.010800 1.879750 
# 
# From -- ./inp_files/315289.got.cif
#   From: 2010.06.25/outbox.cif.g09.slc.cpg/sg2_158_cif.got.tgz:315289.got - 2010.06.27 13:26:56.
