data_PCOD8019299
_publ_section_title
;
Structure prediction by ZEFSAII (Michael W. Deem and Ramdas Pophale) SiO2 
 PCOD8019299
Probable space group: P -1
;
_chemical_formula_sum "Si O2"
_cell_formula_units_Z 16
_cell_length_a 15.040322
_cell_length_b 30.444971
_cell_length_c 8.375252
_cell_angle_alpha 39.759173
_cell_angle_beta 49.746109
_cell_angle_gamma 19.359554
_cell_volume 754.371183
_symmetry_space_group_name_H-M "P -1"
_symmetry_group_IT_number 2
_symmetry_cell_setting 'triclinic'
loop_
_space_group_symop_operation_xyz
x,y,z
-x,-y,-z
loop_
_atom_site_type_symbol
_atom_site_label
_atom_site_fract_x
_atom_site_fract_y
_atom_site_fract_z
Si Si1 0.409253 0.298657 0.505330
Si Si2 0.753128 0.123494 0.309430
Si Si3 0.267788 0.181346 0.318277
Si Si4 0.165509 0.176158 0.951915
Si Si5 0.264691 0.997428 0.542981
Si Si6 0.152830 0.684431 0.384631
Si Si7 0.944259 0.936918 0.064689
Si Si8 0.024299 0.381556 0.735872
O O1 0.475714 0.290089 0.273103
O O2 0.158637 0.380362 0.526834
O O3 0.305795 0.420921 0.385869
O O4 0.661700 0.125152 0.794730
O O5 0.730479 0.058130 0.453655
O O6 0.000000 0.000000 0.500000
O O7 0.788725 0.155821 0.027146
O O8 0.412547 0.156425 0.345034
O O9 0.976307 0.306396 0.380665
O O10 0.500000 0.000000 0.500000
O O11 0.197437 0.263006 0.018666
O O12 0.045881 0.314226 0.760055
O O13 0.950071 0.270126 0.801945
O O14 0.500000 0.000000 0.000000
O O15 0.122303 0.144930 0.232485
O O16 0.078690 0.064673 0.715298
O O17 0.500000 0.500000 0.500000
O O18 0.003444 0.834317 0.195534
#
# Coordination Sequence:
#
# PCOD8019299 Si02
#       8
#     2   2   2   2   2   2   2   2
#     4  10  22  41  66  94 140 182 228 285 350 420
#     4  10  23  42  65  95 135 181 230 281 346 422
#     4  12  21  44  71 102 139 185 238 294 357 429
#     4  12  22  42  75 104 137 184 240 289 360 430
#     4  12  22  41  77 100 125 189 249 285 343 436
#     4  12  27  45  70 108 147 180 232 310 365 418
#     4  11  22  46  67  95 140 190 231 283 368 425
#     4  11  22  40  66 104 137 175 236 300 339 411
#
# _framework density 21.209717999999999
#
# number of rings (size 3 to 8) (size 9 to 14) (size 15 to 20)
#    0.000    0.750    5.000    3.375    1.750    0.000 
#    6.750    1.875    0.000    0.000    0.000    0.000 
#    0.000    0.000    0.000    0.000    0.000    0.000 
#
# Total GULP energy -198306.713733 kJ/mol
# GULP energy per Si atom -12394.169608 kJ/mol
# Density = 2.116144 g / cm^3
# Si number density = 21.209718 Si / 1000 Ang^3
#
#
#
# Elastic Constant Matrix: (Units=GPa)
#
#
# Indices 1 2 3 4 5 6 
#
# 1 122.0561 44.9480 24.9194 -11.5862 -1.3287 13.3027
# 2 44.9480 157.3290 59.0163 13.4337 -4.4567 11.6146
# 3 24.9194 59.0163 81.8574 3.8380 -2.8992 6.8120
# 4 -11.5862 13.4337 3.8380 43.8514 -1.3957 -9.4914
# 5 -1.3287 -4.4567 -2.8992 -1.3957 37.0728 -5.8075
# 6 13.3027 11.6146 6.8120 -9.4914 -5.8075 39.1246
#
#
#
# Elastic Compliance Matrix: (Units=1/GPa)
#
#
# Indices 1 2 3 4 5 6 
#
# 1 0.009836 -0.002507 -0.001200 0.003105 -0.000187 -0.001665
# 2 -0.002507 0.009739 -0.005934 -0.003516 0.000198 -0.001829
# 3 -0.001200 -0.005934 0.016944 -0.000129 0.000447 -0.000745
# 4 0.003105 -0.003516 -0.000129 0.026200 0.001702 0.006619
# 5 -0.000187 0.000198 0.000447 0.001702 0.027789 0.004465
# 6 -0.001665 -0.001829 -0.000745 0.006619 0.004465 0.029067
#
#
# Mechanical properties :
#
#
# Convention : Reuss Voigt Hill
#
# Bulk Modulus (GPa) = 58.02007 68.77888 63.39948
# Shear Modulus (GPa) = 34.57713 39.50035 37.03874
#
# Velocity S-wave (km/s) = 4.04201 4.32020 4.18342
# Velocity P-wave (km/s) = 7.01417 7.57522 7.30009
#
# Compressibility (1/GPa) = 0.01723542
#
# Stress axis : x y z
#
# Youngs Moduli (GPa) = 101.67197 102.67600 59.01753
#
# Poissons Ratio (x) = 0.25744 0.07083
# Poissons Ratio (y) = 0.25492 0.35023
# Poissons Ratio (z) = 0.12202 0.60932
#
# Static dielectric constant tensor:
#      x y z
#    x 4.183240 0.296410 -0.441210 
#    y 0.296410 4.779860 0.152250 
#    z -0.441210 0.152250 4.217530 
# 
# 
# High freq. dielectric constant tensor:
#      x y z
#    x 1.835030 0.007900 -0.012290 
#    y 0.007900 1.836870 0.022650 
#    z -0.012290 0.022650 1.829770 
# 
# From -- ./inp_files/321027.got.cif
#   From: 2010.06.25/outbox.cif.g09.slc.cpg/sg2_161_cif.got.tgz:321027.got - 2010.06.27 13:26:56.
