data_PCOD8019406
_publ_section_title
;
Structure prediction by ZEFSAII (Michael W. Deem and Ramdas Pophale) SiO2 
 PCOD8019406
Probable space group: P -1
;
_chemical_formula_sum "Si O2"
_cell_formula_units_Z 12
_cell_length_a 8.816239
_cell_length_b 8.475157
_cell_length_c 11.486448
_cell_angle_alpha 66.132078
_cell_angle_beta 111.189784
_cell_angle_gamma 135.192785
_cell_volume 549.411962
_symmetry_space_group_name_H-M "P -1"
_symmetry_group_IT_number 2
_symmetry_cell_setting 'triclinic'
loop_
_space_group_symop_operation_xyz
x,y,z
-x,-y,-z
loop_
_atom_site_type_symbol
_atom_site_label
_atom_site_fract_x
_atom_site_fract_y
_atom_site_fract_z
Si Si1 0.886473 0.641790 0.233908
Si Si2 0.670816 0.147217 0.347662
Si Si3 0.262227 0.032956 0.373132
Si Si4 0.443108 0.497264 0.194400
Si Si5 0.030671 0.329276 0.010948
Si Si6 0.631066 0.978343 0.134844
O O1 0.838442 0.418991 0.340091
O O2 0.656463 0.573305 0.168753
O O3 0.014551 0.713380 0.126460
O O4 0.028691 0.848995 0.303125
O O5 0.426761 0.025150 0.351353
O O6 0.749467 0.035166 0.475345
O O7 0.676954 0.119136 0.220595
O O8 0.339910 0.286342 0.317976
O O9 0.270289 0.423531 0.069458
O O10 0.503372 0.715411 0.214198
O O11 0.857904 0.087938 0.102549
O O12 0.000000 0.500000 0.000000
O O13 0.500000 0.000000 0.000000
#
# Coordination Sequence:
#
# PCOD8019406 Si02
#       6
#     2   2   2   2   2   2
#     4  11  22  43  67  92 128 166 212 262 314 379
#     4  10  22  41  67  95 126 165 219 258 308 380
#     4  10  23  42  65  93 126 173 210 258 317 374
#     4  11  25  41  61  97 132 163 212 260 321 372
#     4  12  23  40  65  96 124 165 211 261 320 370
#     4  12  23  40  65  96 127 165 210 263 316 372
#
# _framework density 21.841533999999999
#
# number of rings (size 3 to 8) (size 9 to 14) (size 15 to 20)
#    0.000    1.000    3.333    3.000    0.000    6.000 
#    0.000    3.333    0.000    0.000    0.000    0.000 
#    0.000    0.000    0.000    0.000    0.000    0.000 
#
# Total GULP energy -148823.625681 kJ/mol
# GULP energy per Si atom -12401.968807 kJ/mol
# Density = 2.179182 g / cm^3
# Si number density = 21.841534 Si / 1000 Ang^3
#
#
#
# Elastic Constant Matrix: (Units=GPa)
#
#
# Indices 1 2 3 4 5 6 
#
# 1 66.6567 33.9334 47.7505 -0.9846 6.4517 8.0751
# 2 33.9334 148.1641 54.1081 -13.7137 14.0260 -1.4126
# 3 47.7505 54.1081 126.8695 -3.3370 5.7954 0.9061
# 4 -0.9846 -13.7137 -3.3370 36.7783 -4.1490 8.6701
# 5 6.4517 14.0260 5.7954 -4.1490 32.1985 -5.4044
# 6 8.0751 -1.4126 0.9061 8.6701 -5.4044 36.2178
#
#
#
# Elastic Compliance Matrix: (Units=1/GPa)
#
#
# Indices 1 2 3 4 5 6 
#
# 1 0.022274 -0.002205 -0.007263 0.000025 -0.003088 -0.005337
# 2 -0.002205 0.008732 -0.002706 0.002693 -0.002549 -0.000125
# 3 -0.007263 -0.002706 0.011717 -0.000395 0.000713 0.001422
# 4 0.000025 0.002693 -0.000395 0.029948 0.001607 -0.006820
# 5 -0.003088 -0.002549 0.000713 0.001607 0.033742 0.005221
# 6 -0.005337 -0.000125 0.001422 -0.006820 0.005221 0.031172
#
#
# Mechanical properties :
#
#
# Convention : Reuss Voigt Hill
#
# Bulk Modulus (GPa) = 54.42447 68.14158 61.28302
# Shear Modulus (GPa) = 29.75195 34.76545 32.25870
#
# Velocity S-wave (km/s) = 3.69477 3.99396 3.84727
# Velocity P-wave (km/s) = 6.57067 7.24809 6.91768
#
# Compressibility (1/GPa) = 0.01837409
#
# Stress axis : x y z
#
# Youngs Moduli (GPa) = 44.89640 114.52328 85.34891
#
# Poissons Ratio (x) = 0.25254 0.61988
# Poissons Ratio (y) = 0.09900 0.23095
# Poissons Ratio (z) = 0.32608 0.30989
#
# Static dielectric constant tensor:
#      x y z
#    x 3.796610 0.193940 0.174940 
#    y 0.193940 4.292040 -0.258240 
#    z 0.174940 -0.258240 3.831220 
# 
# 
# High freq. dielectric constant tensor:
#      x y z
#    x 1.845300 0.009050 0.013430 
#    y 0.009050 1.874870 -0.012920 
#    z 0.013430 -0.012920 1.851530 
# 
# From -- ./inp_files/21989.got.cif
#   From: 2010.06.25/outbox.cif.g09.slc.cpg/sg2_11_cif.got.tgz:21989.got - 2010.06.27 13:26:56.
