data_PCOD8019836
_publ_section_title
;
Structure prediction by ZEFSAII (Michael W. Deem and Ramdas Pophale) SiO2 
 PCOD8019836
Probable space group: P -1
;
_chemical_formula_sum "Si O2"
_cell_formula_units_Z 16
_cell_length_a 14.500139
_cell_length_b 8.873088
_cell_length_c 11.567504
_cell_angle_alpha 144.558997
_cell_angle_beta 82.531684
_cell_angle_gamma 104.791122
_cell_volume 826.289203
_symmetry_space_group_name_H-M "P -1"
_symmetry_group_IT_number 2
_symmetry_cell_setting 'triclinic'
loop_
_space_group_symop_operation_xyz
x,y,z
-x,-y,-z
loop_
_atom_site_type_symbol
_atom_site_label
_atom_site_fract_x
_atom_site_fract_y
_atom_site_fract_z
Si Si1 0.943479 0.851392 0.526903
Si Si2 0.253584 0.421323 0.939795
Si Si3 0.068752 0.049608 0.847235
Si Si4 0.610563 0.786166 0.349417
Si Si5 0.781317 0.031521 0.798641
Si Si6 0.092695 0.759634 0.886126
Si Si7 0.567230 0.237237 0.766199
Si Si8 0.577594 0.736204 0.573247
O O1 0.854825 0.969236 0.652766
O O2 0.900045 0.544579 0.304691
O O3 0.000000 0.000000 0.500000
O O4 0.016459 0.878086 0.639667
O O5 0.164475 0.260346 0.925184
O O6 0.284321 0.228212 0.719152
O O7 0.346492 0.507550 0.060182
O O8 0.229803 0.675429 0.044390
O O9 0.097503 0.849830 0.808932
O O10 0.006725 0.227658 0.030133
O O11 0.525336 0.657815 0.190741
O O12 0.592340 0.625165 0.373524
O O13 0.606802 0.095254 0.561558
O O14 0.679290 0.807362 0.670090
O O15 0.821593 0.044737 0.931182
O O16 0.543592 0.014716 0.736296
O O17 0.500000 0.500000 0.500000
#
# Coordination Sequence:
#
# PCOD8019836 Si02
#       8
#     2   2   2   2   2   2   2   2
#     4  11  22  38  64  85 116 155 191 234 291 342
#     4  11  20  35  60  86 112 145 199 236 282 343
#     4  10  23  38  58  89 112 155 190 234 293 339
#     4   9  19  36  56  78 113 150 185 241 283 330
#     4  10  23  37  57  89 114 152 196 236 280 349
#     4  10  22  42  56  80 128 147 188 242 282 348
#     4   8  19  37  54  80 115 148 189 235 278 345
#     4   9  19  37  57  80 115 150 186 236 284 335
#
# _framework density 19.363681
#
# number of rings (size 3 to 8) (size 9 to 14) (size 15 to 20)
#    0.750    1.500    0.000    2.250    3.500    4.000 
#    2.250    2.500    0.000    0.000    0.000    0.000 
#    0.000    0.000    0.000    0.000    0.000    0.000 
#
# Total GULP energy -198283.523624 kJ/mol
# GULP energy per Si atom -12392.720227 kJ/mol
# Density = 1.931961 g / cm^3
# Si number density = 19.363681 Si / 1000 Ang^3
#
#
#
# Elastic Constant Matrix: (Units=GPa)
#
#
# Indices 1 2 3 4 5 6 
#
# 1 117.5041 58.6262 38.3118 0.0899 13.4407 3.9857
# 2 58.6262 94.4448 26.4832 -7.0410 25.1617 10.0374
# 3 38.3118 26.4832 58.2728 -2.6156 13.6096 0.1603
# 4 0.0899 -7.0410 -2.6156 27.6274 -3.4884 8.4245
# 5 13.4407 25.1617 13.6096 -3.4884 34.4444 1.7137
# 6 3.9857 10.0374 0.1603 8.4245 1.7137 29.6301
#
#
#
# Elastic Compliance Matrix: (Units=1/GPa)
#
#
# Indices 1 2 3 4 5 6 
#
# 1 0.014337 -0.008145 -0.006450 -0.002882 0.002535 0.001538
# 2 -0.008145 0.019695 -0.001009 0.005720 -0.009902 -0.006625
# 3 -0.006450 -0.001009 0.023277 0.000861 -0.005915 0.001181
# 4 -0.002882 0.005720 0.000861 0.042090 0.001546 -0.013611
# 5 0.002535 -0.009902 -0.005915 0.001546 0.037749 0.000422
# 6 0.001538 -0.006625 0.001181 -0.013611 0.000422 0.039626
#
#
# Mechanical properties :
#
#
# Convention : Reuss Voigt Hill
#
# Bulk Modulus (GPa) = 38.31130 57.45156 47.88143
# Shear Modulus (GPa) = 23.07530 28.12707 25.60119
#
# Velocity S-wave (km/s) = 3.45582 3.81539 3.64005
# Velocity P-wave (km/s) = 5.97927 7.01026 6.51519
#
# Compressibility (1/GPa) = 0.02610196
#
# Stress axis : x y z
#
# Youngs Moduli (GPa) = 69.74914 50.77334 42.96173
#
# Poissons Ratio (x) = 0.41354 0.27711
# Poissons Ratio (y) = 0.56809 0.04333
# Poissons Ratio (z) = 0.44990 0.05121
#
# Static dielectric constant tensor:
#      x y z
#    x 3.666640 -0.147290 0.128180 
#    y -0.147290 3.296410 -0.181680 
#    z 0.128180 -0.181680 3.636270 
# 
# 
# High freq. dielectric constant tensor:
#      x y z
#    x 1.764880 -0.009910 0.005700 
#    y -0.009910 1.725780 -0.013900 
#    z 0.005700 -0.013900 1.761140 
# 
# From -- ./inp_files/446473.got.cif
#   From: 2010.06.25/outbox.cif.g09.slc.cpg/sg2_224_cif.got.tgz:446473.got - 2010.06.27 13:26:56.
