data_PCOD8019351
_publ_section_title
;
Structure prediction by ZEFSAII (Michael W. Deem and Ramdas Pophale) SiO2 
 PCOD8019351
Probable space group: P -1
;
_chemical_formula_sum "Si O2"
_cell_formula_units_Z 16
_cell_length_a 9.099177
_cell_length_b 11.546070
_cell_length_c 12.084475
_cell_angle_alpha 127.392166
_cell_angle_beta 53.639069
_cell_angle_gamma 129.154009
_cell_volume 735.605961
_symmetry_space_group_name_H-M "P -1"
_symmetry_group_IT_number 2
_symmetry_cell_setting 'triclinic'
loop_
_space_group_symop_operation_xyz
x,y,z
-x,-y,-z
loop_
_atom_site_type_symbol
_atom_site_label
_atom_site_fract_x
_atom_site_fract_y
_atom_site_fract_z
Si Si1 0.792648 0.444276 0.496395
Si Si2 0.274550 0.065327 0.842656
Si Si3 0.730934 0.202129 0.734433
Si Si4 0.713347 0.136130 0.464656
Si Si5 0.928217 0.143790 0.991699
Si Si6 0.511670 0.591228 0.661883
Si Si7 0.908555 0.471129 0.205759
Si Si8 0.342166 0.031010 0.168465
O O1 0.663181 0.267993 0.498929
O O2 0.668709 0.550947 0.643187
O O3 0.838946 0.443014 0.346808
O O4 0.000000 0.500000 0.500000
O O5 0.508672 0.193782 0.804214
O O6 0.179287 0.939878 0.710525
O O7 0.248244 0.957705 0.901421
O O8 0.141331 0.166415 0.961803
O O9 0.826891 0.190003 0.564177
O O10 0.885520 0.370450 0.816143
O O11 0.698730 0.056038 0.745097
O O12 0.500000 0.000000 0.500000
O O13 0.942584 0.319391 0.061330
O O14 0.870621 0.043293 0.844673
O O15 0.500000 0.500000 0.500000
O O16 0.281707 0.521987 0.772510
O O17 0.591006 0.782548 0.725816
O O18 0.500000 0.000000 0.000000
#
# Coordination Sequence:
#
# PCOD8019351 Si02
#       8
#     2   2   2   2   2   2   2   2
#     4  11  22  42  67  98 133 173 224 280 339 397
#     4  10  22  41  67 101 130 182 230 276 339 405
#     4  11  24  43  68  99 141 175 228 289 334 402
#     4  10  22  41  69  96 135 173 227 287 337 390
#     4  11  23  41  72  94 135 186 227 273 338 416
#     4  10  25  43  70  98 133 181 226 273 338 408
#     4  11  22  43  64 100 135 179 220 284 340 398
#     4  12  24  47  69  96 138 183 225 273 342 412
#
# _framework density 21.750775000000001
#
# number of rings (size 3 to 8) (size 9 to 14) (size 15 to 20)
#    0.000    1.250    5.000    0.000    7.000    1.000 
#    4.500    3.125    0.000    0.000    0.000    0.000 
#    0.000    0.000    0.000    0.000    0.000    0.000 
#
# Total GULP energy -198238.491745 kJ/mol
# GULP energy per Si atom -12389.905734 kJ/mol
# Density = 2.170127 g / cm^3
# Si number density = 21.750775 Si / 1000 Ang^3
#
#
#
# Elastic Constant Matrix: (Units=GPa)
#
#
# Indices 1 2 3 4 5 6 
#
# 1 128.5872 57.3190 39.3043 9.5902 -14.5867 9.4543
# 2 57.3190 137.9787 42.2898 22.9948 -13.7828 4.8012
# 3 39.3043 42.2898 88.5673 17.2479 -2.7553 -6.6172
# 4 9.5902 22.9948 17.2479 38.1511 -7.8500 8.3577
# 5 -14.5867 -13.7828 -2.7553 -7.8500 33.2502 1.9374
# 6 9.4543 4.8012 -6.6172 8.3577 1.9374 35.1839
#
#
#
# Elastic Compliance Matrix: (Units=1/GPa)
#
#
# Indices 1 2 3 4 5 6 
#
# 1 0.011026 -0.003246 -0.004068 0.002770 0.004051 -0.004166
# 2 -0.003246 0.010218 -0.002677 -0.003726 0.001724 -0.000235
# 3 -0.004068 -0.002677 0.016040 -0.006711 -0.003514 0.006263
# 4 0.002770 -0.003726 -0.006711 0.034644 0.007886 -0.010161
# 5 0.004051 0.001724 -0.003514 0.007886 0.034473 -0.005756
# 6 -0.004166 -0.000235 0.006263 -0.010161 -0.005756 0.033482
#
#
# Mechanical properties :
#
#
# Convention : Reuss Voigt Hill
#
# Bulk Modulus (GPa) = 57.79490 70.32881 64.06185
# Shear Modulus (GPa) = 30.18761 35.73173 32.95967
#
# Velocity S-wave (km/s) = 3.72948 4.05752 3.89695
# Velocity P-wave (km/s) = 6.72119 7.37261 7.05443
#
# Compressibility (1/GPa) = 0.01730257
#
# Stress axis : x y z
#
# Youngs Moduli (GPa) = 90.69130 97.87070 62.34522
#
# Poissons Ratio (x) = 0.31766 0.25363
# Poissons Ratio (y) = 0.29435 0.16688
# Poissons Ratio (z) = 0.36895 0.26197
#
# Static dielectric constant tensor:
#      x y z
#    x 2.459290 -0.844560 -5.024950 
#    y -0.844560 3.346750 -2.328420 
#    z -5.024950 -2.328420 -6.155050 
# 
# 
# High freq. dielectric constant tensor:
#      x y z
#    x 1.862020 0.006720 0.006860 
#    y 0.006720 1.853420 0.007000 
#    z 0.006860 0.007000 1.844130 
# 
# From -- ./inp_files/393031.got.cif
#   From: 2010.06.25/outbox.cif.g09.slc.cpg/sg2_197_cif.got.tgz:393031.got - 2010.06.27 13:26:56.
