data_PCOD8019291
_publ_section_title
;
Structure prediction by ZEFSAII (Michael W. Deem and Ramdas Pophale) SiO2 
 PCOD8019291
Probable space group: P -1
;
_chemical_formula_sum "Si O2"
_cell_formula_units_Z 16
_cell_length_a 12.883590
_cell_length_b 8.715382
_cell_length_c 8.409283
_cell_angle_alpha 104.023822
_cell_angle_beta 100.246570
_cell_angle_gamma 50.388644
_cell_volume 705.403463
_symmetry_space_group_name_H-M "P -1"
_symmetry_group_IT_number 2
_symmetry_cell_setting 'triclinic'
loop_
_space_group_symop_operation_xyz
x,y,z
-x,-y,-z
loop_
_atom_site_type_symbol
_atom_site_label
_atom_site_fract_x
_atom_site_fract_y
_atom_site_fract_z
Si Si1 0.961711 0.877636 0.050414
Si Si2 0.231147 0.371413 0.313768
Si Si3 0.048822 0.243171 0.670032
Si Si4 0.390413 0.410941 0.865741
Si Si5 0.455903 0.368697 0.509270
Si Si6 0.829108 0.586334 0.058733
Si Si7 0.723355 0.990361 0.576523
Si Si8 0.687180 0.187835 0.926530
O O1 0.982754 0.873933 0.247247
O O2 0.052470 0.652478 0.948316
O O3 0.802585 0.991249 0.008255
O O4 0.000000 0.000000 0.000000
O O5 0.343147 0.403329 0.370233
O O6 0.275670 0.177088 0.375339
O O7 0.089442 0.564805 0.396987
O O8 0.212579 0.348212 0.118342
O O9 0.114515 0.307418 0.824632
O O10 0.147813 0.102650 0.521824
O O11 0.394980 0.438481 0.686665
O O12 0.303209 0.336897 0.857470
O O13 0.540822 0.247133 0.937214
O O14 0.315559 0.624001 0.988305
O O15 0.500000 0.500000 0.500000
O O16 0.584740 0.131207 0.474933
O O17 0.723229 0.135682 0.737103
#
# Coordination Sequence:
#
# PCOD8019291 Si02
#       8
#     2   2   2   2   2   2   2   2
#     4  11  22  40  66  99 131 168 224 274 325 394
#     4  11  24  45  67  97 135 176 220 273 332 393
#     4  11  25  43  68 100 133 177 223 272 333 392
#     4  10  23  41  68  93 132 174 220 269 334 389
#     4  11  27  44  68  99 137 170 220 279 332 399
#     4  11  23  43  69  98 131 177 224 271 329 395
#     4  11  24  44  68  96 136 172 224 273 331 395
#     4  10  22  41  66  94 130 173 221 266 330 388
#
# _framework density 22.682053
#
# number of rings (size 3 to 8) (size 9 to 14) (size 15 to 20)
#    0.000    1.250    1.250    4.500    7.000    2.000 
#    0.000    5.000    0.000    0.000    0.000    0.000 
#    0.000    0.000    0.000    0.000    0.000    0.000 
#
# Total GULP energy -198416.138117 kJ/mol
# GULP energy per Si atom -12401.008632 kJ/mol
# Density = 2.263043 g / cm^3
# Si number density = 22.682053 Si / 1000 Ang^3
#
#
#
# Elastic Constant Matrix: (Units=GPa)
#
#
# Indices 1 2 3 4 5 6 
#
# 1 117.6561 59.2432 34.7218 -11.7602 -15.3764 -8.4800
# 2 59.2432 137.8606 51.5417 -12.5646 -5.7292 -19.9254
# 3 34.7218 51.5417 70.5115 6.4623 -12.0402 -6.2834
# 4 -11.7602 -12.5646 6.4623 37.1656 -8.9439 -2.5455
# 5 -15.3764 -5.7292 -12.0402 -8.9439 44.0048 -7.3600
# 6 -8.4800 -19.9254 -6.2834 -2.5455 -7.3600 42.4819
#
#
#
# Elastic Compliance Matrix: (Units=1/GPa)
#
#
# Indices 1 2 3 4 5 6 
#
# 1 0.012150 -0.003265 -0.003178 0.004369 0.004072 0.001391
# 2 -0.003265 0.012607 -0.007634 0.004898 0.000152 0.004452
# 3 -0.003178 -0.007634 0.022297 -0.006940 0.002434 -0.000911
# 4 0.004369 0.004898 -0.006940 0.033453 0.007990 0.005532
# 5 0.004072 0.000152 0.002434 0.007990 0.027543 0.006495
# 6 0.001391 0.004452 -0.000911 0.005532 0.006495 0.027227
#
#
# Mechanical properties :
#
#
# Convention : Reuss Voigt Hill
#
# Bulk Modulus (GPa) = 52.90521 68.56016 60.73269
# Shear Modulus (GPa) = 29.45840 36.76524 33.11182
#
# Velocity S-wave (km/s) = 3.60773 4.03040 3.82491
# Velocity P-wave (km/s) = 6.38198 7.20771 6.80738
#
# Compressibility (1/GPa) = 0.01890173
#
# Stress axis : x y z
#
# Youngs Moduli (GPa) = 82.30395 79.32164 44.84848
#
# Poissons Ratio (x) = 0.25897 0.14252
# Poissons Ratio (y) = 0.26871 0.34236
# Poissons Ratio (z) = 0.26154 0.60552
#
# Static dielectric constant tensor:
#      x y z
#    x 4.225820 -0.322490 -0.015520 
#    y -0.322490 4.326380 -0.089580 
#    z -0.015520 -0.089580 4.108210 
# 
# 
# High freq. dielectric constant tensor:
#      x y z
#    x 1.901590 -0.016600 -0.002890 
#    y -0.016600 1.905020 -0.005780 
#    z -0.002890 -0.005780 1.888270 
# 
# From -- ./inp_files/244625.got.cif
#   From: 2010.06.25/outbox.cif.g09.slc.cpg/sg2_123_cif.got.tgz:244625.got - 2010.06.27 13:26:56.
