data_PCOD8019442
_publ_section_title
;
Structure prediction by ZEFSAII (Michael W. Deem and Ramdas Pophale) SiO2 
 PCOD8019442
Probable space group: P -1
;
_chemical_formula_sum "Si O2"
_cell_formula_units_Z 14
_cell_length_a 6.822565
_cell_length_b 24.170757
_cell_length_c 4.982007
_cell_angle_alpha 69.591492
_cell_angle_beta 75.473083
_cell_angle_gamma 53.700533
_cell_volume 619.493094
_symmetry_space_group_name_H-M "P -1"
_symmetry_group_IT_number 2
_symmetry_cell_setting 'triclinic'
loop_
_space_group_symop_operation_xyz
x,y,z
-x,-y,-z
loop_
_atom_site_type_symbol
_atom_site_label
_atom_site_fract_x
_atom_site_fract_y
_atom_site_fract_z
Si Si1 0.599124 0.143987 0.134904
Si Si2 0.039246 0.569824 0.627951
Si Si3 0.804393 0.325668 0.643259
Si Si4 0.365950 0.994234 0.802022
Si Si5 0.954229 0.766502 0.784979
Si Si6 0.881954 0.131140 0.583091
Si Si7 0.259250 0.413177 0.817479
O O1 0.606828 0.080337 0.086695
O O2 0.763204 0.118079 0.389547
O O3 0.326847 0.204108 0.221047
O O4 0.690344 0.174788 0.818689
O O5 0.184797 0.605650 0.459676
O O6 0.232645 0.486982 0.778009
O O7 0.894154 0.575379 0.408600
O O8 0.844673 0.609975 0.866438
O O9 0.867909 0.297335 0.366811
O O10 0.535257 0.349650 0.778686
O O11 0.990336 0.262424 0.882521
O O12 0.500000 0.000000 0.500000
O O13 0.081753 0.056617 0.779202
O O14 0.500000 0.000000 0.000000
O O15 0.995187 0.829248 0.631082
#
# Coordination Sequence:
#
# PCOD8019442 Si02
#       7
#     2   2   2   2   2   2   2
#     4  12  26  46  70  97 133 176 222 272 339 396
#     4  10  22  41  67  97 130 168 218 276 327 383
#     4  12  25  42  66  95 132 178 220 264 332 389
#     4  12  24  44  76  99 133 166 218 289 334 386
#     4  12  28  43  65  96 136 178 220 272 318 398
#     4  12  26  46  70  97 133 176 222 272 339 396
#     4  10  22  41  67  97 130 168 218 276 327 383
#
# _framework density 22.599124
#
# number of rings (size 3 to 8) (size 9 to 14) (size 15 to 20)
#    0.000    0.571    1.429    6.429    2.000    6.857 
#    0.000    5.714    0.000    0.000    0.000    0.000 
#    0.000    0.000    0.000    0.000    0.000    0.000 
#
# Total GULP energy -173673.941861 kJ/mol
# GULP energy per Si atom -12405.281561 kJ/mol
# Density = 2.254769 g / cm^3
# Si number density = 22.599124 Si / 1000 Ang^3
#
#
#
# Elastic Constant Matrix: (Units=GPa)
#
#
# Indices 1 2 3 4 5 6 
#
# 1 84.6766 23.2299 30.9962 9.2620 15.3272 -21.9348
# 2 23.2299 76.5003 12.7193 12.9287 4.3399 -19.0148
# 3 30.9962 12.7193 129.4140 16.4089 5.9856 -13.1723
# 4 9.2620 12.9287 16.4089 43.6406 -1.7257 -1.9470
# 5 15.3272 4.3399 5.9856 -1.7257 45.9149 4.3495
# 6 -21.9348 -19.0148 -13.1723 -1.9470 4.3495 38.5631
#
#
#
# Elastic Compliance Matrix: (Units=1/GPa)
#
#
# Indices 1 2 3 4 5 6 
#
# 1 0.016652 -0.001942 -0.002443 -0.001906 -0.005910 0.008250
# 2 -0.001942 0.016155 0.000193 -0.004206 -0.001716 0.006908
# 3 -0.002443 0.000193 0.008847 -0.002816 -0.000619 0.001656
# 4 -0.001906 -0.004206 -0.002816 0.025589 0.002659 -0.003128
# 5 -0.005910 -0.001716 -0.000619 0.002659 0.024766 -0.007078
# 6 0.008250 0.006908 0.001656 -0.003128 -0.007078 0.035236
#
#
# Mechanical properties :
#
#
# Convention : Reuss Voigt Hill
#
# Bulk Modulus (GPa) = 30.05683 47.16464 38.61073
# Shear Modulus (GPa) = 34.07872 40.53341 37.30606
#
# Velocity S-wave (km/s) = 3.88747 4.23967 4.06738
# Velocity P-wave (km/s) = 5.78608 6.69939 6.25941
#
# Compressibility (1/GPa) = 0.03327031
#
# Stress axis : x y z
#
# Youngs Moduli (GPa) = 60.05317 61.90123 113.02746
#
# Poissons Ratio (x) = 0.12024 0.27610
# Poissons Ratio (y) = 0.11665 -0.02185
# Poissons Ratio (z) = 0.14669 -0.01196
#
# Static dielectric constant tensor:
#      x y z
#    x 4.214610 0.130170 -0.293330 
#    y 0.130170 4.395270 -0.176520 
#    z -0.293330 -0.176520 4.372450 
# 
# 
# High freq. dielectric constant tensor:
#      x y z
#    x 1.897960 -0.003960 -0.006450 
#    y -0.003960 1.889230 0.009820 
#    z -0.006450 0.009820 1.910070 
# 
# From -- ./inp_files/9722.got.cif
#   From: 2010.06.25/outbox.cif.g09.slc.cpg/sg2_5_cif.got.tgz:9722.got - 2010.06.27 13:26:56.
