data_PCOD8019481
_publ_section_title
;
Structure prediction by ZEFSAII (Michael W. Deem and Ramdas Pophale) SiO2 
 PCOD8019481
Probable space group: P -1
;
_chemical_formula_sum "Si O2"
_cell_formula_units_Z 12
_cell_length_a 7.133480
_cell_length_b 14.417821
_cell_length_c 10.273563
_cell_angle_alpha 26.697690
_cell_angle_beta 115.454796
_cell_angle_gamma 107.329048
_cell_volume 418.870915
_symmetry_space_group_name_H-M "P -1"
_symmetry_group_IT_number 2
_symmetry_cell_setting 'triclinic'
loop_
_space_group_symop_operation_xyz
x,y,z
-x,-y,-z
loop_
_atom_site_type_symbol
_atom_site_label
_atom_site_fract_x
_atom_site_fract_y
_atom_site_fract_z
Si Si1 0.078022 0.743553 0.782904
Si Si2 0.428647 0.962869 0.671720
Si Si3 0.566447 0.714695 0.276862
Si Si4 0.154746 0.329914 0.935529
Si Si5 0.008166 0.759247 0.266565
Si Si6 0.670866 0.697350 0.609345
O O1 0.186064 0.948966 0.572390
O O2 0.903845 0.768113 0.584506
O O3 0.284776 0.556468 0.051741
O O4 0.963370 0.667896 0.968283
O O5 0.440531 0.204926 0.409874
O O6 0.444521 0.876261 0.932959
O O7 0.615783 0.847563 0.773252
O O8 0.500000 0.500000 0.500000
O O9 0.816052 0.678298 0.376646
O O10 0.525109 0.784441 0.329349
O O11 0.009232 0.252077 0.879917
O O12 0.200423 0.565845 0.617195
O O13 0.000000 0.000000 0.000000
#
# Coordination Sequence:
#
# PCOD8019481 Si02
#       6
#     2   2   2   2   2   2
#     4  11  24  46  70  93 147 181 225 287 348 414
#     4  11  24  42  70 102 135 177 236 284 343 410
#     4  11  21  44  73 101 138 180 235 293 337 411
#     4  10  23  43  66 102 138 178 228 290 341 410
#     4  10  22  41  68 102 140 183 228 285 354 406
#     4  11  24  43  68 102 133 187 228 279 354 412
#
# _framework density 28.648446
#
# number of rings (size 3 to 8) (size 9 to 14) (size 15 to 20)
#    0.000    1.333    3.333    1.000    2.333    3.333 
#    6.000    3.333    0.000    0.000    0.000    0.000 
#    0.000    0.000    0.000    0.000    0.000    0.000 
#
# Total GULP energy -148675.711427 kJ/mol
# GULP energy per Si atom -12389.642619 kJ/mol
# Density = 2.858324 g / cm^3
# Si number density = 28.648446 Si / 1000 Ang^3
#
#
#
# Elastic Constant Matrix: (Units=GPa)
#
#
# Indices 1 2 3 4 5 6 
#
# 1 95.7709 37.3318 23.7991 -7.3776 -2.0204 -16.9583
# 2 37.3318 181.7919 47.0782 -17.4328 -15.3107 -12.5721
# 3 23.7991 47.0782 153.4995 -19.0011 18.2928 -6.8439
# 4 -7.3776 -17.4328 -19.0011 55.4007 5.3082 7.1948
# 5 -2.0204 -15.3107 18.2928 5.3082 39.9967 -5.6737
# 6 -16.9583 -12.5721 -6.8439 7.1948 -5.6737 40.1731
#
#
#
# Elastic Compliance Matrix: (Units=1/GPa)
#
#
# Indices 1 2 3 4 5 6 
#
# 1 0.012291 -0.001773 -0.001311 -0.000083 0.001204 0.004595
# 2 -0.001773 0.006884 -0.002122 0.000667 0.003632 0.001438
# 3 -0.001311 -0.002122 0.008261 0.002615 -0.005146 -0.001005
# 4 -0.000083 0.000667 0.002615 0.019999 -0.004101 -0.003542
# 5 0.001204 0.003632 -0.005146 -0.004101 0.030169 0.005763
# 6 0.004595 0.001438 -0.001005 -0.003542 0.005763 0.028559
#
#
# Mechanical properties :
#
#
# Convention : Reuss Voigt Hill
#
# Bulk Modulus (GPa) = 58.74351 71.94227 65.34289
# Shear Modulus (GPa) = 40.89982 48.63766 44.76874
#
# Velocity S-wave (km/s) = 3.78252 4.12484 3.95738
# Velocity P-wave (km/s) = 6.29492 6.91754 6.61356
#
# Compressibility (1/GPa) = 0.01702316
#
# Stress axis : x y z
#
# Youngs Moduli (GPa) = 81.35867 145.26722 121.05103
#
# Poissons Ratio (x) = 0.25761 0.15866
# Poissons Ratio (y) = 0.14428 0.25692
# Poissons Ratio (z) = 0.10664 0.30832
#
# Static dielectric constant tensor:
#      x y z
#    x 4.951830 -0.181040 0.704380 
#    y -0.181040 6.019610 0.035250 
#    z 0.704380 0.035250 6.425860 
# 
# 
# High freq. dielectric constant tensor:
#      x y z
#    x 2.130390 -0.014900 0.018580 
#    y -0.014900 2.185270 -0.002730 
#    z 0.018580 -0.002730 2.198750 
# 
# From -- ./inp_files/395128.got.cif
#   From: 2010.06.25/outbox.cif.g09.slc.cpg/sg2_198_cif.got.tgz:395128.got - 2010.06.27 13:26:56.
