data_PCOD8019893
_publ_section_title
;
Structure prediction by ZEFSAII (Michael W. Deem and Ramdas Pophale) SiO2 
 PCOD8019893
Probable space group: P -1
;
_chemical_formula_sum "Si O2"
_cell_formula_units_Z 14
_cell_length_a 8.800805
_cell_length_b 13.170074
_cell_length_c 10.223790
_cell_angle_alpha 33.888649
_cell_angle_beta 88.305707
_cell_angle_gamma 87.969587
_cell_volume 660.324586
_symmetry_space_group_name_H-M "P -1"
_symmetry_group_IT_number 2
_symmetry_cell_setting 'triclinic'
loop_
_space_group_symop_operation_xyz
x,y,z
-x,-y,-z
loop_
_atom_site_type_symbol
_atom_site_label
_atom_site_fract_x
_atom_site_fract_y
_atom_site_fract_z
Si Si1 0.870430 0.529435 0.363073
Si Si2 0.658596 0.234968 0.777183
Si Si3 0.059989 0.443382 0.199421
Si Si4 0.857866 0.923427 0.511088
Si Si5 0.585478 0.869546 0.739461
Si Si6 0.702837 0.283210 0.019290
Si Si7 0.336713 0.128855 0.975347
O O1 0.728044 0.393573 0.517136
O O2 0.806843 0.735017 0.155669
O O3 0.000000 0.500000 0.500000
O O4 0.939834 0.504530 0.245045
O O5 0.474616 0.234305 0.786854
O O6 0.726968 0.277665 0.870634
O O7 0.716678 0.039361 0.931311
O O8 0.089012 0.225353 0.438732
O O9 0.218715 0.541932 0.111358
O O10 0.000000 0.500000 0.000000
O O11 0.748669 0.816842 0.730114
O O12 0.770704 0.091005 0.270011
O O13 0.000000 0.000000 0.500000
O O14 0.474241 0.699086 0.949621
O O15 0.500000 0.000000 0.500000
O O16 0.611848 0.951242 0.797796
#
# Coordination Sequence:
#
# PCOD8019893 Si02
#       7
#     2   2   2   2   2   2   2
#     4  12  26  41  65  99 135 172 221 266 329 398
#     4  10  23  43  67  93 127 175 220 273 323 388
#     4  12  25  41  63  96 130 172 215 268 332 384
#     4  11  23  39  65  91 128 167 211 269 328 387
#     4   9  21  42  66  95 126 170 219 272 328 388
#     4  10  22  42  62  91 130 162 224 270 318 392
#     4  10  23  43  68  94 132 172 221 273 327 384
#
# _framework density 21.201692000000001
#
# number of rings (size 3 to 8) (size 9 to 14) (size 15 to 20)
#    0.000    1.429    2.857    1.286    4.000    1.143 
#    0.000    0.000    0.000    0.000    0.000    0.000 
#    0.000    0.000    0.000    0.000    0.000    0.000 
#
# Total GULP energy -173537.067644 kJ/mol
# GULP energy per Si atom -12395.504832 kJ/mol
# Density = 2.115344 g / cm^3
# Si number density = 21.201692 Si / 1000 Ang^3
#
#
#
# Elastic Constant Matrix: (Units=GPa)
#
#
# Indices 1 2 3 4 5 6 
#
# 1 107.8155 61.9970 39.2752 1.1021 -12.7813 -4.9127
# 2 61.9970 138.8409 38.7700 -9.3107 -5.7960 4.1814
# 3 39.2752 38.7700 71.1498 2.9826 -5.7749 0.6635
# 4 1.1021 -9.3107 2.9826 43.2635 -2.4884 0.0176
# 5 -12.7813 -5.7960 -5.7749 -2.4884 35.0099 0.7695
# 6 -4.9127 4.1814 0.6635 0.0176 0.7695 43.8844
#
#
#
# Elastic Compliance Matrix: (Units=1/GPa)
#
#
# Indices 1 2 3 4 5 6 
#
# 1 0.014523 -0.005084 -0.004941 -0.000921 0.003533 0.002123
# 2 -0.005084 0.010529 -0.003058 0.002584 -0.000400 -0.001520
# 3 -0.004941 -0.003058 0.018580 -0.001776 0.000641 -0.000553
# 4 -0.000921 0.002584 -0.001776 0.023903 0.001505 -0.000358
# 5 0.003533 -0.000400 0.000641 0.001505 0.030002 -0.000103
# 6 0.002123 -0.001520 -0.000553 -0.000358 -0.000103 0.023180
#
#
# Mechanical properties :
#
#
# Convention : Reuss Voigt Hill
#
# Bulk Modulus (GPa) = 57.25002 66.43229 61.84115
# Shear Modulus (GPa) = 32.74305 36.28251 34.51278
#
# Velocity S-wave (km/s) = 3.93410 4.14128 4.03902
# Velocity P-wave (km/s) = 6.90633 7.36671 7.14023
#
# Compressibility (1/GPa) = 0.01746724
#
# Stress axis : x y z
#
# Youngs Moduli (GPa) = 68.85466 94.97949 53.82079
#
# Poissons Ratio (x) = 0.48283 0.26595
# Poissons Ratio (y) = 0.35002 0.16456
# Poissons Ratio (z) = 0.34023 0.29041
#
# Static dielectric constant tensor:
#      x y z
#    x 4.164860 -0.101700 -0.384100 
#    y -0.101700 3.998700 0.162590 
#    z -0.384100 0.162590 3.797750 
# 
# 
# High freq. dielectric constant tensor:
#      x y z
#    x 1.846180 0.002910 -0.015350 
#    y 0.002910 1.831760 0.011710 
#    z -0.015350 0.011710 1.825250 
# 
# From -- ./inp_files/183724.got.cif
#   From: 2010.06.25/outbox.cif.g09.slc.cpg/sg2_92_cif.got.tgz:183724.got - 2010.06.27 13:26:56.
