data_PCOD8019070
_publ_section_title
;
Structure prediction by ZEFSAII (Michael W. Deem and Ramdas Pophale) SiO2 
 PCOD8019070
Probable space group: P -1
;
_chemical_formula_sum "Si O2"
_cell_formula_units_Z 16
_cell_length_a 7.740844
_cell_length_b 13.733054
_cell_length_c 8.642102
_cell_angle_alpha 95.114826
_cell_angle_beta 71.336023
_cell_angle_gamma 134.273952
_cell_volume 610.881556
_symmetry_space_group_name_H-M "P -1"
_symmetry_group_IT_number 2
_symmetry_cell_setting 'triclinic'
loop_
_space_group_symop_operation_xyz
x,y,z
-x,-y,-z
loop_
_atom_site_type_symbol
_atom_site_label
_atom_site_fract_x
_atom_site_fract_y
_atom_site_fract_z
Si Si1 0.732366 0.711019 0.979776
Si Si2 0.165933 0.472204 0.040458
Si Si3 0.988377 0.944683 0.707977
Si Si4 0.187854 0.735521 0.131875
Si Si5 0.521233 0.905171 0.788027
Si Si6 0.473397 0.241264 0.713692
Si Si7 0.115513 0.828618 0.436585
Si Si8 0.172804 0.670864 0.621980
O O1 0.861248 0.655382 0.947834
O O2 0.934458 0.859245 0.862429
O O3 0.463259 0.611837 0.943135
O O4 0.677727 0.721971 0.174721
O O5 0.070822 0.472714 0.239634
O O6 0.977761 0.415099 0.933116
O O7 0.795866 0.962266 0.763911
O O8 0.965236 0.868267 0.546945
O O9 0.281281 0.094190 0.659458
O O10 0.403505 0.761898 0.171395
O O11 0.006523 0.733702 0.296950
O O12 0.344017 0.862941 0.982748
O O13 0.372225 0.766689 0.715532
O O14 0.591826 0.028322 0.682698
O O15 0.698894 0.355462 0.541365
O O16 0.110975 0.749349 0.564866
#
# Coordination Sequence:
#
# PCOD8019070 Si02
#       8
#     2   2   2   2   2   2   2   2
#     4  11  24  44  67  89 129 171 206 266 307 373
#     4  10  24  46  68  88 121 173 224 247 309 370
#     4  12  24  40  62  99 134 162 202 261 327 374
#     4  10  24  39  63  97 120 168 215 255 307 376
#     4  11  22  38  59  96 129 168 202 252 321 376
#     4  11  24  41  65  97 130 162 204 264 328 365
#     4  11  22  38  63  90 134 162 205 258 313 377
#     4  10  22  41  64  94 126 167 209 261 308 368
#
# _framework density 26.191658
#
# number of rings (size 3 to 8) (size 9 to 14) (size 15 to 20)
#    0.000    1.250    3.750    1.500    3.500    1.000 
#    0.000    0.625    0.000    0.000    0.000    0.000 
#    0.000    0.000    0.000    0.000    0.000    0.000 
#
# Total GULP energy -198286.422643 kJ/mol
# GULP energy per Si atom -12392.901415 kJ/mol
# Density = 2.613204 g / cm^3
# Si number density = 26.191658 Si / 1000 Ang^3
#
#
#
# Elastic Constant Matrix: (Units=GPa)
#
#
# Indices 1 2 3 4 5 6 
#
# 1 39.0619 2.6764 28.3060 0.3170 2.7202 12.2701
# 2 2.6764 44.3164 17.9253 11.7083 -2.8410 2.2162
# 3 28.3060 17.9253 163.8342 7.3933 -15.2476 -2.4698
# 4 0.3170 11.7083 7.3933 49.7217 -7.1725 0.1784
# 5 2.7202 -2.8410 -15.2476 -7.1725 37.9514 1.9550
# 6 12.2701 2.2162 -2.4698 0.1784 1.9550 29.9900
#
#
#
# Elastic Compliance Matrix: (Units=1/GPa)
#
#
# Indices 1 2 3 4 5 6 
#
# 1 0.035509 0.001117 -0.006896 -0.000056 -0.004476 -0.014886
# 2 0.001117 0.025190 -0.002757 -0.005552 -0.000223 -0.002498
# 3 -0.006896 -0.002757 0.007957 -0.000026 0.003301 0.003465
# 4 -0.000056 -0.005552 -0.000026 0.021961 0.003725 0.000058
# 5 -0.004476 -0.000223 0.003301 0.003725 0.028672 0.000228
# 6 -0.014886 -0.002498 0.003465 0.000058 0.000228 0.039890
#
#
# Mechanical properties :
#
#
# Convention : Reuss Voigt Hill
#
# Bulk Modulus (GPa) = 19.38523 38.33642 28.86082
# Shear Modulus (GPa) = 25.84706 36.75294 31.30000
#
# Velocity S-wave (km/s) = 3.14481 3.75004 3.46068
# Velocity P-wave (km/s) = 4.53915 5.78092 5.19725
#
# Compressibility (1/GPa) = 0.05158568
#
# Stress axis : x y z
#
# Youngs Moduli (GPa) = 28.16188 39.69802 125.66903
#
# Poissons Ratio (x) = -0.04434 0.86656
# Poissons Ratio (y) = -0.03146 0.34646
# Poissons Ratio (z) = 0.19419 0.10944
#
# Static dielectric constant tensor:
#      x y z
#    x 4.613680 -0.167930 -0.119630 
#    y -0.167930 4.818010 0.184420 
#    z -0.119630 0.184420 5.250640 
# 
# 
# High freq. dielectric constant tensor:
#      x y z
#    x 2.033160 -0.010290 -0.003360 
#    y -0.010290 2.046670 0.005780 
#    z -0.003360 0.005780 2.073300 
# 
# From -- ./inp_files/187858.got.cif
#   From: 2010.06.25/outbox.cif.g09.slc.cpg/sg2_94_cif.got.tgz:187858.got - 2010.06.27 13:26:56.
