data_PCOD8019547
_publ_section_title
;
Structure prediction by ZEFSAII (Michael W. Deem and Ramdas Pophale) SiO2 
 PCOD8019547
Probable space group: P -1
;
_chemical_formula_sum "Si O2"
_cell_formula_units_Z 14
_cell_length_a 10.746299
_cell_length_b 6.532005
_cell_length_c 11.644272
_cell_angle_alpha 86.571676
_cell_angle_beta 53.914498
_cell_angle_gamma 73.632721
_cell_volume 627.808734
_symmetry_space_group_name_H-M "P -1"
_symmetry_group_IT_number 2
_symmetry_cell_setting 'triclinic'
loop_
_space_group_symop_operation_xyz
x,y,z
-x,-y,-z
loop_
_atom_site_type_symbol
_atom_site_label
_atom_site_fract_x
_atom_site_fract_y
_atom_site_fract_z
Si Si1 0.794073 0.339430 0.373863
Si Si2 0.582756 0.960922 0.124420
Si Si3 0.612384 0.652497 0.930968
Si Si4 0.827670 0.034279 0.149420
Si Si5 0.672563 0.812281 0.407190
Si Si6 0.084237 0.355855 0.353411
Si Si7 0.728114 0.008176 0.585265
O O1 0.792535 0.218362 0.259050
O O2 0.657881 0.571590 0.422771
O O3 0.969478 0.363095 0.305789
O O4 0.758014 0.222420 0.511945
O O5 0.485990 0.128164 0.080271
O O6 0.707140 0.076491 0.105605
O O7 0.463054 0.921899 0.287826
O O8 0.659280 0.727177 0.028789
O O9 0.775525 0.548004 0.772625
O O10 0.500000 0.500000 0.000000
O O11 0.790542 0.830283 0.237313
O O12 0.000000 0.000000 0.000000
O O13 0.769333 0.827346 0.469952
O O14 0.500000 0.000000 0.500000
O O15 0.160762 0.104446 0.362713
O O16 0.000000 0.500000 0.500000
#
# Coordination Sequence:
#
# PCOD8019547 Si02
#       7
#     2   2   2   2   2   2   2
#     4  11  25  41  71 100 134 181 222 277 341 391
#     4  10  22  44  63  93 137 165 228 277 316 404
#     4  10  24  41  67  97 125 177 220 272 335 397
#     4  11  25  43  66  97 137 180 216 276 341 394
#     4  11  23  44  63 100 132 170 237 273 316 416
#     4  11  22  42  68  99 137 167 226 278 333 401
#     4  10  22  41  68  96 132 178 220 279 335 389
#
# _framework density 22.299786000000001
#
# number of rings (size 3 to 8) (size 9 to 14) (size 15 to 20)
#    0.000    1.429    2.857    1.286    2.000    5.143 
#    2.571    0.000    0.000    0.000    0.000    0.000 
#    0.000    0.000    0.000    0.000    0.000    0.000 
#
# Total GULP energy -173442.767468 kJ/mol
# GULP energy per Si atom -12388.769105 kJ/mol
# Density = 2.224903 g / cm^3
# Si number density = 22.299786 Si / 1000 Ang^3
#
#
#
# Elastic Constant Matrix: (Units=GPa)
#
#
# Indices 1 2 3 4 5 6 
#
# 1 121.9612 32.5938 45.5748 12.2822 -6.0447 21.2621
# 2 32.5938 121.1745 50.8132 -3.5062 -16.7142 10.0069
# 3 45.5748 50.8132 148.2463 -8.9112 -22.8165 10.0998
# 4 12.2822 -3.5062 -8.9112 30.8055 10.3135 0.4034
# 5 -6.0447 -16.7142 -22.8165 10.3135 37.8972 1.3929
# 6 21.2621 10.0069 10.0998 0.4034 1.3929 32.4532
#
#
#
# Elastic Compliance Matrix: (Units=1/GPa)
#
#
# Indices 1 2 3 4 5 6 
#
# 1 0.011308 -0.001372 -0.002729 -0.005832 0.001368 -0.006123
# 2 -0.001372 0.010202 -0.002533 0.000059 0.002797 -0.001579
# 3 -0.002729 -0.002533 0.009136 0.002334 0.003329 -0.000446
# 4 -0.005832 0.000059 0.002334 0.038837 -0.010180 0.003030
# 5 0.001368 0.002797 0.003329 -0.010180 0.032763 -0.004074
# 6 -0.006123 -0.001579 -0.000446 0.003030 -0.004074 0.035588
#
#
# Mechanical properties :
#
#
# Convention : Reuss Voigt Hill
#
# Bulk Modulus (GPa) = 57.54602 72.14951 64.84777
# Shear Modulus (GPa) = 31.86830 37.72452 34.79641
#
# Velocity S-wave (km/s) = 3.78443 4.11749 3.95447
# Velocity P-wave (km/s) = 6.70504 7.41819 7.07061
#
# Compressibility (1/GPa) = 0.01737740
#
# Stress axis : x y z
#
# Youngs Moduli (GPa) = 88.43089 98.02117 109.45766
#
# Poissons Ratio (x) = 0.13446 0.29873
# Poissons Ratio (y) = 0.12130 0.27730
# Poissons Ratio (z) = 0.24135 0.24833
#
# Static dielectric constant tensor:
#      x y z
#    x 4.583820 0.255270 -0.090240 
#    y 0.255270 3.938250 -0.207000 
#    z -0.090240 -0.207000 4.479590 
# 
# 
# High freq. dielectric constant tensor:
#      x y z
#    x 1.885810 0.008820 0.008760 
#    y 0.008820 1.860070 -0.007060 
#    z 0.008760 -0.007060 1.886960 
# 
# From -- ./inp_files/363629.got.cif
#   From: 2010.06.25/outbox.cif.g09.slc.cpg/sg2_182_cif.got.tgz:363629.got - 2010.06.27 13:26:56.
