data_PCOD8019120
_publ_section_title
;
Structure prediction by ZEFSAII (Michael W. Deem and Ramdas Pophale) SiO2 
 PCOD8019120
Probable space group: P -1
;
_chemical_formula_sum "Si O2"
_cell_formula_units_Z 14
_cell_length_a 11.501211
_cell_length_b 13.495779
_cell_length_c 5.055558
_cell_angle_alpha 112.764449
_cell_angle_beta 67.872069
_cell_angle_gamma 78.610644
_cell_volume 613.798058
_symmetry_space_group_name_H-M "P -1"
_symmetry_group_IT_number 2
_symmetry_cell_setting 'triclinic'
loop_
_space_group_symop_operation_xyz
x,y,z
-x,-y,-z
loop_
_atom_site_type_symbol
_atom_site_label
_atom_site_fract_x
_atom_site_fract_y
_atom_site_fract_z
Si Si1 0.036409 0.384089 0.619494
Si Si2 0.594347 0.986040 0.652815
Si Si3 0.185249 0.532716 0.507177
Si Si4 0.870132 0.774034 0.117588
Si Si5 0.720395 0.176343 0.695847
Si Si6 0.485295 0.430833 0.189890
Si Si7 0.134908 0.791758 0.904792
O O1 0.087010 0.490303 0.730204
O O2 0.055142 0.307520 0.783088
O O3 0.878005 0.439007 0.708352
O O4 0.129955 0.303834 0.216522
O O5 0.661312 0.078987 0.685282
O O6 0.500000 0.000000 0.500000
O O7 0.716723 0.857509 0.410809
O O8 0.500000 0.000000 0.000000
O O9 0.335163 0.428599 0.287494
O O10 0.195126 0.650317 0.728710
O O11 0.970392 0.841997 0.041829
O O12 0.789354 0.165765 0.341093
O O13 0.594360 0.299376 0.969463
O O14 0.837427 0.157602 0.792350
O O15 0.500000 0.500000 0.500000
O O16 0.500000 0.500000 0.000000
#
# Coordination Sequence:
#
# PCOD8019120 Si02
#       7
#     2   2   2   2   2   2   2
#     4  10  24  41  69  99 136 179 224 270 331 389
#     4  12  29  50  71  98 135 172 226 279 335 405
#     4  10  22  41  65 101 139 176 218 271 325 402
#     4  11  25  45  70  99 131 181 225 279 330 386
#     4  12  25  45  67 101 131 179 218 279 331 388
#     4  12  24  39  65 100 137 177 213 264 342 395
#     4  11  23  43  69  98 137 166 228 274 326 396
#
# _framework density 22.808806000000001
#
# number of rings (size 3 to 8) (size 9 to 14) (size 15 to 20)
#    0.000    0.857    2.857    3.429    4.000    8.571 
#    0.000    0.000    0.000    0.000    0.000    0.000 
#    0.000    0.000    0.000    0.000    0.000    0.000 
#
# Total GULP energy -173601.259199 kJ/mol
# GULP energy per Si atom -12400.089943 kJ/mol
# Density = 2.275689 g / cm^3
# Si number density = 22.808806 Si / 1000 Ang^3
#
#
#
# Elastic Constant Matrix: (Units=GPa)
#
#
# Indices 1 2 3 4 5 6 
#
# 1 127.4527 34.4040 30.7981 1.5183 -7.2668 0.5617
# 2 34.4040 90.6010 27.8993 -19.1970 2.6189 9.2940
# 3 30.7981 27.8993 96.1077 -10.0923 -12.3320 -13.3756
# 4 1.5183 -19.1970 -10.0923 39.0161 -4.0956 -8.0147
# 5 -7.2668 2.6189 -12.3320 -4.0956 50.7896 4.0983
# 6 0.5617 9.2940 -13.3756 -8.0147 4.0983 39.8074
#
#
#
# Elastic Compliance Matrix: (Units=1/GPa)
#
#
# Indices 1 2 3 4 5 6 
#
# 1 0.009397 -0.003372 -0.002317 -0.002694 0.000799 -0.000749
# 2 -0.003372 0.014925 -0.003256 0.005833 -0.001312 -0.003222
# 3 -0.002317 -0.003256 0.013647 0.003517 0.002967 0.005781
# 4 -0.002694 0.005833 0.003517 0.030949 0.002190 0.005864
# 5 0.000799 -0.001312 0.002967 0.002190 0.020801 -0.000408
# 6 -0.000749 -0.003222 0.005781 0.005864 -0.000408 0.029049
#
#
# Mechanical properties :
#
#
# Convention : Reuss Voigt Hill
#
# Bulk Modulus (GPa) = 49.80373 55.59603 52.69988
# Shear Modulus (GPa) = 34.87908 40.65997 37.76952
#
# Velocity S-wave (km/s) = 3.91473 4.22672 4.07371
# Velocity P-wave (km/s) = 6.50509 6.94607 6.72919
#
# Compressibility (1/GPa) = 0.02007882
#
# Stress axis : x y z
#
# Youngs Moduli (GPa) = 106.41564 67.00224 73.27377
#
# Poissons Ratio (x) = 0.22593 0.16978
# Poissons Ratio (y) = 0.35883 0.23860
# Poissons Ratio (z) = 0.24657 0.21818
#
# Static dielectric constant tensor:
#      x y z
#    x 4.381080 -0.009240 -0.058300 
#    y -0.009240 4.097310 0.000880 
#    z -0.058300 0.000880 4.508050 
# 
# 
# High freq. dielectric constant tensor:
#      x y z
#    x 1.917900 0.000500 -0.000210 
#    y 0.000500 1.895060 -0.009530 
#    z -0.000210 -0.009530 1.911130 
# 
# From -- ./inp_files/74906.got.cif
#   From: 2010.06.25/outbox.cif.g09.slc.cpg/sg2_38_cif.got.tgz:74906.got - 2010.06.27 13:26:56.
