data_PCOD8019598
_publ_section_title
;
Structure prediction by ZEFSAII (Michael W. Deem and Ramdas Pophale) SiO2 
 PCOD8019598
Probable space group: P -1
;
_chemical_formula_sum "Si O2"
_cell_formula_units_Z 16
_cell_length_a 14.834126
_cell_length_b 16.751274
_cell_length_c 5.584406
_cell_angle_alpha 87.621123
_cell_angle_beta 77.454080
_cell_angle_gamma 147.875677
_cell_volume 648.781846
_symmetry_space_group_name_H-M "P -1"
_symmetry_group_IT_number 2
_symmetry_cell_setting 'triclinic'
loop_
_space_group_symop_operation_xyz
x,y,z
-x,-y,-z
loop_
_atom_site_type_symbol
_atom_site_label
_atom_site_fract_x
_atom_site_fract_y
_atom_site_fract_z
Si Si1 0.674658 0.354036 0.238486
Si Si2 0.529499 0.355351 0.957213
Si Si3 0.041842 0.077949 0.212134
Si Si4 0.358496 0.424725 0.795399
Si Si5 0.850555 0.617875 0.375091
Si Si6 0.594147 0.125328 0.229685
Si Si7 0.706186 0.912246 0.224948
Si Si8 0.264154 0.913062 0.116853
O O1 0.850003 0.533755 0.239631
O O2 0.722645 0.295716 0.236958
O O3 0.489974 0.244885 0.500676
O O4 0.636998 0.356694 0.990527
O O5 0.676006 0.503254 0.664799
O O6 0.322906 0.171929 0.978009
O O7 0.510267 0.411003 0.158067
O O8 0.261738 0.282238 0.040530
O O9 0.000000 0.000000 0.500000
O O10 0.878908 0.023500 0.293776
O O11 0.000000 0.000000 0.000000
O O12 0.500000 0.500000 0.500000
O O13 0.168128 0.322580 0.807034
O O14 0.055709 0.772053 0.372812
O O15 0.500000 0.000000 0.500000
O O16 0.425739 0.048158 0.205873
O O17 0.717816 0.164727 0.976026
O O18 0.717247 0.012209 0.122961
#
# Coordination Sequence:
#
# PCOD8019598 Si02
#       8
#     2   2   2   2   2   2   2   2
#     4  10  22  41  69 102 140 187 244 298 367 448
#     4  10  24  45  74 100 146 197 241 303 384 452
#     4  12  32  50  76 116 154 198 263 327 389 463
#     4  11  27  49  75 110 154 196 254 320 391 464
#     4  10  24  44  69 104 142 196 245 297 382 453
#     4  11  23  40  69 105 145 186 242 307 375 440
#     4  11  23  46  74 102 143 195 252 301 374 456
#     4  11  23  42  70 107 142 189 244 302 369 451
#
# _framework density 24.6616
#
# number of rings (size 3 to 8) (size 9 to 14) (size 15 to 20)
#    0.000    1.250    3.750    0.000    8.750    4.000 
#    0.000    1.875    0.000    0.000    0.000    0.000 
#    0.000    0.000    0.000    0.000    0.000    0.000 
#
# Total GULP energy -198242.627051 kJ/mol
# GULP energy per Si atom -12390.164191 kJ/mol
# Density = 2.460547 g / cm^3
# Si number density = 24.661600 Si / 1000 Ang^3
#
#
#
# Elastic Constant Matrix: (Units=GPa)
#
#
# Indices 1 2 3 4 5 6 
#
# 1 116.4939 51.1272 32.2721 4.9366 22.0899 -8.0083
# 2 51.1272 73.8228 26.8050 -3.3376 -3.0933 -0.0411
# 3 32.2721 26.8050 100.5265 -1.6191 17.3067 0.4062
# 4 4.9366 -3.3376 -1.6191 36.6157 -3.4717 -2.2101
# 5 22.0899 -3.0933 17.3067 -3.4717 40.7283 1.4095
# 6 -8.0083 -0.0411 0.4062 -2.2101 1.4095 56.8592
#
#
#
# Elastic Compliance Matrix: (Units=1/GPa)
#
#
# Indices 1 2 3 4 5 6 
#
# 1 0.015899 -0.011431 -0.000457 -0.003987 -0.009717 0.002320
# 2 -0.011431 0.023663 -0.004330 0.004381 0.010268 -0.001646
# 3 -0.000457 -0.004330 0.012151 -0.000298 -0.005269 -0.000035
# 4 -0.003987 0.004381 -0.000298 0.028740 0.005056 0.000436
# 5 -0.009717 0.010268 -0.005269 0.005056 0.033341 -0.001954
# 6 0.002320 -0.001646 -0.000035 0.000436 -0.001954 0.017978
#
#
# Mechanical properties :
#
#
# Convention : Reuss Voigt Hill
#
# Bulk Modulus (GPa) = 51.87663 56.80577 54.34120
# Shear Modulus (GPa) = 29.30258 38.88323 34.09291
#
# Velocity S-wave (km/s) = 3.45075 3.97504 3.72214
# Velocity P-wave (km/s) = 6.07930 6.64470 6.36828
#
# Compressibility (1/GPa) = 0.01927650
#
# Stress axis : x y z
#
# Youngs Moduli (GPa) = 62.89815 42.26085 82.29613
#
# Poissons Ratio (x) = 0.48310 0.03757
# Poissons Ratio (y) = 0.71901 0.35636
# Poissons Ratio (z) = 0.02871 0.18300
#
# Static dielectric constant tensor:
#      x y z
#    x 4.616990 0.022850 0.363930 
#    y 0.022850 4.719220 0.331150 
#    z 0.363930 0.331150 4.996590 
# 
# 
# High freq. dielectric constant tensor:
#      x y z
#    x 1.994130 -0.009480 0.012770 
#    y -0.009480 1.978530 0.003790 
#    z 0.012770 0.003790 1.972550 
# 
# From -- ./inp_files/99694.got.cif
#   From: 2010.06.25/outbox.cif.g09.slc.cpg/sg2_50_cif.got.tgz:99694.got - 2010.06.27 13:26:56.
