data_PCOD8019052
_publ_section_title
;
Structure prediction by ZEFSAII (Michael W. Deem and Ramdas Pophale) SiO2 
 PCOD8019052
Probable space group: P -1
;
_chemical_formula_sum "Si O2"
_cell_formula_units_Z 16
_cell_length_a 8.546571
_cell_length_b 13.371941
_cell_length_c 16.913337
_cell_angle_alpha 129.675162
_cell_angle_beta 127.996725
_cell_angle_gamma 30.194439
_cell_volume 737.999098
_symmetry_space_group_name_H-M "P -1"
_symmetry_group_IT_number 2
_symmetry_cell_setting 'triclinic'
loop_
_space_group_symop_operation_xyz
x,y,z
-x,-y,-z
loop_
_atom_site_type_symbol
_atom_site_label
_atom_site_fract_x
_atom_site_fract_y
_atom_site_fract_z
Si Si1 0.660066 0.943901 0.104672
Si Si2 0.598065 0.673192 0.699134
Si Si3 0.585196 0.458378 0.858270
Si Si4 0.632901 0.175571 0.467163
Si Si5 0.705642 0.664192 0.050129
Si Si6 0.363144 0.552039 0.657707
Si Si7 0.625015 0.949529 0.602841
Si Si8 0.285795 0.360626 0.778301
O O1 0.535642 0.887871 0.092238
O O2 0.039079 0.753183 0.126521
O O3 0.541185 0.141292 0.197938
O O4 0.500000 0.000000 0.000000
O O5 0.419685 0.754043 0.602729
O O6 0.569504 0.552194 0.675197
O O7 0.959311 0.514949 0.707742
O O8 0.440743 0.523438 0.759272
O O9 0.424773 0.433578 0.851247
O O10 0.485987 0.650399 0.958684
O O11 0.457792 0.359067 0.565743
O O12 0.519913 0.087625 0.405399
O O13 0.000000 0.000000 0.500000
O O14 0.807111 0.617844 0.149092
O O15 0.000000 0.500000 0.000000
O O16 0.000403 0.756031 0.625676
O O17 0.500000 0.000000 0.500000
O O18 0.531499 0.134985 0.704154
#
# Coordination Sequence:
#
# PCOD8019052 Si02
#       8
#     2   2   2   2   2   2   2   2
#     4  11  22  41  65  92 126 169 210 258 319 383
#     4  12  23  40  64  94 126 167 215 265 318 380
#     4  11  23  42  64  94 128 166 210 262 318 383
#     4  12  24  41  64  95 128 168 216 267 318 381
#     4  10  22  41  64  92 127 165 207 260 317 376
#     4  12  24  43  66  93 129 172 212 263 323 380
#     4  12  25  44  65  94 131 172 215 266 320 379
#     4  12  24  42  66  96 128 167 215 267 318 380
#
# _framework density 21.680243000000001
#
# number of rings (size 3 to 8) (size 9 to 14) (size 15 to 20)
#    0.000    0.500    0.000   10.875    0.000    0.000 
#    0.000    1.875    0.000    0.000    0.000    0.000 
#    0.000    0.000    0.000    0.000    0.000    0.000 
#
# Total GULP energy -198449.247278 kJ/mol
# GULP energy per Si atom -12403.077955 kJ/mol
# Density = 2.163090 g / cm^3
# Si number density = 21.680243 Si / 1000 Ang^3
#
#
#
# Elastic Constant Matrix: (Units=GPa)
#
#
# Indices 1 2 3 4 5 6 
#
# 1 105.6482 35.6626 22.1345 0.0906 19.2498 11.9040
# 2 35.6626 106.6906 32.6834 -26.2990 6.6303 -10.9436
# 3 22.1345 32.6834 106.6383 -19.6917 -2.7180 1.5186
# 4 0.0906 -26.2990 -19.6917 37.5727 10.7984 3.0321
# 5 19.2498 6.6303 -2.7180 10.7984 48.5078 -2.4518
# 6 11.9040 -10.9436 1.5186 3.0321 -2.4518 49.7172
#
#
#
# Elastic Compliance Matrix: (Units=1/GPa)
#
#
# Indices 1 2 3 4 5 6 
#
# 1 0.012525 -0.004429 -0.001762 -0.002557 -0.004095 -0.003966
# 2 -0.004429 0.014217 -0.001818 0.009350 -0.002189 0.003567
# 3 -0.001762 -0.001818 0.011146 0.004461 0.000551 -0.000564
# 4 -0.002557 0.009350 0.004461 0.037955 -0.008472 -0.000198
# 5 -0.004095 -0.002189 0.000551 -0.008472 0.024568 0.002210
# 6 -0.003966 0.003567 -0.000564 -0.000198 0.002210 0.021987
#
#
# Mechanical properties :
#
#
# Convention : Reuss Voigt Hill
#
# Bulk Modulus (GPa) = 45.72695 55.54867 50.63781
# Shear Modulus (GPa) = 34.31539 42.39266 38.35402
#
# Velocity S-wave (km/s) = 3.98275 4.42674 4.21060
# Velocity P-wave (km/s) = 6.50285 7.19760 6.85903
#
# Compressibility (1/GPa) = 0.02186894
#
# Stress axis : x y z
#
# Youngs Moduli (GPa) = 79.84036 70.33751 89.71641
#
# Poissons Ratio (x) = 0.31156 0.15811
# Poissons Ratio (y) = 0.35365 0.16310
# Poissons Ratio (z) = 0.14070 0.12787
#
# Static dielectric constant tensor:
#      x y z
#    x 4.065370 0.287320 0.301480 
#    y 0.287320 4.065670 0.076940 
#    z 0.301480 0.076940 4.228040 
# 
# 
# High freq. dielectric constant tensor:
#      x y z
#    x 1.858840 0.014910 0.008270 
#    y 0.014910 1.862290 -0.001340 
#    z 0.008270 -0.001340 1.873430 
# 
# From -- ./inp_files/559963.got.cif
#   From: 2010.06.25/outbox.cif.g09.slc.cpg/sg2_280_cif.got.tgz:559963.got - 2010.06.27 13:26:56.
