data_PCOD8019397
_publ_section_title
;
Structure prediction by ZEFSAII (Michael W. Deem and Ramdas Pophale) SiO2 
 PCOD8019397
Probable space group: P -1
;
_chemical_formula_sum "Si O2"
_cell_formula_units_Z 14
_cell_length_a 12.200843
_cell_length_b 7.780690
_cell_length_c 9.378029
_cell_angle_alpha 103.102695
_cell_angle_beta 56.527025
_cell_angle_gamma 126.295276
_cell_volume 591.898198
_symmetry_space_group_name_H-M "P -1"
_symmetry_group_IT_number 2
_symmetry_cell_setting 'triclinic'
loop_
_space_group_symop_operation_xyz
x,y,z
-x,-y,-z
loop_
_atom_site_type_symbol
_atom_site_label
_atom_site_fract_x
_atom_site_fract_y
_atom_site_fract_z
Si Si1 0.669310 0.966439 0.502580
Si Si2 0.786673 0.933483 0.925707
Si Si3 0.494697 0.186484 0.711356
Si Si4 0.758531 0.557482 0.015276
Si Si5 0.076063 0.411494 0.830721
Si Si6 0.401040 0.340017 0.252711
Si Si7 0.969303 0.398739 0.348619
O O1 0.606089 0.102284 0.639889
O O2 0.862767 0.138674 0.382773
O O3 0.587307 0.867811 0.393441
O O4 0.636292 0.772250 0.588215
O O5 0.739018 0.823872 0.784439
O O6 0.949471 0.164647 0.835275
O O7 0.644145 0.942703 0.094594
O O8 0.821014 0.801069 0.984298
O O9 0.595809 0.444994 0.704721
O O10 0.570807 0.396385 0.081577
O O11 0.776673 0.548440 0.172561
O O12 0.860549 0.500134 0.834510
O O13 0.133455 0.541238 0.664122
O O14 0.000000 0.500000 0.000000
O O15 0.000000 0.500000 0.500000
#
# Coordination Sequence:
#
# PCOD8019397 Si02
#       7
#     2   2   2   2   2   2   2
#     4  11  25  42  68  97 138 179 217 277 338 399
#     4  11  23  44  69 101 131 174 227 280 331 395
#     4  10  23  42  68  97 136 171 229 274 332 397
#     4  10  23  43  69  95 131 177 221 278 327 402
#     4  10  22  41  67  94 132 174 223 263 331 405
#     4  11  25  44  72 101 134 176 229 280 333 393
#     4  11  25  42  63  99 137 172 221 274 339 398
#
# _framework density 23.652716999999999
#
# number of rings (size 3 to 8) (size 9 to 14) (size 15 to 20)
#    0.000    1.429    0.000    5.143   12.000    1.714 
#    2.571    1.429    0.000    0.000    0.000    0.000 
#    0.000    0.000    0.000    0.000    0.000    0.000 
#
# Total GULP energy -173610.835423 kJ/mol
# GULP energy per Si atom -12400.773959 kJ/mol
# Density = 2.359888 g / cm^3
# Si number density = 23.652717 Si / 1000 Ang^3
#
#
#
# Elastic Constant Matrix: (Units=GPa)
#
#
# Indices 1 2 3 4 5 6 
#
# 1 62.5915 12.0236 2.3867 13.1838 12.2284 5.0175
# 2 12.0236 73.8777 5.2306 7.8587 9.8159 5.5368
# 3 2.3867 5.2306 66.1561 7.5233 16.9714 0.7822
# 4 13.1838 7.8587 7.5233 38.3742 0.3162 12.5861
# 5 12.2284 9.8159 16.9714 0.3162 28.4772 -0.0298
# 6 5.0175 5.5368 0.7822 12.5861 -0.0298 29.2181
#
#
#
# Elastic Compliance Matrix: (Units=1/GPa)
#
#
# Indices 1 2 3 4 5 6 
#
# 1 0.019398 -0.001367 0.002565 -0.006728 -0.009313 -0.000252
# 2 -0.001367 0.014694 0.000330 -0.002009 -0.004654 -0.001698
# 3 0.002565 0.000330 0.018693 -0.004867 -0.012301 0.001080
# 4 -0.006728 -0.002009 -0.004867 0.033931 0.006092 -0.012944
# 5 -0.009313 -0.004654 -0.012301 0.006092 0.047983 0.000235
# 6 -0.000252 -0.001698 0.001080 -0.012944 0.000235 0.040138
#
#
# Mechanical properties :
#
#
# Convention : Reuss Voigt Hill
#
# Bulk Modulus (GPa) = 17.90714 26.87857 22.39286
# Shear Modulus (GPa) = 26.26128 31.41286 28.83707
#
# Velocity S-wave (km/s) = 3.33571 3.64825 3.49547
# Velocity P-wave (km/s) = 4.73532 5.39766 5.07730
#
# Compressibility (1/GPa) = 0.05584364
#
# Stress axis : x y z
#
# Youngs Moduli (GPa) = 51.55124 68.05339 53.49484
#
# Poissons Ratio (x) = 0.09301 -0.13724
# Poissons Ratio (y) = 0.07045 -0.01766
# Poissons Ratio (z) = -0.13225 -0.02246
#
# Static dielectric constant tensor:
#      x y z
#    x 4.940760 -0.345110 0.336770 
#    y -0.345110 4.362800 -0.200560 
#    z 0.336770 -0.200560 4.375000 
# 
# 
# High freq. dielectric constant tensor:
#      x y z
#    x 1.941630 0.001000 0.013800 
#    y 0.001000 1.940850 -0.001980 
#    z 0.013800 -0.001980 1.931980 
# 
# From -- ./inp_files/225597.got.cif
#   From: 2010.06.25/outbox.cif.g09.slc.cpg/sg2_113_cif.got.tgz:225597.got - 2010.06.27 13:26:56.
