data_PCOD8019704
_publ_section_title
;
Structure prediction by ZEFSAII (Michael W. Deem and Ramdas Pophale) SiO2 
 PCOD8019704
Probable space group: P -1
;
_chemical_formula_sum "Si O2"
_cell_formula_units_Z 16
_cell_length_a 14.187215
_cell_length_b 9.142547
_cell_length_c 11.340023
_cell_angle_alpha 76.828200
_cell_angle_beta 30.871697
_cell_angle_gamma 76.157162
_cell_volume 732.066616
_symmetry_space_group_name_H-M "P -1"
_symmetry_group_IT_number 2
_symmetry_cell_setting 'triclinic'
loop_
_space_group_symop_operation_xyz
x,y,z
-x,-y,-z
loop_
_atom_site_type_symbol
_atom_site_label
_atom_site_fract_x
_atom_site_fract_y
_atom_site_fract_z
Si Si1 0.774465 0.164472 0.651546
Si Si2 0.204798 0.037080 0.799408
Si Si3 0.352109 0.325643 0.474624
Si Si4 0.170663 0.173135 0.300386
Si Si5 0.754298 0.787747 0.053285
Si Si6 0.404055 0.728770 0.569076
Si Si7 0.854769 0.365939 0.318831
Si Si8 0.550271 0.668024 0.894599
O O1 0.767515 0.242052 0.517040
O O2 0.951602 0.213407 0.523610
O O3 0.784227 0.985517 0.652366
O O4 0.596910 0.212901 0.909723
O O5 0.247478 0.184162 0.653748
O O6 0.220645 0.068527 0.916287
O O7 0.352179 0.901434 0.629783
O O8 0.000000 0.000000 0.000000
O O9 0.514586 0.359425 0.385978
O O10 0.200727 0.468063 0.602202
O O11 0.444944 0.294597 0.254735
O O12 0.254006 0.306523 0.259383
O O13 0.253491 0.157699 0.082653
O O14 0.564298 0.717723 0.300162
O O15 0.924111 0.660614 0.917825
O O16 0.228323 0.652729 0.719938
O O17 0.500000 0.500000 0.000000
#
# Coordination Sequence:
#
# PCOD8019704 Si02
#       8
#     2   2   2   2   2   2   2   2
#     4  10  23  43  69  99 132 177 234 268 336 404
#     4  11  24  45  68 101 131 174 220 285 331 396
#     4  11  26  43  65  99 137 176 224 269 339 398
#     4  10  24  42  70  98 129 187 222 280 336 394
#     4  10  22  41  70  94 134 166 227 271 332 393
#     4  11  24  43  68  95 131 169 224 271 336 395
#     4  11  22  45  65  98 134 175 219 275 331 404
#     4  12  25  45  66 100 141 175 225 280 335 396
#
# _framework density 21.855933
#
# number of rings (size 3 to 8) (size 9 to 14) (size 15 to 20)
#    0.000    1.250    2.500    3.000    5.250    3.500 
#    2.250    0.000    0.000    0.000    0.000    0.000 
#    0.000    0.000    0.000    0.000    0.000    0.000 
#
# Total GULP energy -198470.187303 kJ/mol
# GULP energy per Si atom -12404.386706 kJ/mol
# Density = 2.180619 g / cm^3
# Si number density = 21.855933 Si / 1000 Ang^3
#
#
#
# Elastic Constant Matrix: (Units=GPa)
#
#
# Indices 1 2 3 4 5 6 
#
# 1 94.8748 25.1191 28.9711 -14.3900 2.4290 -6.5905
# 2 25.1191 88.3938 14.6484 -0.0942 -6.4884 -7.4505
# 3 28.9711 14.6484 75.2872 5.6317 2.8141 -11.1323
# 4 -14.3900 -0.0942 5.6317 39.8264 -2.5139 -4.4007
# 5 2.4290 -6.4884 2.8141 -2.5139 38.7160 -3.2144
# 6 -6.5905 -7.4505 -11.1323 -4.4007 -3.2144 28.7874
#
#
#
# Elastic Compliance Matrix: (Units=1/GPa)
#
#
# Indices 1 2 3 4 5 6 
#
# 1 0.013842 -0.003036 -0.004959 0.005805 -0.000532 0.001294
# 2 -0.003036 0.012735 -0.001011 -0.000494 0.002567 0.002421
# 3 -0.004959 -0.001011 0.016327 -0.003692 -0.000932 0.004248
# 4 0.005805 -0.000494 -0.003692 0.028333 0.002021 0.004330
# 5 -0.000532 0.002567 -0.000932 0.002021 0.026781 0.003481
# 6 0.001294 0.002421 0.004248 0.004330 0.003481 0.038354
#
#
# Mechanical properties :
#
#
# Convention : Reuss Voigt Hill
#
# Bulk Modulus (GPa) = 40.17148 44.00367 42.08757
# Shear Modulus (GPa) = 30.73524 34.12046 32.42785
#
# Velocity S-wave (km/s) = 3.75409 3.95543 3.85607
# Velocity P-wave (km/s) = 6.10008 6.40607 6.25495
#
# Compressibility (1/GPa) = 0.02489328
#
# Stress axis : x y z
#
# Youngs Moduli (GPa) = 72.24328 78.52293 61.24995
#
# Poissons Ratio (x) = 0.23837 0.30374
# Poissons Ratio (y) = 0.21930 0.06190
# Poissons Ratio (z) = 0.35825 0.07936
#
# Static dielectric constant tensor:
#      x y z
#    x 4.054200 -0.065180 -0.017840 
#    y -0.065180 3.869210 0.137190 
#    z -0.017840 0.137190 4.093980 
# 
# 
# High freq. dielectric constant tensor:
#      x y z
#    x 1.864560 -0.003820 -0.005350 
#    y -0.003820 1.856180 0.006340 
#    z -0.005350 0.006340 1.866280 
# 
# From -- ./inp_files/272594.got.cif
#   From: 2010.06.25/outbox.cif.g09.slc.cpg/sg2_137_cif.got.tgz:272594.got - 2010.06.27 13:26:56.
