data_PCOD8019754
_publ_section_title
;
Structure prediction by ZEFSAII (Michael W. Deem and Ramdas Pophale) SiO2 
 PCOD8019754
Probable space group: P -1
;
_chemical_formula_sum "Si O2"
_cell_formula_units_Z 16
_cell_length_a 22.609554
_cell_length_b 14.429031
_cell_length_c 11.057996
_cell_angle_alpha 49.739909
_cell_angle_beta 148.536155
_cell_angle_gamma 151.008863
_cell_volume 838.564448
_symmetry_space_group_name_H-M "P -1"
_symmetry_group_IT_number 2
_symmetry_cell_setting 'triclinic'
loop_
_space_group_symop_operation_xyz
x,y,z
-x,-y,-z
loop_
_atom_site_type_symbol
_atom_site_label
_atom_site_fract_x
_atom_site_fract_y
_atom_site_fract_z
Si Si1 0.516390 0.616394 0.276844
Si Si2 0.710128 0.741361 0.171816
Si Si3 0.780636 0.436119 0.610899
Si Si4 0.226382 0.177157 0.225963
Si Si5 0.231323 0.357926 0.434881
Si Si6 0.484378 0.217240 0.080938
Si Si7 0.231286 0.842687 0.097263
Si Si8 0.823563 0.995294 0.951269
O O1 0.317080 0.389370 0.175518
O O2 0.669658 0.785753 0.504954
O O3 0.595717 0.572693 0.372823
O O4 0.477653 0.705830 0.055869
O O5 0.847143 0.772144 0.465635
O O6 0.796966 0.844655 0.104550
O O7 0.500000 0.500000 0.000000
O O8 0.685466 0.845805 0.110442
O O9 0.692320 0.441998 0.561369
O O10 0.689678 0.401308 0.354264
O O11 0.716784 0.243534 0.687009
O O12 0.011829 0.654807 0.823932
O O13 0.263145 0.105883 0.247328
O O14 0.000000 0.000000 0.000000
O O15 0.055314 0.217204 0.152688
O O16 0.378906 0.995958 0.111994
O O17 0.267432 0.968811 0.166167
#
# Coordination Sequence:
#
# PCOD8019754 Si02
#       8
#     2   2   2   2   2   2   2   2
#     4  10  23  36  53  80 108 134 181 214 263 313
#     4  10  17  28  45  79 109 133 162 205 268 323
#     4  10  19  33  52  80 116 138 167 205 264 314
#     4  11  22  38  53  75 106 143 177 219 260 306
#     4  10  18  31  51  81 108 134 164 210 263 327
#     4  10  19  33  53  77 108 139 167 215 261 316
#     4   9  21  34  51  85 107 138 175 208 254 324
#     4  10  19  32  53  72 107 140 172 211 263 303
#
# _framework density 19.080227000000001
#
# number of rings (size 3 to 8) (size 9 to 14) (size 15 to 20)
#    0.000    2.000    2.500    2.250    1.750    2.000 
#    0.000    0.000    0.000    0.750    0.000    3.500 
#    0.000    0.000    0.000    0.000    0.000    0.000 
#
# Total GULP energy -198229.311038 kJ/mol
# GULP energy per Si atom -12389.331940 kJ/mol
# Density = 1.903680 g / cm^3
# Si number density = 19.080227 Si / 1000 Ang^3
#
#
#
# Elastic Constant Matrix: (Units=GPa)
#
#
# Indices 1 2 3 4 5 6 
#
# 1 70.3445 40.9478 40.0217 -5.0034 -21.8146 -1.3366
# 2 40.9478 96.2416 41.5331 1.5401 -16.0192 0.7536
# 3 40.0217 41.5331 97.3199 -4.0836 -30.1763 -1.9095
# 4 -5.0034 1.5401 -4.0836 25.8061 -2.3858 0.5335
# 5 -21.8146 -16.0192 -30.1763 -2.3858 32.5810 0.1486
# 6 -1.3366 0.7536 -1.9095 0.5335 0.1486 26.2007
#
#
#
# Elastic Compliance Matrix: (Units=1/GPa)
#
#
# Indices 1 2 3 4 5 6 
#
# 1 0.023678 -0.007060 -0.003540 0.005309 0.009488 0.000991
# 2 -0.007060 0.014975 -0.004045 -0.003004 -0.001326 -0.001017
# 3 -0.003540 -0.004045 0.017317 0.003375 0.011922 0.001061
# 4 0.005309 -0.003004 0.003375 0.041260 0.008226 -0.000284
# 5 0.009488 -0.001326 0.011922 0.008226 0.048033 0.000951
# 6 0.000991 -0.001017 0.001061 -0.000284 0.000951 0.038324
#
#
# Mechanical properties :
#
#
# Convention : Reuss Voigt Hill
#
# Bulk Modulus (GPa) = 37.48126 56.54570 47.01348
# Shear Modulus (GPa) = 22.54581 26.34446 24.44513
#
# Velocity S-wave (km/s) = 3.44122 3.71984 3.58324
# Velocity P-wave (km/s) = 5.95617 6.93900 6.46628
#
# Compressibility (1/GPa) = 0.02668000
#
# Stress axis : x y z
#
# Youngs Moduli (GPa) = 42.23273 66.77710 57.74832
#
# Poissons Ratio (x) = 0.47145 0.20445
# Poissons Ratio (y) = 0.29816 0.23357
# Poissons Ratio (z) = 0.14952 0.27009
#
# Static dielectric constant tensor:
#      x y z
#    x 3.356500 0.003490 -0.142510 
#    y 0.003490 3.794680 -0.121990 
#    z -0.142510 -0.121990 3.660770 
# 
# 
# High freq. dielectric constant tensor:
#      x y z
#    x 1.698720 0.003070 -0.012410 
#    y 0.003070 1.747450 0.017100 
#    z -0.012410 0.017100 1.745050 
# 
# From -- ./inp_files/431584.got.cif
#   From: 2010.06.25/outbox.cif.g09.slc.cpg/sg2_216_cif.got.tgz:431584.got - 2010.06.27 13:26:56.
