data_PCOD8019746
_publ_section_title
;
Structure prediction by ZEFSAII (Michael W. Deem and Ramdas Pophale) SiO2 
 PCOD8019746
Probable space group: P -1
;
_chemical_formula_sum "Si O2"
_cell_formula_units_Z 14
_cell_length_a 8.549687
_cell_length_b 15.058499
_cell_length_c 14.866801
_cell_angle_alpha 153.476552
_cell_angle_beta 107.004646
_cell_angle_gamma 56.777098
_cell_volume 606.592043
_symmetry_space_group_name_H-M "P -1"
_symmetry_group_IT_number 2
_symmetry_cell_setting 'triclinic'
loop_
_space_group_symop_operation_xyz
x,y,z
-x,-y,-z
loop_
_atom_site_type_symbol
_atom_site_label
_atom_site_fract_x
_atom_site_fract_y
_atom_site_fract_z
Si Si1 0.935096 0.994337 0.801783
Si Si2 0.325465 0.415839 0.343450
Si Si3 0.609676 0.071675 0.464145
Si Si4 0.271843 0.053944 0.918966
Si Si5 0.533392 0.547157 0.792381
Si Si6 0.176397 0.365730 0.021845
Si Si7 0.769832 0.895337 0.518742
O O1 0.880955 0.970513 0.668532
O O2 0.111487 0.697218 0.605307
O O3 0.040163 0.127808 0.939637
O O4 0.718450 0.175572 0.990732
O O5 0.384090 0.483547 0.322524
O O6 0.531527 0.259083 0.304739
O O7 0.257273 0.241233 0.160174
O O8 0.559554 0.296759 0.595847
O O9 0.403178 0.090782 0.440587
O O10 0.824244 0.767782 0.190283
O O11 0.655621 0.100520 0.600783
O O12 0.324701 0.111464 0.884696
O O13 0.689397 0.538165 0.880964
O O14 0.941270 0.595914 0.235868
#
# Coordination Sequence:
#
# PCOD8019746 Si02
#       7
#     2   2   2   2   2   2   2
#     4  12  22  41  64  95 129 166 204 267 310 376
#     4  10  23  46  61  98 126 166 214 255 308 390
#     4  11  25  44  64  92 128 171 209 268 302 379
#     4  10  22  41  71  87 131 169 204 258 324 363
#     4  11  24  39  67  95 126 163 217 256 315 370
#     4  11  22  45  64  95 123 170 212 262 308 381
#     4  11  24  44  64  93 130 165 217 253 323 368
#
# _framework density 23.079764000000001
#
# number of rings (size 3 to 8) (size 9 to 14) (size 15 to 20)
#    0.000    1.143    4.286    2.571    0.000    1.714 
#    2.571    7.857    0.000    0.000    0.000    0.000 
#    0.000    0.000    0.000    0.000    0.000    0.000 
#
# Total GULP energy -173593.867807 kJ/mol
# GULP energy per Si atom -12399.561986 kJ/mol
# Density = 2.302723 g / cm^3
# Si number density = 23.079764 Si / 1000 Ang^3
#
#
#
# Elastic Constant Matrix: (Units=GPa)
#
#
# Indices 1 2 3 4 5 6 
#
# 1 81.0258 13.9260 23.4613 4.4053 2.6043 -3.9718
# 2 13.9260 56.1531 -3.3806 4.1085 14.0296 0.0445
# 3 23.4613 -3.3806 106.5288 14.1612 -15.7122 8.4696
# 4 4.4053 4.1085 14.1612 29.6599 -3.3479 8.0420
# 5 2.6043 14.0296 -15.7122 -3.3479 30.6855 4.5451
# 6 -3.9718 0.0445 8.4696 8.0420 4.5451 31.6867
#
#
#
# Elastic Compliance Matrix: (Units=1/GPa)
#
#
# Indices 1 2 3 4 5 6 
#
# 1 0.014246 -0.003102 -0.003699 -0.001099 -0.002307 0.003389
# 2 -0.003102 0.021457 0.000275 -0.004355 -0.010188 0.002074
# 3 -0.003699 0.000275 0.011916 -0.003445 0.006462 -0.003702
# 4 -0.001099 -0.004355 -0.003445 0.039567 0.006139 -0.010133
# 5 -0.002307 -0.010188 0.006462 0.006139 0.042859 -0.009708
# 6 0.003389 0.002074 -0.003702 -0.010133 -0.009708 0.036934
#
#
# Mechanical properties :
#
#
# Convention : Reuss Voigt Hill
#
# Bulk Modulus (GPa) = 28.92904 34.63566 31.78235
# Shear Modulus (GPa) = 26.10234 32.38650 29.24442
#
# Velocity S-wave (km/s) = 3.36663 3.75005 3.56350
# Velocity P-wave (km/s) = 5.26059 5.81292 5.54364
#
# Compressibility (1/GPa) = 0.03456734
#
# Stress axis : x y z
#
# Youngs Moduli (GPa) = 70.19485 46.60534 83.92094
#
# Poissons Ratio (x) = 0.14455 0.31046
# Poissons Ratio (y) = 0.21771 -0.02311
# Poissons Ratio (z) = 0.25969 -0.01283
#
# Static dielectric constant tensor:
#      x y z
#    x 4.079720 -0.194580 0.065160 
#    y -0.194580 4.127390 0.053100 
#    z 0.065160 0.053100 4.190570 
# 
# 
# High freq. dielectric constant tensor:
#      x y z
#    x 1.910750 -0.013860 0.007000 
#    y -0.013860 1.904040 0.005640 
#    z 0.007000 0.005640 1.917800 
# 
# From -- ./inp_files/504648.got.cif
#   From: 2010.06.25/outbox.cif.g09.slc.cpg/sg2_253_cif.got.tgz:504648.got - 2010.06.27 13:26:56.
