data_PCOD8019990
_publ_section_title
;
Structure prediction by ZEFSAII (Michael W. Deem and Ramdas Pophale) SiO2 
 PCOD8019990
Probable space group: P -1
;
_chemical_formula_sum "Si O2"
_cell_formula_units_Z 14
_cell_length_a 8.820955
_cell_length_b 8.909746
_cell_length_c 9.292106
_cell_angle_alpha 63.998202
_cell_angle_beta 80.884197
_cell_angle_gamma 84.566007
_cell_volume 647.817752
_symmetry_space_group_name_H-M "P -1"
_symmetry_group_IT_number 2
_symmetry_cell_setting 'triclinic'
loop_
_space_group_symop_operation_xyz
x,y,z
-x,-y,-z
loop_
_atom_site_type_symbol
_atom_site_label
_atom_site_fract_x
_atom_site_fract_y
_atom_site_fract_z
Si Si1 0.178741 0.213139 0.408122
Si Si2 0.618163 0.062275 0.072231
Si Si3 0.790728 0.731118 0.295889
Si Si4 0.088436 0.870927 0.142724
Si Si5 0.617778 0.425739 0.400197
Si Si6 0.460525 0.339642 0.167359
Si Si7 0.846500 0.138576 0.543625
O O1 0.230510 0.287744 0.521743
O O2 0.277029 0.313459 0.231057
O O3 0.993337 0.226903 0.409475
O O4 0.215914 0.013006 0.479276
O O5 0.528724 0.171234 0.157410
O O6 0.705600 0.903580 0.193829
O O7 0.745569 0.178386 0.928255
O O8 0.500000 0.000000 0.000000
O O9 0.724725 0.579090 0.279165
O O10 0.972744 0.718080 0.236044
O O11 0.109242 0.939110 0.273866
O O12 0.000000 0.000000 0.000000
O O13 0.500000 0.500000 0.500000
O O14 0.540337 0.355136 0.301447
O O15 0.712758 0.276832 0.525467
O O16 0.500000 0.500000 0.000000
#
# Coordination Sequence:
#
# PCOD8019990 Si02
#       7
#     2   2   2   2   2   2   2
#     4  10  22  44  66  94 126 171 227 270 334 394
#     4  11  23  39  67  96 132 177 214 274 336 392
#     4  10  22  42  64  91 130 175 224 263 329 398
#     4   9  21  40  64  96 129 171 219 265 330 396
#     4  12  26  42  65 100 134 174 225 272 330 390
#     4  12  27  42  63  99 137 172 221 279 335 389
#     4  10  23  41  72  95 128 175 225 277 327 393
#
# _framework density 21.611015999999999
#
# number of rings (size 3 to 8) (size 9 to 14) (size 15 to 20)
#    0.000    1.429    1.429    2.571    6.000    6.857 
#    0.000    1.429    0.000    0.000    0.000    0.000 
#    0.000    0.000    0.000    0.000    0.000    0.000 
#
# Total GULP energy -173501.129276 kJ/mol
# GULP energy per Si atom -12392.937805 kJ/mol
# Density = 2.156183 g / cm^3
# Si number density = 21.611016 Si / 1000 Ang^3
#
#
#
# Elastic Constant Matrix: (Units=GPa)
#
#
# Indices 1 2 3 4 5 6 
#
# 1 128.3571 45.1485 57.2999 11.0020 -23.0259 2.7961
# 2 45.1485 106.8889 26.8270 13.8449 4.4498 4.0057
# 3 57.2999 26.8270 99.7846 7.4727 -15.5459 -1.8065
# 4 11.0020 13.8449 7.4727 34.1702 -1.6791 1.3006
# 5 -23.0259 4.4498 -15.5459 -1.6791 40.0098 -1.3427
# 6 2.7961 4.0057 -1.8065 1.3006 -1.3427 39.8830
#
#
#
# Elastic Compliance Matrix: (Units=1/GPa)
#
#
# Indices 1 2 3 4 5 6 
#
# 1 0.012693 -0.004142 -0.005227 -0.000968 0.005678 -0.000488
# 2 -0.004142 0.012109 -0.001325 -0.003461 -0.004425 -0.001022
# 3 -0.005227 -0.001325 0.013851 -0.000732 0.002532 0.001236
# 4 -0.000968 -0.003461 -0.000732 0.031203 0.000833 -0.000607
# 5 0.005678 -0.004425 0.002532 0.000833 0.029811 0.001138
# 6 -0.000488 -0.001022 0.001236 -0.000607 0.001138 0.025324
#
#
# Mechanical properties :
#
#
# Convention : Reuss Voigt Hill
#
# Bulk Modulus (GPa) = 57.92603 65.95350 61.93977
# Shear Modulus (GPa) = 32.86545 36.52960 34.69753
#
# Velocity S-wave (km/s) = 3.90394 4.11581 4.01128
# Velocity P-wave (km/s) = 6.86900 7.29186 7.08359
#
# Compressibility (1/GPa) = 0.01726340
#
# Stress axis : x y z
#
# Youngs Moduli (GPa) = 78.78140 82.58556 72.19624
#
# Poissons Ratio (x) = 0.34210 0.37738
# Poissons Ratio (y) = 0.32634 0.09569
# Poissons Ratio (z) = 0.41180 0.10946
#
# Static dielectric constant tensor:
#      x y z
#    x 4.528980 0.203570 -0.439750 
#    y 0.203570 3.684420 0.094100 
#    z -0.439750 0.094100 4.214530 
# 
# 
# High freq. dielectric constant tensor:
#      x y z
#    x 1.871050 0.011610 -0.017570 
#    y 0.011610 1.838440 0.012000 
#    z -0.017570 0.012000 1.842050 
# 
# From -- ./inp_files/156582.got.cif
#   From: 2010.06.25/outbox.cif.g09.slc.cpg/sg2_79_cif.got.tgz:156582.got - 2010.06.27 13:26:56.
