data_PCOD8019420
_publ_section_title
;
Structure prediction by ZEFSAII (Michael W. Deem and Ramdas Pophale) SiO2 
 PCOD8019420
Probable space group: P -1
;
_chemical_formula_sum "Si O2"
_cell_formula_units_Z 14
_cell_length_a 12.224224
_cell_length_b 9.405559
_cell_length_c 8.619308
_cell_angle_alpha 107.080944
_cell_angle_beta 51.055815
_cell_angle_gamma 133.290755
_cell_volume 544.282585
_symmetry_space_group_name_H-M "P -1"
_symmetry_group_IT_number 2
_symmetry_cell_setting 'triclinic'
loop_
_space_group_symop_operation_xyz
x,y,z
-x,-y,-z
loop_
_atom_site_type_symbol
_atom_site_label
_atom_site_fract_x
_atom_site_fract_y
_atom_site_fract_z
Si Si1 0.566532 0.170006 0.770631
Si Si2 0.614530 0.587085 0.583614
Si Si3 0.980539 0.140823 0.239986
Si Si4 0.910492 0.607326 0.480848
Si Si5 0.097101 0.510304 0.070424
Si Si6 0.296977 0.171018 0.840789
Si Si7 0.470013 0.162434 0.199640
O O1 0.758893 0.399077 0.643632
O O2 0.394794 0.086809 0.780612
O O3 0.612393 0.026399 0.675153
O O4 0.470824 0.124803 0.007391
O O5 0.500000 0.500000 0.500000
O O6 0.807816 0.627937 0.440931
O O7 0.462555 0.412223 0.784095
O O8 0.667261 0.793745 0.644044
O O9 0.983167 0.207623 0.433476
O O10 0.015357 0.293907 0.129353
O O11 0.135777 0.119300 0.082669
O O12 0.783181 0.919248 0.291490
O O13 0.068332 0.613479 0.264857
O O14 0.316683 0.644969 0.875831
O O15 0.000000 0.500000 0.000000
#
# Coordination Sequence:
#
# PCOD8019420 Si02
#       7
#     2   2   2   2   2   2   2
#     4  10  22  42  69 100 125 181 218 281 320 410
#     4  11  23  43  65  97 130 179 219 277 323 402
#     4  11  22  41  69  96 132 177 220 275 331 403
#     4  11  24  43  73  98 134 174 232 269 336 393
#     4  12  24  41  67 101 137 175 216 284 336 393
#     4  10  22  41  67  95 134 174 225 263 341 392
#     4  11  22  41  70  94 139 166 229 270 343 382
#
# _framework density 25.721933
#
# number of rings (size 3 to 8) (size 9 to 14) (size 15 to 20)
#    0.000    1.143    2.857    3.000    0.000    3.429 
#    2.571    4.286    0.000    0.000    0.000    0.000 
#    0.000    0.000    0.000    0.000    0.000    0.000 
#
# Total GULP energy -173560.287634 kJ/mol
# GULP energy per Si atom -12397.163402 kJ/mol
# Density = 2.566339 g / cm^3
# Si number density = 25.721933 Si / 1000 Ang^3
#
#
#
# Elastic Constant Matrix: (Units=GPa)
#
#
# Indices 1 2 3 4 5 6 
#
# 1 116.0030 29.2719 4.7766 -0.8928 4.6223 -12.5044
# 2 29.2719 107.9758 8.6107 16.9176 -9.2393 -16.9067
# 3 4.7766 8.6107 48.2532 13.7341 1.0181 -7.6775
# 4 -0.8928 16.9176 13.7341 27.6505 2.5396 -1.2788
# 5 4.6223 -9.2393 1.0181 2.5396 36.2933 7.3441
# 6 -12.5044 -16.9067 -7.6775 -1.2788 7.3441 49.7743
#
#
#
# Elastic Compliance Matrix: (Units=1/GPa)
#
#
# Indices 1 2 3 4 5 6 
#
# 1 0.009715 -0.002956 -0.000928 0.002895 -0.002518 0.001739
# 2 -0.002956 0.011974 0.000798 -0.008004 0.003408 0.002739
# 3 -0.000928 0.000798 0.024856 -0.012679 -0.000213 0.003577
# 4 0.002895 -0.008004 -0.012679 0.047821 -0.004996 -0.001981
# 5 -0.002518 0.003408 -0.000213 -0.004996 0.029917 -0.004050
# 6 0.001739 0.002739 0.003577 -0.001981 -0.004050 0.022556
#
#
# Mechanical properties :
#
#
# Convention : Reuss Voigt Hill
#
# Bulk Modulus (GPa) = 24.77019 39.72782 32.24901
# Shear Modulus (GPa) = 30.03546 38.04848 34.04197
#
# Velocity S-wave (km/s) = 3.42087 3.85024 3.64189
# Velocity P-wave (km/s) = 5.02534 5.93670 5.49993
#
# Compressibility (1/GPa) = 0.04037110
#
# Stress axis : x y z
#
# Youngs Moduli (GPa) = 102.93551 83.51593 40.23165
#
# Poissons Ratio (x) = 0.24691 0.03735
# Poissons Ratio (y) = 0.30432 -0.03211
# Poissons Ratio (z) = 0.09556 -0.06665
#
# Static dielectric constant tensor:
#      x y z
#    x 5.056260 -0.385350 -0.009810 
#    y -0.385350 5.213810 0.036760 
#    z -0.009810 0.036760 4.415630 
# 
# 
# High freq. dielectric constant tensor:
#      x y z
#    x 2.050330 -0.007180 -0.006770 
#    y -0.007180 2.031620 0.000610 
#    z -0.006770 0.000610 2.010500 
# 
# From -- ./inp_files/244466.got.cif
#   From: 2010.06.25/outbox.cif.g09.slc.cpg/sg2_123_cif.got.tgz:244466.got - 2010.06.27 13:26:56.
