data_PCOD8019902
_publ_section_title
;
Structure prediction by ZEFSAII (Michael W. Deem and Ramdas Pophale) SiO2 
 PCOD8019902
Probable space group: P -1
;
_chemical_formula_sum "Si O2"
_cell_formula_units_Z 12
_cell_length_a 10.957708
_cell_length_b 9.351322
_cell_length_c 14.063106
_cell_angle_alpha 62.273475
_cell_angle_beta 149.504707
_cell_angle_gamma 98.586777
_cell_volume 536.258146
_symmetry_space_group_name_H-M "P -1"
_symmetry_group_IT_number 2
_symmetry_cell_setting 'triclinic'
loop_
_space_group_symop_operation_xyz
x,y,z
-x,-y,-z
loop_
_atom_site_type_symbol
_atom_site_label
_atom_site_fract_x
_atom_site_fract_y
_atom_site_fract_z
Si Si1 0.279546 0.195146 0.006388
Si Si2 0.794026 0.231005 0.779833
Si Si3 0.307147 0.465081 0.242819
Si Si4 0.703289 0.572619 0.228447
Si Si5 0.680310 0.057293 0.042375
Si Si6 0.330433 0.750153 0.628337
O O1 0.295730 0.334695 0.898978
O O2 0.961347 0.303100 0.805960
O O3 0.359890 0.988697 0.079436
O O4 0.511287 0.150105 0.257298
O O5 0.488003 0.305293 0.498694
O O6 0.742494 0.331245 0.817972
O O7 0.000000 0.000000 0.000000
O O8 0.506339 0.388901 0.307920
O O9 0.000000 0.500000 0.000000
O O10 0.682357 0.386785 0.257645
O O11 0.000000 0.500000 0.500000
O O12 0.444936 0.721175 0.082364
O O13 0.016720 0.926990 0.332915
O O14 0.500000 0.000000 0.000000
#
# Coordination Sequence:
#
# PCOD8019902 Si02
#       6
#     2   2   2   2   2   2
#     4  11  23  44  65  98 133 171 222 272 329 399
#     4  11  25  46  70  95 135 183 224 280 338 395
#     4  11  24  46  70 100 135 174 233 282 324 401
#     4  11  22  43  70  95 132 177 215 269 339 394
#     4  10  22  42  62  92 137 169 216 268 325 392
#     4  12  23  43  68  98 137 171 218 277 333 395
#
# _framework density 22.377279999999999
#
# number of rings (size 3 to 8) (size 9 to 14) (size 15 to 20)
#    0.000    1.000    6.667    0.500    2.333    3.333 
#    6.000    0.000    0.000    0.000    0.000    0.000 
#    0.000    0.000    0.000    0.000    0.000    0.000 
#
# Total GULP energy -148713.340494 kJ/mol
# GULP energy per Si atom -12392.778374 kJ/mol
# Density = 2.232635 g / cm^3
# Si number density = 22.377280 Si / 1000 Ang^3
#
#
#
# Elastic Constant Matrix: (Units=GPa)
#
#
# Indices 1 2 3 4 5 6 
#
# 1 62.5858 20.6775 37.3921 2.6298 13.6752 -22.2030
# 2 20.6775 111.4899 82.9542 6.2459 -6.0292 -15.4897
# 3 37.3921 82.9542 171.8445 7.4749 19.4142 -8.6461
# 4 2.6298 6.2459 7.4749 48.1625 -1.2011 -0.1381
# 5 13.6752 -6.0292 19.4142 -1.2011 32.1251 -2.4810
# 6 -22.2030 -15.4897 -8.6461 -0.1381 -2.4810 32.6503
#
#
#
# Elastic Compliance Matrix: (Units=1/GPa)
#
#
# Indices 1 2 3 4 5 6 
#
# 1 0.025545 0.000015 -0.003903 -0.000929 -0.007328 0.015784
# 2 0.000015 0.016973 -0.008867 -0.000583 0.009010 0.006397
# 3 -0.003903 -0.008867 0.011590 -0.000632 -0.007367 -0.004354
# 4 -0.000929 -0.000583 -0.000632 0.021019 0.001386 -0.000881
# 5 -0.007328 0.009010 -0.007367 0.001386 0.040475 0.000422
# 6 0.015784 0.006397 -0.004354 -0.000881 0.000422 0.043271
#
#
# Mechanical properties :
#
#
# Convention : Reuss Voigt Hill
#
# Bulk Modulus (GPa) = 34.96919 69.77417 52.37168
# Shear Modulus (GPa) = 25.78438 36.24734 31.01586
#
# Velocity S-wave (km/s) = 3.39817 4.02907 3.72700
# Velocity P-wave (km/s) = 5.57295 7.27276 6.47885
#
# Compressibility (1/GPa) = 0.02859660
#
# Stress axis : x y z
#
# Youngs Moduli (GPa) = 39.14689 58.91718 86.28346
#
# Poissons Ratio (x) = -0.00089 0.33679
# Poissons Ratio (y) = -0.00059 0.76511
# Poissons Ratio (z) = 0.15280 0.52244
#
# Static dielectric constant tensor:
#      x y z
#    x 4.985440 -0.584930 -0.297850 
#    y -0.584930 4.302710 0.185580 
#    z -0.297850 0.185580 4.631230 
# 
# 
# High freq. dielectric constant tensor:
#      x y z
#    x 1.879000 -0.017720 0.016790 
#    y -0.017720 1.883480 0.005840 
#    z 0.016790 0.005840 1.885470 
# 
# From -- ./inp_files/270685.got.cif
#   From: 2010.06.25/outbox.cif.g09.slc.cpg/sg2_136_cif.got.tgz:270685.got - 2010.06.27 13:26:56.
