data_PCOD8019590
_publ_section_title
;
Structure prediction by ZEFSAII (Michael W. Deem and Ramdas Pophale) SiO2 
 PCOD8019590
Probable space group: P -1
;
_chemical_formula_sum "Si O2"
_cell_formula_units_Z 14
_cell_length_a 19.547173
_cell_length_b 7.651285
_cell_length_c 7.243398
_cell_angle_alpha 121.797996
_cell_angle_beta 53.834622
_cell_angle_gamma 133.767750
_cell_volume 618.351704
_symmetry_space_group_name_H-M "P -1"
_symmetry_group_IT_number 2
_symmetry_cell_setting 'triclinic'
loop_
_space_group_symop_operation_xyz
x,y,z
-x,-y,-z
loop_
_atom_site_type_symbol
_atom_site_label
_atom_site_fract_x
_atom_site_fract_y
_atom_site_fract_z
Si Si1 0.611797 0.739975 0.918682
Si Si2 0.248599 0.292246 0.039082
Si Si3 0.116743 0.325191 0.828664
Si Si4 0.903426 0.113573 0.184692
Si Si5 0.329444 0.765514 0.727186
Si Si6 0.603300 0.561266 0.454415
Si Si7 0.797576 0.389255 0.496031
O O1 0.636902 0.765355 0.674724
O O2 0.500000 0.500000 0.000000
O O3 0.699112 0.728647 0.874652
O O4 0.615370 0.978924 0.110431
O O5 0.315330 0.338595 0.779669
O O6 0.142405 0.035268 0.019100
O O7 0.230886 0.510466 0.226186
O O8 0.222031 0.554133 0.878100
O O9 0.109527 0.070694 0.733932
O O10 0.879001 0.625113 0.370490
O O11 0.022525 0.315958 0.069011
O O12 0.848172 0.248131 0.409693
O O13 0.407427 0.677725 0.564738
O O14 0.303751 0.793775 0.570413
O O15 0.500000 0.500000 0.500000
#
# Coordination Sequence:
#
# PCOD8019590 Si02
#       7
#     2   2   2   2   2   2   2
#     4  12  25  46  71  97 135 186 236 299 355 417
#     4  12  23  45  69 103 140 185 236 288 358 418
#     4   9  21  44  69 107 148 178 241 287 346 430
#     4  11  21  42  74 105 144 189 232 289 352 422
#     4  10  23  46  67 101 141 178 233 300 345 425
#     4  12  26  47  68 101 138 183 239 296 357 422
#     4  10  22  41  69 101 145 187 230 287 356 412
#
# _framework density 22.640836
#
# number of rings (size 3 to 8) (size 9 to 14) (size 15 to 20)
#    0.857    0.286    5.714    0.429    0.000    2.857 
#    2.571    4.286    0.000    0.000    0.000    0.000 
#    0.000    0.000    0.000    0.000    0.000    0.000 
#
# Total GULP energy -173542.318841 kJ/mol
# GULP energy per Si atom -12395.879917 kJ/mol
# Density = 2.258930 g / cm^3
# Si number density = 22.640836 Si / 1000 Ang^3
#
#
#
# Elastic Constant Matrix: (Units=GPa)
#
#
# Indices 1 2 3 4 5 6 
#
# 1 110.7988 14.3023 32.6426 0.3171 -24.1725 6.1357
# 2 14.3023 87.3959 40.1947 5.8004 -3.7269 11.0035
# 3 32.6426 40.1947 137.1697 10.8328 -3.6354 10.5484
# 4 0.3171 5.8004 10.8328 29.8570 -8.4087 3.0389
# 5 -24.1725 -3.7269 -3.6354 -8.4087 45.3269 -0.2331
# 6 6.1357 11.0035 10.5484 3.0389 -0.2331 29.7229
#
#
#
# Elastic Compliance Matrix: (Units=1/GPa)
#
#
# Indices 1 2 3 4 5 6 
#
# 1 0.011261 -0.000422 -0.002493 0.002790 0.006280 -0.001519
# 2 -0.000422 0.013676 -0.003548 -0.000874 0.000434 -0.003624
# 3 -0.002493 -0.003548 0.009204 -0.002909 -0.001429 -0.001152
# 4 0.002790 -0.000874 -0.002909 0.037266 0.008081 -0.002967
# 5 0.006280 0.000434 -0.001429 0.008081 0.026823 -0.001566
# 6 -0.001519 -0.003624 -0.001152 -0.002967 -0.001566 0.035999
#
#
# Mechanical properties :
#
#
# Convention : Reuss Voigt Hill
#
# Bulk Modulus (GPa) = 47.13897 56.62707 51.88302
# Shear Modulus (GPa) = 32.41991 37.52969 34.97480
#
# Velocity S-wave (km/s) = 3.78818 4.07579 3.93462
# Velocity P-wave (km/s) = 6.32450 6.87130 6.60356
#
# Compressibility (1/GPa) = 0.02121387
#
# Stress axis : x y z
#
# Youngs Moduli (GPa) = 88.80446 73.12249 108.65390
#
# Poissons Ratio (x) = 0.03088 0.27088
# Poissons Ratio (y) = 0.03750 0.38547
# Poissons Ratio (z) = 0.22140 0.25942
#
# Static dielectric constant tensor:
#      x y z
#    x 3.904820 -0.166650 -0.086050 
#    y -0.166650 3.791930 0.002440 
#    z -0.086050 0.002440 4.001290 
# 
# 
# High freq. dielectric constant tensor:
#      x y z
#    x 1.907960 0.001220 -0.012110 
#    y 0.001220 1.874180 -0.000650 
#    z -0.012110 -0.000650 1.884460 
# 
# From -- ./inp_files/343106.got.cif
#   From: 2010.06.25/outbox.cif.g09.slc.cpg/sg2_172_cif.got.tgz:343106.got - 2010.06.27 13:26:56.
