data_PCOD8019394
_publ_section_title
;
Structure prediction by ZEFSAII (Michael W. Deem and Ramdas Pophale) SiO2 
 PCOD8019394
Probable space group: P -1
;
_chemical_formula_sum "Si O2"
_cell_formula_units_Z 16
_cell_length_a 12.529194
_cell_length_b 8.639734
_cell_length_c 15.311808
_cell_angle_alpha 30.041062
_cell_angle_beta 94.341235
_cell_angle_gamma 104.912398
_cell_volume 763.869719
_symmetry_space_group_name_H-M "P -1"
_symmetry_group_IT_number 2
_symmetry_cell_setting 'triclinic'
loop_
_space_group_symop_operation_xyz
x,y,z
-x,-y,-z
loop_
_atom_site_type_symbol
_atom_site_label
_atom_site_fract_x
_atom_site_fract_y
_atom_site_fract_z
Si Si1 0.910017 0.289939 0.026903
Si Si2 0.500480 0.193530 0.090972
Si Si3 0.665519 0.381533 0.368665
Si Si4 0.072553 0.384871 0.320327
Si Si5 0.683156 0.463998 0.651431
Si Si6 0.444185 0.377701 0.276369
Si Si7 0.676169 0.864587 0.289282
Si Si8 0.070429 0.254645 0.806585
O O1 0.781908 0.197091 0.101990
O O2 0.932167 0.946464 0.184224
O O3 0.921564 0.470464 0.846960
O O4 0.000000 0.500000 0.000000
O O5 0.370770 0.917120 0.202208
O O6 0.569874 0.982382 0.240723
O O7 0.500000 0.500000 0.000000
O O8 0.560279 0.352179 0.925943
O O9 0.576165 0.398738 0.280787
O O10 0.646946 0.566722 0.363082
O O11 0.794742 0.545662 0.256322
O O12 0.639107 0.993915 0.578726
O O13 0.200389 0.483909 0.315763
O O14 0.998470 0.503799 0.327125
O O15 0.000000 0.000000 0.500000
O O16 0.593058 0.524590 0.681400
O O17 0.709526 0.737202 0.443669
O O18 0.000000 0.000000 0.000000
#
# Coordination Sequence:
#
# PCOD8019394 Si02
#       8
#     2   2   2   2   2   2   2   2
#     4  10  22  42  67  94 130 174 219 273 333 388
#     4  12  27  42  63  99 134 171 222 274 334 397
#     4  10  22  41  67  94 131 172 217 270 333 396
#     4  11  23  42  66 100 133 171 227 273 332 401
#     4  12  25  42  69  94 135 179 221 275 334 395
#     4  11  24  40  68  97 130 170 221 268 337 398
#     4  11  24  44  64  92 134 174 220 276 331 394
#     4   9  21  39  65  92 130 168 218 263 323 387
#
# _framework density 20.945979000000001
#
# number of rings (size 3 to 8) (size 9 to 14) (size 15 to 20)
#    0.000    1.250    1.250    3.750    8.750    2.000 
#    0.000    6.875    0.000    0.000    0.000    0.000 
#    0.000    0.000    0.000    0.000    0.000    0.000 
#
# Total GULP energy -198386.763148 kJ/mol
# GULP energy per Si atom -12399.172697 kJ/mol
# Density = 2.089830 g / cm^3
# Si number density = 20.945979 Si / 1000 Ang^3
#
#
#
# Elastic Constant Matrix: (Units=GPa)
#
#
# Indices 1 2 3 4 5 6 
#
# 1 125.0486 51.3483 48.6457 -11.5207 -6.4558 15.5227
# 2 51.3483 120.1210 56.3057 -15.9183 -0.4013 16.7621
# 3 48.6457 56.3057 115.9550 -6.2905 -0.1637 8.0148
# 4 -11.5207 -15.9183 -6.2905 44.4768 2.4409 -3.4985
# 5 -6.4558 -0.4013 -0.1637 2.4409 36.3359 -5.1760
# 6 15.5227 16.7621 8.0148 -3.4985 -5.1760 36.8202
#
#
#
# Elastic Compliance Matrix: (Units=1/GPa)
#
#
# Indices 1 2 3 4 5 6 
#
# 1 0.010733 -0.002723 -0.002956 0.001124 0.001456 -0.002330
# 2 -0.002723 0.012465 -0.004518 0.002906 -0.001048 -0.003414
# 3 -0.002956 -0.004518 0.011984 -0.000620 -0.000397 0.000580
# 4 0.001124 0.002906 -0.000620 0.023832 -0.001312 0.000418
# 5 0.001456 -0.001048 -0.000397 -0.001312 0.028398 0.003817
# 6 -0.002330 -0.003414 0.000580 0.000418 0.003817 0.030146
#
#
# Mechanical properties :
#
#
# Convention : Reuss Voigt Hill
#
# Bulk Modulus (GPa) = 67.62948 74.85822 71.24385
# Shear Modulus (GPa) = 34.99385 37.18158 36.08772
#
# Velocity S-wave (km/s) = 4.09182 4.21779 4.15528
# Velocity P-wave (km/s) = 7.39470 7.71595 7.55704
#
# Compressibility (1/GPa) = 0.01478645
#
# Stress axis : x y z
#
# Youngs Moduli (GPa) = 93.16872 80.22504 83.44554
#
# Poissons Ratio (x) = 0.21849 0.24669
# Poissons Ratio (y) = 0.25374 0.37701
# Poissons Ratio (z) = 0.27543 0.36246
#
# Static dielectric constant tensor:
#      x y z
#    x 3.939450 -0.180120 0.001950 
#    y -0.180120 3.864540 -0.251060 
#    z 0.001950 -0.251060 3.938140 
# 
# 
# High freq. dielectric constant tensor:
#      x y z
#    x 1.826150 -0.002670 -0.007500 
#    y -0.002670 1.821920 -0.016480 
#    z -0.007500 -0.016480 1.829000 
# 
# From -- ./inp_files/224123.got.cif
#   From: 2010.06.25/outbox.cif.g09.slc.cpg/sg2_113_cif.got.tgz:224123.got - 2010.06.27 13:26:56.
