data_PCOD8019376
_publ_section_title
;
Structure prediction by ZEFSAII (Michael W. Deem and Ramdas Pophale) SiO2 
 PCOD8019376
Probable space group: P -1
;
_chemical_formula_sum "Si O2"
_cell_formula_units_Z 16
_cell_length_a 8.999395
_cell_length_b 11.943057
_cell_length_c 7.581198
_cell_angle_alpha 125.216564
_cell_angle_beta 65.227704
_cell_angle_gamma 100.248133
_cell_volume 602.206312
_symmetry_space_group_name_H-M "P -1"
_symmetry_group_IT_number 2
_symmetry_cell_setting 'triclinic'
loop_
_space_group_symop_operation_xyz
x,y,z
-x,-y,-z
loop_
_atom_site_type_symbol
_atom_site_label
_atom_site_fract_x
_atom_site_fract_y
_atom_site_fract_z
Si Si1 0.376109 0.890589 0.381277
Si Si2 0.328632 0.437846 0.970107
Si Si3 0.775912 0.785718 0.683181
Si Si4 0.683369 0.516301 0.382649
Si Si5 0.833086 0.231513 0.167333
Si Si6 0.198151 0.158483 0.891244
Si Si7 0.474325 0.902353 0.709329
Si Si8 0.127840 0.703868 0.385172
O O1 0.507492 0.934157 0.207122
O O2 0.471289 0.824240 0.449091
O O3 0.258036 0.780335 0.267685
O O4 0.270687 0.028197 0.625501
O O5 0.299974 0.292236 0.939522
O O6 0.170462 0.541723 0.195730
O O7 0.500000 0.500000 0.000000
O O8 0.315360 0.416681 0.749411
O O9 0.738747 0.627722 0.597449
O O10 0.796729 0.872967 0.929301
O O11 0.636545 0.862715 0.702507
O O12 0.947105 0.763010 0.467221
O O13 0.500000 0.500000 0.500000
O O14 0.789647 0.372291 0.211841
O O15 0.688138 0.126458 0.123067
O O16 0.852225 0.258456 0.387642
O O17 0.006037 0.174087 0.945202
#
# Coordination Sequence:
#
# PCOD8019376 Si02
#       8
#     2   2   2   2   2   2   2   2
#     4  10  24  45  70  96 136 188 232 275 339 401
#     4  12  27  42  72 103 136 176 233 281 345 408
#     4  11  23  41  69 102 140 176 229 283 341 397
#     4  12  23  41  68 101 137 177 223 283 340 404
#     4  10  22  42  68  97 140 178 223 277 341 397
#     4  11  25  44  70 105 136 182 227 280 340 406
#     4  10  22  41  67  92 131 186 225 281 328 400
#     4  10  24  45  68 102 139 181 225 284 339 401
#
# _framework density 26.568967000000001
#
# number of rings (size 3 to 8) (size 9 to 14) (size 15 to 20)
#    0.000    1.250    1.250    3.750    7.000   10.500 
#    0.000    2.500    0.000    0.000    0.000    0.000 
#    0.000    0.000    0.000    0.000    0.000    0.000 
#
# Total GULP energy -198249.458622 kJ/mol
# GULP energy per Si atom -12390.591164 kJ/mol
# Density = 2.650849 g / cm^3
# Si number density = 26.568967 Si / 1000 Ang^3
#
#
#
# Elastic Constant Matrix: (Units=GPa)
#
#
# Indices 1 2 3 4 5 6 
#
# 1 131.2416 23.4484 1.3840 -5.4972 -24.1140 -5.3797
# 2 23.4484 110.4143 -17.6257 0.0721 2.0907 -4.2956
# 3 1.3840 -17.6257 54.5533 5.8159 -11.1025 -6.5953
# 4 -5.4972 0.0721 5.8159 29.7106 8.3905 -7.0595
# 5 -24.1140 2.0907 -11.1025 8.3905 32.1109 3.9610
# 6 -5.3797 -4.2956 -6.5953 -7.0595 3.9610 45.4072
#
#
#
# Elastic Compliance Matrix: (Units=1/GPa)
#
#
# Indices 1 2 3 4 5 6 
#
# 1 0.009335 -0.001996 0.000722 -0.000447 0.007469 0.000301
# 2 -0.001996 0.010073 0.003286 -0.000452 -0.001051 0.001215
# 3 0.000722 0.003286 0.022210 -0.006474 0.009478 0.001789
# 4 -0.000447 -0.000452 -0.006474 0.040289 -0.013866 0.006437
# 5 0.007469 -0.001051 0.009478 -0.013866 0.044195 -0.003849
# 6 0.000301 0.001215 0.001789 0.006437 -0.003849 0.023770
#
#
# Mechanical properties :
#
#
# Convention : Reuss Voigt Hill
#
# Bulk Modulus (GPa) = 21.90993 34.51364 28.21178
# Shear Modulus (GPa) = 31.04426 40.71259 35.87843
#
# Velocity S-wave (km/s) = 3.42195 3.91875 3.67875
# Velocity P-wave (km/s) = 4.88645 5.78739 5.35590
#
# Compressibility (1/GPa) = 0.04564140
#
# Stress axis : x y z
#
# Youngs Moduli (GPa) = 107.12790 99.27675 45.02564
#
# Poissons Ratio (x) = 0.19821 -0.03252
# Poissons Ratio (y) = 0.21388 -0.14797
# Poissons Ratio (z) = -0.07738 -0.32625
#
# Static dielectric constant tensor:
#      x y z
#    x 5.289060 0.222030 -0.493680 
#    y 0.222030 5.052080 -0.007970 
#    z -0.493680 -0.007970 4.676200 
# 
# 
# High freq. dielectric constant tensor:
#      x y z
#    x 2.080650 0.005500 -0.022450 
#    y 0.005500 2.071360 0.004970 
#    z -0.022450 0.004970 2.062500 
# 
# From -- ./inp_files/189761.got.cif
#   From: 2010.06.25/outbox.cif.g09.slc.cpg/sg2_95_cif.got.tgz:189761.got - 2010.06.27 13:26:56.
