data_PCOD8019549
_publ_section_title
;
Structure prediction by ZEFSAII (Michael W. Deem and Ramdas Pophale) SiO2 
 PCOD8019549
Probable space group: P -1
;
_chemical_formula_sum "Si O2"
_cell_formula_units_Z 16
_cell_length_a 9.295062
_cell_length_b 16.582338
_cell_length_c 9.463767
_cell_angle_alpha 147.144446
_cell_angle_beta 75.444500
_cell_angle_gamma 105.399354
_cell_volume 761.846125
_symmetry_space_group_name_H-M "P -1"
_symmetry_group_IT_number 2
_symmetry_cell_setting 'triclinic'
loop_
_space_group_symop_operation_xyz
x,y,z
-x,-y,-z
loop_
_atom_site_type_symbol
_atom_site_label
_atom_site_fract_x
_atom_site_fract_y
_atom_site_fract_z
Si Si1 0.206629 0.294012 0.957410
Si Si2 0.383174 0.187884 0.259426
Si Si3 0.285430 0.896203 0.987019
Si Si4 0.087632 0.640781 0.756062
Si Si5 0.651041 0.561951 0.132646
Si Si6 0.717390 0.319807 0.975598
Si Si7 0.579482 0.644461 0.769242
Si Si8 0.173040 0.973824 0.433261
O O1 0.229518 0.372338 0.915420
O O2 0.258685 0.126702 0.699883
O O3 0.297267 0.394666 0.203906
O O4 0.030719 0.272761 0.001115
O O5 0.382051 0.308602 0.561043
O O6 0.332163 0.250366 0.214678
O O7 0.270367 0.039190 0.100765
O O8 0.551537 0.152129 0.145566
O O9 0.255388 0.944863 0.224654
O O10 0.165623 0.750714 0.776015
O O11 0.205736 0.598246 0.782817
O O12 0.000000 0.500000 0.500000
O O13 0.725282 0.431469 0.004940
O O14 0.500000 0.500000 0.000000
O O15 0.544655 0.275200 0.995481
O O16 0.796039 0.171005 0.692638
O O17 0.500000 0.500000 0.500000
O O18 0.000000 0.000000 0.500000
#
# Coordination Sequence:
#
# PCOD8019549 Si02
#       8
#     2   2   2   2   2   2   2   2
#     4  12  25  42  72  97 136 183 225 289 351 403
#     4  11  22  41  70  98 139 175 230 285 346 405
#     4  10  22  41  68  96 134 187 222 281 347 410
#     4  11  24  43  70  99 136 184 232 274 351 423
#     4  12  25  42  68 109 139 171 232 298 342 401
#     4  11  23  42  69  97 139 181 226 282 349 404
#     4  12  22  41  68 101 134 177 233 283 344 414
#     4  11  21  45  66  96 137 180 226 280 344 420
#
# _framework density 21.001615000000001
#
# number of rings (size 3 to 8) (size 9 to 14) (size 15 to 20)
#    0.000    0.750    8.750    0.750    1.750    1.000 
#    4.500    0.625    0.000    0.000    0.000    0.000 
#    0.000    0.000    0.000    0.000    0.000    0.000 
#
# Total GULP energy -198292.832797 kJ/mol
# GULP energy per Si atom -12393.302050 kJ/mol
# Density = 2.095381 g / cm^3
# Si number density = 21.001615 Si / 1000 Ang^3
#
#
#
# Elastic Constant Matrix: (Units=GPa)
#
#
# Indices 1 2 3 4 5 6 
#
# 1 84.1830 57.3608 18.4555 4.8514 -5.5185 0.6667
# 2 57.3608 189.2618 62.1046 19.6794 -0.7691 -4.1117
# 3 18.4555 62.1046 80.3135 15.0855 0.4805 -0.2022
# 4 4.8514 19.6794 15.0855 37.1464 4.0643 0.2252
# 5 -5.5185 -0.7691 0.4805 4.0643 37.4805 -0.4822
# 6 0.6667 -4.1117 -0.2022 0.2252 -0.4822 35.9881
#
#
#
# Elastic Compliance Matrix: (Units=1/GPa)
#
#
# Indices 1 2 3 4 5 6 
#
# 1 0.015163 -0.004644 0.000048 0.000235 0.002101 -0.000785
# 2 -0.004644 0.008627 -0.005260 -0.001809 -0.000230 0.001050
# 3 0.000048 -0.005260 0.017306 -0.004259 0.000133 -0.000476
# 4 0.000235 -0.001809 -0.004259 0.029931 -0.003199 -0.000465
# 5 0.002101 -0.000230 0.000133 -0.003199 0.027335 0.000322
# 6 -0.000785 0.001050 -0.000476 -0.000465 0.000322 0.027926
#
#
# Mechanical properties :
#
#
# Convention : Reuss Voigt Hill
#
# Bulk Modulus (GPa) = 46.76492 69.95557 58.36024
# Shear Modulus (GPa) = 32.65223 36.51215 34.58219
#
# Velocity S-wave (km/s) = 3.94731 4.17410 4.06229
# Velocity P-wave (km/s) = 6.56434 7.52415 7.06057
#
# Compressibility (1/GPa) = 0.02138355
#
# Stress axis : x y z
#
# Youngs Moduli (GPa) = 65.94846 115.90925 57.78398
#
# Poissons Ratio (x) = 0.53834 -0.00279
# Poissons Ratio (y) = 0.30630 0.30396
# Poissons Ratio (z) = -0.00318 0.60972
#
# Static dielectric constant tensor:
#      x y z
#    x 3.832510 0.209710 -0.279510 
#    y 0.209710 4.616780 0.100900 
#    z -0.279510 0.100900 4.135980 
# 
# 
# High freq. dielectric constant tensor:
#      x y z
#    x 1.808540 0.012960 -0.012310 
#    y 0.012960 1.827410 0.009560 
#    z -0.012310 0.009560 1.833320 
# 
# From -- ./inp_files/209219.got.cif
#   From: 2010.06.25/outbox.cif.g09.slc.cpg/sg2_105_cif.got.tgz:209219.got - 2010.06.27 13:26:56.
