data_PCOD8019004
_publ_section_title
;
Structure prediction by ZEFSAII (Michael W. Deem and Ramdas Pophale) SiO2 
 PCOD8019004
Probable space group: P -1
;
_chemical_formula_sum "Si O2"
_cell_formula_units_Z 14
_cell_length_a 16.560600
_cell_length_b 8.933560
_cell_length_c 5.048301
_cell_angle_alpha 93.123234
_cell_angle_beta 65.017377
_cell_angle_gamma 63.804404
_cell_volume 580.197237
_symmetry_space_group_name_H-M "P -1"
_symmetry_group_IT_number 2
_symmetry_cell_setting 'triclinic'
loop_
_space_group_symop_operation_xyz
x,y,z
-x,-y,-z
loop_
_atom_site_type_symbol
_atom_site_label
_atom_site_fract_x
_atom_site_fract_y
_atom_site_fract_z
Si Si1 0.407420 0.130619 0.376366
Si Si2 0.704735 0.437022 0.894135
Si Si3 0.061656 0.100665 0.937227
Si Si4 0.057853 0.296080 0.455967
Si Si5 0.724296 0.228929 0.341355
Si Si6 0.490377 0.758776 0.360440
Si Si7 0.731893 0.734433 0.920017
O O1 0.478942 0.208617 0.383019
O O2 0.345334 0.225520 0.212769
O O3 0.476661 0.920445 0.210102
O O4 0.327526 0.157186 0.727572
O O5 0.726119 0.363056 0.560933
O O6 0.772336 0.527824 0.881004
O O7 0.743567 0.276529 0.026795
O O8 0.581708 0.574135 0.110333
O O9 0.028763 0.247740 0.771520
O O10 0.184844 0.966367 0.735897
O O11 0.027193 0.203005 0.269329
O O12 0.000000 0.000000 0.000000
O O13 0.180521 0.222574 0.266866
O O14 0.000000 0.500000 0.500000
O O15 0.614432 0.242740 0.496428
#
# Coordination Sequence:
#
# PCOD8019004 Si02
#       7
#     2   2   2   2   2   2   2
#     4  10  23  39  66  94 135 182 219 301 333 427
#     4  11  25  39  65 100 135 190 222 293 332 434
#     4  12  29  50  76 108 147 186 239 295 371 419
#     4  12  27  48  80 108 137 186 242 304 349 434
#     4  12  25  42  68  93 145 183 232 277 363 414
#     4  10  22  41  63  98 136 178 239 273 353 407
#     4  11  23  43  66  98 139 174 244 274 367 389
#
# _framework density 24.129728
#
# number of rings (size 3 to 8) (size 9 to 14) (size 15 to 20)
#    0.000    0.857    0.000    6.857    4.000    9.714 
#    0.000    0.000    0.000    0.000    0.000    0.000 
#    0.000    0.000    0.000    0.000    0.000    0.000 
#
# Total GULP energy -173637.418197 kJ/mol
# GULP energy per Si atom -12402.672728 kJ/mol
# Density = 2.407481 g / cm^3
# Si number density = 24.129728 Si / 1000 Ang^3
#
#
#
# Elastic Constant Matrix: (Units=GPa)
#
#
# Indices 1 2 3 4 5 6 
#
# 1 94.6165 21.2973 16.1455 -7.3261 2.7284 17.9389
# 2 21.2973 120.7211 7.1788 -5.7946 4.3115 -8.9818
# 3 16.1455 7.1788 62.6192 7.3097 10.4529 -7.8106
# 4 -7.3261 -5.7946 7.3097 45.0522 8.7194 0.2162
# 5 2.7284 4.3115 10.4529 8.7194 29.0579 -2.1140
# 6 17.9389 -8.9818 -7.8106 0.2162 -2.1140 35.4012
#
#
#
# Elastic Compliance Matrix: (Units=1/GPa)
#
#
# Indices 1 2 3 4 5 6 
#
# 1 0.013850 -0.002661 -0.004564 0.002838 -0.000753 -0.008762
# 2 -0.002661 0.009098 0.000184 0.000918 -0.001178 0.003621
# 3 -0.004564 0.000184 0.019103 -0.002850 -0.005158 0.006284
# 4 0.002838 0.000918 -0.002850 0.024591 -0.006931 -0.002398
# 5 -0.000753 -0.001178 -0.005158 -0.006931 0.038689 0.001297
# 6 -0.008762 0.003621 0.006284 -0.002398 0.001297 0.035085
#
#
# Mechanical properties :
#
#
# Convention : Reuss Voigt Hill
#
# Bulk Modulus (GPa) = 35.75502 40.79998 38.27750
# Shear Modulus (GPa) = 30.52124 37.45795 33.98960
#
# Velocity S-wave (km/s) = 3.56038 3.94427 3.75723
# Velocity P-wave (km/s) = 5.63486 6.13908 5.89237
#
# Compressibility (1/GPa) = 0.02796810
#
# Stress axis : x y z
#
# Youngs Moduli (GPa) = 72.20454 109.91947 52.34828
#
# Poissons Ratio (x) = 0.29246 0.23894
# Poissons Ratio (y) = 0.19211 -0.00965
# Poissons Ratio (z) = 0.32958 -0.02025
#
# Static dielectric constant tensor:
#      x y z
#    x 4.423300 -0.003330 0.053600 
#    y -0.003330 4.558530 -0.020950 
#    z 0.053600 -0.020950 4.549680 
# 
# 
# High freq. dielectric constant tensor:
#      x y z
#    x 1.961550 0.002570 0.006880 
#    y 0.002570 1.968830 0.000290 
#    z 0.006880 0.000290 1.964350 
# 
# From -- ./inp_files/105306.got.cif
#   From: 2010.06.25/outbox.cif.g09.slc.cpg/sg2_53_cif.got.tgz:105306.got - 2010.06.27 13:26:56.
