data_PCOD8019001
_publ_section_title
;
Structure prediction by ZEFSAII (Michael W. Deem and Ramdas Pophale) SiO2 
 PCOD8019001
Probable space group: P -1
;
_chemical_formula_sum "Si O2"
_cell_formula_units_Z 16
_cell_length_a 11.246390
_cell_length_b 11.439265
_cell_length_c 12.890242
_cell_angle_alpha 52.603918
_cell_angle_beta 105.012726
_cell_angle_gamma 61.870148
_cell_volume 729.358877
_symmetry_space_group_name_H-M "P -1"
_symmetry_group_IT_number 2
_symmetry_cell_setting 'triclinic'
loop_
_space_group_symop_operation_xyz
x,y,z
-x,-y,-z
loop_
_atom_site_type_symbol
_atom_site_label
_atom_site_fract_x
_atom_site_fract_y
_atom_site_fract_z
Si Si1 0.072488 0.353987 0.857646
Si Si2 0.528973 0.186484 0.851521
Si Si3 0.610104 0.541904 0.120679
Si Si4 0.538086 0.280563 0.235307
Si Si5 0.881869 0.041086 0.045688
Si Si6 0.969969 0.756632 0.700999
Si Si7 0.087697 0.700192 0.978582
Si Si8 0.111100 0.521309 0.449146
O O1 0.079280 0.489640 0.857558
O O2 0.027662 0.256759 0.971583
O O3 0.873673 0.560599 0.619680
O O4 0.296122 0.113845 0.972027
O O5 0.440940 0.282320 0.898798
O O6 0.336780 0.350808 0.638956
O O7 0.648523 0.227262 0.844351
O O8 0.558298 0.426438 0.206984
O O9 0.864125 0.292018 0.287177
O O10 0.472026 0.713248 0.894935
O O11 0.328373 0.404505 0.169142
O O12 0.741678 0.984877 0.471830
O O13 0.878948 0.158467 0.075559
O O14 0.971914 0.805821 0.247776
O O15 0.000000 0.000000 0.000000
O O16 0.936763 0.821313 0.780080
O O17 0.000000 0.500000 0.500000
#
# Coordination Sequence:
#
# PCOD8019001 Si02
#       8
#     2   2   2   2   2   2   2   2
#     4  11  26  47  64 103 143 177 231 288 341 413
#     4  11  24  43  74  98 140 185 222 288 361 404
#     4  10  22  41  63  97 135 172 227 284 345 405
#     4  10  23  42  65  96 134 179 224 284 341 404
#     4  11  23  46  70 103 146 178 233 293 339 416
#     4  11  25  41  69  94 132 187 233 277 339 412
#     4  11  23  45  68 100 137 180 230 286 337 409
#     4  11  26  43  68 105 139 184 229 282 344 422
#
# _framework density 21.937072000000001
#
# number of rings (size 3 to 8) (size 9 to 14) (size 15 to 20)
#    0.000    1.250    3.750    1.500    1.750   12.500 
#    0.000    0.000    0.000    0.000    0.000    0.000 
#    0.000    0.000    0.000    0.000    0.000    0.000 
#
# Total GULP energy -198229.159077 kJ/mol
# GULP energy per Si atom -12389.322442 kJ/mol
# Density = 2.188714 g / cm^3
# Si number density = 21.937072 Si / 1000 Ang^3
#
#
#
# Elastic Constant Matrix: (Units=GPa)
#
#
# Indices 1 2 3 4 5 6 
#
# 1 69.8636 27.5541 47.9496 6.5133 3.2358 5.7378
# 2 27.5541 112.5175 46.8754 13.3849 1.7073 9.1161
# 3 47.9496 46.8754 119.6054 8.2517 18.1777 -3.5361
# 4 6.5133 13.3849 8.2517 30.6302 6.9633 1.0609
# 5 3.2358 1.7073 18.1777 6.9633 40.4594 4.6834
# 6 5.7378 9.1161 -3.5361 1.0609 4.6834 39.2019
#
#
#
# Elastic Compliance Matrix: (Units=1/GPa)
#
#
# Indices 1 2 3 4 5 6 
#
# 1 0.020859 -0.001100 -0.008339 -0.002247 0.002956 -0.003842
# 2 -0.001100 0.011678 -0.004340 -0.004189 0.002630 -0.003147
# 3 -0.008339 -0.004340 0.014414 0.001072 -0.006303 0.004254
# 4 -0.002247 -0.004189 0.001072 0.036098 -0.006476 0.001197
# 5 0.002956 0.002630 -0.006303 -0.006476 0.028881 -0.004888
# 6 -0.003842 -0.003147 0.004254 0.001197 -0.004888 0.027738
#
#
# Mechanical properties :
#
#
# Convention : Reuss Voigt Hill
#
# Bulk Modulus (GPa) = 51.56242 60.74941 56.15591
# Shear Modulus (GPa) = 28.78678 34.03213 31.40946
#
# Velocity S-wave (km/s) = 3.62642 3.94299 3.78802
# Velocity P-wave (km/s) = 6.41017 6.96292 6.69226
#
# Compressibility (1/GPa) = 0.01939397
#
# Stress axis : x y z
#
# Youngs Moduli (GPa) = 47.94118 85.62964 69.37539
#
# Poissons Ratio (x) = 0.09422 0.57851
# Poissons Ratio (y) = 0.05275 0.30106
# Poissons Ratio (z) = 0.39978 0.37159
#
# Static dielectric constant tensor:
#      x y z
#    x 4.153290 0.207600 0.249540 
#    y 0.207600 4.183710 0.156450 
#    z 0.249540 0.156450 3.765810 
# 
# 
# High freq. dielectric constant tensor:
#      x y z
#    x 1.876020 0.011050 0.014340 
#    y 0.011050 1.877330 0.012580 
#    z 0.014340 0.012580 1.837180 
# 
# From -- ./inp_files/71349.got.cif
#   From: 2010.06.25/outbox.cif.g09.slc.cpg/sg2_36_cif.got.tgz:71349.got - 2010.06.27 13:26:56.
