data_PCOD8019968
_publ_section_title
;
Structure prediction by ZEFSAII (Michael W. Deem and Ramdas Pophale) SiO2 
 PCOD8019968
Probable space group: P -1
;
_chemical_formula_sum "Si O2"
_cell_formula_units_Z 12
_cell_length_a 10.505740
_cell_length_b 11.982208
_cell_length_c 10.559984
_cell_angle_alpha 142.644805
_cell_angle_beta 117.697075
_cell_angle_gamma 87.019678
_cell_volume 576.115726
_symmetry_space_group_name_H-M "P -1"
_symmetry_group_IT_number 2
_symmetry_cell_setting 'triclinic'
loop_
_space_group_symop_operation_xyz
x,y,z
-x,-y,-z
loop_
_atom_site_type_symbol
_atom_site_label
_atom_site_fract_x
_atom_site_fract_y
_atom_site_fract_z
Si Si1 0.815657 0.256140 0.190599
Si Si2 0.507503 0.862512 0.195113
Si Si3 0.221931 0.130717 0.308626
Si Si4 0.411180 0.685267 0.265900
Si Si5 0.198291 0.196110 0.809737
Si Si6 0.861248 0.949968 0.073583
O O1 0.799083 0.117732 0.185587
O O2 0.000000 0.500000 0.500000
O O3 0.643437 0.258543 0.095240
O O4 0.814511 0.117361 0.942984
O O5 0.406637 0.727799 0.154660
O O6 0.668764 0.849090 0.230695
O O7 0.589873 0.129484 0.485029
O O8 0.416463 0.311718 0.619613
O O9 0.077850 0.109165 0.318161
O O10 0.204267 0.206036 0.226121
O O11 0.240501 0.434585 0.998672
O O12 0.218511 0.203970 0.978325
O O13 0.000000 0.000000 0.500000
#
# Coordination Sequence:
#
# PCOD8019968 Si02
#       6
#     2   2   2   2   2   2
#     4   9  19  35  62  89 111 157 191 242 290 345
#     4  10  23  42  62  88 117 156 205 234 292 358
#     4   8  18  39  59  84 110 160 195 235 284 355
#     4  10  22  42  64  83 117 160 200 240 293 348
#     4  12  26  38  59  92 121 156 193 250 299 338
#     4   9  20  38  57  88 121 143 204 231 298 351
#
# _framework density 20.829149999999998
#
# number of rings (size 3 to 8) (size 9 to 14) (size 15 to 20)
#    1.000    1.333    0.000    1.500    4.667    2.000 
#    3.000    0.000    0.000    0.000    0.000    0.000 
#    0.000    0.000    0.000    0.000    0.000    0.000 
#
# Total GULP energy -148716.763488 kJ/mol
# GULP energy per Si atom -12393.063624 kJ/mol
# Density = 2.078174 g / cm^3
# Si number density = 20.829150 Si / 1000 Ang^3
#
#
#
# Elastic Constant Matrix: (Units=GPa)
#
#
# Indices 1 2 3 4 5 6 
#
# 1 61.4677 28.7079 28.3095 5.3956 4.6927 -5.3295
# 2 28.7079 112.3934 46.5806 21.3662 5.2334 0.1233
# 3 28.3095 46.5806 122.9536 15.1455 19.1758 -6.5436
# 4 5.3956 21.3662 15.1455 27.9663 -1.9637 7.9873
# 5 4.6927 5.2334 19.1758 -1.9637 17.3822 -7.5751
# 6 -5.3295 0.1233 -6.5436 7.9873 -7.5751 29.7723
#
#
#
# Elastic Compliance Matrix: (Units=1/GPa)
#
#
# Indices 1 2 3 4 5 6 
#
# 1 0.019649 -0.003784 -0.002982 -0.000117 0.000426 0.003017
# 2 -0.003784 0.012477 -0.002891 -0.007414 -0.000125 0.000593
# 3 -0.002982 -0.002891 0.012498 -0.004970 -0.012510 0.000375
# 4 -0.000117 -0.007414 -0.004970 0.048112 0.007969 -0.011963
# 5 0.000426 -0.000125 -0.012510 0.007969 0.078794 0.015237
# 6 0.003017 0.000593 0.000375 -0.011963 0.015237 0.041295
#
#
# Mechanical properties :
#
#
# Convention : Reuss Voigt Hill
#
# Bulk Modulus (GPa) = 39.51059 56.00119 47.75589
# Shear Modulus (GPa) = 20.78350 27.90527 24.34438
#
# Velocity S-wave (km/s) = 3.16224 3.66419 3.42243
# Velocity P-wave (km/s) = 5.68710 6.69672 6.21245
#
# Compressibility (1/GPa) = 0.02530967
#
# Stress axis : x y z
#
# Youngs Moduli (GPa) = 50.89417 80.14948 80.01031
#
# Poissons Ratio (x) = 0.30327 0.23859
# Poissons Ratio (y) = 0.19257 0.23133
# Poissons Ratio (z) = 0.15176 0.23173
#
# Static dielectric constant tensor:
#      x y z
#    x 3.587710 -0.250350 0.055230 
#    y -0.250350 3.894510 -0.109550 
#    z 0.055230 -0.109550 3.548360 
# 
# 
# High freq. dielectric constant tensor:
#      x y z
#    x 1.793870 -0.022750 0.007630 
#    y -0.022750 1.816470 -0.010560 
#    z 0.007630 -0.010560 1.804870 
# 
# From -- ./inp_files/131730.got.cif
#   From: 2010.06.25/outbox.cif.g09.slc.cpg/sg2_66_cif.got.tgz:131730.got - 2010.06.27 13:26:56.
