data_PCOD8019110
_publ_section_title
;
Structure prediction by ZEFSAII (Michael W. Deem and Ramdas Pophale) SiO2 
 PCOD8019110
Probable space group: P -1
;
_chemical_formula_sum "Si O2"
_cell_formula_units_Z 14
_cell_length_a 9.467349
_cell_length_b 16.444345
_cell_length_c 12.121811
_cell_angle_alpha 44.206933
_cell_angle_beta 128.186527
_cell_angle_gamma 152.383623
_cell_volume 609.117532
_symmetry_space_group_name_H-M "P -1"
_symmetry_group_IT_number 2
_symmetry_cell_setting 'triclinic'
loop_
_space_group_symop_operation_xyz
x,y,z
-x,-y,-z
loop_
_atom_site_type_symbol
_atom_site_label
_atom_site_fract_x
_atom_site_fract_y
_atom_site_fract_z
Si Si1 0.717158 0.207145 0.458354
Si Si2 0.360320 0.193970 0.972129
Si Si3 0.312718 0.089704 0.681219
Si Si4 0.617967 0.432864 0.640570
Si Si5 0.362115 0.408155 0.901801
Si Si6 0.296522 0.905656 0.201435
Si Si7 0.339407 0.209650 0.349375
O O1 0.800610 0.213347 0.618301
O O2 0.556157 0.249647 0.333256
O O3 0.016929 0.372641 0.366710
O O4 0.500000 0.000000 0.500000
O O5 0.463834 0.298668 0.803958
O O6 0.490325 0.351601 0.973765
O O7 0.472118 0.118627 0.111268
O O8 0.000000 0.000000 0.000000
O O9 0.529787 0.304154 0.621877
O O10 0.473851 0.048428 0.809431
O O11 0.257382 0.079398 0.534786
O O12 0.975859 0.918027 0.742131
O O13 0.500000 0.500000 0.500000
O O14 0.493871 0.586883 0.722426
O O15 0.996027 0.220839 0.893913
O O16 0.500000 0.500000 0.000000
#
# Coordination Sequence:
#
# PCOD8019110 Si02
#       7
#     2   2   2   2   2   2   2
#     4  11  24  42  73 101 138 182 233 292 345 414
#     4  10  24  43  66  99 140 179 226 287 346 415
#     4  10  22  41  70  97 133 179 229 296 341 413
#     4  12  23  40  71 100 136 183 237 281 350 413
#     4  11  24  41  69  95 137 184 222 278 353 417
#     4  10  23  46  68 100 141 181 232 283 352 414
#     4  10  22  41  64  99 134 175 234 285 346 403
#
# _framework density 22.984068000000001
#
# number of rings (size 3 to 8) (size 9 to 14) (size 15 to 20)
#    0.000    1.429    0.000    5.143    6.000    5.143 
#    2.571    1.429    0.000    0.000    0.000    0.000 
#    0.000    0.000    0.000    0.000    0.000    0.000 
#
# Total GULP energy -173542.610155 kJ/mol
# GULP energy per Si atom -12395.900725 kJ/mol
# Density = 2.293176 g / cm^3
# Si number density = 22.984068 Si / 1000 Ang^3
#
#
#
# Elastic Constant Matrix: (Units=GPa)
#
#
# Indices 1 2 3 4 5 6 
#
# 1 178.9329 79.8631 56.6953 -18.3589 37.5706 4.2116
# 2 79.8631 134.4058 28.6681 -14.2649 14.1513 0.9963
# 3 56.6953 28.6681 97.8662 -12.7918 9.6277 6.3050
# 4 -18.3589 -14.2649 -12.7918 42.6536 -10.3135 1.8591
# 5 37.5706 14.1513 9.6277 -10.3135 49.6566 -13.3525
# 6 4.2116 0.9963 6.3050 1.8591 -13.3525 48.6775
#
#
#
# Elastic Compliance Matrix: (Units=1/GPa)
#
#
# Indices 1 2 3 4 5 6 
#
# 1 0.010194 -0.004551 -0.003796 0.000328 -0.006149 -0.001996
# 2 -0.004551 0.010266 -0.000289 0.001617 0.001028 0.000441
# 3 -0.003796 -0.000289 0.012825 0.002318 0.000614 -0.001247
# 4 0.000328 0.001617 0.002318 0.025835 0.004151 -0.000210
# 5 -0.006149 0.001028 0.000614 0.004151 0.027330 0.007770
# 6 -0.001996 0.000441 -0.001247 -0.000210 0.007770 0.023008
#
#
# Mechanical properties :
#
#
# Convention : Reuss Voigt Hill
#
# Bulk Modulus (GPa) = 62.44972 82.40642 72.42807
# Shear Modulus (GPa) = 37.85933 44.59608 41.22771
#
# Velocity S-wave (km/s) = 4.06297 4.40967 4.23987
# Velocity P-wave (km/s) = 7.01714 7.86501 7.45314
#
# Compressibility (1/GPa) = 0.01601288
#
# Stress axis : x y z
#
# Youngs Moduli (GPa) = 98.09302 97.40930 77.97326
#
# Poissons Ratio (x) = 0.44328 0.29601
# Poissons Ratio (y) = 0.44639 0.02254
# Poissons Ratio (z) = 0.37240 0.02816
#
# Static dielectric constant tensor:
#      x y z
#    x 4.621520 -0.074310 0.375710 
#    y -0.074310 4.204380 -0.306980 
#    z 0.375710 -0.306980 4.291300 
# 
# 
# High freq. dielectric constant tensor:
#      x y z
#    x 1.920860 -0.005610 0.014820 
#    y -0.005610 1.903120 -0.012560 
#    z 0.014820 -0.012560 1.905230 
# 
# From -- ./inp_files/158849.got.cif
#   From: 2010.06.25/outbox.cif.g09.slc.cpg/sg2_80_cif.got.tgz:158849.got - 2010.06.27 13:26:56.
