data_PCOD8019782
_publ_section_title
;
Structure prediction by ZEFSAII (Michael W. Deem and Ramdas Pophale) SiO2 
 PCOD8019782
Probable space group: P -1
;
_chemical_formula_sum "Si O2"
_cell_formula_units_Z 16
_cell_length_a 20.456701
_cell_length_b 18.737236
_cell_length_c 9.400551
_cell_angle_alpha 148.885106
_cell_angle_beta 151.629730
_cell_angle_gamma 28.244700
_cell_volume 755.858158
_symmetry_space_group_name_H-M "P -1"
_symmetry_group_IT_number 2
_symmetry_cell_setting 'triclinic'
loop_
_space_group_symop_operation_xyz
x,y,z
-x,-y,-z
loop_
_atom_site_type_symbol
_atom_site_label
_atom_site_fract_x
_atom_site_fract_y
_atom_site_fract_z
Si Si1 0.389333 0.687554 0.058721
Si Si2 0.375804 0.391005 0.192953
Si Si3 0.445431 0.180869 0.227489
Si Si4 0.015966 0.899296 0.720882
Si Si5 0.908879 0.137802 0.670002
Si Si6 0.114378 0.326796 0.992720
Si Si7 0.984753 0.390700 0.165033
Si Si8 0.436125 0.661587 0.789744
O O1 0.412007 0.802369 0.404800
O O2 0.500000 0.500000 0.000000
O O3 0.199734 0.752645 0.798247
O O4 0.433346 0.723891 0.048605
O O5 0.421212 0.241491 0.123601
O O6 0.473568 0.478961 0.571607
O O7 0.419938 0.337134 0.019624
O O8 0.189625 0.512245 0.072848
O O9 0.294003 0.274985 0.203007
O O10 0.500000 0.000000 0.000000
O O11 0.918170 0.806961 0.366669
O O12 0.933986 0.050115 0.715989
O O13 0.000000 0.000000 0.000000
O O14 0.723350 0.240620 0.444485
O O15 0.997983 0.239786 0.017293
O O16 0.000000 0.000000 0.500000
O O17 0.000000 0.500000 0.000000
O O18 0.103631 0.335724 0.161238
O O19 0.000000 0.500000 0.500000
#
# Coordination Sequence:
#
# PCOD8019782 Si02
#       8
#     2   2   2   2   2   2   2   2
#     4  12  24  44  72 102 134 179 240 277 335 424
#     4  10  22  44  63  97 135 176 223 282 342 406
#     4  12  27  43  66 102 148 177 218 289 362 406
#     4  12  27  44  74 106 135 182 240 291 342 411
#     4  11  22  45  69  95 135 176 233 292 342 397
#     4  12  25  47  68  96 145 189 221 286 355 413
#     4  11  25  42  70  99 135 182 237 281 343 423
#     4  10  22  41  72  95 127 178 232 284 333 398
#
# _framework density 21.167992999999999
#
# number of rings (size 3 to 8) (size 9 to 14) (size 15 to 20)
#    0.000    0.750    5.000    2.250    7.000    2.000 
#    0.000    0.625    0.000    0.000    0.000    0.000 
#    0.000    0.000    0.000    0.000    0.000    0.000 
#
# Total GULP energy -198276.758724 kJ/mol
# GULP energy per Si atom -12392.297420 kJ/mol
# Density = 2.111981 g / cm^3
# Si number density = 21.167993 Si / 1000 Ang^3
#
#
#
# Elastic Constant Matrix: (Units=GPa)
#
#
# Indices 1 2 3 4 5 6 
#
# 1 125.4292 34.8798 22.4376 3.0148 -10.6651 14.9504
# 2 34.8798 116.9562 23.4294 14.6550 3.2558 23.8368
# 3 22.4376 23.4294 100.3417 25.2228 -12.2245 17.7540
# 4 3.0148 14.6550 25.2228 36.3697 -2.4536 5.5891
# 5 -10.6651 3.2558 -12.2245 -2.4536 38.1019 1.8810
# 6 14.9504 23.8368 17.7540 5.5891 1.8810 43.2980
#
#
#
# Elastic Compliance Matrix: (Units=1/GPa)
#
#
# Indices 1 2 3 4 5 6 
#
# 1 0.009255 -0.002432 -0.001283 0.001528 0.002566 -0.001640
# 2 -0.002432 0.010726 -0.000622 -0.003144 -0.001786 -0.004326
# 3 -0.001283 -0.000622 0.013610 -0.008232 0.003723 -0.003894
# 4 0.001528 -0.003144 -0.008232 0.034342 0.000260 0.000135
# 5 0.002566 -0.001786 0.003723 0.000260 0.028461 -0.002699
# 6 -0.001640 -0.004326 -0.003894 0.000135 -0.002699 0.027740
#
#
# Mechanical properties :
#
#
# Convention : Reuss Voigt Hill
#
# Bulk Modulus (GPa) = 40.13408 56.02453 48.07931
# Shear Modulus (GPa) = 35.43252 41.01927 38.22589
#
# Velocity S-wave (km/s) = 4.09574 4.40682 4.25412
# Velocity P-wave (km/s) = 6.43177 7.23999 6.84782
#
# Compressibility (1/GPa) = 0.02491648
#
# Stress axis : x y z
#
# Youngs Moduli (GPa) = 108.04613 93.23491 73.47561
#
# Poissons Ratio (x) = 0.22674 0.09427
# Poissons Ratio (y) = 0.26276 0.04572
# Poissons Ratio (z) = 0.13863 0.05802
#
# Static dielectric constant tensor:
#      x y z
#    x 4.348020 -0.008340 0.045550 
#    y -0.008340 3.867210 0.114310 
#    z 0.045550 0.114310 3.707050 
# 
# 
# High freq. dielectric constant tensor:
#      x y z
#    x 1.849450 0.001750 -0.004930 
#    y 0.001750 1.836860 0.006210 
#    z -0.004930 0.006210 1.818980 
# 
# From -- ./inp_files/261466.got.cif
#   From: 2010.06.25/outbox.cif.g09.slc.cpg/sg2_131_cif.got.tgz:261466.got - 2010.06.27 13:26:56.
