data_PCOD8019330
_publ_section_title
;
Structure prediction by ZEFSAII (Michael W. Deem and Ramdas Pophale) SiO2 
 PCOD8019330
Probable space group: P -1
;
_chemical_formula_sum "Si O2"
_cell_formula_units_Z 14
_cell_length_a 8.380702
_cell_length_b 11.679182
_cell_length_c 8.668646
_cell_angle_alpha 59.768256
_cell_angle_beta 105.336377
_cell_angle_gamma 124.965165
_cell_volume 600.418741
_symmetry_space_group_name_H-M "P -1"
_symmetry_group_IT_number 2
_symmetry_cell_setting 'triclinic'
loop_
_space_group_symop_operation_xyz
x,y,z
-x,-y,-z
loop_
_atom_site_type_symbol
_atom_site_label
_atom_site_fract_x
_atom_site_fract_y
_atom_site_fract_z
Si Si1 0.447297 0.591664 0.310521
Si Si2 0.822025 0.106299 0.905485
Si Si3 0.425629 0.808878 0.395681
Si Si4 0.873594 0.576090 0.894765
Si Si5 0.245844 0.221941 0.985206
Si Si6 0.414044 0.668976 0.809814
Si Si7 0.735082 0.139302 0.188207
O O1 0.500000 0.500000 0.500000
O O2 0.453963 0.732502 0.304583
O O3 0.236368 0.476168 0.260875
O O4 0.605808 0.646915 0.181186
O O5 0.754617 0.167599 0.701054
O O6 0.048172 0.224357 0.930369
O O7 0.692018 0.095282 0.026407
O O8 0.794616 0.943634 0.965891
O O9 0.372761 0.697023 0.606246
O O10 0.625254 0.975978 0.365839
O O11 0.029330 0.763383 0.793456
O O12 0.723672 0.514278 0.047373
O O13 0.000000 0.500000 0.000000
O O14 0.355421 0.267570 0.150707
O O15 0.362853 0.763099 0.856264
#
# Coordination Sequence:
#
# PCOD8019330 Si02
#       7
#     2   2   2   2   2   2   2
#     4  11  25  46  66  95 133 176 218 273 325 393
#     4  11  22  39  69  96 128 169 220 268 325 383
#     4  12  23  41  72  99 127 173 226 271 319 387
#     4   9  21  42  66  89 133 174 212 259 329 389
#     4  10  22  42  62  97 133 170 210 271 328 385
#     4  10  22  41  66  98 135 171 215 269 329 391
#     4  11  21  40  67  98 126 174 219 267 318 393
#
# _framework density 23.317060000000001
#
# number of rings (size 3 to 8) (size 9 to 14) (size 15 to 20)
#    0.000    1.429    2.857    3.429    0.000    4.571 
#    2.571    8.571    0.000    0.000    0.000    0.000 
#    0.000    0.000    0.000    0.000    0.000    0.000 
#
# Total GULP energy -173523.593605 kJ/mol
# GULP energy per Si atom -12394.542400 kJ/mol
# Density = 2.326399 g / cm^3
# Si number density = 23.317060 Si / 1000 Ang^3
#
#
#
# Elastic Constant Matrix: (Units=GPa)
#
#
# Indices 1 2 3 4 5 6 
#
# 1 75.4697 28.8291 34.3118 7.3928 2.4413 24.7986
# 2 28.8291 101.5087 31.8674 -5.5253 7.5092 39.4902
# 3 34.3118 31.8674 127.1869 13.2440 17.1878 23.9152
# 4 7.3928 -5.5253 13.2440 31.2652 0.5582 -0.2353
# 5 2.4413 7.5092 17.1878 0.5582 31.0512 7.5273
# 6 24.7986 39.4902 23.9152 -0.2353 7.5273 45.7827
#
#
#
# Elastic Compliance Matrix: (Units=1/GPa)
#
#
# Indices 1 2 3 4 5 6 
#
# 1 0.017849 -0.001761 -0.003047 -0.003338 0.002461 -0.006979
# 2 -0.001761 0.015593 -0.001644 0.003780 0.000027 -0.011622
# 3 -0.003047 -0.001644 0.010445 -0.003923 -0.004677 -0.001639
# 4 -0.003338 0.003780 -0.003923 0.035096 0.000730 0.000657
# 5 0.002461 0.000027 -0.004677 0.000730 0.035741 -0.004786
# 6 -0.006979 -0.011622 -0.001639 0.000657 -0.004786 0.037294
#
#
# Mechanical properties :
#
#
# Convention : Reuss Voigt Hill
#
# Bulk Modulus (GPa) = 32.27539 54.90909 43.59224
# Shear Modulus (GPa) = 28.53108 35.56364 32.04736
#
# Velocity S-wave (km/s) = 3.50181 3.90964 3.71133
# Velocity P-wave (km/s) = 5.49748 6.63177 6.09109
#
# Compressibility (1/GPa) = 0.03098336
#
# Stress axis : x y z
#
# Youngs Moduli (GPa) = 56.02590 64.13242 95.73998
#
# Poissons Ratio (x) = 0.11296 0.29168
# Poissons Ratio (y) = 0.09868 0.15736
# Poissons Ratio (z) = 0.17069 0.10541
#
# Static dielectric constant tensor:
#      x y z
#    x 4.715960 0.354350 -0.089950 
#    y 0.354350 4.765910 0.011610 
#    z -0.089950 0.011610 4.039590 
# 
# 
# High freq. dielectric constant tensor:
#      x y z
#    x 1.928160 0.002220 0.005220 
#    y 0.002220 1.945920 0.002080 
#    z 0.005220 0.002080 1.902370 
# 
# From -- ./inp_files/182798.got.cif
#   From: 2010.06.25/outbox.cif.g09.slc.cpg/sg2_92_cif.got.tgz:182798.got - 2010.06.27 13:26:56.
