data_PCOD8019961
_publ_section_title
;
Structure prediction by ZEFSAII (Michael W. Deem and Ramdas Pophale) SiO2 
 PCOD8019961
Probable space group: P -1
;
_chemical_formula_sum "Si O2"
_cell_formula_units_Z 16
_cell_length_a 16.999987
_cell_length_b 19.711252
_cell_length_c 8.229818
_cell_angle_alpha 31.898381
_cell_angle_beta 138.880739
_cell_angle_gamma 155.277727
_cell_volume 607.455361
_symmetry_space_group_name_H-M "P -1"
_symmetry_group_IT_number 2
_symmetry_cell_setting 'triclinic'
loop_
_space_group_symop_operation_xyz
x,y,z
-x,-y,-z
loop_
_atom_site_type_symbol
_atom_site_label
_atom_site_fract_x
_atom_site_fract_y
_atom_site_fract_z
Si Si1 0.203010 0.308554 0.074439
Si Si2 0.577526 0.590472 0.258451
Si Si3 0.546979 0.846537 0.704430
Si Si4 0.101472 0.948657 0.628020
Si Si5 0.205787 0.669849 0.396797
Si Si6 0.224068 0.477379 0.446776
Si Si7 0.575126 0.903959 0.002461
Si Si8 0.148969 0.772490 0.795770
O O1 0.417622 0.448652 0.159863
O O2 0.095462 0.258790 0.174407
O O3 0.098887 0.095306 0.271379
O O4 0.183018 0.407326 0.712709
O O5 0.500000 0.500000 0.500000
O O6 0.737730 0.620886 0.398853
O O7 0.656150 0.801552 0.948333
O O8 0.339665 0.658558 0.673001
O O9 0.508160 0.848768 0.825332
O O10 0.675442 0.065515 0.382203
O O11 0.144665 0.893318 0.657757
O O12 0.264583 0.070421 0.771465
O O13 0.000000 0.500000 0.500000
O O14 0.337550 0.887952 0.237285
O O15 0.181591 0.671671 0.161682
O O16 0.043612 0.401443 0.249126
O O17 0.396826 0.719918 0.211499
#
# Coordination Sequence:
#
# PCOD8019961 Si02
#       8
#     2   2   2   2   2   2   2   2
#     4  11  23  38  67 100 145 193 236 284 352 424
#     4  12  24  39  71 106 150 184 231 285 352 427
#     4  12  25  46  71 108 141 189 239 287 354 422
#     4  10  22  42  63  99 144 191 240 284 348 416
#     4  11  27  50  76  98 138 188 240 299 354 416
#     4  12  24  43  69 108 145 189 233 289 360 415
#     4  11  24  44  71 101 140 182 236 296 350 423
#     4  11  26  45  70 103 143 188 237 297 346 420
#
# _framework density 26.339382000000001
#
# number of rings (size 3 to 8) (size 9 to 14) (size 15 to 20)
#    0.000    0.750    2.500    4.125    7.000    4.000 
#    0.000    1.250    0.000    0.000    0.000    0.000 
#    0.000    0.000    0.000    0.000    0.000    0.000 
#
# Total GULP energy -198471.847846 kJ/mol
# GULP energy per Si atom -12404.490490 kJ/mol
# Density = 2.627943 g / cm^3
# Si number density = 26.339382 Si / 1000 Ang^3
#
#
#
# Elastic Constant Matrix: (Units=GPa)
#
#
# Indices 1 2 3 4 5 6 
#
# 1 44.0878 9.2130 7.1550 1.6628 -17.5803 4.5875
# 2 9.2130 133.6884 31.1542 14.2158 -10.9450 16.5491
# 3 7.1550 31.1542 135.1962 1.8735 -21.1641 3.1241
# 4 1.6628 14.2158 1.8735 48.0701 5.5552 -6.7123
# 5 -17.5803 -10.9450 -21.1641 5.5552 42.8074 0.6540
# 6 4.5875 16.5491 3.1241 -6.7123 0.6540 41.5185
#
#
#
# Elastic Compliance Matrix: (Units=1/GPa)
#
#
# Indices 1 2 3 4 5 6 
#
# 1 0.027973 -0.000328 0.000617 -0.002806 0.012129 -0.003651
# 2 -0.000328 0.008866 -0.001602 -0.003310 0.001830 -0.003941
# 3 0.000617 -0.001602 0.008374 -0.000366 0.004034 -0.000182
# 4 -0.002806 -0.003310 -0.000366 0.023272 -0.005284 0.005502
# 5 0.012129 0.001830 0.004034 -0.005284 0.031547 -0.003724
# 6 -0.003651 -0.003941 -0.000182 0.005502 -0.003724 0.027022
#
#
# Mechanical properties :
#
#
# Convention : Reuss Voigt Hill
#
# Bulk Modulus (GPa) = 23.48193 45.33519 34.40856
# Shear Modulus (GPa) = 34.75251 44.17588 39.46419
#
# Velocity S-wave (km/s) = 3.63631 4.09978 3.87498
# Velocity P-wave (km/s) = 5.15411 6.29764 5.75435
#
# Compressibility (1/GPa) = 0.04258593
#
# Stress axis : x y z
#
# Youngs Moduli (GPa) = 35.74912 112.79491 119.41703
#
# Poissons Ratio (x) = 0.03702 -0.07371
# Poissons Ratio (y) = 0.01173 0.19134
# Poissons Ratio (z) = -0.02207 0.18073
#
# Static dielectric constant tensor:
#      x y z
#    x 4.624610 0.173450 0.269370 
#    y 0.173450 4.843800 0.280930 
#    z 0.269370 0.280930 5.191580 
# 
# 
# High freq. dielectric constant tensor:
#      x y z
#    x 2.063460 0.000080 0.012840 
#    y 0.000080 2.055840 0.003090 
#    z 0.012840 0.003090 2.076370 
# 
# From -- ./inp_files/349976.got.cif
#   From: 2010.06.25/outbox.cif.g09.slc.cpg/sg2_175_cif.got.tgz:349976.got - 2010.06.27 13:26:56.
