data_PCOD8019044
_publ_section_title
;
Structure prediction by ZEFSAII (Michael W. Deem and Ramdas Pophale) SiO2 
 PCOD8019044
Probable space group: P -1
;
_chemical_formula_sum "Si O2"
_cell_formula_units_Z 14
_cell_length_a 9.864083
_cell_length_b 9.083995
_cell_length_c 15.582963
_cell_angle_alpha 128.637276
_cell_angle_beta 42.193673
_cell_angle_gamma 134.926741
_cell_volume 648.782406
_symmetry_space_group_name_H-M "P -1"
_symmetry_group_IT_number 2
_symmetry_cell_setting 'triclinic'
loop_
_space_group_symop_operation_xyz
x,y,z
-x,-y,-z
loop_
_atom_site_type_symbol
_atom_site_label
_atom_site_fract_x
_atom_site_fract_y
_atom_site_fract_z
Si Si1 0.345951 0.536871 0.348771
Si Si2 0.027273 0.082145 0.146184
Si Si3 0.777676 0.844589 0.494919
Si Si4 0.491036 0.421945 0.071444
Si Si5 0.854694 0.158490 0.426324
Si Si6 0.021712 0.323208 0.071244
Si Si7 0.641226 0.441594 0.308592
O O1 0.422356 0.555885 0.220408
O O2 0.319370 0.742516 0.462582
O O3 0.537602 0.524761 0.312920
O O4 0.104641 0.329938 0.403013
O O5 0.295226 0.178248 0.082362
O O6 0.866981 0.060473 0.293464
O O7 0.999688 0.242892 0.150562
O O8 0.953130 0.849840 0.061834
O O9 0.782500 0.630675 0.379612
O O10 0.555677 0.766377 0.629936
O O11 0.746389 0.969337 0.475652
O O12 0.000000 0.000000 0.500000
O O13 0.500000 0.500000 0.000000
O O14 0.748035 0.457408 0.978233
O O15 0.812862 0.365194 0.158720
#
# Coordination Sequence:
#
# PCOD8019044 Si02
#       7
#     2   2   2   2   2   2   2
#     4  10  22  42  68 100 129 168 225 269 324 390
#     4   9  21  40  65  96 121 173 221 261 321 394
#     4  11  25  44  64  95 134 173 210 268 340 385
#     4   9  20  40  62  92 128 169 212 260 322 380
#     4  10  22  42  70  93 131 171 220 275 322 389
#     4  10  22  41  64  91 134 167 216 269 322 385
#     4  11  26  42  65  99 133 168 220 273 324 394
#
# _framework density 21.578883999999999
#
# number of rings (size 3 to 8) (size 9 to 14) (size 15 to 20)
#    0.000    2.000    1.429    0.000    6.000    8.000 
#    0.000    1.429    0.000    0.000    0.000    0.000 
#    0.000    0.000    0.000    0.000    0.000    0.000 
#
# Total GULP energy -173553.130365 kJ/mol
# GULP energy per Si atom -12396.652169 kJ/mol
# Density = 2.152977 g / cm^3
# Si number density = 21.578884 Si / 1000 Ang^3
#
#
#
# Elastic Constant Matrix: (Units=GPa)
#
#
# Indices 1 2 3 4 5 6 
#
# 1 113.1610 49.2431 66.8892 -3.9669 -10.0280 2.2720
# 2 49.2431 86.3390 39.4719 -14.1681 0.0483 -2.8916
# 3 66.8892 39.4719 125.5051 -15.9258 4.4101 -8.2120
# 4 -3.9669 -14.1681 -15.9258 24.8963 1.6913 0.7425
# 5 -10.0280 0.0483 4.4101 1.6913 42.8516 0.1899
# 6 2.2720 -2.8916 -8.2120 0.7425 0.1899 29.0979
#
#
#
# Elastic Compliance Matrix: (Units=1/GPa)
#
#
# Indices 1 2 3 4 5 6 
#
# 1 0.017153 -0.007322 -0.008171 -0.006884 0.005154 -0.004231
# 2 -0.007322 0.017361 -0.000259 0.008627 -0.002056 0.002017
# 3 -0.008171 -0.000259 0.013763 0.007473 -0.003642 0.004330
# 4 -0.006884 0.008627 0.007473 0.048986 -0.004333 0.002282
# 5 0.005154 -0.002056 -0.003642 -0.004333 0.025098 -0.001688
# 6 -0.004231 0.002017 0.004330 0.002282 -0.001688 0.036072
#
#
# Mechanical properties :
#
#
# Convention : Reuss Voigt Hill
#
# Bulk Modulus (GPa) = 59.61369 70.69039 65.15204
# Shear Modulus (GPa) = 25.57161 30.66254 28.11708
#
# Velocity S-wave (km/s) = 3.44616 3.77364 3.61361
# Velocity P-wave (km/s) = 6.59701 7.19843 6.90427
#
# Compressibility (1/GPa) = 0.01677467
#
# Stress axis : x y z
#
# Youngs Moduli (GPa) = 58.29790 57.59982 72.65631
#
# Poissons Ratio (x) = 0.42176 0.59365
# Poissons Ratio (y) = 0.42687 0.01880
# Poissons Ratio (z) = 0.47633 0.01490
#
# Static dielectric constant tensor:
#      x y z
#    x 3.870810 0.352400 0.096490 
#    y 0.352400 4.072280 -0.243580 
#    z 0.096490 -0.243580 3.976140 
# 
# 
# High freq. dielectric constant tensor:
#      x y z
#    x 1.837180 0.023390 0.011240 
#    y 0.023390 1.848730 -0.016200 
#    z 0.011240 -0.016200 1.854090 
# 
# From -- ./inp_files/493573.got.cif
#   From: 2010.06.25/outbox.cif.g09.slc.cpg/sg2_247_cif.got.tgz:493573.got - 2010.06.27 13:26:56.
