data_PCOD8019295
_publ_section_title
;
Structure prediction by ZEFSAII (Michael W. Deem and Ramdas Pophale) SiO2 
 PCOD8019295
Probable space group: P -1
;
_chemical_formula_sum "Si O2"
_cell_formula_units_Z 14
_cell_length_a 14.926029
_cell_length_b 26.704238
_cell_length_c 26.520212
_cell_angle_alpha 168.882682
_cell_angle_beta 19.326201
_cell_angle_gamma 157.925713
_cell_volume 674.492161
_symmetry_space_group_name_H-M "P -1"
_symmetry_group_IT_number 2
_symmetry_cell_setting 'triclinic'
loop_
_space_group_symop_operation_xyz
x,y,z
-x,-y,-z
loop_
_atom_site_type_symbol
_atom_site_label
_atom_site_fract_x
_atom_site_fract_y
_atom_site_fract_z
Si Si1 0.303066 0.538585 0.358946
Si Si2 0.499303 0.449827 0.626024
Si Si3 0.195062 0.463268 0.108175
Si Si4 0.094675 0.980367 0.613576
Si Si5 0.066765 0.758961 0.876211
Si Si6 0.593917 0.938033 0.237634
Si Si7 0.603556 0.021788 0.845960
O O1 0.498376 0.564656 0.329284
O O2 0.000000 0.500000 0.500000
O O3 0.320730 0.796883 0.572239
O O4 0.401695 0.294363 0.033844
O O5 0.318348 0.212149 0.464915
O O6 0.807593 0.427318 0.418040
O O7 0.363608 0.713731 0.941026
O O8 0.087275 0.721940 0.395319
O O9 0.000917 0.410075 0.205957
O O10 0.500000 0.500000 0.000000
O O11 0.189032 0.224478 0.837249
O O12 0.293483 0.953059 0.433690
O O13 0.794633 0.027170 0.798364
O O14 0.293423 0.978033 0.986684
O O15 0.797762 0.893725 0.131942
#
# Coordination Sequence:
#
# PCOD8019295 Si02
#       7
#     2   2   2   2   2   2   2
#     4  12  22  40  67 102 128 169 223 269 324 384
#     4  10  22  41  66  94 134 165 222 271 321 381
#     4  12  26  43  69  99 132 173 218 270 331 386
#     4  12  27  46  66  97 139 169 221 268 324 399
#     4  10  25  40  71  93 135 170 223 270 330 376
#     4  12  25  40  68  99 131 173 215 275 328 377
#     4  10  23  44  66  93 137 175 213 270 327 381
#
# _framework density 20.756357000000001
#
# number of rings (size 3 to 8) (size 9 to 14) (size 15 to 20)
#    0.857    0.000    2.857    4.286    2.000    1.143 
#    0.000    4.286    0.000    0.000    0.000    0.000 
#    0.000    0.000    0.000    0.000    0.000    0.000 
#
# Total GULP energy -173630.543327 kJ/mol
# GULP energy per Si atom -12402.181666 kJ/mol
# Density = 2.070911 g / cm^3
# Si number density = 20.756357 Si / 1000 Ang^3
#
#
#
# Elastic Constant Matrix: (Units=GPa)
#
#
# Indices 1 2 3 4 5 6 
#
# 1 125.0714 37.7862 49.8093 16.0342 -6.9372 2.8840
# 2 37.7862 65.1508 33.2887 7.6948 2.5167 -11.2802
# 3 49.8093 33.2887 140.8009 36.6304 2.1334 -19.3074
# 4 16.0342 7.6948 36.6304 37.8834 -6.7276 -0.7530
# 5 -6.9372 2.5167 2.1334 -6.7276 50.8268 2.4809
# 6 2.8840 -11.2802 -19.3074 -0.7530 2.4809 65.1548
#
#
#
# Elastic Compliance Matrix: (Units=1/GPa)
#
#
# Indices 1 2 3 4 5 6 
#
# 1 0.010958 -0.005325 -0.002829 -0.000526 0.001922 -0.002324
# 2 -0.005325 0.020301 -0.002565 0.000365 -0.001725 0.003060
# 3 -0.002829 -0.002565 0.011776 -0.010002 -0.002230 0.003140
# 4 -0.000526 0.000365 -0.010002 0.037118 0.005372 -0.002653
# 5 0.001922 -0.001725 -0.002230 0.005372 0.020914 -0.001779
# 6 -0.002324 0.003060 0.003140 -0.002653 -0.001779 0.016948
#
#
# Mechanical properties :
#
#
# Convention : Reuss Voigt Hill
#
# Bulk Modulus (GPa) = 46.30017 63.64351 54.97184
# Shear Modulus (GPa) = 34.09435 44.78226 39.43831
#
# Velocity S-wave (km/s) = 4.05729 4.64995 4.36370
# Velocity P-wave (km/s) = 6.65611 7.71739 7.20631
#
# Compressibility (1/GPa) = 0.02159819
#
# Stress axis : x y z
#
# Youngs Moduli (GPa) = 91.25491 49.25764 84.92092
#
# Poissons Ratio (x) = 0.26229 0.24020
# Poissons Ratio (y) = 0.48592 0.21784
# Poissons Ratio (z) = 0.25812 0.12635
#
# Static dielectric constant tensor:
#      x y z
#    x 3.886210 -0.031780 -0.006410 
#    y -0.031780 3.643280 0.134790 
#    z -0.006410 0.134790 3.774150 
# 
# 
# High freq. dielectric constant tensor:
#      x y z
#    x 1.824020 -0.001160 -0.002630 
#    y -0.001160 1.804390 0.013440 
#    z -0.002630 0.013440 1.820670 
# 
# From -- ./inp_files/454901.got.cif
#   From: 2010.06.25/outbox.cif.g09.slc.cpg/sg2_228_cif.got.tgz:454901.got - 2010.06.27 13:26:56.
