data_PCOD8019312
_publ_section_title
;
Structure prediction by ZEFSAII (Michael W. Deem and Ramdas Pophale) SiO2 
 PCOD8019312
Probable space group: P -1
;
_chemical_formula_sum "Si O2"
_cell_formula_units_Z 12
_cell_length_a 17.517418
_cell_length_b 8.649945
_cell_length_c 12.098845
_cell_angle_alpha 147.591905
_cell_angle_beta 34.664532
_cell_angle_gamma 144.212178
_cell_volume 516.191854
_symmetry_space_group_name_H-M "P -1"
_symmetry_group_IT_number 2
_symmetry_cell_setting 'triclinic'
loop_
_space_group_symop_operation_xyz
x,y,z
-x,-y,-z
loop_
_atom_site_type_symbol
_atom_site_label
_atom_site_fract_x
_atom_site_fract_y
_atom_site_fract_z
Si Si1 0.165324 0.720957 0.434039
Si Si2 0.281558 0.290202 0.161877
Si Si3 0.161376 0.369093 0.836593
Si Si4 0.354658 0.700912 0.993446
Si Si5 0.999338 0.770961 0.266566
Si Si6 0.478195 0.307067 0.743243
O O1 0.251863 0.589399 0.334788
O O2 0.234448 0.751748 0.247037
O O3 0.000000 0.500000 0.500000
O O4 0.164276 0.044593 0.679418
O O5 0.366238 0.405015 0.246698
O O6 0.137796 0.977878 0.152280
O O7 0.387616 0.212203 0.906341
O O8 0.147891 0.343151 0.702006
O O9 0.299599 0.636239 0.891981
O O10 0.024238 0.461574 0.092337
O O11 0.389515 0.407161 0.816212
O O12 0.500000 0.000000 0.000000
O O13 0.000000 0.000000 0.500000
O O14 0.500000 0.000000 0.500000
#
# Coordination Sequence:
#
# PCOD8019312 Si02
#       6
#     2   2   2   2   2   2
#     4  11  23  44  66 101 140 172 223 287 332 404
#     4  10  22  42  64  93 135 169 223 279 327 393
#     4  11  24  41  67  99 130 183 223 272 347 399
#     4  11  25  44  68 100 138 178 227 280 332 406
#     4  11  24  43  63  98 136 174 222 282 333 405
#     4  10  22  41  66  96 127 177 220 272 332 398
#
# _framework density 23.247171000000002
#
# number of rings (size 3 to 8) (size 9 to 14) (size 15 to 20)
#    0.000    1.333    1.667    3.000    0.000    5.333 
#    0.000    0.000    0.000    0.000    0.000    0.000 
#    0.000    0.000    0.000    0.000    0.000    0.000 
#
# Total GULP energy -148657.020507 kJ/mol
# GULP energy per Si atom -12388.085042 kJ/mol
# Density = 2.319426 g / cm^3
# Si number density = 23.247171 Si / 1000 Ang^3
#
#
#
# Elastic Constant Matrix: (Units=GPa)
#
#
# Indices 1 2 3 4 5 6 
#
# 1 154.5256 25.4415 61.6839 5.4140 20.8037 27.7371
# 2 25.4415 97.9926 46.1764 -2.9294 10.4434 22.6800
# 3 61.6839 46.1764 181.0561 23.6935 -5.7093 1.7021
# 4 5.4140 -2.9294 23.6935 32.8573 -2.1446 1.1697
# 5 20.8037 10.4434 -5.7093 -2.1446 43.6404 13.9831
# 6 27.7371 22.6800 1.7021 1.1697 13.9831 29.9871
#
#
#
# Elastic Compliance Matrix: (Units=1/GPa)
#
#
# Indices 1 2 3 4 5 6 
#
# 1 0.009637 0.001713 -0.003920 0.001536 -0.002613 -0.008829
# 2 0.001713 0.015334 -0.005074 0.005142 -0.000825 -0.012710
# 3 -0.003920 -0.005074 0.008990 -0.006388 0.001925 0.006305
# 4 0.001536 0.005142 -0.006388 0.035566 0.001151 -0.006871
# 5 -0.002613 -0.000825 0.001925 0.001151 0.027911 -0.010129
# 6 -0.008829 -0.012710 0.006305 -0.006871 -0.010129 0.055761
#
#
# Mechanical properties :
#
#
# Convention : Reuss Voigt Hill
#
# Bulk Modulus (GPa) = 51.54895 77.79755 64.67325
# Shear Modulus (GPa) = 28.69786 41.31512 35.00649
#
# Velocity S-wave (km/s) = 3.51731 4.22027 3.88472
# Velocity P-wave (km/s) = 6.22236 7.56873 6.92832
#
# Compressibility (1/GPa) = 0.01939904
#
# Stress axis : x y z
#
# Youngs Moduli (GPa) = 103.76647 65.21250 111.23118
#
# Poissons Ratio (x) = -0.11172 0.43608
# Poissons Ratio (y) = -0.17776 0.56439
# Poissons Ratio (z) = 0.40681 0.33089
#
# Static dielectric constant tensor:
#      x y z
#    x 4.571210 -0.003180 -0.497170 
#    y -0.003180 4.992330 1.462000 
#    z -0.497170 1.462000 6.622080 
# 
# 
# High freq. dielectric constant tensor:
#      x y z
#    x 1.938770 0.013010 -0.012900 
#    y 0.013010 1.888660 0.024140 
#    z -0.012900 0.024140 1.934440 
# 
# From -- ./inp_files/28913.got.cif
#   From: 2010.06.25/outbox.cif.g09.slc.cpg/sg2_15_cif.got.tgz:28913.got - 2010.06.27 13:26:56.
