data_PCOD8019221
_publ_section_title
;
Structure prediction by ZEFSAII (Michael W. Deem and Ramdas Pophale) SiO2 
 PCOD8019221
Probable space group: P -1
;
_chemical_formula_sum "Si O2"
_cell_formula_units_Z 14
_cell_length_a 15.161249
_cell_length_b 10.527477
_cell_length_c 15.080583
_cell_angle_alpha 50.475252
_cell_angle_beta 19.353705
_cell_angle_gamma 50.162247
_cell_volume 607.646318
_symmetry_space_group_name_H-M "P -1"
_symmetry_group_IT_number 2
_symmetry_cell_setting 'triclinic'
loop_
_space_group_symop_operation_xyz
x,y,z
-x,-y,-z
loop_
_atom_site_type_symbol
_atom_site_label
_atom_site_fract_x
_atom_site_fract_y
_atom_site_fract_z
Si Si1 0.642441 0.080678 0.247787
Si Si2 0.587605 0.319556 0.540203
Si Si3 0.094141 0.620042 0.069562
Si Si4 0.319077 0.286695 0.317248
Si Si5 0.757003 0.320749 0.756321
Si Si6 0.920856 0.791262 0.990989
Si Si7 0.670530 0.413166 0.612558
O O1 0.846228 0.200928 0.035032
O O2 0.403799 0.179246 0.371498
O O3 0.500000 0.000000 0.500000
O O4 0.835423 0.949297 0.064069
O O5 0.500000 0.500000 0.500000
O O6 0.712883 0.323813 0.517259
O O7 0.809920 0.199710 0.324655
O O8 0.322341 0.232053 0.833500
O O9 0.359145 0.485922 0.887619
O O10 0.993645 0.630824 0.058155
O O11 0.856870 0.559226 0.379049
O O12 0.303476 0.479697 0.269402
O O13 0.036599 0.243410 0.570539
O O14 0.532452 0.238038 0.057298
O O15 0.753349 0.280139 0.672479
#
# Coordination Sequence:
#
# PCOD8019221 Si02
#       7
#     2   2   2   2   2   2   2
#     4  12  27  45  67 103 144 178 212 269 346 423
#     4  12  23  43  64  92 135 180 225 280 321 383
#     4  12  23  39  63  99 135 174 205 273 336 400
#     4  10  23  41  66  93 135 168 217 272 332 397
#     4  10  22  41  65  98 125 173 221 276 329 379
#     4  12  25  41  62  95 137 182 217 259 341 405
#     4  12  23  39  70  95 133 168 225 279 329 379
#
# _framework density 23.039719000000002
#
# number of rings (size 3 to 8) (size 9 to 14) (size 15 to 20)
#    0.000    0.571    4.286    4.286    4.000    3.429 
#    0.000    0.000    0.000    5.143    0.000    0.000 
#    0.000    0.000    0.000    0.000    0.000    0.000 
#
# Total GULP energy -173623.730809 kJ/mol
# GULP energy per Si atom -12401.695058 kJ/mol
# Density = 2.298728 g / cm^3
# Si number density = 23.039719 Si / 1000 Ang^3
#
#
#
# Elastic Constant Matrix: (Units=GPa)
#
#
# Indices 1 2 3 4 5 6 
#
# 1 156.2772 46.5220 62.0965 3.8425 8.7900 -19.5982
# 2 46.5220 48.6080 30.5412 11.4547 -2.2906 -4.2932
# 3 62.0965 30.5412 131.7084 15.9684 -4.1370 -13.8980
# 4 3.8425 11.4547 15.9684 29.9028 -5.5965 4.3063
# 5 8.7900 -2.2906 -4.1370 -5.5965 34.9695 6.1563
# 6 -19.5982 -4.2932 -13.8980 4.3063 6.1563 40.1752
#
#
#
# Elastic Compliance Matrix: (Units=1/GPa)
#
#
# Indices 1 2 3 4 5 6 
#
# 1 0.010908 -0.008921 -0.003107 0.002411 -0.003949 0.003640
# 2 -0.008921 0.032827 -0.002270 -0.009548 0.002778 -0.001031
# 3 -0.003107 -0.002270 0.010378 -0.004446 0.000763 0.002192
# 4 0.002411 -0.009548 -0.004446 0.041261 0.006030 -0.006729
# 5 -0.003949 0.002778 0.000763 0.006030 0.032045 -0.006922
# 6 0.003640 -0.001031 0.002192 -0.006729 -0.006922 0.029097
#
#
# Mechanical properties :
#
#
# Convention : Reuss Voigt Hill
#
# Bulk Modulus (GPa) = 39.18834 68.32369 53.75602
# Shear Modulus (GPa) = 25.82413 34.17174 29.99794
#
# Velocity S-wave (km/s) = 3.35155 3.85537 3.61225
# Velocity P-wave (km/s) = 5.65890 7.03830 6.38595
#
# Compressibility (1/GPa) = 0.02551779
#
# Stress axis : x y z
#
# Youngs Moduli (GPa) = 91.67377 30.46255 96.35912
#
# Poissons Ratio (x) = 0.27176 0.29934
# Poissons Ratio (y) = 0.81783 0.21875
# Poissons Ratio (z) = 0.28479 0.06915
#
# Static dielectric constant tensor:
#      x y z
#    x 4.542740 -0.136310 -0.054300 
#    y -0.136310 3.795820 0.144470 
#    z -0.054300 0.144470 4.250720 
# 
# 
# High freq. dielectric constant tensor:
#      x y z
#    x 1.924950 -0.010260 -0.004900 
#    y -0.010260 1.865960 0.015950 
#    z -0.004900 0.015950 1.926730 
# 
# From -- ./inp_files/521231.got.cif
#   From: 2010.06.25/outbox.cif.g09.slc.cpg/sg2_261_cif.got.tgz:521231.got - 2010.06.27 13:26:56.
