data_PCOD8019264
_publ_section_title
;
Structure prediction by ZEFSAII (Michael W. Deem and Ramdas Pophale) SiO2 
 PCOD8019264
Probable space group: P -1
;
_chemical_formula_sum "Si O2"
_cell_formula_units_Z 16
_cell_length_a 20.283566
_cell_length_b 8.757398
_cell_length_c 21.151655
_cell_angle_alpha 39.902331
_cell_angle_beta 19.724592
_cell_angle_gamma 50.412888
_cell_volume 748.312581
_symmetry_space_group_name_H-M "P -1"
_symmetry_group_IT_number 2
_symmetry_cell_setting 'triclinic'
loop_
_space_group_symop_operation_xyz
x,y,z
-x,-y,-z
loop_
_atom_site_type_symbol
_atom_site_label
_atom_site_fract_x
_atom_site_fract_y
_atom_site_fract_z
Si Si1 0.360422 0.170165 0.399369
Si Si2 0.020666 0.133202 0.079965
Si Si3 0.905450 0.016618 0.512881
Si Si4 0.249499 0.595840 0.818496
Si Si5 0.295692 0.412294 0.255284
Si Si6 0.712117 0.606853 0.017840
Si Si7 0.455480 0.963940 0.977369
Si Si8 0.560706 0.791717 0.373556
O O1 0.302409 0.223111 0.365158
O O2 0.553495 0.421592 0.169066
O O3 0.427562 0.924661 0.412280
O O4 0.159181 0.112698 0.646023
O O5 0.915418 0.266771 0.083628
O O6 0.151907 0.323520 0.956813
O O7 0.186140 0.050365 0.915949
O O8 0.897834 0.766511 0.558217
O O9 0.674064 0.021254 0.725289
O O10 0.000000 0.000000 0.500000
O O11 0.055659 0.278676 0.259422
O O12 0.283275 0.557451 0.873217
O O13 0.481462 0.778221 0.522232
O O14 0.500000 0.500000 0.000000
O O15 0.281075 0.673042 0.213239
O O16 0.639839 0.838846 0.026496
O O17 0.500000 0.000000 0.000000
O O18 0.500000 0.500000 0.500000
#
# Coordination Sequence:
#
# PCOD8019264 Si02
#       8
#     2   2   2   2   2   2   2   2
#     4  11  22  39  60  91 124 163 208 260 315 373
#     4   9  19  38  62  85 120 156 204 258 313 379
#     4  11  23  41  63  90 126 165 211 265 311 367
#     4   9  20  38  60  89 118 156 202 260 314 367
#     4  10  22  41  66  91 126 171 209 260 318 368
#     4  12  24  39  62  92 128 164 212 263 311 373
#     4  11  22  44  63  89 131 169 209 261 309 374
#     4   9  20  38  63  87 121 158 206 262 311 383
#
# _framework density 21.381439
#
# number of rings (size 3 to 8) (size 9 to 14) (size 15 to 20)
#    0.000    1.750    2.500    2.250    0.000    8.500 
#    0.000    1.250    0.000    0.000    0.000    0.000 
#    0.000    0.000    0.000    0.000    0.000    0.000 
#
# Total GULP energy -198342.735625 kJ/mol
# GULP energy per Si atom -12396.420977 kJ/mol
# Density = 2.133277 g / cm^3
# Si number density = 21.381439 Si / 1000 Ang^3
#
#
#
# Elastic Constant Matrix: (Units=GPa)
#
#
# Indices 1 2 3 4 5 6 
#
# 1 123.9112 32.6741 32.7631 -9.3198 11.4435 1.6600
# 2 32.6741 90.5790 36.6130 -3.3953 4.5645 -5.6358
# 3 32.7631 36.6130 149.2745 10.7578 11.5605 -0.2109
# 4 -9.3198 -3.3953 10.7578 40.5250 2.8625 -5.6628
# 5 11.4435 4.5645 11.5605 2.8625 34.1057 -11.6095
# 6 1.6600 -5.6358 -0.2109 -5.6628 -11.6095 32.2669
#
#
#
# Elastic Compliance Matrix: (Units=1/GPa)
#
#
# Indices 1 2 3 4 5 6 
#
# 1 0.009660 -0.002795 -0.001358 0.002331 -0.003193 -0.001734
# 2 -0.002795 0.013409 -0.002868 0.001605 0.001044 0.003125
# 3 -0.001358 -0.002868 0.008070 -0.002770 -0.002231 -0.001667
# 4 0.002331 0.001605 -0.002770 0.026774 -0.000749 0.004572
# 5 -0.003193 0.001044 -0.002231 -0.000749 0.035486 0.012968
# 6 -0.001734 0.003125 -0.001667 0.004572 0.012968 0.037084
#
#
# Mechanical properties :
#
#
# Convention : Reuss Voigt Hill
#
# Bulk Modulus (GPa) = 58.48454 63.09611 60.79032
# Shear Modulus (GPa) = 33.28375 38.82716 36.05546
#
# Velocity S-wave (km/s) = 3.94974 4.26599 4.11091
# Velocity P-wave (km/s) = 6.94355 7.33749 7.14324
#
# Compressibility (1/GPa) = 0.01709854
#
# Stress axis : x y z
#
# Youngs Moduli (GPa) = 103.52203 74.57416 123.90839
#
# Poissons Ratio (x) = 0.20846 0.16823
# Poissons Ratio (y) = 0.28938 0.35531
# Poissons Ratio (z) = 0.14055 0.21384
#
# Static dielectric constant tensor:
#      x y z
#    x 3.660600 0.128990 -0.035570 
#    y 0.128990 4.049510 0.064700 
#    z -0.035570 0.064700 4.537290 
# 
# 
# High freq. dielectric constant tensor:
#      x y z
#    x 1.827070 0.000950 0.006290 
#    y 0.000950 1.828440 -0.001180 
#    z 0.006290 -0.001180 1.859090 
# 
# From -- ./inp_files/529513.got.cif
#   From: 2010.06.25/outbox.cif.g09.slc.cpg/sg2_265_cif.got.tgz:529513.got - 2010.06.27 13:26:56.
