data_PCOD8019817
_publ_section_title
;
Structure prediction by ZEFSAII (Michael W. Deem and Ramdas Pophale) SiO2 
 PCOD8019817
Probable space group: P -1
;
_chemical_formula_sum "Si O2"
_cell_formula_units_Z 16
_cell_length_a 12.042968
_cell_length_b 15.748744
_cell_length_c 18.311129
_cell_angle_alpha 28.034470
_cell_angle_beta 133.621011
_cell_angle_gamma 151.927360
_cell_volume 703.302299
_symmetry_space_group_name_H-M "P -1"
_symmetry_group_IT_number 2
_symmetry_cell_setting 'triclinic'
loop_
_space_group_symop_operation_xyz
x,y,z
-x,-y,-z
loop_
_atom_site_type_symbol
_atom_site_label
_atom_site_fract_x
_atom_site_fract_y
_atom_site_fract_z
Si Si1 0.201861 0.507183 0.374979
Si Si2 0.271588 0.886565 0.904128
Si Si3 0.662923 0.363306 0.497332
Si Si4 0.260612 0.525096 0.090449
Si Si5 0.014218 0.681930 0.095217
Si Si6 0.531835 0.844480 0.820928
Si Si7 0.996733 0.044635 0.880395
Si Si8 0.159069 0.066735 0.455830
O O1 0.227000 0.477090 0.494282
O O2 0.083017 0.596874 0.251185
O O3 0.478122 0.757199 0.270338
O O4 0.017080 0.192610 0.488703
O O5 0.041881 0.751626 0.854621
O O6 0.326905 0.730166 0.028153
O O7 0.199118 0.817531 0.008045
O O8 0.355506 0.108117 0.547900
O O9 0.801420 0.607742 0.311463
O O10 0.698791 0.185622 0.631221
O O11 0.323179 0.382331 0.253204
O O12 0.440875 0.743326 0.939396
O O13 0.710959 0.381459 0.170941
O O14 0.077631 0.942685 0.951463
O O15 0.712738 0.847411 0.878985
O O16 0.000000 0.000000 0.000000
O O17 0.000000 0.000000 0.500000
#
# Coordination Sequence:
#
# PCOD8019817 Si02
#       8
#     2   2   2   2   2   2   2   2
#     4  12  25  45  71 107 151 188 234 292 361 430
#     4  10  22  41  74 106 146 189 230 287 355 438
#     4  12  27  48  73 107 143 187 242 298 361 424
#     4  10  22  42  73 104 146 190 231 288 361 422
#     4  11  25  45  72 109 140 191 241 289 361 426
#     4  11  23  50  72 102 146 185 241 300 353 420
#     4  12  28  49  75 101 139 192 247 301 356 425
#     4  12  27  42  68 110 152 191 233 295 354 431
#
# _framework density 22.749818000000001
#
# number of rings (size 3 to 8) (size 9 to 14) (size 15 to 20)
#    0.000    0.750    2.500    4.125    8.750    1.000 
#    2.250    1.250    0.000    0.000    0.000    0.000 
#    0.000    0.000    0.000    0.000    0.000    0.000 
#
# Total GULP energy -198495.568660 kJ/mol
# GULP energy per Si atom -12405.973041 kJ/mol
# Density = 2.269804 g / cm^3
# Si number density = 22.749818 Si / 1000 Ang^3
#
#
#
# Elastic Constant Matrix: (Units=GPa)
#
#
# Indices 1 2 3 4 5 6 
#
# 1 63.9604 8.2405 29.1699 -4.3275 6.8259 1.8101
# 2 8.2405 86.4591 26.1536 0.5543 -9.0910 -10.1004
# 3 29.1699 26.1536 134.5876 0.4587 -0.5449 -10.1477
# 4 -4.3275 0.5543 0.4587 32.8872 -0.6521 2.5482
# 5 6.8259 -9.0910 -0.5449 -0.6521 37.9411 -2.0637
# 6 1.8101 -10.1004 -10.1477 2.5482 -2.0637 38.1776
#
#
#
# Elastic Compliance Matrix: (Units=1/GPa)
#
#
# Indices 1 2 3 4 5 6 
#
# 1 0.018239 -0.001266 -0.003929 0.002605 -0.003739 -0.002620
# 2 -0.001266 0.013036 -0.002002 -0.000537 0.003488 0.003201
# 3 -0.003929 -0.002002 0.008832 -0.000759 0.000454 0.002079
# 4 0.002605 -0.000537 -0.000759 0.030962 -0.000215 -0.002545
# 5 -0.003739 0.003488 0.000454 -0.000215 0.028017 0.002749
# 6 -0.002620 0.003201 0.002079 -0.002545 0.002749 0.028036
#
#
# Mechanical properties :
#
#
# Convention : Reuss Voigt Hill
#
# Bulk Modulus (GPa) = 38.88792 45.79279 42.34035
# Shear Modulus (GPa) = 33.31420 36.56407 34.93913
#
# Velocity S-wave (km/s) = 3.83086 4.01337 3.92318
# Velocity P-wave (km/s) = 6.05790 6.45358 6.25887
#
# Compressibility (1/GPa) = 0.02571493
#
# Stress axis : x y z
#
# Youngs Moduli (GPa) = 54.82803 76.70805 113.22810
#
# Poissons Ratio (x) = 0.09710 0.44482
# Poissons Ratio (y) = 0.06941 0.22664
# Poissons Ratio (z) = 0.21540 0.15354
#
# Static dielectric constant tensor:
#      x y z
#    x 4.160510 0.235660 0.193610 
#    y 0.235660 4.338720 0.132390 
#    z 0.193610 0.132390 4.156130 
# 
# 
# High freq. dielectric constant tensor:
#      x y z
#    x 1.894370 0.011640 0.006850 
#    y 0.011640 1.913220 0.001720 
#    z 0.006850 0.001720 1.903300 
# 
# From -- ./inp_files/569945.got.cif
#   From: 2010.06.25/outbox.cif.g09.slc.cpg/sg2_285_cif.got.tgz:569945.got - 2010.06.27 13:26:56.
