data_PCOD8019912
_publ_section_title
;
Structure prediction by ZEFSAII (Michael W. Deem and Ramdas Pophale) SiO2 
 PCOD8019912
Probable space group: P -1
;
_chemical_formula_sum "Si O2"
_cell_formula_units_Z 16
_cell_length_a 8.729847
_cell_length_b 17.267394
_cell_length_c 20.101642
_cell_angle_alpha 20.031064
_cell_angle_beta 48.862892
_cell_angle_gamma 57.287856
_cell_volume 745.444219
_symmetry_space_group_name_H-M "P -1"
_symmetry_group_IT_number 2
_symmetry_cell_setting 'triclinic'
loop_
_space_group_symop_operation_xyz
x,y,z
-x,-y,-z
loop_
_atom_site_type_symbol
_atom_site_label
_atom_site_fract_x
_atom_site_fract_y
_atom_site_fract_z
Si Si1 0.422867 0.609210 0.369734
Si Si2 0.138884 0.996202 0.690234
Si Si3 0.876055 0.876913 0.199553
Si Si4 0.781991 0.984804 0.894236
Si Si5 0.243044 0.055762 0.404034
Si Si6 0.645845 0.595924 0.797738
Si Si7 0.782203 0.330202 0.172477
Si Si8 0.622253 0.086258 0.192729
O O1 0.500000 0.500000 0.500000
O O2 0.242021 0.401960 0.551631
O O3 0.334644 0.821440 0.246943
O O4 0.620264 0.729197 0.167239
O O5 0.168709 0.759957 0.840304
O O6 0.295343 0.062068 0.655553
O O7 0.189708 0.205194 0.453698
O O8 0.896635 0.941828 0.828780
O O9 0.050161 0.909120 0.181017
O O10 0.695321 0.006268 0.165730
O O11 0.000000 0.000000 0.000000
O O12 0.330737 0.318823 0.199816
O O13 0.367395 0.033469 0.318290
O O14 0.300349 0.887516 0.577857
O O15 0.000000 0.000000 0.500000
O O16 0.402390 0.544396 0.882792
O O17 0.725545 0.367468 0.948136
O O18 0.000000 0.500000 0.000000
#
# Coordination Sequence:
#
# PCOD8019912 Si02
#       8
#     2   2   2   2   2   2   2   2
#     4  11  23  46  68  97 136 164 220 287 328 398
#     4  10  22  42  62  95 126 167 220 259 325 395
#     4  11  24  45  68 100 133 175 226 275 337 398
#     4  10  24  44  72  96 127 183 217 266 349 392
#     4  11  22  40  62  95 128 168 219 266 328 394
#     4  11  22  42  64  88 135 170 208 275 320 391
#     4  11  22  39  62  91 132 168 209 270 321 384
#     4  11  23  41  66  93 127 175 220 263 333 389
#
# _framework density 21.463712000000001
#
# number of rings (size 3 to 8) (size 9 to 14) (size 15 to 20)
#    0.000    1.250    3.750    2.250    3.500    1.000 
#    9.000    0.000    0.000    0.000    0.000    0.000 
#    0.000    0.000    0.000    0.000    0.000    0.000 
#
# Total GULP energy -198372.710434 kJ/mol
# GULP energy per Si atom -12398.294402 kJ/mol
# Density = 2.141486 g / cm^3
# Si number density = 21.463712 Si / 1000 Ang^3
#
#
#
# Elastic Constant Matrix: (Units=GPa)
#
#
# Indices 1 2 3 4 5 6 
#
# 1 74.3609 16.7656 24.6394 11.5788 -3.4525 -6.1349
# 2 16.7656 143.3843 48.3490 29.4230 4.7895 -14.3274
# 3 24.6394 48.3490 112.6575 8.4425 -12.1939 -8.3149
# 4 11.5788 29.4230 8.4425 38.4047 -5.6361 -6.1942
# 5 -3.4525 4.7895 -12.1939 -5.6361 41.2170 -2.5891
# 6 -6.1349 -14.3274 -8.3149 -6.1942 -2.5891 28.9429
#
#
#
# Elastic Compliance Matrix: (Units=1/GPa)
#
#
# Indices 1 2 3 4 5 6 
#
# 1 0.015117 0.000180 -0.002986 -0.003786 -0.000054 0.001621
# 2 0.000180 0.010061 -0.004022 -0.007008 -0.003172 0.002080
# 3 -0.002986 -0.004022 0.011642 0.002273 0.004071 0.001571
# 4 -0.003786 -0.007008 0.002273 0.033596 0.006022 0.004110
# 5 -0.000054 -0.003172 0.004071 0.006022 0.026860 0.003280
# 6 0.001621 0.002080 0.001571 0.004110 0.003280 0.037548
#
#
# Mechanical properties :
#
#
# Convention : Reuss Voigt Hill
#
# Bulk Modulus (GPa) = 43.16973 56.65673 49.91323
# Shear Modulus (GPa) = 32.00974 37.75616 34.88295
#
# Velocity S-wave (km/s) = 3.86598 4.19868 4.03576
# Velocity P-wave (km/s) = 6.33122 7.06817 6.70982
#
# Compressibility (1/GPa) = 0.02316438
#
# Stress axis : x y z
#
# Youngs Moduli (GPa) = 66.14860 99.39044 85.89686
#
# Poissons Ratio (x) = -0.01787 0.25649
# Poissons Ratio (y) = -0.01189 0.34547
# Poissons Ratio (z) = 0.19752 0.39974
#
# Static dielectric constant tensor:
#      x y z
#    x 3.424510 -0.481880 -0.486200 
#    y -0.481880 3.615690 -0.591980 
#    z -0.486200 -0.591980 3.161590 
# 
# 
# High freq. dielectric constant tensor:
#      x y z
#    x 1.835340 -0.010420 0.007440 
#    y -0.010420 1.843090 0.012110 
#    z 0.007440 0.012110 1.854970 
# 
# From -- ./inp_files/590865.got.cif
#   From: 2010.06.25/outbox.cif.g09.slc.cpg/sg2_296_cif.got.tgz:590865.got - 2010.06.27 13:26:56.
