data_PCOD8019257
_publ_section_title
;
Structure prediction by ZEFSAII (Michael W. Deem and Ramdas Pophale) SiO2 
 PCOD8019257
Probable space group: P -1
;
_chemical_formula_sum "Si O2"
_cell_formula_units_Z 16
_cell_length_a 9.945696
_cell_length_b 15.902143
_cell_length_c 16.634367
_cell_angle_alpha 143.239730
_cell_angle_beta 147.184839
_cell_angle_gamma 36.757380
_cell_volume 784.140397
_symmetry_space_group_name_H-M "P -1"
_symmetry_group_IT_number 2
_symmetry_cell_setting 'triclinic'
loop_
_space_group_symop_operation_xyz
x,y,z
-x,-y,-z
loop_
_atom_site_type_symbol
_atom_site_label
_atom_site_fract_x
_atom_site_fract_y
_atom_site_fract_z
Si Si1 0.982997 0.126801 0.473702
Si Si2 0.859155 0.354921 0.009872
Si Si3 0.811066 0.464613 0.612924
Si Si4 0.390742 0.641241 0.947518
Si Si5 0.891183 0.593622 0.594743
Si Si6 0.199834 0.016449 0.878063
Si Si7 0.416597 0.890753 0.609190
Si Si8 0.261482 0.937694 0.028527
O O1 0.000324 0.290457 0.595970
O O2 0.788536 0.147373 0.467297
O O3 0.888885 0.071892 0.303052
O O4 0.277203 0.006124 0.554690
O O5 0.677982 0.325853 0.967318
O O6 0.084465 0.417940 0.199869
O O7 0.646999 0.481089 0.941037
O O8 0.006381 0.196402 0.915693
O O9 0.500000 0.500000 0.500000
O O10 0.838395 0.481867 0.545493
O O11 0.115773 0.651112 0.778867
O O12 0.456212 0.770804 0.032231
O O13 0.615422 0.737613 0.548728
O O14 0.000000 0.500000 0.500000
O O15 0.500000 0.000000 0.000000
O O16 0.183098 0.939921 0.896898
O O17 0.578047 0.953522 0.799654
O O18 0.000000 0.000000 0.000000
#
# Coordination Sequence:
#
# PCOD8019257 Si02
#       8
#     2   2   2   2   2   2   2   2
#     4  11  25  41  68  96 132 169 216 272 319 382
#     4  10  22  42  65  95 129 165 216 262 318 379
#     4  11  21  42  67  91 126 172 210 252 326 393
#     4  10  22  41  66  89 127 174 207 258 319 387
#     4  11  24  40  63  91 128 167 211 261 318 381
#     4  12  24  42  66 100 130 166 220 271 313 379
#     4  11  23  45  64  93 133 174 209 264 335 382
#     4  12  21  41  69  94 127 171 217 256 323 392
#
# _framework density 20.404509000000001
#
# number of rings (size 3 to 8) (size 9 to 14) (size 15 to 20)
#    0.000    1.000    5.000    2.250    3.500    0.000 
#    0.000    1.875    0.000    0.000    0.000    0.000 
#    0.000    0.000    0.000    0.000    0.000    0.000 
#
# Total GULP energy -198393.246082 kJ/mol
# GULP energy per Si atom -12399.577880 kJ/mol
# Density = 2.035807 g / cm^3
# Si number density = 20.404509 Si / 1000 Ang^3
#
#
#
# Elastic Constant Matrix: (Units=GPa)
#
#
# Indices 1 2 3 4 5 6 
#
# 1 85.5579 44.6927 14.8873 2.8544 -7.0833 2.1320
# 2 44.6927 172.8418 17.1198 7.2215 -8.6017 2.9332
# 3 14.8873 17.1198 49.2373 2.4148 -8.4797 4.6876
# 4 2.8544 7.2215 2.4148 35.5296 0.9184 3.1040
# 5 -7.0833 -8.6017 -8.4797 0.9184 33.4926 1.7167
# 6 2.1320 2.9332 4.6876 3.1040 1.7167 36.4011
#
#
#
# Elastic Compliance Matrix: (Units=1/GPa)
#
#
# Indices 1 2 3 4 5 6 
#
# 1 0.014014 -0.003257 -0.002821 -0.000288 0.001433 -0.000238
# 2 -0.003257 0.006832 -0.001186 -0.001054 0.000802 -0.000155
# 3 -0.002821 -0.001186 0.022758 -0.000962 0.005032 -0.002825
# 4 -0.000288 -0.001054 -0.000962 0.028669 -0.001251 -0.002160
# 5 0.001433 0.000802 0.005032 -0.001251 0.031787 -0.002189
# 6 -0.000238 -0.000155 -0.002825 -0.002160 -0.002189 0.028149
#
#
# Mechanical properties :
#
#
# Convention : Reuss Voigt Hill
#
# Bulk Modulus (GPa) = 34.39307 51.22632 42.80969
# Shear Modulus (GPa) = 31.96312 36.48049 34.22181
#
# Velocity S-wave (km/s) = 3.96216 4.23290 4.09977
# Velocity P-wave (km/s) = 6.15011 7.00356 6.59066
#
# Compressibility (1/GPa) = 0.02907563
#
# Stress axis : x y z
#
# Youngs Moduli (GPa) = 71.35499 146.37311 43.94068
#
# Poissons Ratio (x) = 0.47673 0.12397
# Poissons Ratio (y) = 0.23240 0.05212
# Poissons Ratio (z) = 0.20131 0.17361
#
# Static dielectric constant tensor:
#      x y z
#    x 3.700980 0.074190 0.196060 
#    y 0.074190 4.092410 -0.065690 
#    z 0.196060 -0.065690 3.559620 
# 
# 
# High freq. dielectric constant tensor:
#      x y z
#    x 1.792690 0.005780 0.009790 
#    y 0.005780 1.821140 -0.002700 
#    z 0.009790 -0.002700 1.785500 
# 
# From -- ./inp_files/223819.got.cif
#   From: 2010.06.25/outbox.cif.g09.slc.cpg/sg2_112_cif.got.tgz:223819.got - 2010.06.27 13:26:56.
