data_PCOD8019886
_publ_section_title
;
Structure prediction by ZEFSAII (Michael W. Deem and Ramdas Pophale) SiO2 
 PCOD8019886
Probable space group: P -1
;
_chemical_formula_sum "Si O2"
_cell_formula_units_Z 16
_cell_length_a 17.122027
_cell_length_b 6.789977
_cell_length_c 9.953585
_cell_angle_alpha 124.563576
_cell_angle_beta 53.220926
_cell_angle_gamma 104.091283
_cell_volume 755.094045
_symmetry_space_group_name_H-M "P -1"
_symmetry_group_IT_number 2
_symmetry_cell_setting 'triclinic'
loop_
_space_group_symop_operation_xyz
x,y,z
-x,-y,-z
loop_
_atom_site_type_symbol
_atom_site_label
_atom_site_fract_x
_atom_site_fract_y
_atom_site_fract_z
Si Si1 0.246895 0.302339 0.771860
Si Si2 0.864408 0.138206 0.305368
Si Si3 0.418938 0.029375 0.982597
Si Si4 0.333494 0.568215 0.286069
Si Si5 0.552954 0.031220 0.595477
Si Si6 0.717625 0.312921 0.909213
Si Si7 0.906768 0.490172 0.187317
Si Si8 0.911333 0.989440 0.487653
O O1 0.193663 0.493413 0.791233
O O2 0.174104 0.105684 0.798655
O O3 0.351336 0.170660 0.556934
O O4 0.261830 0.439363 0.947388
O O5 0.773692 0.344549 0.510616
O O6 0.923995 0.242393 0.161800
O O7 0.929501 0.085930 0.354539
O O8 0.469959 0.003134 0.777046
O O9 0.352989 0.284265 0.176999
O O10 0.500000 0.000000 0.000000
O O11 0.349224 0.823075 0.977505
O O12 0.415212 0.702312 0.327779
O O13 0.341657 0.627213 0.143387
O O14 0.500000 0.000000 0.500000
O O15 0.818814 0.144404 0.711211
O O16 0.893979 0.712931 0.389753
O O17 0.000000 0.500000 0.000000
O O18 0.000000 0.000000 0.500000
#
# Coordination Sequence:
#
# PCOD8019886 Si02
#       8
#     2   2   2   2   2   2   2   2
#     4  10  24  41  63  91 130 169 222 272 321 395
#     4   9  22  42  67  91 129 175 207 268 333 380
#     4  12  25  38  67  94 125 177 216 269 334 380
#     4  10  22  42  62  89 129 166 219 265 318 392
#     4  11  24  42  62  91 132 173 218 274 327 388
#     4  11  23  43  65  95 129 171 219 272 324 389
#     4  11  23  42  67  96 130 169 215 272 330 396
#     4  10  22  42  67  99 130 167 218 269 325 397
#
# _framework density 21.189413999999999
#
# number of rings (size 3 to 8) (size 9 to 14) (size 15 to 20)
#    0.000    1.500    1.250    3.375    3.500    6.000 
#    0.000    5.000    0.000    0.000    0.000    0.000 
#    0.000    0.000    0.000    0.000    0.000    0.000 
#
# Total GULP energy -198436.716306 kJ/mol
# GULP energy per Si atom -12402.294769 kJ/mol
# Density = 2.114119 g / cm^3
# Si number density = 21.189414 Si / 1000 Ang^3
#
#
#
# Elastic Constant Matrix: (Units=GPa)
#
#
# Indices 1 2 3 4 5 6 
#
# 1 134.0252 45.5891 34.1472 -3.1135 20.2150 -4.6904
# 2 45.5891 122.0272 37.9444 -7.4144 7.4917 -0.4978
# 3 34.1472 37.9444 92.0340 6.8409 18.8350 12.4537
# 4 -3.1135 -7.4144 6.8409 40.0710 -0.9946 -0.4296
# 5 20.2150 7.4917 18.8350 -0.9946 33.8051 4.5925
# 6 -4.6904 -0.4978 12.4537 -0.4296 4.5925 26.6050
#
#
#
# Elastic Compliance Matrix: (Units=1/GPa)
#
#
# Indices 1 2 3 4 5 6 
#
# 1 0.009708 -0.002653 -0.002091 0.000545 -0.004502 0.003427
# 2 -0.002653 0.010501 -0.003999 0.002469 0.001369 0.001404
# 3 -0.002091 -0.003999 0.015682 -0.003797 -0.005782 -0.006847
# 4 0.000545 0.002469 -0.003797 0.026168 0.001735 0.002043
# 5 -0.004502 0.001369 -0.005782 0.001735 0.035815 -0.004216
# 6 0.003427 0.001404 -0.006847 0.002043 -0.004216 0.042183
#
#
# Mechanical properties :
#
#
# Convention : Reuss Voigt Hill
#
# Bulk Modulus (GPa) = 54.33171 64.82750 59.57961
# Shear Modulus (GPa) = 30.54756 35.45661 33.00208
#
# Velocity S-wave (km/s) = 3.80102 4.09506 3.95077
# Velocity P-wave (km/s) = 6.70524 7.28149 6.99930
#
# Compressibility (1/GPa) = 0.01840546
#
# Stress axis : x y z
#
# Youngs Moduli (GPa) = 103.00648 95.22707 63.76667
#
# Poissons Ratio (x) = 0.25266 0.13334
# Poissons Ratio (y) = 0.27330 0.25499
# Poissons Ratio (z) = 0.21539 0.38079
#
# Static dielectric constant tensor:
#      x y z
#    x 3.947580 -0.184660 -0.007180 
#    y -0.184660 3.856170 0.219800 
#    z -0.007180 0.219800 3.894170 
# 
# 
# High freq. dielectric constant tensor:
#      x y z
#    x 1.837020 -0.006960 -0.002620 
#    y -0.006960 1.825290 0.010560 
#    z -0.002620 0.010560 1.843180 
# 
# From -- ./inp_files/90339.got.cif
#   From: 2010.06.25/outbox.cif.g09.slc.cpg/sg2_46_cif.got.tgz:90339.got - 2010.06.27 13:26:56.
