data_PCOD8019771
_publ_section_title
;
Structure prediction by ZEFSAII (Michael W. Deem and Ramdas Pophale) SiO2 
 PCOD8019771
Probable space group: P -1
;
_chemical_formula_sum "Si O2"
_cell_formula_units_Z 16
_cell_length_a 9.725117
_cell_length_b 8.187388
_cell_length_c 13.959857
_cell_angle_alpha 42.543027
_cell_angle_beta 95.791430
_cell_angle_gamma 82.574922
_cell_volume 712.656603
_symmetry_space_group_name_H-M "P -1"
_symmetry_group_IT_number 2
_symmetry_cell_setting 'triclinic'
loop_
_space_group_symop_operation_xyz
x,y,z
-x,-y,-z
loop_
_atom_site_type_symbol
_atom_site_label
_atom_site_fract_x
_atom_site_fract_y
_atom_site_fract_z
Si Si1 0.223807 0.284756 0.757097
Si Si2 0.340702 0.980505 0.488161
Si Si3 0.713626 0.414934 0.198601
Si Si4 0.772728 0.448401 0.798138
Si Si5 0.655465 0.405969 0.502905
Si Si6 0.429138 0.798017 0.040410
Si Si7 0.068503 0.760982 0.276319
Si Si8 0.096950 0.680501 0.934593
O O1 0.211883 0.416556 0.803688
O O2 0.337872 0.378805 0.664082
O O3 0.064411 0.357919 0.665815
O O4 0.287560 0.975204 0.896684
O O5 0.296827 0.832238 0.637548
O O6 0.322743 0.856133 0.438685
O O7 0.500000 0.000000 0.500000
O O8 0.236783 0.268513 0.357341
O O9 0.553131 0.592114 0.077932
O O10 0.808583 0.323182 0.151663
O O11 0.624809 0.365441 0.811002
O O12 0.898624 0.258233 0.826801
O O13 0.798261 0.410753 0.928965
O O14 0.500000 0.500000 0.500000
O O15 0.783730 0.386438 0.595917
O O16 0.500000 0.000000 0.000000
O O17 0.019434 0.047570 0.181302
O O18 0.000000 0.500000 0.000000
#
# Coordination Sequence:
#
# PCOD8019771 Si02
#       8
#     2   2   2   2   2   2   2   2
#     4  10  23  45  70 103 140 185 235 288 358 412
#     4  11  23  46  69 104 141 180 231 290 353 411
#     4  10  24  45  72 103 145 183 238 293 348 414
#     4  12  25  45  70 101 140 188 234 288 351 416
#     4  11  26  44  73 105 140 186 233 290 350 424
#     4  10  22  41  72 100 136 182 235 289 353 404
#     4  12  26  45  70 100 143 185 236 286 353 424
#     4  12  27  44  68 104 141 187 234 290 354 420
#
# _framework density 22.451205999999999
#
# number of rings (size 3 to 8) (size 9 to 14) (size 15 to 20)
#    0.000    1.000    2.500    3.000    7.000    4.500 
#    0.000    3.125    0.000    0.000    0.000    0.000 
#    0.000    0.000    0.000    0.000    0.000    0.000 
#
# Total GULP energy -198337.008765 kJ/mol
# GULP energy per Si atom -12396.063048 kJ/mol
# Density = 2.240011 g / cm^3
# Si number density = 22.451206 Si / 1000 Ang^3
#
#
#
# Elastic Constant Matrix: (Units=GPa)
#
#
# Indices 1 2 3 4 5 6 
#
# 1 142.7969 65.3188 45.0523 0.1353 -8.1999 -10.1945
# 2 65.3188 141.2482 69.6595 -3.5830 -14.7796 -26.0140
# 3 45.0523 69.6595 110.8663 -10.6208 -7.4201 -12.1031
# 4 0.1353 -3.5830 -10.6208 40.5316 3.2298 0.7938
# 5 -8.1999 -14.7796 -7.4201 3.2298 44.0493 -0.0893
# 6 -10.1945 -26.0140 -12.1031 0.7938 -0.0893 44.7556
#
#
#
# Elastic Compliance Matrix: (Units=1/GPa)
#
#
# Indices 1 2 3 4 5 6 
#
# 1 0.009087 -0.003462 -0.001611 -0.000776 0.000315 -0.000363
# 2 -0.003462 0.012836 -0.005994 -0.000740 0.002717 0.005070
# 3 -0.001611 -0.005994 0.013699 0.003087 -0.000230 -0.000202
# 4 -0.000776 -0.000740 0.003087 0.025562 -0.001748 -0.000229
# 5 0.000315 0.002717 -0.000230 -0.001748 0.023765 0.001667
# 6 -0.000363 0.005070 -0.000202 -0.000229 0.001667 0.025161
#
#
# Mechanical properties :
#
#
# Convention : Reuss Voigt Hill
#
# Bulk Modulus (GPa) = 74.13140 83.88586 79.00863
# Shear Modulus (GPa) = 36.56606 40.19270 38.37938
#
# Velocity S-wave (km/s) = 4.04008 4.23569 4.13904
# Velocity P-wave (km/s) = 7.40632 7.83366 7.62299
#
# Compressibility (1/GPa) = 0.01348956
#
# Stress axis : x y z
#
# Youngs Moduli (GPa) = 110.04133 77.90694 72.99873
#
# Poissons Ratio (x) = 0.26969 0.11758
# Poissons Ratio (y) = 0.38093 0.43754
# Poissons Ratio (z) = 0.17725 0.46696
#
# Static dielectric constant tensor:
#      x y z
#    x 4.603500 0.352110 0.165930 
#    y 0.352110 4.354160 -0.127200 
#    z 0.165930 -0.127200 4.409150 
# 
# 
# High freq. dielectric constant tensor:
#      x y z
#    x 1.906790 0.008150 -0.006890 
#    y 0.008150 1.885300 -0.014020 
#    z -0.006890 -0.014020 1.882770 
# 
# From -- ./inp_files/494273.got.cif
#   From: 2010.06.25/outbox.cif.g09.slc.cpg/sg2_248_cif.got.tgz:494273.got - 2010.06.27 13:26:56.
