data_PCOD8019946
_publ_section_title
;
Structure prediction by ZEFSAII (Michael W. Deem and Ramdas Pophale) SiO2 
 PCOD8019946
Probable space group: P -1
;
_chemical_formula_sum "Si O2"
_cell_formula_units_Z 16
_cell_length_a 22.306602
_cell_length_b 6.809538
_cell_length_c 7.473816
_cell_angle_alpha 60.807275
_cell_angle_beta 55.707384
_cell_angle_gamma 81.932035
_cell_volume 804.429879
_symmetry_space_group_name_H-M "P -1"
_symmetry_group_IT_number 2
_symmetry_cell_setting 'triclinic'
loop_
_space_group_symop_operation_xyz
x,y,z
-x,-y,-z
loop_
_atom_site_type_symbol
_atom_site_label
_atom_site_fract_x
_atom_site_fract_y
_atom_site_fract_z
Si Si1 0.770627 0.775495 0.048300
Si Si2 0.977702 0.174545 0.091800
Si Si3 0.602257 0.505345 0.952552
Si Si4 0.653266 0.365102 0.296296
Si Si5 0.724528 0.924992 0.438251
Si Si6 0.532925 0.266587 0.835702
Si Si7 0.108915 0.463373 0.940750
Si Si8 0.827554 0.094544 0.512199
O O1 0.698541 0.609326 0.173081
O O2 0.763238 0.846784 0.232843
O O3 0.841321 0.651657 0.956678
O O4 0.785088 0.005968 0.803493
O O5 0.943081 0.372125 0.955211
O O6 0.912599 0.050256 0.389921
O O7 0.053891 0.267849 0.019533
O O8 0.000000 0.000000 0.000000
O O9 0.656176 0.731289 0.694019
O O10 0.584177 0.325326 0.899591
O O11 0.637222 0.373805 0.108285
O O12 0.529627 0.580125 0.121057
O O13 0.578289 0.328309 0.551015
O O14 0.697059 0.161218 0.345627
O O15 0.785227 0.960653 0.475016
O O16 0.500000 0.000000 0.000000
O O17 0.167028 0.629101 0.636475
#
# Coordination Sequence:
#
# PCOD8019946 Si02
#       8
#     2   2   2   2   2   2   2   2
#     4  12  24  40  65  93 130 170 208 259 315 375
#     4   9  18  41  66  89 129 167 206 265 309 364
#     4  11  25  43  67  96 122 170 212 256 323 374
#     4  12  24  42  65  95 127 167 214 258 317 376
#     4  12  24  41  64  94 128 167 216 256 314 380
#     4  11  24  45  68  91 131 163 208 271 312 374
#     4   9  21  39  62  92 130 162 207 263 308 363
#     4  10  22  42  63  94 128 165 211 259 314 370
#
# _framework density 19.889862000000001
#
# number of rings (size 3 to 8) (size 9 to 14) (size 15 to 20)
#    0.750    0.500    5.000    1.125    0.000    4.000 
#    2.250    0.625    0.000    0.000    0.000    0.000 
#    0.000    0.000    0.000    0.000    0.000    0.000 
#
# Total GULP energy -198292.021182 kJ/mol
# GULP energy per Si atom -12393.251324 kJ/mol
# Density = 1.984459 g / cm^3
# Si number density = 19.889862 Si / 1000 Ang^3
#
#
#
# Elastic Constant Matrix: (Units=GPa)
#
#
# Indices 1 2 3 4 5 6 
#
# 1 91.3497 18.9869 44.4609 -8.6475 -3.0569 16.3282
# 2 18.9869 76.0803 29.3815 -3.8998 -1.8774 11.1537
# 3 44.4609 29.3815 107.6388 -12.2513 -0.7451 13.9601
# 4 -8.6475 -3.8998 -12.2513 29.6040 6.6734 -2.9290
# 5 -3.0569 -1.8774 -0.7451 6.6734 34.3780 -6.8459
# 6 16.3282 11.1537 13.9601 -2.9290 -6.8459 26.7912
#
#
#
# Elastic Compliance Matrix: (Units=1/GPa)
#
#
# Indices 1 2 3 4 5 6 
#
# 1 0.014713 -0.000831 -0.004889 0.001653 -0.000356 -0.005984
# 2 -0.000831 0.015222 -0.003270 0.000031 -0.000148 -0.004162
# 3 -0.004889 -0.003270 0.012908 0.003587 -0.001503 -0.002377
# 4 0.001653 0.000031 0.003587 0.037297 -0.007140 -0.000637
# 5 -0.000356 -0.000148 -0.001503 -0.007140 0.032091 0.008481
# 6 -0.005984 -0.004162 -0.002377 -0.000637 0.008481 0.046042
#
#
# Mechanical properties :
#
#
# Convention : Reuss Voigt Hill
#
# Bulk Modulus (GPa) = 40.21657 51.19193 45.70425
# Shear Modulus (GPa) = 27.09429 30.30395 28.69912
#
# Velocity S-wave (km/s) = 3.69483 3.90755 3.80268
# Velocity P-wave (km/s) = 6.20208 6.79354 6.50454
#
# Compressibility (1/GPa) = 0.02486537
#
# Stress axis : x y z
#
# Youngs Moduli (GPa) = 67.96589 65.69391 77.46892
#
# Poissons Ratio (x) = 0.05457 0.37874
# Poissons Ratio (y) = 0.05645 0.25330
# Poissons Ratio (z) = 0.33228 0.21480
#
# Static dielectric constant tensor:
#      x y z
#    x 3.646360 0.046030 -0.180500 
#    y 0.046030 3.546480 -0.098290 
#    z -0.180500 -0.098290 3.626890 
# 
# 
# High freq. dielectric constant tensor:
#      x y z
#    x 1.781900 0.003490 -0.021870 
#    y 0.003490 1.775270 -0.011050 
#    z -0.021870 -0.011050 1.774530 
# 
# From -- ./inp_files/350945.got.cif
#   From: 2010.06.25/outbox.cif.g09.slc.cpg/sg2_176_cif.got.tgz:350945.got - 2010.06.27 13:26:56.
