data_PCOD8019698
_publ_section_title
;
Structure prediction by ZEFSAII (Michael W. Deem and Ramdas Pophale) SiO2 
 PCOD8019698
Probable space group: P -1
;
_chemical_formula_sum "Si O2"
_cell_formula_units_Z 12
_cell_length_a 12.036129
_cell_length_b 17.843125
_cell_length_c 19.922503
_cell_angle_alpha 159.240171
_cell_angle_beta 158.901636
_cell_angle_gamma 31.096260
_cell_volume 541.556881
_symmetry_space_group_name_H-M "P -1"
_symmetry_group_IT_number 2
_symmetry_cell_setting 'triclinic'
loop_
_space_group_symop_operation_xyz
x,y,z
-x,-y,-z
loop_
_atom_site_type_symbol
_atom_site_label
_atom_site_fract_x
_atom_site_fract_y
_atom_site_fract_z
Si Si1 0.967693 0.536637 0.878356
Si Si2 0.993499 0.808920 0.284226
Si Si3 0.496567 0.791344 0.871247
Si Si4 0.409152 0.360553 0.893815
Si Si5 0.904617 0.613941 0.475557
Si Si6 0.432191 0.882590 0.481746
O O1 0.614888 0.597124 0.731149
O O2 0.057960 0.417695 0.897600
O O3 0.054413 0.391117 0.742792
O O4 0.187318 0.763237 0.190586
O O5 0.331549 0.819709 0.448737
O O6 0.733236 0.839585 0.107392
O O7 0.000000 0.000000 0.500000
O O8 0.163383 0.699603 0.637884
O O9 0.500000 0.000000 0.000000
O O10 0.427295 0.131350 0.682170
O O11 0.500000 0.500000 0.000000
O O12 0.646950 0.432997 0.148386
O O13 0.768845 0.823580 0.602145
O O14 0.000000 0.500000 0.500000
#
# Coordination Sequence:
#
# PCOD8019698 Si02
#       6
#     2   2   2   2   2   2
#     4  10  22  44  70  93 132 176 221 266 323 403
#     4  11  21  43  72  94 124 176 229 258 315 409
#     4  11  25  42  66 100 137 169 211 282 342 370
#     4  11  25  41  68  96 125 174 228 259 316 397
#     4  11  25  45  64  96 141 168 211 275 337 384
#     4  10  22  41  70  91 127 173 222 257 319 394
#
# _framework density 22.158337
#
# number of rings (size 3 to 8) (size 9 to 14) (size 15 to 20)
#    0.000    1.333    1.667    5.000    7.000    2.000 
#    3.000    1.667    0.000    0.000    0.000    0.000 
#    0.000    0.000    0.000    0.000    0.000    0.000 
#
# Total GULP energy -148658.548749 kJ/mol
# GULP energy per Si atom -12388.212396 kJ/mol
# Density = 2.210790 g / cm^3
# Si number density = 22.158337 Si / 1000 Ang^3
#
#
#
# Elastic Constant Matrix: (Units=GPa)
#
#
# Indices 1 2 3 4 5 6 
#
# 1 87.2335 59.4132 14.9610 1.6603 33.9697 -21.5947
# 2 59.4132 148.1320 45.2144 21.6035 15.0443 -31.6880
# 3 14.9610 45.2144 74.8167 19.7465 15.7091 -14.9162
# 4 1.6603 21.6035 19.7465 39.2476 -3.8902 6.5838
# 5 33.9697 15.0443 15.7091 -3.8902 43.1514 -2.8203
# 6 -21.5947 -31.6880 -14.9162 6.5838 -2.8203 55.7078
#
#
#
# Elastic Compliance Matrix: (Units=1/GPa)
#
#
# Indices 1 2 3 4 5 6 
#
# 1 0.024766 -0.008229 0.005610 -0.002136 -0.018488 0.005738
# 2 -0.008229 0.012493 -0.004917 -0.004235 0.003746 0.003290
# 3 0.005610 -0.004917 0.021431 -0.010380 -0.011062 0.005783
# 4 -0.002136 -0.004235 -0.010380 0.035703 0.009518 -0.009754
# 5 -0.018488 0.003746 -0.011062 0.009518 0.040846 -0.007055
# 6 0.005738 0.003290 0.005783 -0.009754 -0.007055 0.024391
#
#
# Mechanical properties :
#
#
# Convention : Reuss Voigt Hill
#
# Bulk Modulus (GPa) = 22.92644 61.03995 41.98320
# Shear Modulus (GPa) = 26.42123 40.32761 33.37442
#
# Velocity S-wave (km/s) = 3.45684 4.27074 3.88516
# Velocity P-wave (km/s) = 5.12855 7.20597 6.25412
#
# Compressibility (1/GPa) = 0.04361775
#
# Stress axis : x y z
#
# Youngs Moduli (GPa) = 40.37714 80.04297 46.66181
#
# Poissons Ratio (x) = 0.65870 -0.26178
# Poissons Ratio (y) = 0.33227 0.22945
# Poissons Ratio (z) = -0.22652 0.39360
#
# Static dielectric constant tensor:
#      x y z
#    x 4.408030 -0.322260 0.317510 
#    y -0.322260 4.064480 -0.144340 
#    z 0.317510 -0.144340 3.616510 
# 
# 
# High freq. dielectric constant tensor:
#      x y z
#    x 1.895870 -0.019620 0.014640 
#    y -0.019620 1.874460 0.019560 
#    z 0.014640 0.019560 1.856610 
# 
# From -- ./inp_files/149836.got.cif
#   From: 2010.06.25/outbox.cif.g09.slc.cpg/sg2_75_cif.got.tgz:149836.got - 2010.06.27 13:26:56.
