data_PCOD8019300
_publ_section_title
;
Structure prediction by ZEFSAII (Michael W. Deem and Ramdas Pophale) SiO2 
 PCOD8019300
Probable space group: P -1
;
_chemical_formula_sum "Si O2"
_cell_formula_units_Z 16
_cell_length_a 17.703997
_cell_length_b 11.471936
_cell_length_c 8.768191
_cell_angle_alpha 48.993724
_cell_angle_beta 147.307235
_cell_angle_gamma 121.423417
_cell_volume 723.788569
_symmetry_space_group_name_H-M "P -1"
_symmetry_group_IT_number 2
_symmetry_cell_setting 'triclinic'
loop_
_space_group_symop_operation_xyz
x,y,z
-x,-y,-z
loop_
_atom_site_type_symbol
_atom_site_label
_atom_site_fract_x
_atom_site_fract_y
_atom_site_fract_z
Si Si1 0.302022 0.802819 0.476312
Si Si2 0.507030 0.992984 0.837715
Si Si3 0.436501 0.698521 0.493548
Si Si4 0.976893 0.018893 0.266162
Si Si5 0.080918 0.311086 0.541779
Si Si6 0.786292 0.474409 0.901696
Si Si7 0.784035 0.786779 0.465563
Si Si8 0.289351 0.503484 0.899728
O O1 0.417791 0.752479 0.589376
O O2 0.251669 0.655473 0.605574
O O3 0.368573 0.918909 0.606419
O O4 0.168438 0.886081 0.095653
O O5 0.506839 0.165907 0.626864
O O6 0.500000 0.000000 0.000000
O O7 0.644402 0.892708 0.098411
O O8 0.288975 0.647948 0.224104
O O9 0.548328 0.551130 0.802313
O O10 0.106891 0.110114 0.347192
O O11 0.974004 0.845371 0.342820
O O12 0.000000 0.000000 0.500000
O O13 0.152715 0.282124 0.525057
O O14 0.192260 0.370021 0.798341
O O15 0.952412 0.439468 0.195264
O O16 0.745441 0.649017 0.628388
O O17 0.736629 0.454105 0.006187
#
# Coordination Sequence:
#
# PCOD8019300 Si02
#       8
#     2   2   2   2   2   2   2   2
#     4  12  24  43  68  96 127 171 218 263 316 385
#     4  12  25  43  66  99 134 168 209 266 325 380
#     4  12  23  42  66  92 127 173 216 261 313 382
#     4  10  22  41  66  95 123 160 215 269 313 369
#     4  11  22  41  64  91 123 166 215 263 315 382
#     4  12  24  41  63  93 130 169 211 267 322 373
#     4  11  22  42  66  93 126 170 216 261 315 384
#     4  12  25  41  61  95 131 167 212 266 322 377
#
# _framework density 22.105902
#
# number of rings (size 3 to 8) (size 9 to 14) (size 15 to 20)
#    0.000    0.500    0.000   10.875    0.000    0.000 
#    0.000    1.875    0.000    0.000    0.000    0.000 
#    0.000    0.000    0.000    0.000    0.000    0.000 
#
# Total GULP energy -198532.491383 kJ/mol
# GULP energy per Si atom -12408.280711 kJ/mol
# Density = 2.205559 g / cm^3
# Si number density = 22.105902 Si / 1000 Ang^3
#
#
#
# Elastic Constant Matrix: (Units=GPa)
#
#
# Indices 1 2 3 4 5 6 
#
# 1 58.2698 29.6221 29.6593 5.2955 -18.4844 -7.9477
# 2 29.6221 131.8503 27.8939 8.1082 -21.6070 20.6030
# 3 29.6593 27.8939 127.6293 -1.2535 6.6931 -5.4121
# 4 5.2955 8.1082 -1.2535 41.6545 2.6774 -5.0704
# 5 -18.4844 -21.6070 6.6931 2.6774 36.9044 0.1375
# 6 -7.9477 20.6030 -5.4121 -5.0704 0.1375 22.8029
#
#
#
# Elastic Compliance Matrix: (Units=1/GPa)
#
#
# Indices 1 2 3 4 5 6 
#
# 1 0.028418 -0.004973 -0.005660 -0.002092 0.012454 0.012515
# 2 -0.004973 0.012783 -0.002614 -0.004117 0.005821 -0.014854
# 3 -0.005660 -0.002614 0.010224 0.002359 -0.006403 0.003378
# 4 -0.002092 -0.004117 0.002359 0.026680 -0.005857 0.009518
# 5 0.012454 0.005821 -0.006403 -0.005857 0.038344 -0.003972
# 6 0.012515 -0.014854 0.003378 0.009518 -0.003972 0.064579
#
#
# Mechanical properties :
#
#
# Convention : Reuss Voigt Hill
#
# Bulk Modulus (GPa) = 40.11010 54.67778 47.39394
# Shear Modulus (GPa) = 23.16608 35.64397 29.40503
#
# Velocity S-wave (km/s) = 3.24073 4.01985 3.65113
# Velocity P-wave (km/s) = 5.67336 6.80689 6.26581
#
# Compressibility (1/GPa) = 0.02493138
#
# Stress axis : x y z
#
# Youngs Moduli (GPa) = 35.18843 78.23039 97.80934
#
# Poissons Ratio (x) = 0.38905 0.55361
# Poissons Ratio (y) = 0.17500 0.25564
# Poissons Ratio (z) = 0.19917 0.20446
#
# Static dielectric constant tensor:
#      x y z
#    x 3.825430 0.137710 0.003100 
#    y 0.137710 4.434830 0.040870 
#    z 0.003100 0.040870 4.084710 
# 
# 
# High freq. dielectric constant tensor:
#      x y z
#    x 1.861110 0.006240 0.000770 
#    y 0.006240 1.889760 0.000550 
#    z 0.000770 0.000550 1.884410 
# 
# From -- ./inp_files/184212.got.cif
#   From: 2010.06.25/outbox.cif.g09.slc.cpg/sg2_93_cif.got.tgz:184212.got - 2010.06.27 13:26:56.
