data_PCOD8019543
_publ_section_title
;
Structure prediction by ZEFSAII (Michael W. Deem and Ramdas Pophale) SiO2 
 PCOD8019543
Probable space group: P -1
;
_chemical_formula_sum "Si O2"
_cell_formula_units_Z 14
_cell_length_a 21.121461
_cell_length_b 8.643480
_cell_length_c 12.446758
_cell_angle_alpha 142.450382
_cell_angle_beta 152.286872
_cell_angle_gamma 39.447500
_cell_volume 623.879137
_symmetry_space_group_name_H-M "P -1"
_symmetry_group_IT_number 2
_symmetry_cell_setting 'triclinic'
loop_
_space_group_symop_operation_xyz
x,y,z
-x,-y,-z
loop_
_atom_site_type_symbol
_atom_site_label
_atom_site_fract_x
_atom_site_fract_y
_atom_site_fract_z
Si Si1 0.158983 0.390837 0.714799
Si Si2 0.447163 0.441210 0.679002
Si Si3 0.309708 0.967971 0.868606
Si Si4 0.473115 0.710406 0.665827
Si Si5 0.814545 0.952704 0.610241
Si Si6 0.874406 0.054386 0.985219
Si Si7 0.693589 0.971979 0.860595
O O1 0.190675 0.144728 0.709187
O O2 0.000000 0.500000 0.500000
O O3 0.227682 0.292462 0.647442
O O4 0.203855 0.634650 0.971357
O O5 0.526170 0.592765 0.797491
O O6 0.357385 0.286246 0.386869
O O7 0.345717 0.656969 0.722896
O O8 0.565449 0.232327 0.805641
O O9 0.454827 0.055961 0.123518
O O10 0.250820 0.027533 0.933876
O O11 0.500000 0.500000 0.500000
O O12 0.305281 0.798838 0.466882
O O13 0.820827 0.909585 0.724588
O O14 0.957648 0.002509 0.802311
O O15 0.824925 0.962191 0.972994
#
# Coordination Sequence:
#
# PCOD8019543 Si02
#       7
#     2   2   2   2   2   2   2
#     4  10  22  42  70  95 126 169 228 274 321 394
#     4  11  24  41  62  99 136 177 220 267 334 397
#     4  12  24  40  69 100 132 174 216 281 334 388
#     4  12  22  40  71  97 129 168 228 280 319 389
#     4  10  22  41  68  96 123 171 231 267 323 387
#     4  10  23  43  68  92 133 178 216 276 328 391
#     4  11  25  42  62  98 141 174 215 269 340 399
#
# _framework density 22.440245000000001
#
# number of rings (size 3 to 8) (size 9 to 14) (size 15 to 20)
#    0.000    1.143    2.857    3.429    4.000    1.143 
#    0.000    3.571    0.000    0.000    0.000    0.000 
#    0.000    0.000    0.000    0.000    0.000    0.000 
#
# Total GULP energy -173456.357678 kJ/mol
# GULP energy per Si atom -12389.739834 kJ/mol
# Density = 2.238917 g / cm^3
# Si number density = 22.440245 Si / 1000 Ang^3
#
#
#
# Elastic Constant Matrix: (Units=GPa)
#
#
# Indices 1 2 3 4 5 6 
#
# 1 154.3892 48.8179 47.0031 7.1327 -31.0694 -7.3464
# 2 48.8179 122.9264 50.8718 0.5927 -14.1222 -18.6763
# 3 47.0031 50.8718 83.1256 -1.0991 -32.5563 -13.1042
# 4 7.1327 0.5927 -1.0991 35.0535 -4.9711 -6.2487
# 5 -31.0694 -14.1222 -32.5563 -4.9711 45.4139 3.6389
# 6 -7.3464 -18.6763 -13.1042 -6.2487 3.6389 34.3391
#
#
#
# Elastic Compliance Matrix: (Units=1/GPa)
#
#
# Indices 1 2 3 4 5 6 
#
# 1 0.008594 -0.002175 -0.002338 -0.001452 0.003438 -0.000865
# 2 -0.002175 0.011991 -0.006561 0.000342 -0.002738 0.003905
# 3 -0.002338 -0.006561 0.023189 0.003901 0.013083 0.004104
# 4 -0.001452 0.000342 0.003901 0.030766 0.004760 0.006458
# 5 0.003438 -0.002738 0.013083 0.004760 0.033294 0.001577
# 6 -0.000865 0.003905 0.004104 0.006458 0.001577 0.033635
#
#
# Mechanical properties :
#
#
# Convention : Reuss Voigt Hill
#
# Bulk Modulus (GPa) = 46.23654 72.64743 59.44199
# Shear Modulus (GPa) = 29.26985 37.21119 33.24052
#
# Velocity S-wave (km/s) = 3.61549 4.07656 3.85293
# Velocity P-wave (km/s) = 6.17074 7.38930 6.80734
#
# Compressibility (1/GPa) = 0.02162791
#
# Stress axis : x y z
#
# Youngs Moduli (GPa) = 116.35533 83.39665 43.12369
#
# Poissons Ratio (x) = 0.18140 0.10080
# Poissons Ratio (y) = 0.25309 0.28291
# Poissons Ratio (z) = 0.27198 0.54713
#
# Static dielectric constant tensor:
#      x y z
#    x 4.231800 -0.315920 -0.122670 
#    y -0.315920 4.215160 0.229230 
#    z -0.122670 0.229230 4.630750 
# 
# 
# High freq. dielectric constant tensor:
#      x y z
#    x 1.876840 -0.024570 -0.027410 
#    y -0.024570 1.888980 0.004590 
#    z -0.027410 0.004590 1.887240 
# 
# From -- ./inp_files/281552.got.cif
#   From: 2010.06.25/outbox.cif.g09.slc.cpg/sg2_141_cif.got.tgz:281552.got - 2010.06.27 13:26:56.
