data_PCOD8019119
_publ_section_title
;
Structure prediction by ZEFSAII (Michael W. Deem and Ramdas Pophale) SiO2 
 PCOD8019119
Probable space group: P -1
;
_chemical_formula_sum "Si O2"
_cell_formula_units_Z 16
_cell_length_a 8.851648
_cell_length_b 14.730699
_cell_length_c 8.586637
_cell_angle_alpha 112.123579
_cell_angle_beta 125.389684
_cell_angle_gamma 100.575712
_cell_volume 716.055258
_symmetry_space_group_name_H-M "P -1"
_symmetry_group_IT_number 2
_symmetry_cell_setting 'triclinic'
loop_
_space_group_symop_operation_xyz
x,y,z
-x,-y,-z
loop_
_atom_site_type_symbol
_atom_site_label
_atom_site_fract_x
_atom_site_fract_y
_atom_site_fract_z
Si Si1 0.552719 0.690675 0.328867
Si Si2 0.113129 0.635180 0.684682
Si Si3 0.586920 0.728895 0.003913
Si Si4 0.972031 0.174886 0.248039
Si Si5 0.242176 0.916858 0.262597
Si Si6 0.927776 0.974063 0.267380
Si Si7 0.121000 0.674692 0.078210
Si Si8 0.365191 0.464065 0.233735
O O1 0.602353 0.729260 0.202293
O O2 0.774749 0.781480 0.613485
O O3 0.343593 0.685880 0.279978
O O4 0.500271 0.561815 0.247439
O O5 0.000000 0.500000 0.500000
O O6 0.017247 0.709858 0.602083
O O7 0.345041 0.684819 0.776933
O O8 0.125825 0.658548 0.888228
O O9 0.712931 0.848444 0.063261
O O10 0.666825 0.651661 0.927734
O O11 0.876871 0.070513 0.246862
O O12 0.807196 0.118159 0.969668
O O13 0.145518 0.795831 0.218871
O O14 0.120308 0.981299 0.282446
O O15 0.500000 0.000000 0.500000
O O16 0.000000 0.000000 0.500000
O O17 0.886041 0.565865 0.923197
O O18 0.500000 0.500000 0.500000
#
# Coordination Sequence:
#
# PCOD8019119 Si02
#       8
#     2   2   2   2   2   2   2   2
#     4  11  23  42  70  95 138 182 226 277 359 408
#     4  10  22  43  67  98 138 178 225 280 342 410
#     4  11  24  44  67  96 141 183 221 288 351 405
#     4  11  24  44  73 101 133 185 234 278 353 416
#     4  11  24  46  72  96 138 181 229 284 349 412
#     4  12  25  45  68 100 140 176 235 287 339 416
#     4  10  22  41  65 101 132 174 230 283 339 409
#     4  12  23  42  68 102 135 179 237 293 340 411
#
# _framework density 22.344643000000001
#
# number of rings (size 3 to 8) (size 9 to 14) (size 15 to 20)
#    0.000    1.000    2.500    4.875    3.500    1.500 
#    0.000    1.250    0.000    0.000    0.000    0.000 
#    0.000    0.000    0.000    0.000    0.000    0.000 
#
# Total GULP energy -198213.600963 kJ/mol
# GULP energy per Si atom -12388.350060 kJ/mol
# Density = 2.229379 g / cm^3
# Si number density = 22.344643 Si / 1000 Ang^3
#
#
#
# Elastic Constant Matrix: (Units=GPa)
#
#
# Indices 1 2 3 4 5 6 
#
# 1 92.8734 39.2961 42.8899 8.4184 22.9588 -4.9594
# 2 39.2961 177.3411 49.8031 21.7017 10.3339 -5.3176
# 3 42.8899 49.8031 126.4269 12.0838 31.8153 -2.1559
# 4 8.4184 21.7017 12.0838 32.9293 1.1248 2.8046
# 5 22.9588 10.3339 31.8153 1.1248 43.8546 11.6532
# 6 -4.9594 -5.3176 -2.1559 2.8046 11.6532 38.0386
#
#
#
# Elastic Compliance Matrix: (Units=1/GPa)
#
#
# Indices 1 2 3 4 5 6 
#
# 1 0.014581 -0.001875 -0.002380 -0.001706 -0.006373 0.003582
# 2 -0.001875 0.007012 -0.001941 -0.003510 0.000645 0.000687
# 3 -0.002380 -0.001941 0.011583 -0.002325 -0.007300 0.002483
# 4 -0.001706 -0.003510 -0.002325 0.034227 0.003728 -0.004510
# 5 -0.006373 0.000645 -0.007300 0.003728 0.034365 -0.011957
# 6 0.003582 0.000687 0.002483 -0.004510 -0.011957 0.030989
#
#
# Mechanical properties :
#
#
# Convention : Reuss Voigt Hill
#
# Bulk Modulus (GPa) = 48.11378 73.40218 60.75798
# Shear Modulus (GPa) = 32.87779 40.60800 36.74289
#
# Velocity S-wave (km/s) = 3.84004 4.26766 4.05948
# Velocity P-wave (km/s) = 6.42188 7.56341 7.01590
#
# Compressibility (1/GPa) = 0.02078407
#
# Stress axis : x y z
#
# Youngs Moduli (GPa) = 68.58111 142.61185 86.32985
#
# Poissons Ratio (x) = 0.26740 0.20547
# Poissons Ratio (y) = 0.12859 0.16759
# Poissons Ratio (z) = 0.16323 0.27685
#
# Static dielectric constant tensor:
#      x y z
#    x 4.027320 0.319290 0.824660 
#    y 0.319290 -0.345590 -3.500650 
#    z 0.824660 -3.500650 1.454310 
# 
# 
# High freq. dielectric constant tensor:
#      x y z
#    x 1.873350 -0.009110 0.020720 
#    y -0.009110 1.895270 0.016950 
#    z 0.020720 0.016950 1.880110 
# 
# From -- ./inp_files/208561.got.cif
#   From: 2010.06.25/outbox.cif.g09.slc.cpg/sg2_105_cif.got.tgz:208561.got - 2010.06.27 13:26:56.
