data_PCOD8019049
_publ_section_title
;
Structure prediction by ZEFSAII (Michael W. Deem and Ramdas Pophale) SiO2 
 PCOD8019049
Probable space group: P -1
;
_chemical_formula_sum "Si O2"
_cell_formula_units_Z 10
_cell_length_a 16.241438
_cell_length_b 11.789740
_cell_length_c 16.899888
_cell_angle_alpha 157.954183
_cell_angle_beta 17.682936
_cell_angle_gamma 148.040853
_cell_volume 351.478282
_symmetry_space_group_name_H-M "P -1"
_symmetry_group_IT_number 2
_symmetry_cell_setting 'triclinic'
loop_
_space_group_symop_operation_xyz
x,y,z
-x,-y,-z
loop_
_atom_site_type_symbol
_atom_site_label
_atom_site_fract_x
_atom_site_fract_y
_atom_site_fract_z
Si Si1 0.556529 0.628155 0.708454
Si Si2 0.959034 0.629577 0.208985
Si Si3 0.109018 0.123970 0.156799
Si Si4 0.500886 0.752141 0.004739
Si Si5 0.475812 0.876715 0.355341
O O1 0.773373 0.468819 0.334326
O O2 0.664215 0.536846 0.641251
O O3 0.264004 0.548799 0.917124
O O4 0.500000 0.000000 0.000000
O O5 0.799006 0.006378 0.593310
O O6 0.000000 0.500000 0.000000
O O7 0.000000 0.500000 0.500000
O O8 0.838896 0.989800 0.310851
O O9 0.302910 0.041270 0.005640
O O10 0.311715 0.999436 0.813981
O O11 0.440953 0.509794 0.967768
O O12 0.500000 0.000000 0.500000
#
# Coordination Sequence:
#
# PCOD8019049 Si02
#       5
#     2   2   2   2   2
#     4  10  22  41  64  92 125 165 210 254 307 372
#     4  11  24  42  64  95 127 161 211 257 305 375
#     4  10  22  41  64  92 125 165 210 254 307 372
#     4  10  22  42  66  90 128 170 200 258 316 358
#     4  11  24  42  64  95 127 161 211 257 305 375
#
# _framework density 28.451260000000001
#
# number of rings (size 3 to 8) (size 9 to 14) (size 15 to 20)
#    0.000    1.600    0.000    6.000    0.000   16.000 
#    0.000    8.000    0.000    0.000    0.000    0.000 
#    0.000    0.000    0.000    0.000    0.000    0.000 
#
# Total GULP energy -123973.293152 kJ/mol
# GULP energy per Si atom -12397.329315 kJ/mol
# Density = 2.838650 g / cm^3
# Si number density = 28.451260 Si / 1000 Ang^3
#
#
#
# Elastic Constant Matrix: (Units=GPa)
#
#
# Indices 1 2 3 4 5 6 
#
# 1 193.3806 31.4153 65.2480 -41.2827 38.2388 26.9279
# 2 31.4153 122.7648 33.9683 -53.6120 3.7509 2.0942
# 3 65.2480 33.9683 150.5770 -36.1383 23.5032 6.7138
# 4 -41.2827 -53.6120 -36.1383 55.4216 -5.4599 0.5741
# 5 38.2388 3.7509 23.5032 -5.4599 56.6013 -5.9891
# 6 26.9279 2.0942 6.7138 0.5741 -5.9891 53.9088
#
#
#
# Elastic Compliance Matrix: (Units=1/GPa)
#
#
# Indices 1 2 3 4 5 6 
#
# 1 0.008402 0.001055 -0.001471 0.005869 -0.005065 -0.004680
# 2 0.001055 0.014269 -0.000080 0.014514 -0.000359 -0.001266
# 3 -0.001471 -0.000080 0.008709 0.004289 -0.002272 -0.000645
# 4 0.005869 0.014514 0.004289 0.038961 -0.003460 -0.004829
# 5 -0.005065 -0.000359 -0.002272 -0.003460 0.022287 0.005340
# 6 -0.004680 -0.001266 -0.000645 -0.004829 0.005340 0.021662
#
#
# Mechanical properties :
#
#
# Convention : Reuss Voigt Hill
#
# Bulk Modulus (GPa) = 32.90843 80.88729 56.89786
# Shear Modulus (GPa) = 39.86848 55.59240 47.73044
#
# Velocity S-wave (km/s) = 3.74744 4.42515 4.10032
# Velocity P-wave (km/s) = 5.50601 7.38926 6.51603
#
# Compressibility (1/GPa) = 0.03038735
#
# Stress axis : x y z
#
# Youngs Moduli (GPa) = 119.01624 70.08268 114.82083
#
# Poissons Ratio (x) = -0.07391 0.16890
# Poissons Ratio (y) = -0.12551 0.00920
# Poissons Ratio (z) = 0.17507 0.00561
#
# Static dielectric constant tensor:
#      x y z
#    x 7.286970 0.038760 0.924220 
#    y 0.038760 6.121460 -0.360060 
#    z 0.924220 -0.360060 6.344800 
# 
# 
# High freq. dielectric constant tensor:
#      x y z
#    x 2.167450 -0.001130 0.009130 
#    y -0.001130 2.172530 0.018410 
#    z 0.009130 0.018410 2.162120 
# 
# From -- ./inp_files/58743.got.cif
#   From: 2010.06.25/outbox.cif.g09.slc.cpg/sg2_30_cif.got.tgz:58743.got - 2010.06.27 13:26:56.
