data_PCOD8019897
_publ_section_title
;
Structure prediction by ZEFSAII (Michael W. Deem and Ramdas Pophale) SiO2 
 PCOD8019897
Probable space group: P -1
;
_chemical_formula_sum "Si O2"
_cell_formula_units_Z 16
_cell_length_a 10.309336
_cell_length_b 6.716542
_cell_length_c 21.388704
_cell_angle_alpha 50.813956
_cell_angle_beta 46.444420
_cell_angle_gamma 49.342003
_cell_volume 767.847629
_symmetry_space_group_name_H-M "P -1"
_symmetry_group_IT_number 2
_symmetry_cell_setting 'triclinic'
loop_
_space_group_symop_operation_xyz
x,y,z
-x,-y,-z
loop_
_atom_site_type_symbol
_atom_site_label
_atom_site_fract_x
_atom_site_fract_y
_atom_site_fract_z
Si Si1 0.432224 0.772028 0.139354
Si Si2 0.043628 0.706391 0.250012
Si Si3 0.192179 0.854697 0.668323
Si Si4 0.379237 0.388496 0.016071
Si Si5 0.789133 0.915112 0.639343
Si Si6 0.564114 0.686006 0.249983
Si Si7 0.911395 0.820904 0.483920
Si Si8 0.028788 0.424156 0.831698
O O1 0.217442 0.801404 0.188762
O O2 0.489403 0.646754 0.214291
O O3 0.449714 0.066837 0.074000
O O4 0.575247 0.571649 0.079329
O O5 0.986383 0.757615 0.186307
O O6 0.858929 0.897291 0.313647
O O7 0.094707 0.386304 0.311346
O O8 0.210979 0.980507 0.570230
O O9 0.396239 0.604187 0.668196
O O10 0.023885 0.726036 0.750010
O O11 0.148564 0.543014 0.070209
O O12 0.500000 0.500000 0.000000
O O13 0.582105 0.053847 0.714346
O O14 0.902245 0.114325 0.574002
O O15 0.766097 0.880849 0.579316
O O16 0.767382 0.733318 0.168184
O O17 0.000000 0.500000 0.500000
#
# Coordination Sequence:
#
# PCOD8019897 Si02
#       8
#     2   2   2   2   2   2   2   2
#     4  11  23  38  68  97 124 173 226 268 312 393
#     4  12  20  40  72  88 126 180 228 260 312 394
#     4  10  22  42  62  91 136 171 211 266 332 381
#     4  11  22  41  66  97 130 173 223 266 315 392
#     4  11  23  38  68  97 124 173 226 268 312 393
#     4  10  24  44  62  96 140 166 216 270 336 384
#     4  11  22  41  66  97 130 173 223 266 315 392
#     4  10  22  42  62  91 136 171 211 266 332 381
#
# _framework density 20.837468999999999
#
# number of rings (size 3 to 8) (size 9 to 14) (size 15 to 20)
#    0.750    0.500    5.000    1.500    0.000    2.000 
#    0.000    1.250    0.000    0.000    0.000    0.000 
#    0.000    0.000    0.000    0.000    0.000    0.000 
#
# Total GULP energy -198356.419985 kJ/mol
# GULP energy per Si atom -12397.276249 kJ/mol
# Density = 2.079004 g / cm^3
# Si number density = 20.837469 Si / 1000 Ang^3
#
#
#
# Elastic Constant Matrix: (Units=GPa)
#
#
# Indices 1 2 3 4 5 6 
#
# 1 90.4614 43.6639 15.2931 9.1265 11.6688 16.9691
# 2 43.6639 107.3132 23.0085 12.5835 4.1952 19.6473
# 3 15.2931 23.0085 55.5612 12.9361 7.4176 13.8743
# 4 9.1265 12.5835 12.9361 44.4145 7.8932 3.2593
# 5 11.6688 4.1952 7.4176 7.8932 39.5351 3.2064
# 6 16.9691 19.6473 13.8743 3.2593 3.2064 31.3288
#
#
#
# Elastic Compliance Matrix: (Units=1/GPa)
#
#
# Indices 1 2 3 4 5 6 
#
# 1 0.014810 -0.004950 -0.000350 -0.000632 -0.003300 -0.004359
# 2 -0.004950 0.012817 -0.002679 -0.001761 0.001289 -0.004119
# 3 -0.000350 -0.002679 0.022451 -0.004764 -0.002278 -0.007344
# 4 -0.000632 -0.001761 -0.004764 0.025119 -0.003856 0.001338
# 5 -0.003300 0.001289 -0.002278 -0.003856 0.027362 -0.000411
# 6 -0.004359 -0.004119 -0.007344 0.001338 -0.000411 0.040019
#
#
# Mechanical properties :
#
#
# Convention : Reuss Voigt Hill
#
# Bulk Modulus (GPa) = 29.30762 46.36298 37.83530
# Shear Modulus (GPa) = 29.42747 34.48036 31.95391
#
# Velocity S-wave (km/s) = 3.76205 4.07225 3.92022
# Velocity P-wave (km/s) = 5.74161 6.66401 6.21994
#
# Compressibility (1/GPa) = 0.03412082
#
# Stress axis : x y z
#
# Youngs Moduli (GPa) = 67.52229 78.02122 44.54097
#
# Poissons Ratio (x) = 0.38617 0.01561
# Poissons Ratio (y) = 0.33420 0.11931
# Poissons Ratio (z) = 0.02366 0.20900
#
# Static dielectric constant tensor:
#      x y z
#    x 3.632190 0.283430 0.122290 
#    y 0.283430 3.785240 0.111700 
#    z 0.122290 0.111700 3.771450 
# 
# 
# High freq. dielectric constant tensor:
#      x y z
#    x 1.808750 0.021740 0.005800 
#    y 0.021740 1.821350 0.005700 
#    z 0.005800 0.005700 1.806730 
# 
# From -- ./inp_files/605583.got.cif
#   From: 2010.06.25/outbox.cif.g09.slc.cpg/sg2_303_cif.got.tgz:605583.got - 2010.06.27 13:26:56.
