data_PCOD8019031
_publ_section_title
;
Structure prediction by ZEFSAII (Michael W. Deem and Ramdas Pophale) SiO2 
 PCOD8019031
Probable space group: P -1
;
_chemical_formula_sum "Si O2"
_cell_formula_units_Z 16
_cell_length_a 8.971689
_cell_length_b 5.316524
_cell_length_c 20.560052
_cell_angle_alpha 106.379174
_cell_angle_beta 136.442580
_cell_angle_gamma 63.077755
_cell_volume 600.827323
_symmetry_space_group_name_H-M "P -1"
_symmetry_group_IT_number 2
_symmetry_cell_setting 'triclinic'
loop_
_space_group_symop_operation_xyz
x,y,z
-x,-y,-z
loop_
_atom_site_type_symbol
_atom_site_label
_atom_site_fract_x
_atom_site_fract_y
_atom_site_fract_z
Si Si1 0.427858 0.725618 0.936498
Si Si2 0.040422 0.272072 0.882096
Si Si3 0.950537 0.477215 0.230326
Si Si4 0.783564 0.786187 0.437731
Si Si5 0.348425 0.819025 0.463303
Si Si6 0.727232 0.076791 0.686248
Si Si7 0.642612 0.531652 0.862040
Si Si8 0.368199 0.108886 0.745836
O O1 0.220931 0.695119 0.825807
O O2 0.639028 0.648046 0.943902
O O3 0.500000 0.500000 0.000000
O O4 0.315233 0.049258 0.954769
O O5 0.867486 0.119376 0.794611
O O6 0.918760 0.412794 0.921245
O O7 0.037365 0.489706 0.840903
O O8 0.839522 0.761317 0.257881
O O9 0.206895 0.266292 0.321473
O O10 0.544909 0.743878 0.376051
O O11 0.764326 0.885359 0.364029
O O12 0.000000 0.500000 0.500000
O O13 0.801671 0.032561 0.509498
O O14 0.500000 0.500000 0.500000
O O15 0.191570 0.824080 0.349398
O O16 0.500000 0.000000 0.500000
O O17 0.536414 0.286059 0.807709
O O18 0.509884 0.785888 0.788351
#
# Coordination Sequence:
#
# PCOD8019031 Si02
#       8
#     2   2   2   2   2   2   2   2
#     4  10  24  46  67 106 145 174 223 286 349 423
#     4  11  22  41  73  97 131 188 229 277 346 410
#     4  10  22  42  71  98 129 188 228 282 350 412
#     4  11  23  43  65  99 137 184 234 302 362 406
#     4  10  24  41  62  92 131 177 227 285 354 404
#     4  10  22  41  64  90 131 179 235 283 339 423
#     4  11  24  44  73 103 137 184 234 281 345 415
#     4  11  23  44  68 100 139 178 240 294 333 420
#
# _framework density 26.629949
#
# number of rings (size 3 to 8) (size 9 to 14) (size 15 to 20)
#    0.000    1.500    2.500    1.500    7.000    1.000 
#    0.000    3.750    0.000    0.000    0.000    0.000 
#    0.000    0.000    0.000    0.000    0.000    0.000 
#
# Total GULP energy -198242.435192 kJ/mol
# GULP energy per Si atom -12390.152199 kJ/mol
# Density = 2.656934 g / cm^3
# Si number density = 26.629949 Si / 1000 Ang^3
#
#
#
# Elastic Constant Matrix: (Units=GPa)
#
#
# Indices 1 2 3 4 5 6 
#
# 1 178.1779 75.3157 62.4733 -17.0393 -10.6538 -36.4219
# 2 75.3157 161.5438 52.9099 -42.9750 -7.3537 -21.1841
# 3 62.4733 52.9099 91.1202 -23.8724 -22.5984 -25.4877
# 4 -17.0393 -42.9750 -23.8724 53.8148 -10.6766 -5.9315
# 5 -10.6538 -7.3537 -22.5984 -10.6766 57.3694 -7.3832
# 6 -36.4219 -21.1841 -25.4877 -5.9315 -7.3832 55.4312
#
#
#
# Elastic Compliance Matrix: (Units=1/GPa)
#
#
# Indices 1 2 3 4 5 6 
#
# 1 0.008518 -0.002558 -0.003741 -0.000691 0.000016 0.002827
# 2 -0.002558 0.010206 -0.000630 0.007889 0.002452 0.003101
# 3 -0.003741 -0.000630 0.023055 0.012099 0.011946 0.010788
# 4 -0.000691 0.007889 0.012099 0.034267 0.013780 0.013627
# 5 0.000016 0.002452 0.011946 0.013780 0.026491 0.011444
# 6 0.002827 0.003101 0.010788 0.013627 0.011444 0.029026
#
#
# Mechanical properties :
#
#
# Convention : Reuss Voigt Hill
#
# Bulk Modulus (GPa) = 35.81474 90.24885 63.03179
# Shear Modulus (GPa) = 32.31445 49.33260 40.82353
#
# Velocity S-wave (km/s) = 3.48726 4.30876 3.91959
# Velocity P-wave (km/s) = 5.44912 7.66273 6.64870
#
# Compressibility (1/GPa) = 0.02792147
#
# Stress axis : x y z
#
# Youngs Moduli (GPa) = 117.39404 97.97737 43.37418
#
# Poissons Ratio (x) = 0.25067 0.16226
# Poissons Ratio (y) = 0.30035 0.02732
# Poissons Ratio (z) = 0.43915 0.06172
#
# Static dielectric constant tensor:
#      x y z
#    x 5.200380 -0.570850 0.006440 
#    y -0.570850 4.851240 0.485200 
#    z 0.006440 0.485200 5.587760 
# 
# 
# High freq. dielectric constant tensor:
#      x y z
#    x 2.085040 -0.012010 0.004180 
#    y -0.012010 2.079680 0.010980 
#    z 0.004180 0.010980 2.089120 
# 
# From -- ./inp_files/126525.got.cif
#   From: 2010.06.25/outbox.cif.g09.slc.cpg/sg2_64_cif.got.tgz:126525.got - 2010.06.27 13:26:56.
