data_PCOD8019359
_publ_section_title
;
Structure prediction by ZEFSAII (Michael W. Deem and Ramdas Pophale) SiO2 
 PCOD8019359
Probable space group: P -1
;
_chemical_formula_sum "Si O2"
_cell_formula_units_Z 14
_cell_length_a 11.631911
_cell_length_b 14.062070
_cell_length_c 13.532514
_cell_angle_alpha 134.601847
_cell_angle_beta 22.150115
_cell_angle_gamma 131.918805
_cell_volume 592.916576
_symmetry_space_group_name_H-M "P -1"
_symmetry_group_IT_number 2
_symmetry_cell_setting 'triclinic'
loop_
_space_group_symop_operation_xyz
x,y,z
-x,-y,-z
loop_
_atom_site_type_symbol
_atom_site_label
_atom_site_fract_x
_atom_site_fract_y
_atom_site_fract_z
Si Si1 0.187040 0.359464 0.478940
Si Si2 0.161462 0.494034 0.972083
Si Si3 0.126704 0.134169 0.043021
Si Si4 0.302427 0.250466 0.803937
Si Si5 0.231680 0.956549 0.560784
Si Si6 0.243433 0.589682 0.313920
Si Si7 0.175378 0.056649 0.307124
O O1 0.509520 0.424819 0.229094
O O2 0.231848 0.215800 0.384940
O O3 0.930977 0.338305 0.582616
O O4 0.067251 0.450492 0.726692
O O5 0.187948 0.338949 0.869901
O O6 0.000000 0.500000 0.000000
O O7 0.079071 0.247357 0.078194
O O8 0.492266 0.125462 0.760585
O O9 0.000000 0.000000 0.000000
O O10 0.966507 0.148442 0.286569
O O11 0.350340 0.097194 0.621119
O O12 0.625941 0.308911 0.631274
O O13 0.017049 0.996302 0.672348
O O14 0.000000 0.500000 0.500000
O O15 0.500000 0.500000 0.000000
O O16 0.000000 0.000000 0.500000
O O17 0.500000 0.000000 0.000000
#
# Coordination Sequence:
#
# PCOD8019359 Si02
#       7
#     2   2   2   2   2   2   2
#     4  12  26  50  74 105 151 188 244 304 361 429
#     4  12  28  48  73 109 145 200 242 297 352 432
#     4  10  22  41  67 106 142 175 227 295 366 416
#     4  11  24  43  77 103 148 181 241 289 371 426
#     4  11  25  45  70 110 142 184 238 305 359 423
#     4  12  24  44  69 108 144 184 232 287 368 434
#     4  12  28  49  75 103 142 199 250 293 361 431
#
# _framework density 23.612092000000001
#
# number of rings (size 3 to 8) (size 9 to 14) (size 15 to 20)
#    0.000    0.571    2.857    4.714    4.000    9.143 
#    0.000    0.000    0.000    0.000    0.000    0.000 
#    0.000    0.000    0.000    0.000    0.000    0.000 
#
# Total GULP energy -173532.221740 kJ/mol
# GULP energy per Si atom -12395.158696 kJ/mol
# Density = 2.355835 g / cm^3
# Si number density = 23.612092 Si / 1000 Ang^3
#
#
#
# Elastic Constant Matrix: (Units=GPa)
#
#
# Indices 1 2 3 4 5 6 
#
# 1 157.6961 37.6709 40.0920 -8.2790 -13.5999 -24.5993
# 2 37.6709 122.8759 34.9312 -11.5430 2.0458 -36.6817
# 3 40.0920 34.9312 147.1460 -9.6063 2.1955 -20.6626
# 4 -8.2790 -11.5430 -9.6063 47.4810 -6.7692 -1.8437
# 5 -13.5999 2.0458 2.1955 -6.7692 44.6003 -1.9939
# 6 -24.5993 -36.6817 -20.6626 -1.8437 -1.9939 54.5107
#
#
#
# Elastic Compliance Matrix: (Units=1/GPa)
#
#
# Indices 1 2 3 4 5 6 
#
# 1 0.007645 -0.001194 -0.001446 0.001228 0.002744 0.002240
# 2 -0.001194 0.011022 -0.001217 0.002457 -0.000147 0.006495
# 3 -0.001446 -0.001217 0.007761 0.001002 -0.000549 0.001484
# 4 0.001228 0.002457 0.001002 0.022756 0.003823 0.003497
# 5 0.002744 -0.000147 -0.000549 0.003823 0.023958 0.001937
# 6 0.002240 0.006495 0.001484 0.003497 0.001937 0.024478
#
#
# Mechanical properties :
#
#
# Convention : Reuss Voigt Hill
#
# Bulk Modulus (GPa) = 53.43375 72.56736 63.00055
# Shear Modulus (GPa) = 44.81424 50.31998 47.56711
#
# Velocity S-wave (km/s) = 4.36126 4.62140 4.49321
# Velocity P-wave (km/s) = 6.93107 7.69911 7.32516
#
# Compressibility (1/GPa) = 0.01871476
#
# Stress axis : x y z
#
# Youngs Moduli (GPa) = 130.81040 90.72435 128.85442
#
# Poissons Ratio (x) = 0.10835 0.18627
# Poissons Ratio (y) = 0.15623 0.15677
# Poissons Ratio (z) = 0.18910 0.11038
#
# Static dielectric constant tensor:
#      x y z
#    x 4.644310 0.619080 0.316690 
#    y 0.619080 3.186620 -0.002880 
#    z 0.316690 -0.002880 5.308030 
# 
# 
# High freq. dielectric constant tensor:
#      x y z
#    x 1.942090 -0.008530 0.003260 
#    y -0.008530 1.957310 -0.009080 
#    z 0.003260 -0.009080 1.948350 
# 
# From -- ./inp_files/441910.got.cif
#   From: 2010.06.25/outbox.cif.g09.slc.cpg/sg2_221_cif.got.tgz:441910.got - 2010.06.27 13:26:56.
