data_PCOD8019819
_publ_section_title
;
Structure prediction by ZEFSAII (Michael W. Deem and Ramdas Pophale) SiO2 
 PCOD8019819
Probable space group: P -1
;
_chemical_formula_sum "Si O2"
_cell_formula_units_Z 14
_cell_length_a 9.442134
_cell_length_b 14.121860
_cell_length_c 14.218069
_cell_angle_alpha 27.303222
_cell_angle_beta 101.151115
_cell_angle_gamma 118.622426
_cell_volume 623.537976
_symmetry_space_group_name_H-M "P -1"
_symmetry_group_IT_number 2
_symmetry_cell_setting 'triclinic'
loop_
_space_group_symop_operation_xyz
x,y,z
-x,-y,-z
loop_
_atom_site_type_symbol
_atom_site_label
_atom_site_fract_x
_atom_site_fract_y
_atom_site_fract_z
Si Si1 0.619008 0.429198 0.660156
Si Si2 0.318479 0.948636 0.919368
Si Si3 0.432700 0.416710 0.839623
Si Si4 0.636681 0.993628 0.462575
Si Si5 0.976940 0.104577 0.499142
Si Si6 0.662458 0.279507 0.044755
Si Si7 0.995798 0.050424 0.160153
O O1 0.453416 0.265719 0.700028
O O2 0.526275 0.457675 0.713376
O O3 0.824727 0.727903 0.389597
O O4 0.678475 0.248097 0.841086
O O5 0.412683 0.979485 0.803289
O O6 0.092756 0.808402 0.997152
O O7 0.524504 0.711008 0.637365
O O8 0.487610 0.277069 0.038746
O O9 0.195647 0.208425 0.987087
O O10 0.500000 0.000000 0.500000
O O11 0.781739 0.046740 0.512453
O O12 0.740009 0.255279 0.172603
O O13 0.000000 0.000000 0.500000
O O14 0.959283 0.935542 0.735118
O O15 0.163058 0.436770 0.241647
#
# Coordination Sequence:
#
# PCOD8019819 Si02
#       7
#     2   2   2   2   2   2   2
#     4  10  22  48  65  98 134 169 218 267 332 389
#     4  10  22  41  74  93 129 175 216 267 329 394
#     4  11  25  44  65  99 135 168 218 276 317 392
#     4  12  27  41  63  98 132 174 222 267 320 389
#     4  12  23  42  67  92 132 178 219 264 326 385
#     4  11  23  45  66  93 133 177 217 269 325 385
#     4  12  24  40  69  97 132 170 218 271 327 383
#
# _framework density 22.452521000000001
#
# number of rings (size 3 to 8) (size 9 to 14) (size 15 to 20)
#    0.000    0.857    4.286    3.429    4.000    2.857 
#    0.000    6.429    0.000    0.000    0.000    0.000 
#    0.000    0.000    0.000    0.000    0.000    0.000 
#
# Total GULP energy -173519.174673 kJ/mol
# GULP energy per Si atom -12394.226762 kJ/mol
# Density = 2.240142 g / cm^3
# Si number density = 22.452521 Si / 1000 Ang^3
#
#
#
# Elastic Constant Matrix: (Units=GPa)
#
#
# Indices 1 2 3 4 5 6 
#
# 1 168.7415 49.0171 37.4706 -16.1031 -6.9484 12.6995
# 2 49.0171 104.1527 15.6673 -8.3079 0.4052 2.0106
# 3 37.4706 15.6673 62.4371 -8.4527 -12.6002 -3.9345
# 4 -16.1031 -8.3079 -8.4527 27.1966 2.0597 6.1465
# 5 -6.9484 0.4052 -12.6002 2.0597 29.8578 -9.1545
# 6 12.6995 2.0106 -3.9345 6.1465 -9.1545 46.2485
#
#
#
# Elastic Compliance Matrix: (Units=1/GPa)
#
#
# Indices 1 2 3 4 5 6 
#
# 1 0.008213 -0.002903 -0.004128 0.003478 -0.000994 -0.003139
# 2 -0.002903 0.011284 -0.001211 0.001538 -0.001540 -0.000306
# 3 -0.004128 -0.001211 0.021234 0.002053 0.009271 0.004555
# 4 0.003478 0.001538 0.002053 0.041792 -0.003397 -0.007074
# 5 -0.000994 -0.001540 0.009271 -0.003397 0.040363 0.009570
# 6 -0.003139 -0.000306 0.004555 -0.007074 0.009570 0.025720
#
#
# Mechanical properties :
#
#
# Convention : Reuss Voigt Hill
#
# Bulk Modulus (GPa) = 41.24288 59.96013 50.60150
# Shear Modulus (GPa) = 28.87295 36.20567 32.53931
#
# Velocity S-wave (km/s) = 3.58991 4.02001 3.81103
# Velocity P-wave (km/s) = 5.96591 6.95058 6.47698
#
# Compressibility (1/GPa) = 0.02424661
#
# Stress axis : x y z
#
# Youngs Moduli (GPa) = 121.75293 88.62060 47.09503
#
# Poissons Ratio (x) = 0.25722 0.19442
# Poissons Ratio (y) = 0.35339 0.05705
# Poissons Ratio (z) = 0.50263 0.10736
#
# Static dielectric constant tensor:
#      x y z
#    x 4.388140 0.249330 0.383440 
#    y 0.249330 4.162190 0.014390 
#    z 0.383440 0.014390 4.060630 
# 
# 
# High freq. dielectric constant tensor:
#      x y z
#    x 1.902730 0.014330 0.025470 
#    y 0.014330 1.895690 -0.004040 
#    z 0.025470 -0.004040 1.866560 
# 
# From -- ./inp_files/503661.got.cif
#   From: 2010.06.25/outbox.cif.g09.slc.cpg/sg2_252_cif.got.tgz:503661.got - 2010.06.27 13:26:56.
