data_PCOD8019895
_publ_section_title
;
Structure prediction by ZEFSAII (Michael W. Deem and Ramdas Pophale) SiO2 
 PCOD8019895
Probable space group: P -1
;
_chemical_formula_sum "Si O2"
_cell_formula_units_Z 16
_cell_length_a 9.187946
_cell_length_b 13.532358
_cell_length_c 13.259726
_cell_angle_alpha 148.959520
_cell_angle_beta 108.479662
_cell_angle_gamma 79.898559
_cell_volume 790.528291
_symmetry_space_group_name_H-M "P -1"
_symmetry_group_IT_number 2
_symmetry_cell_setting 'triclinic'
loop_
_space_group_symop_operation_xyz
x,y,z
-x,-y,-z
loop_
_atom_site_type_symbol
_atom_site_label
_atom_site_fract_x
_atom_site_fract_y
_atom_site_fract_z
Si Si1 0.181775 0.089460 0.132514
Si Si2 0.344899 0.370217 0.809163
Si Si3 0.877501 0.548658 0.657445
Si Si4 0.177368 0.975463 0.509303
Si Si5 0.169987 0.597482 0.089909
Si Si6 0.710608 0.336633 0.622365
Si Si7 0.211649 0.678227 0.758350
Si Si8 0.364782 0.341949 0.556473
O O1 0.217911 0.274495 0.225895
O O2 0.227367 0.183116 0.335061
O O3 0.275543 0.914193 0.979355
O O4 0.000000 0.000000 0.000000
O O5 0.297910 0.176838 0.697068
O O6 0.354132 0.302500 0.638271
O O7 0.500000 0.500000 0.000000
O O8 0.214351 0.503958 0.913725
O O9 0.831796 0.460612 0.679636
O O10 0.832748 0.379293 0.416467
O O11 0.063928 0.626558 0.757025
O O12 0.185415 0.832280 0.289163
O O13 0.233562 0.871245 0.530356
O O14 0.000000 0.000000 0.500000
O O15 0.279213 0.553883 0.170574
O O16 0.000000 0.500000 0.000000
O O17 0.531881 0.311795 0.523110
O O18 0.344852 0.564180 0.725470
#
# Coordination Sequence:
#
# PCOD8019895 Si02
#       8
#     2   2   2   2   2   2   2   2
#     4   9  20  43  61  95 127 160 223 266 322 400
#     4  12  23  43  66  92 137 178 216 279 327 388
#     4   9  19  41  64  89 126 163 214 272 321 391
#     4  10  23  42  64  94 135 173 230 270 322 403
#     4  10  22  42  62  91 131 167 220 268 327 385
#     4  10  23  42  61  96 134 168 216 273 327 389
#     4   9  20  38  65  92 122 165 216 267 326 390
#     4  11  24  39  64  95 130 171 216 266 336 383
#
# _framework density 20.239629999999998
#
# number of rings (size 3 to 8) (size 9 to 14) (size 15 to 20)
#    0.750    1.250    2.500    0.750    3.500    6.000 
#    4.500    1.250    0.000    0.000    0.000    0.000 
#    0.000    0.000    0.000    0.000    0.000    0.000 
#
# Total GULP energy -198210.113836 kJ/mol
# GULP energy per Si atom -12388.132115 kJ/mol
# Density = 2.019356 g / cm^3
# Si number density = 20.239630 Si / 1000 Ang^3
#
#
#
# Elastic Constant Matrix: (Units=GPa)
#
#
# Indices 1 2 3 4 5 6 
#
# 1 102.5577 37.6701 35.8371 12.4293 -4.6225 -13.6357
# 2 37.6701 100.5966 44.6601 17.5575 -4.4482 -9.5143
# 3 35.8371 44.6601 132.6497 24.1134 -5.2793 -6.8575
# 4 12.4293 17.5575 24.1134 36.9223 -9.7286 -4.1208
# 5 -4.6225 -4.4482 -5.2793 -9.7286 35.3644 1.8793
# 6 -13.6357 -9.5143 -6.8575 -4.1208 1.8793 33.4260
#
#
#
# Elastic Compliance Matrix: (Units=1/GPa)
#
#
# Indices 1 2 3 4 5 6 
#
# 1 0.012179 -0.003240 -0.001846 -0.000829 0.000493 0.003537
# 2 -0.003240 0.013119 -0.002904 -0.003128 -0.000144 0.001439
# 3 -0.001846 -0.002904 0.009816 -0.004520 -0.000379 -0.000102
# 4 -0.000829 -0.003128 -0.004520 0.034121 0.008125 0.001594
# 5 0.000493 -0.000144 -0.000379 0.008125 0.030536 -0.000633
# 6 0.003537 0.001439 -0.000102 0.001594 -0.000633 0.031981
#
#
# Mechanical properties :
#
#
# Convention : Reuss Voigt Hill
#
# Bulk Modulus (GPa) = 52.26469 63.57095 57.91782
# Shear Modulus (GPa) = 32.44430 35.65166 34.04798
#
# Velocity S-wave (km/s) = 4.00810 4.20155 4.10597
# Velocity P-wave (km/s) = 6.87742 7.41719 7.15240
#
# Compressibility (1/GPa) = 0.01913338
#
# Stress axis : x y z
#
# Youngs Moduli (GPa) = 82.11015 76.22527 101.86935
#
# Poissons Ratio (x) = 0.24696 0.18809
# Poissons Ratio (y) = 0.26603 0.29585
# Poissons Ratio (z) = 0.15160 0.22137
#
# Static dielectric constant tensor:
#      x y z
#    x 3.516100 -0.110910 -0.118470 
#    y -0.110910 3.448900 0.182700 
#    z -0.118470 0.182700 3.823810 
# 
# 
# High freq. dielectric constant tensor:
#      x y z
#    x 1.782520 -0.015040 -0.005370 
#    y -0.015040 1.773160 0.007660 
#    z -0.005370 0.007660 1.794560 
# 
# From -- ./inp_files/503390.got.cif
#   From: 2010.06.25/outbox.cif.g09.slc.cpg/sg2_252_cif.got.tgz:503390.got - 2010.06.27 13:26:56.
