data_PCOD8019192
_publ_section_title
;
Structure prediction by ZEFSAII (Michael W. Deem and Ramdas Pophale) SiO2 
 PCOD8019192
Probable space group: P -1
;
_chemical_formula_sum "Si O2"
_cell_formula_units_Z 16
_cell_length_a 9.589155
_cell_length_b 25.287019
_cell_length_c 8.873070
_cell_angle_alpha 130.284699
_cell_angle_beta 61.514931
_cell_angle_gamma 152.828178
_cell_volume 719.054317
_symmetry_space_group_name_H-M "P -1"
_symmetry_group_IT_number 2
_symmetry_cell_setting 'triclinic'
loop_
_space_group_symop_operation_xyz
x,y,z
-x,-y,-z
loop_
_atom_site_type_symbol
_atom_site_label
_atom_site_fract_x
_atom_site_fract_y
_atom_site_fract_z
Si Si1 0.124237 0.047009 0.689973
Si Si2 0.316617 0.102757 0.111212
Si Si3 0.485954 0.050711 0.470366
Si Si4 0.678425 0.318512 0.090625
Si Si5 0.009090 0.277290 0.390121
Si Si6 0.201664 0.420878 0.092708
Si Si7 0.250715 0.854961 0.024362
Si Si8 0.696975 0.481385 0.460738
O O1 0.300491 0.042575 0.628942
O O2 0.390038 0.203409 0.902532
O O3 0.000000 0.000000 0.500000
O O4 0.775381 0.920061 0.710765
O O5 0.579088 0.255237 0.193812
O O6 0.425104 0.064798 0.961747
O O7 0.000000 0.000000 0.000000
O O8 0.828429 0.205496 0.512403
O O9 0.500000 0.000000 0.500000
O O10 0.283029 0.944035 0.238560
O O11 0.783249 0.437655 0.274578
O O12 0.982787 0.383063 0.017688
O O13 0.338784 0.362388 0.381216
O O14 0.057480 0.374827 0.488410
O O15 0.802714 0.159066 0.152620
O O16 0.288907 0.505732 0.341787
O O17 0.500000 0.500000 0.000000
O O18 0.034501 0.290896 0.011291
#
# Coordination Sequence:
#
# PCOD8019192 Si02
#       8
#     2   2   2   2   2   2   2   2
#     4  11  25  40  62 105 141 170 215 286 345 391
#     4   9  19  38  62  92 128 168 219 272 320 408
#     4  12  25  39  68  99 136 170 224 282 346 384
#     4  10  22  41  70  93 130 181 230 263 333 407
#     4  10  24  42  65  95 132 173 230 274 322 418
#     4  10  22  41  67 104 136 167 227 288 326 388
#     4  10  22  41  65  95 128 181 219 269 342 400
#     4  10  23  42  71  90 131 188 228 259 335 403
#
# _framework density 22.251449000000001
#
# number of rings (size 3 to 8) (size 9 to 14) (size 15 to 20)
#    0.000    1.750    0.000    3.750   10.500    0.000 
#    0.000    1.875    0.000    0.000    0.000    0.000 
#    0.000    0.000    0.000    0.000    0.000    0.000 
#
# Total GULP energy -198245.823874 kJ/mol
# GULP energy per Si atom -12390.363992 kJ/mol
# Density = 2.220080 g / cm^3
# Si number density = 22.251449 Si / 1000 Ang^3
#
#
#
# Elastic Constant Matrix: (Units=GPa)
#
#
# Indices 1 2 3 4 5 6 
#
# 1 59.3793 24.8424 20.6208 -2.4401 6.5675 2.9574
# 2 24.8424 100.7161 36.2891 -20.8438 -5.3607 5.0554
# 3 20.6208 36.2891 110.0911 4.5529 -0.5703 -1.6150
# 4 -2.4401 -20.8438 4.5529 31.2365 1.0145 0.5681
# 5 6.5675 -5.3607 -0.5703 1.0145 43.5872 -0.7457
# 6 2.9574 5.0554 -1.6150 0.5681 -0.7457 35.9271
#
#
#
# Elastic Compliance Matrix: (Units=1/GPa)
#
#
# Indices 1 2 3 4 5 6 
#
# 1 0.019889 -0.004409 -0.002270 -0.000920 -0.003568 -0.001178
# 2 -0.004409 0.015016 -0.004569 0.010309 0.002176 -0.002073
# 3 -0.002270 -0.004569 0.011238 -0.004892 0.000065 0.001414
# 4 -0.000920 0.010309 -0.004892 0.039562 0.000384 -0.002212
# 5 -0.003568 0.002176 0.000065 0.000384 0.023748 0.000477
# 6 -0.001178 -0.002073 0.001414 -0.002212 0.000477 0.028331
#
#
# Mechanical properties :
#
#
# Convention : Reuss Voigt Hill
#
# Bulk Modulus (GPa) = 42.28873 48.18789 45.23831
# Shear Modulus (GPa) = 29.73300 34.71242 32.22271
#
# Velocity S-wave (km/s) = 3.65941 3.95398 3.80954
# Velocity P-wave (km/s) = 6.07464 6.52291 6.30276
#
# Compressibility (1/GPa) = 0.02364696
#
# Stress axis : x y z
#
# Youngs Moduli (GPa) = 50.27846 66.59465 88.98313
#
# Poissons Ratio (x) = 0.29364 0.20196
# Poissons Ratio (y) = 0.22169 0.40659
# Poissons Ratio (z) = 0.11411 0.30429
#
# Static dielectric constant tensor:
#      x y z
#    x 4.045040 -0.161140 0.249900 
#    y -0.161140 3.315500 0.444900 
#    z 0.249900 0.444900 3.877720 
# 
# 
# High freq. dielectric constant tensor:
#      x y z
#    x 1.879710 0.008680 0.004980 
#    y 0.008680 1.874260 -0.004170 
#    z 0.004980 -0.004170 1.877180 
# 
# From -- ./inp_files/226458.got.cif
#   From: 2010.06.25/outbox.cif.g09.slc.cpg/sg2_114_cif.got.tgz:226458.got - 2010.06.27 13:26:56.
