data_PCOD8019089
_publ_section_title
;
Structure prediction by ZEFSAII (Michael W. Deem and Ramdas Pophale) SiO2 
 PCOD8019089
Probable space group: P -1
;
_chemical_formula_sum "Si O2"
_cell_formula_units_Z 14
_cell_length_a 14.443527
_cell_length_b 10.887774
_cell_length_c 12.357926
_cell_angle_alpha 73.778799
_cell_angle_beta 28.720741
_cell_angle_gamma 94.425443
_cell_volume 641.978607
_symmetry_space_group_name_H-M "P -1"
_symmetry_group_IT_number 2
_symmetry_cell_setting 'triclinic'
loop_
_space_group_symop_operation_xyz
x,y,z
-x,-y,-z
loop_
_atom_site_type_symbol
_atom_site_label
_atom_site_fract_x
_atom_site_fract_y
_atom_site_fract_z
Si Si1 0.940143 0.503724 0.313868
Si Si2 0.667917 0.573815 0.703863
Si Si3 0.586320 0.448480 0.228988
Si Si4 0.152421 0.959130 0.078770
Si Si5 0.409695 0.911669 0.233439
Si Si6 0.971569 0.814124 0.848167
Si Si7 0.991512 0.779513 0.072467
O O1 0.867680 0.544124 0.490906
O O2 0.727515 0.290837 0.574211
O O3 0.919652 0.596992 0.213701
O O4 0.247264 0.596370 0.975214
O O5 0.454385 0.473975 0.849291
O O6 0.844600 0.784389 0.468241
O O7 0.500000 0.500000 0.000000
O O8 0.292904 0.272614 0.619295
O O9 0.756647 0.600538 0.108255
O O10 0.197603 0.928425 0.916446
O O11 0.188663 0.127494 0.006697
O O12 0.341013 0.976345 0.967706
O O13 0.195769 0.914105 0.499544
O O14 0.500000 0.000000 0.000000
O O15 0.114039 0.856852 0.808654
#
# Coordination Sequence:
#
# PCOD8019089 Si02
#       7
#     2   2   2   2   2   2   2
#     4   9  21  41  60  89 125 159 207 250 300 362
#     4  10  23  38  61  87 119 164 207 246 301 359
#     4   9  20  38  60  90 118 159 204 247 304 357
#     4  10  23  40  60  91 126 157 203 258 307 357
#     4  11  26  41  60  93 127 167 206 244 307 369
#     4  11  23  40  67  90 125 164 202 255 307 363
#     4  10  22  41  64  96 120 158 211 253 310 358
#
# _framework density 21.807577999999999
#
# number of rings (size 3 to 8) (size 9 to 14) (size 15 to 20)
#    0.000    2.286    0.000    2.571    6.000    9.714 
#    0.000    0.000    0.000    0.000    0.000    0.000 
#    0.000    0.000    0.000    0.000    0.000    0.000 
#
# Total GULP energy -173493.643390 kJ/mol
# GULP energy per Si atom -12392.403099 kJ/mol
# Density = 2.175794 g / cm^3
# Si number density = 21.807578 Si / 1000 Ang^3
#
#
#
# Elastic Constant Matrix: (Units=GPa)
#
#
# Indices 1 2 3 4 5 6 
#
# 1 107.6744 35.8524 33.2291 11.2128 -1.6640 19.0794
# 2 35.8524 92.9926 27.8215 18.0132 -3.2595 -2.8873
# 3 33.2291 27.8215 70.9641 17.4855 -0.4775 6.2379
# 4 11.2128 18.0132 17.4855 26.6911 3.2534 -0.2502
# 5 -1.6640 -3.2595 -0.4775 3.2534 38.0043 6.1225
# 6 19.0794 -2.8873 6.2379 -0.2502 6.1225 38.1683
#
#
#
# Elastic Compliance Matrix: (Units=1/GPa)
#
#
# Indices 1 2 3 4 5 6 
#
# 1 0.012975 -0.003906 -0.003853 -0.000503 0.001252 -0.006355
# 2 -0.003906 0.014410 -0.002481 -0.006560 0.001075 0.003233
# 3 -0.003853 -0.002481 0.019366 -0.009523 0.000941 -0.001640
# 4 -0.000503 -0.006560 -0.009523 0.049012 -0.005300 0.002483
# 5 0.001252 0.001075 0.000941 -0.005300 0.027761 -0.005186
# 6 -0.006355 0.003233 -0.001640 0.002483 -0.005186 0.030737
#
#
# Mechanical properties :
#
#
# Convention : Reuss Voigt Hill
#
# Bulk Modulus (GPa) = 38.06586 51.71525 44.89056
# Shear Modulus (GPa) = 27.24822 32.22129 29.73475
#
# Velocity S-wave (km/s) = 3.53864 3.84803 3.69657
# Velocity P-wave (km/s) = 5.84715 6.59613 6.23290
#
# Compressibility (1/GPa) = 0.02627026
#
# Stress axis : x y z
#
# Youngs Moduli (GPa) = 77.07308 69.39459 51.63728
#
# Poissons Ratio (x) = 0.27102 0.19898
# Poissons Ratio (y) = 0.30101 0.12814
# Poissons Ratio (z) = 0.29699 0.17220
#
# Static dielectric constant tensor:
#      x y z
#    x 3.874240 0.089320 -0.075570 
#    y 0.089320 4.029180 0.197900 
#    z -0.075570 0.197900 3.900200 
# 
# 
# High freq. dielectric constant tensor:
#      x y z
#    x 1.846650 0.004500 -0.003460 
#    y 0.004500 1.859120 0.007990 
#    z -0.003460 0.007990 1.852230 
# 
# From -- ./inp_files/450191.got.cif
#   From: 2010.06.25/outbox.cif.g09.slc.cpg/sg2_226_cif.got.tgz:450191.got - 2010.06.27 13:26:56.
