data_PCOD8019472
_publ_section_title
;
Structure prediction by ZEFSAII (Michael W. Deem and Ramdas Pophale) SiO2 
 PCOD8019472
Probable space group: P -1
;
_chemical_formula_sum "Si O2"
_cell_formula_units_Z 16
_cell_length_a 10.856738
_cell_length_b 19.427837
_cell_length_c 7.719842
_cell_angle_alpha 45.234537
_cell_angle_beta 40.335155
_cell_angle_gamma 39.448903
_cell_volume 642.660156
_symmetry_space_group_name_H-M "P -1"
_symmetry_group_IT_number 2
_symmetry_cell_setting 'triclinic'
loop_
_space_group_symop_operation_xyz
x,y,z
-x,-y,-z
loop_
_atom_site_type_symbol
_atom_site_label
_atom_site_fract_x
_atom_site_fract_y
_atom_site_fract_z
Si Si1 0.265783 0.514622 0.754572
Si Si2 0.175869 0.875493 0.965906
Si Si3 0.350549 0.470277 0.099681
Si Si4 0.324379 0.154692 0.036309
Si Si5 0.364907 0.270318 0.110837
Si Si6 0.775990 0.029799 0.594115
Si Si7 0.155149 0.324225 0.607465
Si Si8 0.817103 0.334959 0.721408
O O1 0.500000 0.500000 0.500000
O O2 0.191949 0.554692 0.965273
O O3 0.111941 0.610314 0.608635
O O4 0.275586 0.397707 0.913717
O O5 0.368900 0.810962 0.016051
O O6 0.277159 0.882318 0.660510
O O7 0.057688 0.800927 0.192985
O O8 0.000000 0.000000 0.000000
O O9 0.556437 0.370505 0.940522
O O10 0.500000 0.500000 0.000000
O O11 0.221324 0.416428 0.429509
O O12 0.586624 0.080283 0.853220
O O13 0.217024 0.235210 0.845989
O O14 0.277109 0.220053 0.149576
O O15 0.207472 0.081352 0.308613
O O16 0.258120 0.266887 0.414354
O O17 0.000000 0.000000 0.500000
O O18 0.888665 0.376209 0.754117
#
# Coordination Sequence:
#
# PCOD8019472 Si02
#       8
#     2   2   2   2   2   2   2   2
#     4   9  19  42  68  94 139 173 226 283 339 411
#     4  12  24  43  72 103 141 186 233 290 351 414
#     4  10  22  41  68 100 136 183 223 287 352 404
#     4  11  25  43  71 100 140 185 231 291 352 408
#     4  11  23  44  69 104 138 185 230 287 354 412
#     4  11  24  47  67 100 140 180 241 296 337 418
#     4  11  24  44  68  99 148 176 230 294 336 422
#     4  11  23  44  68 101 139 182 233 282 345 420
#
# _framework density 24.896515999999998
#
# number of rings (size 3 to 8) (size 9 to 14) (size 15 to 20)
#    0.000    1.250    5.000    1.500    5.250    4.000 
#    2.250    0.000    0.000    0.000    0.000    0.000 
#    0.000    0.000    0.000    0.000    0.000    0.000 
#
# Total GULP energy -198314.599120 kJ/mol
# GULP energy per Si atom -12394.662445 kJ/mol
# Density = 2.483985 g / cm^3
# Si number density = 24.896516 Si / 1000 Ang^3
#
#
#
# Elastic Constant Matrix: (Units=GPa)
#
#
# Indices 1 2 3 4 5 6 
#
# 1 162.0909 43.3111 58.3801 -32.8728 -3.0459 10.5133
# 2 43.3111 89.1294 43.1003 -25.6982 -8.6857 8.7765
# 3 58.3801 43.1003 122.2902 -42.9866 -6.5203 -5.5449
# 4 -32.8728 -25.6982 -42.9866 46.6963 -6.4135 -6.1405
# 5 -3.0459 -8.6857 -6.5203 -6.4135 48.8944 -2.9589
# 6 10.5133 8.7765 -5.5449 -6.1405 -2.9589 40.3577
#
#
#
# Elastic Compliance Matrix: (Units=1/GPa)
#
#
# Indices 1 2 3 4 5 6 
#
# 1 0.008143 -0.001956 -0.002544 0.002085 -0.000011 -0.001729
# 2 -0.001956 0.015337 -0.002856 0.004494 0.002670 -0.002339
# 3 -0.002544 -0.002856 0.014809 0.011394 0.003123 0.005281
# 4 0.002085 0.004494 0.011394 0.037750 0.007784 0.006359
# 5 -0.000011 0.002670 0.003123 0.007784 0.022526 0.002687
# 6 -0.001729 -0.002339 0.005281 0.006359 0.002687 0.027628
#
#
# Mechanical properties :
#
#
# Convention : Reuss Voigt Hill
#
# Bulk Modulus (GPa) = 42.41304 73.67708 58.04506
# Shear Modulus (GPa) = 33.61019 42.43761 38.02390
#
# Velocity S-wave (km/s) = 3.67821 4.13311 3.91228
# Velocity P-wave (km/s) = 5.92552 7.24116 6.61612
#
# Compressibility (1/GPa) = 0.02357766
#
# Stress axis : x y z
#
# Youngs Moduli (GPa) = 122.80145 65.20034 67.52579
#
# Poissons Ratio (x) = 0.12756 0.17178
# Poissons Ratio (y) = 0.24026 0.19283
# Poissons Ratio (z) = 0.31239 0.18619
#
# Static dielectric constant tensor:
#      x y z
#    x 5.026920 0.145080 0.542240 
#    y 0.145080 5.134580 0.402550 
#    z 0.542240 0.402550 5.334460 
# 
# 
# High freq. dielectric constant tensor:
#      x y z
#    x 2.013460 -0.000540 -0.007900 
#    y -0.000540 1.993630 0.005430 
#    z -0.007900 0.005430 2.002870 
# 
# From -- ./inp_files/281482.got.cif
#   From: 2010.06.25/outbox.cif.g09.slc.cpg/sg2_141_cif.got.tgz:281482.got - 2010.06.27 13:26:56.
