data_PCOD8019153
_publ_section_title
;
Structure prediction by ZEFSAII (Michael W. Deem and Ramdas Pophale) SiO2 
 PCOD8019153
Probable space group: P -1
;
_chemical_formula_sum "Si O2"
_cell_formula_units_Z 16
_cell_length_a 8.734321
_cell_length_b 12.468012
_cell_length_c 26.695197
_cell_angle_alpha 24.488507
_cell_angle_beta 51.655707
_cell_angle_gamma 42.582150
_cell_volume 802.478027
_symmetry_space_group_name_H-M "P -1"
_symmetry_group_IT_number 2
_symmetry_cell_setting 'triclinic'
loop_
_space_group_symop_operation_xyz
x,y,z
-x,-y,-z
loop_
_atom_site_type_symbol
_atom_site_label
_atom_site_fract_x
_atom_site_fract_y
_atom_site_fract_z
Si Si1 0.588605 0.925000 0.204022
Si Si2 0.679340 0.602857 0.424615
Si Si3 0.471574 0.469369 0.690481
Si Si4 0.124357 0.973438 0.619575
Si Si5 0.911999 0.624636 0.861109
Si Si6 0.706982 0.994118 0.932448
Si Si7 0.733163 0.717364 0.471425
Si Si8 0.060037 0.897392 0.975106
O O1 0.650047 0.823541 0.291928
O O2 0.650583 0.640149 0.276910
O O3 0.318439 0.172044 0.146931
O O4 0.727677 0.078079 0.095018
O O5 0.500000 0.500000 0.500000
O O6 0.617724 0.799624 0.404907
O O7 0.938078 0.310534 0.494697
O O8 0.267275 0.769562 0.630402
O O9 0.640612 0.541439 0.596665
O O10 0.621875 0.205054 0.811902
O O11 0.993762 0.839086 0.731890
O O12 0.302239 0.991347 0.614231
O O13 0.867073 0.455787 0.895778
O O14 0.108322 0.360061 0.969584
O O15 0.834353 0.105225 0.897581
O O16 0.500000 0.000000 0.000000
O O17 0.000000 0.500000 0.500000
O O18 0.000000 0.000000 0.000000
#
# Coordination Sequence:
#
# PCOD8019153 Si02
#       8
#     2   2   2   2   2   2   2   2
#     4  12  23  43  68  93 132 170 212 265 318 384
#     4  11  22  44  64  92 128 168 212 259 320 378
#     4  12  23  42  65  94 131 169 211 270 318 376
#     4  11  22  41  65  91 132 165 214 263 322 376
#     4  10  22  41  65  94 129 169 211 261 321 376
#     4  10  22  41  65  91 129 161 214 259 324 369
#     4  10  23  41  64  92 128 170 213 264 311 381
#     4  10  23  43  66  94 131 168 214 267 317 379
#
# _framework density 19.93824
#
# number of rings (size 3 to 8) (size 9 to 14) (size 15 to 20)
#    0.750    0.500    3.750    3.000    3.500    1.000 
#    2.250    0.000    0.000    0.000    0.000    0.000 
#    0.000    0.000    0.000    0.000    0.000    0.000 
#
# Total GULP energy -198342.214384 kJ/mol
# GULP energy per Si atom -12396.388399 kJ/mol
# Density = 1.989286 g / cm^3
# Si number density = 19.938240 Si / 1000 Ang^3
#
#
#
# Elastic Constant Matrix: (Units=GPa)
#
#
# Indices 1 2 3 4 5 6 
#
# 1 118.9732 42.1131 41.4209 11.3770 -10.4678 11.3472
# 2 42.1131 102.1332 35.1372 -0.2492 9.8549 1.5900
# 3 41.4209 35.1372 105.8713 15.8096 2.8540 -3.5562
# 4 11.3770 -0.2492 15.8096 36.8612 0.3441 -2.9234
# 5 -10.4678 9.8549 2.8540 0.3441 38.7342 -0.2733
# 6 11.3472 1.5900 -3.5562 -2.9234 -0.2733 42.4420
#
#
#
# Elastic Compliance Matrix: (Units=1/GPa)
#
#
# Indices 1 2 3 4 5 6 
#
# 1 0.011988 -0.004266 -0.003108 -0.002713 0.004554 -0.003463
# 2 -0.004266 0.012958 -0.002906 0.002736 -0.004256 0.000573
# 3 -0.003108 -0.002906 0.012337 -0.004210 -0.000960 0.001677
# 4 -0.002713 0.002736 -0.004210 0.029987 -0.001369 0.002327
# 5 0.004554 -0.004256 -0.000960 -0.001369 0.028206 -0.001051
# 6 -0.003463 0.000573 0.001677 0.002327 -0.001051 0.024760
#
#
# Mechanical properties :
#
#
# Convention : Reuss Voigt Hill
#
# Bulk Modulus (GPa) = 59.80054 62.70222 61.25138
# Shear Modulus (GPa) = 34.15975 37.49459 35.82717
#
# Velocity S-wave (km/s) = 4.14367 4.34122 4.24359
# Velocity P-wave (km/s) = 7.27676 7.52627 7.40257
#
# Compressibility (1/GPa) = 0.01672226
#
# Stress axis : x y z
#
# Youngs Moduli (GPa) = 83.41864 77.17054 81.05737
#
# Poissons Ratio (x) = 0.32918 0.25195
# Poissons Ratio (y) = 0.35584 0.23558
# Poissons Ratio (z) = 0.25929 0.22429
#
# Static dielectric constant tensor:
#      x y z
#    x 4.051710 0.044170 -0.278580 
#    y 0.044170 3.577180 -0.221980 
#    z -0.278580 -0.221980 3.244330 
# 
# 
# High freq. dielectric constant tensor:
#      x y z
#    x 1.789640 -0.000220 -0.014070 
#    y -0.000220 1.781250 0.008130 
#    z -0.014070 0.008130 1.769770 
# 
# From -- ./inp_files/607447.got.cif
#   From: 2010.06.25/outbox.cif.g09.slc.cpg/sg2_304_cif.got.tgz:607447.got - 2010.06.27 13:26:56.
