data_PCOD8019424
_publ_section_title
;
Structure prediction by ZEFSAII (Michael W. Deem and Ramdas Pophale) SiO2 
 PCOD8019424
Probable space group: P -1
;
_chemical_formula_sum "Si O2"
_cell_formula_units_Z 14
_cell_length_a 10.390221
_cell_length_b 14.176602
_cell_length_c 13.931213
_cell_angle_alpha 148.219999
_cell_angle_beta 138.509292
_cell_angle_gamma 36.663310
_cell_volume 630.422739
_symmetry_space_group_name_H-M "P -1"
_symmetry_group_IT_number 2
_symmetry_cell_setting 'triclinic'
loop_
_space_group_symop_operation_xyz
x,y,z
-x,-y,-z
loop_
_atom_site_type_symbol
_atom_site_label
_atom_site_fract_x
_atom_site_fract_y
_atom_site_fract_z
Si Si1 0.615187 0.707267 0.732480
Si Si2 0.255727 0.431246 0.102694
Si Si3 0.190565 0.021407 0.238350
Si Si4 0.633973 0.849005 0.250280
Si Si5 0.940525 0.786541 0.876925
Si Si6 0.977977 0.628535 0.400124
Si Si7 0.745087 0.163340 0.499866
O O1 0.646760 0.692591 0.851503
O O2 0.721410 0.847559 0.872543
O O3 0.362407 0.790889 0.628300
O O4 0.757704 0.481943 0.568097
O O5 0.290209 0.630340 0.290118
O O6 0.399605 0.270415 0.961736
O O7 0.000000 0.500000 0.000000
O O8 0.121533 0.126902 0.188712
O O9 0.105246 0.188443 0.416162
O O10 0.454966 0.887020 0.266339
O O11 0.087985 0.876049 0.083899
O O12 0.873786 0.705163 0.303497
O O13 0.613795 0.067728 0.401695
O O14 0.085686 0.540891 0.741445
O O15 0.000000 0.000000 0.500000
#
# Coordination Sequence:
#
# PCOD8019424 Si02
#       7
#     2   2   2   2   2   2   2
#     4  10  23  47  68 101 137 182 222 278 349 402
#     4  12  24  46  68  97 144 176 228 281 334 409
#     4  11  22  42  68 101 132 176 232 277 336 403
#     4  12  25  43  66 103 137 178 225 283 333 405
#     4   9  22  42  67  97 132 177 228 274 339 404
#     4  10  22  41  67  95 142 173 225 275 340 405
#     4  12  25  45  68 100 138 179 229 280 338 403
#
# _framework density 22.207319999999999
#
# number of rings (size 3 to 8) (size 9 to 14) (size 15 to 20)
#    0.857    0.286    4.286    1.286    0.000    6.857 
#    2.571    0.000    0.000    0.000    0.000    0.000 
#    0.000    0.000    0.000    0.000    0.000    0.000 
#
# Total GULP energy -173506.884419 kJ/mol
# GULP energy per Si atom -12393.348887 kJ/mol
# Density = 2.215678 g / cm^3
# Si number density = 22.207320 Si / 1000 Ang^3
#
#
#
# Elastic Constant Matrix: (Units=GPa)
#
#
# Indices 1 2 3 4 5 6 
#
# 1 -48.3167 -78.6574 -109.7737 -1.6376 39.3652 -66.4650
# 2 -78.6574 31.2625 -91.2852 -14.0866 46.5895 -52.3509
# 3 -109.7737 -91.2852 -53.2449 14.7158 72.5784 -75.9090
# 4 -1.6376 -14.0866 14.7158 51.3240 5.6742 10.9230
# 5 39.3652 46.5895 72.5784 5.6742 19.4368 31.1726
# 6 -66.4650 -52.3509 -75.9090 10.9230 31.1726 3.5362
#
#
#
# Elastic Compliance Matrix: (Units=1/GPa)
#
#
# Indices 1 2 3 4 5 6 
#
# 1 0.016301 -0.003228 -0.007831 0.001642 0.010162 -0.004163
# 2 -0.003228 0.009694 -0.003317 0.004251 0.000238 -0.003610
# 3 -0.007831 -0.003317 0.008517 -0.002647 -0.000097 -0.004440
# 4 0.001642 0.004251 -0.002647 0.022753 -0.003284 -0.004358
# 5 0.010162 0.000238 -0.000097 -0.003284 0.022325 0.005794
# 6 -0.004163 -0.003610 -0.004440 -0.004358 0.005794 0.018171
#
#
# Mechanical properties :
#
#
# Convention : Reuss Voigt Hill
#
# Bulk Modulus (GPa) = 173.65829 -69.97020 51.84405
# Shear Modulus (GPa) = 38.93132 28.82054 33.87593
#
# Velocity S-wave (km/s) = 4.19153 3.60640 3.90992
# Velocity P-wave (km/s) = 10.08928 3.77288 6.61661
#
# Compressibility (1/GPa) = 0.00575844
#
# Stress axis : x y z
#
# Youngs Moduli (GPa) = 61.34680 103.16047 117.41751
#
# Poissons Ratio (x) = 0.33304 0.91946
# Poissons Ratio (y) = 0.19805 0.38950
# Poissons Ratio (z) = 0.48039 0.34220
#
# Static dielectric constant tensor:
#      x y z
#    x 4.106400 0.031070 0.207480 
#    y 0.031070 4.197800 0.022110 
#    z 0.207480 0.022110 4.139460 
# 
# 
# High freq. dielectric constant tensor:
#      x y z
#    x 1.858070 0.006060 0.008360 
#    y 0.006060 1.888920 0.001650 
#    z 0.008360 0.001650 1.875710 
# 
# From -- ./inp_files/520517.got.cif
#   From: 2010.06.25/outbox.cif.g09.slc.cpg/sg2_261_cif.got.tgz:520517.got - 2010.06.27 13:26:56.
