data_PCOD8019423
_publ_section_title
;
Structure prediction by ZEFSAII (Michael W. Deem and Ramdas Pophale) SiO2 
 PCOD8019423
Probable space group: P -1
;
_chemical_formula_sum "Si O2"
_cell_formula_units_Z 16
_cell_length_a 9.998983
_cell_length_b 14.150160
_cell_length_c 9.037717
_cell_angle_alpha 139.328151
_cell_angle_beta 129.690637
_cell_angle_gamma 53.331856
_cell_volume 624.854509
_symmetry_space_group_name_H-M "P -1"
_symmetry_group_IT_number 2
_symmetry_cell_setting 'triclinic'
loop_
_space_group_symop_operation_xyz
x,y,z
-x,-y,-z
loop_
_atom_site_type_symbol
_atom_site_label
_atom_site_fract_x
_atom_site_fract_y
_atom_site_fract_z
Si Si1 0.543529 0.320712 0.958848
Si Si2 0.777021 0.795962 0.318020
Si Si3 0.414425 0.992963 0.772322
Si Si4 0.275760 0.003127 0.211419
Si Si5 0.257194 0.737636 0.257139
Si Si6 0.768430 0.499671 0.467019
Si Si7 0.872186 0.402652 0.734682
Si Si8 0.962337 0.741093 0.814731
O O1 0.334831 0.321965 0.838478
O O2 0.579853 0.324936 0.813856
O O3 0.683221 0.177372 0.964133
O O4 0.583997 0.471373 0.236121
O O5 0.727328 0.943351 0.558514
O O6 0.989617 0.742632 0.404178
O O7 0.704823 0.843292 0.157909
O O8 0.566315 0.945631 0.701026
O O9 0.282508 0.881539 0.536116
O O10 0.500000 0.000000 0.000000
O O11 0.098930 0.093985 0.107239
O O12 0.253196 0.622534 0.249926
O O13 0.072528 0.764952 0.066665
O O14 0.752028 0.483179 0.612242
O O15 0.927505 0.372861 0.361261
O O16 0.796413 0.665964 0.651675
O O17 0.000000 0.500000 0.000000
#
# Coordination Sequence:
#
# PCOD8019423 Si02
#       8
#     2   2   2   2   2   2   2   2
#     4  10  22  44  70  98 132 176 234 275 327 415
#     4  11  23  46  67  97 135 183 221 279 339 406
#     4  11  25  42  66 102 142 171 221 287 345 401
#     4  11  21  44  71  98 134 179 225 282 333 402
#     4  11  23  42  67  98 135 172 226 277 338 399
#     4  10  22  42  63  98 134 181 228 274 334 403
#     4  12  26  44  65  97 141 175 221 289 342 394
#     4  10  22  41  67  95 135 179 230 275 329 407
#
# _framework density 25.605962000000002
#
# number of rings (size 3 to 8) (size 9 to 14) (size 15 to 20)
#    0.000    1.250    5.000    0.750    5.250    3.500 
#    2.250    1.875    0.000    0.000    0.000    0.000 
#    0.000    0.000    0.000    0.000    0.000    0.000 
#
# Total GULP energy -198291.065550 kJ/mol
# GULP energy per Si atom -12393.191597 kJ/mol
# Density = 2.554768 g / cm^3
# Si number density = 25.605962 Si / 1000 Ang^3
#
#
#
# Elastic Constant Matrix: (Units=GPa)
#
#
# Indices 1 2 3 4 5 6 
#
# 1 75.5816 31.3218 20.6219 -2.1107 2.4025 43.7529
# 2 31.3218 86.1567 23.2524 -15.1510 -16.7259 23.0678
# 3 20.6219 23.2524 143.7707 -10.9495 13.5668 28.8660
# 4 -2.1107 -15.1510 -10.9495 32.2362 8.8995 -5.3223
# 5 2.4025 -16.7259 13.5668 8.8995 32.9564 -0.6332
# 6 43.7529 23.0678 28.8660 -5.3223 -0.6332 44.9764
#
#
#
# Elastic Compliance Matrix: (Units=1/GPa)
#
#
# Indices 1 2 3 4 5 6 
#
# 1 0.033569 -0.006349 0.002977 -0.003187 -0.006645 -0.031781
# 2 -0.006349 0.017165 -0.002272 0.004327 0.008931 -0.000532
# 3 0.002977 -0.002272 0.009145 0.002673 -0.005998 -0.007368
# 4 -0.003187 0.004327 0.002673 0.036661 -0.008507 0.003385
# 5 -0.006645 0.008931 -0.005998 -0.008507 0.040228 0.005292
# 6 -0.031781 -0.000532 -0.007368 0.003385 0.005292 0.058628
#
#
# Mechanical properties :
#
#
# Convention : Reuss Voigt Hill
#
# Bulk Modulus (GPa) = 20.57951 50.65571 35.61761
# Shear Modulus (GPa) = 22.43355 37.38799 29.91077
#
# Velocity S-wave (km/s) = 2.96312 3.82531 3.42148
# Velocity P-wave (km/s) = 4.44536 6.27187 5.43588
#
# Compressibility (1/GPa) = 0.04859201
#
# Stress axis : x y z
#
# Youngs Moduli (GPa) = 29.78905 58.25802 109.35103
#
# Poissons Ratio (x) = 0.36986 -0.32554
# Poissons Ratio (y) = 0.18912 0.24844
# Poissons Ratio (z) = -0.08868 0.13236
#
# Static dielectric constant tensor:
#      x y z
#    x 3.849880 1.073260 0.100460 
#    y 1.073260 4.094280 -0.058670 
#    z 0.100460 -0.058670 4.509260 
# 
# 
# High freq. dielectric constant tensor:
#      x y z
#    x 2.022350 0.016450 0.007250 
#    y 0.016450 2.023110 -0.006080 
#    z 0.007250 -0.006080 2.017470 
# 
# From -- ./inp_files/274757.got.cif
#   From: 2010.06.25/outbox.cif.g09.slc.cpg/sg2_138_cif.got.tgz:274757.got - 2010.06.27 13:26:56.
