data_PCOD8019497
_publ_section_title
;
Structure prediction by ZEFSAII (Michael W. Deem and Ramdas Pophale) SiO2 
 PCOD8019497
Probable space group: P -1
;
_chemical_formula_sum "Si O2"
_cell_formula_units_Z 14
_cell_length_a 10.760342
_cell_length_b 9.446310
_cell_length_c 10.747875
_cell_angle_alpha 138.737635
_cell_angle_beta 82.505558
_cell_angle_gamma 78.429547
_cell_volume 635.496196
_symmetry_space_group_name_H-M "P -1"
_symmetry_group_IT_number 2
_symmetry_cell_setting 'triclinic'
loop_
_space_group_symop_operation_xyz
x,y,z
-x,-y,-z
loop_
_atom_site_type_symbol
_atom_site_label
_atom_site_fract_x
_atom_site_fract_y
_atom_site_fract_z
Si Si1 0.078027 0.379867 0.736914
Si Si2 0.734044 0.999836 0.716569
Si Si3 0.572745 0.787204 0.747533
Si Si4 0.537233 0.776492 0.259728
Si Si5 0.807198 0.769357 0.112146
Si Si6 0.329821 0.729903 0.640268
Si Si7 0.723889 0.374266 0.142067
O O1 0.113495 0.262089 0.789632
O O2 0.162707 0.529668 0.797620
O O3 0.128439 0.161009 0.488869
O O4 0.910605 0.557444 0.864826
O O5 0.601062 0.187198 0.774947
O O6 0.690423 0.823797 0.682544
O O7 0.789968 0.131605 0.892162
O O8 0.463235 0.787847 0.658477
O O9 0.645720 0.506367 0.602501
O O10 0.500000 0.000000 0.000000
O O11 0.663193 0.745745 0.128604
O O12 0.584392 0.553651 0.201839
O O13 0.500000 0.000000 0.500000
O O14 0.794034 0.025034 0.234305
O O15 0.312082 0.683887 0.756316
#
# Coordination Sequence:
#
# PCOD8019497 Si02
#       7
#     2   2   2   2   2   2   2
#     4  10  23  45  60  88 126 162 209 250 304 367
#     4  12  21  39  66  90 124 162 202 259 304 363
#     4  11  22  36  59  96 129 154 199 258 313 355
#     4  11  20  39  65  92 119 158 205 255 306 357
#     4  10  22  41  68  84 123 171 199 253 310 361
#     4  11  22  38  62  90 124 159 205 253 308 365
#     4  11  23  38  63  92 123 160 206 250 311 367
#
# _framework density 22.03003
#
# number of rings (size 3 to 8) (size 9 to 14) (size 15 to 20)
#    0.000    1.143    7.143    0.429    2.000    0.571 
#    2.571    8.571    0.000    0.000    0.000    0.000 
#    0.000    0.000    0.000    0.000    0.000    0.000 
#
# Total GULP energy -173490.992555 kJ/mol
# GULP energy per Si atom -12392.213754 kJ/mol
# Density = 2.197989 g / cm^3
# Si number density = 22.030030 Si / 1000 Ang^3
#
#
#
# Elastic Constant Matrix: (Units=GPa)
#
#
# Indices 1 2 3 4 5 6 
#
# 1 23.5026 -2.9441 27.6845 2.1927 -12.0433 -5.4704
# 2 -2.9441 101.7726 44.9440 20.4467 -13.0713 -5.7704
# 3 27.6845 44.9440 181.7167 1.6543 -15.3830 -3.9556
# 4 2.1927 20.4467 1.6543 32.1396 -0.0711 -3.6996
# 5 -12.0433 -13.0713 -15.3830 -0.0711 44.6353 0.0389
# 6 -5.4704 -5.7704 -3.9556 -3.6996 0.0389 8.3774
#
#
#
# Elastic Compliance Matrix: (Units=1/GPa)
#
#
# Indices 1 2 3 4 5 6 
#
# 1 0.088216 0.017128 -0.014303 -0.009405 0.023823 0.058385
# 2 0.017128 0.016602 -0.005652 -0.009619 0.007507 0.015669
# 3 -0.014303 -0.005652 0.008670 0.003233 -0.002514 -0.007699
# 4 -0.009405 -0.009619 0.003233 0.038358 -0.004184 0.005718
# 5 0.023823 0.007507 -0.002514 -0.004184 0.030141 0.017552
# 6 0.058385 0.015669 -0.007699 0.005718 0.017552 0.167095
#
#
# Mechanical properties :
#
#
# Convention : Reuss Voigt Hill
#
# Bulk Modulus (GPa) = 9.27340 49.59565 29.43453
# Shear Modulus (GPa) = 12.79819 32.85097 22.82458
#
# Velocity S-wave (km/s) = 2.41289 3.86578 3.22229
# Velocity P-wave (km/s) = 3.46140 6.51823 5.21865
#
# Compressibility (1/GPa) = 0.10783531
#
# Stress axis : x y z
#
# Youngs Moduli (GPa) = 11.33582 60.23295 115.34012
#
# Poissons Ratio (x) = -1.03166 1.64967
# Poissons Ratio (y) = -0.19416 0.65185
# Poissons Ratio (z) = 0.16213 0.34041
#
# Static dielectric constant tensor:
#      x y z
#    x 3.817750 0.081910 -0.235490 
#    y 0.081910 4.160010 0.170660 
#    z -0.235490 0.170660 4.515030 
# 
# 
# High freq. dielectric constant tensor:
#      x y z
#    x 1.825980 0.014380 -0.006320 
#    y 0.014380 1.870150 0.007020 
#    z -0.006320 0.007020 1.886110 
# 
# From -- ./inp_files/418537.got.cif
#   From: 2010.06.25/outbox.cif.g09.slc.cpg/sg2_210_cif.got.tgz:418537.got - 2010.06.27 13:26:56.
