data_PCOD8019008
_publ_section_title
;
Structure prediction by ZEFSAII (Michael W. Deem and Ramdas Pophale) SiO2 
 PCOD8019008
Probable space group: P -1
;
_chemical_formula_sum "Si O2"
_cell_formula_units_Z 16
_cell_length_a 24.652181
_cell_length_b 12.991607
_cell_length_c 6.364395
_cell_angle_alpha 127.940675
_cell_angle_beta 53.687658
_cell_angle_gamma 154.180518
_cell_volume 695.675171
_symmetry_space_group_name_H-M "P -1"
_symmetry_group_IT_number 2
_symmetry_cell_setting 'triclinic'
loop_
_space_group_symop_operation_xyz
x,y,z
-x,-y,-z
loop_
_atom_site_type_symbol
_atom_site_label
_atom_site_fract_x
_atom_site_fract_y
_atom_site_fract_z
Si Si1 0.305259 0.392473 0.849131
Si Si2 0.616381 0.720407 0.265033
Si Si3 0.815003 0.217547 0.638720
Si Si4 0.018153 0.397971 0.595856
Si Si5 0.858537 0.523759 0.196077
Si Si6 0.973358 0.081882 0.026411
Si Si7 0.377387 0.711366 0.383062
Si Si8 0.636691 0.572378 0.679494
O O1 0.405502 0.443191 0.743841
O O2 0.273327 0.324553 0.589432
O O3 0.175365 0.154310 0.975762
O O4 0.361078 0.627666 0.076142
O O5 0.492505 0.589881 0.321447
O O6 0.687194 0.943463 0.518485
O O7 0.687978 0.774846 0.962372
O O8 0.892938 0.351374 0.409908
O O9 0.878715 0.229878 0.686647
O O10 0.792405 0.322828 0.923260
O O11 0.058936 0.433840 0.785522
O O12 0.025843 0.280740 0.298637
O O13 0.748488 0.415085 0.437331
O O14 0.950422 0.781049 0.197488
O O15 0.000000 0.000000 0.000000
O O16 0.390855 0.603965 0.353081
O O17 0.500000 0.000000 0.500000
#
# Coordination Sequence:
#
# PCOD8019008 Si02
#       8
#     2   2   2   2   2   2   2   2
#     4  11  23  44  69  96 134 172 226 281 332 398
#     4  10  22  43  69 102 130 170 230 274 338 406
#     4  10  22  42  67 101 135 172 225 282 336 404
#     4  10  22  41  64 101 134 172 226 278 338 406
#     4  11  25  43  69  99 138 185 222 275 345 398
#     4  11  23  42  67  99 137 179 228 279 330 405
#     4  11  27  45  63 102 134 176 229 270 332 414
#     4  10  24  44  70  97 133 177 222 281 336 394
#
# _framework density 22.999238999999999
#
# number of rings (size 3 to 8) (size 9 to 14) (size 15 to 20)
#    0.000    1.500    1.250    2.250    3.500    6.500 
#    0.000    0.000    0.000    0.000    0.000    0.000 
#    0.000    0.000    0.000    0.000    0.000    0.000 
#
# Total GULP energy -198235.620781 kJ/mol
# GULP energy per Si atom -12389.726299 kJ/mol
# Density = 2.294689 g / cm^3
# Si number density = 22.999239 Si / 1000 Ang^3
#
#
#
# Elastic Constant Matrix: (Units=GPa)
#
#
# Indices 1 2 3 4 5 6 
#
# 1 121.4029 25.2288 9.6898 -2.6635 -0.2535 -6.1511
# 2 25.2288 76.8545 26.1997 14.3649 -0.2233 -2.2495
# 3 9.6898 26.1997 107.4040 13.7827 7.2679 -5.9944
# 4 -2.6635 14.3649 13.7827 37.5749 -1.4619 3.0196
# 5 -0.2535 -0.2233 7.2679 -1.4619 30.3193 0.8428
# 6 -6.1511 -2.2495 -5.9944 3.0196 0.8428 28.0097
#
#
#
# Elastic Compliance Matrix: (Units=1/GPa)
#
#
# Indices 1 2 3 4 5 6 
#
# 1 0.009032 -0.003194 -0.000196 0.001820 0.000145 0.001484
# 2 -0.003194 0.016078 -0.002960 -0.005308 0.000531 0.000512
# 3 -0.000196 -0.002960 0.010782 -0.003144 -0.002828 0.002451
# 4 0.001820 -0.005308 -0.003144 0.030339 0.002305 -0.004040
# 5 0.000145 0.000531 -0.002828 0.002305 0.033826 -0.001797
# 6 0.001484 0.000512 0.002451 -0.004040 -0.001797 0.037083
#
#
# Mechanical properties :
#
#
# Convention : Reuss Voigt Hill
#
# Bulk Modulus (GPa) = 43.12032 47.54420 45.33226
# Shear Modulus (GPa) = 31.73158 35.48364 33.60761
#
# Velocity S-wave (km/s) = 3.71843 3.93213 3.82678
# Velocity P-wave (km/s) = 6.10123 6.42904 6.26727
#
# Compressibility (1/GPa) = 0.02319092
#
# Stress axis : x y z
#
# Youngs Moduli (GPa) = 110.71831 62.19734 92.74726
#
# Poissons Ratio (x) = 0.19867 0.01819
# Poissons Ratio (y) = 0.35366 0.27453
# Poissons Ratio (z) = 0.02172 0.18410
#
# Static dielectric constant tensor:
#      x y z
#    x 4.102670 0.459000 0.016810 
#    y 0.459000 1.913800 0.367370 
#    z 0.016810 0.367370 4.610640 
# 
# 
# High freq. dielectric constant tensor:
#      x y z
#    x 1.919800 -0.002110 -0.001710 
#    y -0.002110 1.882260 0.012810 
#    z -0.001710 0.012810 1.925750 
# 
# From -- ./inp_files/123759.got.cif
#   From: 2010.06.25/outbox.cif.g09.slc.cpg/sg2_62_cif.got.tgz:123759.got - 2010.06.27 13:26:56.
