data_PCOD8019756
_publ_section_title
;
Structure prediction by ZEFSAII (Michael W. Deem and Ramdas Pophale) SiO2 
 PCOD8019756
Probable space group: P -1
;
_chemical_formula_sum "Si O2"
_cell_formula_units_Z 16
_cell_length_a 12.683244
_cell_length_b 8.663092
_cell_length_c 18.970943
_cell_angle_alpha 101.422429
_cell_angle_beta 35.704582
_cell_angle_gamma 130.006111
_cell_volume 642.008593
_symmetry_space_group_name_H-M "P -1"
_symmetry_group_IT_number 2
_symmetry_cell_setting 'triclinic'
loop_
_space_group_symop_operation_xyz
x,y,z
-x,-y,-z
loop_
_atom_site_type_symbol
_atom_site_label
_atom_site_fract_x
_atom_site_fract_y
_atom_site_fract_z
Si Si1 0.096338 0.601293 0.746393
Si Si2 0.612067 0.044259 0.142000
Si Si3 0.401671 0.475601 0.409937
Si Si4 0.682362 0.359442 0.228691
Si Si5 0.614284 0.656739 0.877906
Si Si6 0.610298 0.709351 0.166267
Si Si7 0.775445 0.983278 0.345569
Si Si8 0.726102 0.081515 0.817350
O O1 0.165285 0.643751 0.795277
O O2 0.009419 0.719000 0.783659
O O3 0.809465 0.261156 0.852886
O O4 0.423731 0.793912 0.542712
O O5 0.472200 0.090142 0.267085
O O6 0.474609 0.781583 0.224767
O O7 0.500616 0.981479 0.116718
O O8 0.018501 0.339090 0.950945
O O9 0.450498 0.325278 0.383847
O O10 0.395070 0.499521 0.331859
O O11 0.054088 0.269949 0.613915
O O12 0.711290 0.796489 0.307186
O O13 0.463200 0.459055 0.874514
O O14 0.020355 0.933393 0.690135
O O15 0.532567 0.783358 0.924048
O O16 0.500000 0.500000 0.000000
O O17 0.000000 0.000000 0.000000
#
# Coordination Sequence:
#
# PCOD8019756 Si02
#       8
#     2   2   2   2   2   2   2   2
#     4  10  22  41  71  95 138 175 220 281 331 403
#     4  11  26  42  64 100 134 174 230 272 335 400
#     4  11  23  45  74  97 139 180 223 279 332 406
#     4  11  23  40  67  95 132 185 218 279 329 395
#     4  12  27  41  66  99 136 175 225 279 331 402
#     4  12  25  45  68  97 135 180 224 277 341 398
#     4  10  22  43  66 104 130 176 227 270 341 395
#     4  11  26  44  68 105 134 178 229 276 339 398
#
# _framework density 24.921783999999999
#
# number of rings (size 3 to 8) (size 9 to 14) (size 15 to 20)
#    0.000    1.000    1.250    4.500    5.250    6.000 
#    0.000    0.000    0.000    0.000    0.000    0.000 
#    0.000    0.000    0.000    0.000    0.000    0.000 
#
# Total GULP energy -198474.251785 kJ/mol
# GULP energy per Si atom -12404.640737 kJ/mol
# Density = 2.486506 g / cm^3
# Si number density = 24.921784 Si / 1000 Ang^3
#
#
#
# Elastic Constant Matrix: (Units=GPa)
#
#
# Indices 1 2 3 4 5 6 
#
# 1 144.0490 57.2446 10.2252 3.2632 3.6582 2.5543
# 2 57.2446 175.7064 33.2679 9.7591 4.0045 6.6062
# 3 10.2252 33.2679 39.9832 4.3893 10.3612 -0.9739
# 4 3.2632 9.7591 4.3893 38.7734 -2.7025 1.3935
# 5 3.6582 4.0045 10.3612 -2.7025 37.1643 6.0610
# 6 2.5543 6.6062 -0.9739 1.3935 6.0610 54.7660
#
#
#
# Elastic Compliance Matrix: (Units=1/GPa)
#
#
# Indices 1 2 3 4 5 6 
#
# 1 0.007987 -0.002646 0.000325 -0.000086 -0.000601 0.000021
# 2 -0.002646 0.007754 -0.006009 -0.000928 0.001200 -0.001028
# 3 0.000325 -0.006009 0.032663 -0.002931 -0.009090 0.002371
# 4 -0.000086 -0.000928 -0.002931 0.026608 0.003015 -0.000947
# 5 -0.000601 0.001200 -0.009090 0.003015 0.030194 -0.003697
# 6 0.000021 -0.001028 0.002371 -0.000947 -0.003697 0.018858
#
#
# Mechanical properties :
#
#
# Convention : Reuss Voigt Hill
#
# Bulk Modulus (GPa) = 31.50315 62.35713 46.93014
# Shear Modulus (GPa) = 33.04570 43.40748 38.22659
#
# Velocity S-wave (km/s) = 3.64535 4.17795 3.92070
# Velocity P-wave (km/s) = 5.51238 6.95336 6.27437
#
# Compressibility (1/GPa) = 0.03174285
#
# Stress axis : x y z
#
# Youngs Moduli (GPa) = 125.19693 128.96534 30.61602
#
# Poissons Ratio (x) = 0.34125 -0.00994
# Poissons Ratio (y) = 0.33128 0.18398
# Poissons Ratio (z) = -0.04066 0.77499
#
# Static dielectric constant tensor:
#      x y z
#    x 4.659160 -0.098460 -0.095910 
#    y -0.098460 4.689430 -0.121480 
#    z -0.095910 -0.121480 4.604180 
# 
# 
# High freq. dielectric constant tensor:
#      x y z
#    x 2.002450 -0.005940 0.001230 
#    y -0.005940 2.002240 0.003970 
#    z 0.001230 0.003970 2.008330 
# 
# From -- ./inp_files/208329.got.cif
#   From: 2010.06.25/outbox.cif.g09.slc.cpg/sg2_105_cif.got.tgz:208329.got - 2010.06.27 13:26:56.
