data_PCOD8019193
_publ_section_title
;
Structure prediction by ZEFSAII (Michael W. Deem and Ramdas Pophale) SiO2 
 PCOD8019193
Probable space group: P -1
;
_chemical_formula_sum "Si O2"
_cell_formula_units_Z 12
_cell_length_a 10.177327
_cell_length_b 8.851430
_cell_length_c 11.196102
_cell_angle_alpha 57.299674
_cell_angle_beta 59.431421
_cell_angle_gamma 42.124950
_cell_volume 558.794380
_symmetry_space_group_name_H-M "P -1"
_symmetry_group_IT_number 2
_symmetry_cell_setting 'triclinic'
loop_
_space_group_symop_operation_xyz
x,y,z
-x,-y,-z
loop_
_atom_site_type_symbol
_atom_site_label
_atom_site_fract_x
_atom_site_fract_y
_atom_site_fract_z
Si Si1 0.406817 0.967746 0.218624
Si Si2 0.395614 0.412270 0.525835
Si Si3 0.048367 0.161491 0.448910
Si Si4 0.478232 0.310983 0.947979
Si Si5 0.771259 0.187196 0.062647
Si Si6 0.642179 0.062416 0.388905
O O1 0.539495 0.818811 0.336443
O O2 0.454473 0.773416 0.183558
O O3 0.174961 0.145082 0.287737
O O4 0.447312 0.136323 0.087231
O O5 0.500000 0.500000 0.500000
O O6 0.495576 0.335418 0.381194
O O7 0.159387 0.578236 0.554549
O O8 0.161156 0.093944 0.551742
O O9 0.000000 0.000000 0.500000
O O10 0.281032 0.587627 0.936720
O O11 0.653978 0.274857 0.954596
O O12 0.711804 0.057535 0.224973
O O13 0.000000 0.000000 0.000000
O O14 0.500000 0.000000 0.500000
#
# Coordination Sequence:
#
# PCOD8019193 Si02
#       6
#     2   2   2   2   2   2
#     4  10  22  41  65  95 129 164 219 267 325 376
#     4  11  21  39  66  95 128 166 214 273 322 378
#     4  11  23  38  70  98 123 165 221 268 324 384
#     4  10  24  42  62  91 132 174 207 266 319 390
#     4  11  25  41  66  91 132 174 217 255 325 392
#     4  11  25  43  65  98 133 166 215 275 328 378
#
# _framework density 21.474803999999999
#
# number of rings (size 3 to 8) (size 9 to 14) (size 15 to 20)
#    0.000    1.333    3.333    3.000    2.333    4.667 
#    0.000    3.333    0.000    0.000    0.000    0.000 
#    0.000    0.000    0.000    0.000    0.000    0.000 
#
# Total GULP energy -148684.598995 kJ/mol
# GULP energy per Si atom -12390.383250 kJ/mol
# Density = 2.142593 g / cm^3
# Si number density = 21.474804 Si / 1000 Ang^3
#
#
#
# Elastic Constant Matrix: (Units=GPa)
#
#
# Indices 1 2 3 4 5 6 
#
# 1 87.0332 39.0045 10.6096 8.2718 -2.6726 -14.2099
# 2 39.0045 145.4172 37.9794 31.9649 -8.3613 -24.0975
# 3 10.6096 37.9794 80.6747 18.6555 1.5095 -12.2991
# 4 8.2718 31.9649 18.6555 41.9320 3.8052 -8.9226
# 5 -2.6726 -8.3613 1.5095 3.8052 28.4908 3.9010
# 6 -14.2099 -24.0975 -12.2991 -8.9226 3.9010 43.9201
#
#
#
# Elastic Compliance Matrix: (Units=1/GPa)
#
#
# Indices 1 2 3 4 5 6 
#
# 1 0.013327 -0.003253 0.000096 0.000381 -0.000122 0.002642
# 2 -0.003253 0.010337 -0.002801 -0.005791 0.003327 0.002363
# 3 0.000096 -0.002801 0.014953 -0.003990 -0.001345 0.001990
# 4 0.000381 -0.005791 -0.003990 0.031073 -0.005968 0.002671
# 5 -0.000122 0.003327 -0.001345 -0.005968 0.037360 -0.003122
# 6 0.002642 0.002363 0.001990 0.002671 -0.003122 0.026297
#
#
# Mechanical properties :
#
#
# Convention : Reuss Voigt Hill
#
# Bulk Modulus (GPa) = 37.45338 54.25689 45.85514
# Shear Modulus (GPa) = 32.43317 37.90401 35.16859
#
# Velocity S-wave (km/s) = 3.89046 4.20580 4.05120
# Velocity P-wave (km/s) = 6.13672 6.99323 6.57893
#
# Compressibility (1/GPa) = 0.02669986
#
# Stress axis : x y z
#
# Youngs Moduli (GPa) = 75.03372 96.74408 66.87610
#
# Poissons Ratio (x) = 0.31467 -0.00639
# Poissons Ratio (y) = 0.24406 0.18735
# Poissons Ratio (z) = -0.00717 0.27102
#
# Static dielectric constant tensor:
#      x y z
#    x 3.643020 0.736180 0.439990 
#    y 0.736180 3.259460 0.009040 
#    z 0.439990 0.009040 4.105670 
# 
# 
# High freq. dielectric constant tensor:
#      x y z
#    x 1.842300 0.010770 0.002360 
#    y 0.010770 1.851800 0.007960 
#    z 0.002360 0.007960 1.851430 
# 
# From -- ./inp_files/256361.got.cif
#   From: 2010.06.25/outbox.cif.g09.slc.cpg/sg2_129_cif.got.tgz:256361.got - 2010.06.27 13:26:56.
