data_PCOD8019434
_publ_section_title
;
Structure prediction by ZEFSAII (Michael W. Deem and Ramdas Pophale) SiO2 
 PCOD8019434
Probable space group: P -1
;
_chemical_formula_sum "Si O2"
_cell_formula_units_Z 12
_cell_length_a 7.518000
_cell_length_b 8.975368
_cell_length_c 7.941643
_cell_angle_alpha 114.050081
_cell_angle_beta 102.621778
_cell_angle_gamma 70.707727
_cell_volume 459.685630
_symmetry_space_group_name_H-M "P -1"
_symmetry_group_IT_number 2
_symmetry_cell_setting 'triclinic'
loop_
_space_group_symop_operation_xyz
x,y,z
-x,-y,-z
loop_
_atom_site_type_symbol
_atom_site_label
_atom_site_fract_x
_atom_site_fract_y
_atom_site_fract_z
Si Si1 0.538566 0.349364 0.755339
Si Si2 0.228919 0.421975 0.002614
Si Si3 0.779845 0.436274 0.408771
Si Si4 0.133581 0.274121 0.243672
Si Si5 0.776741 0.004937 0.627425
Si Si6 0.984617 0.248674 0.669611
O O1 0.420138 0.356561 0.904975
O O2 0.437536 0.494658 0.666972
O O3 0.582287 0.152435 0.614556
O O4 0.747305 0.390904 0.848001
O O5 0.039919 0.412189 0.848951
O O6 0.235483 0.295507 0.101479
O O7 0.830854 0.610702 0.540345
O O8 0.901190 0.334275 0.226817
O O9 0.814308 0.317320 0.527890
O O10 0.220323 0.078089 0.225033
O O11 0.941482 0.102961 0.709843
O O12 0.820711 0.852705 0.430387
#
# Coordination Sequence:
#
# PCOD8019434 Si02
#       6
#     2   2   2   2   2   2
#     4  11  25  43  66  99 133 168 217 275 325 375
#     4  11  25  42  67  98 133 171 216 271 326 381
#     4  10  22  42  69  95 128 177 221 257 320 402
#     4  10  22  41  67  96 131 174 218 262 322 396
#     4  10  23  43  68  96 130 172 219 265 321 391
#     4  10  23  46  71  93 127 178 221 259 320 398
#
# _framework density 26.104799
#
# number of rings (size 3 to 8) (size 9 to 14) (size 15 to 20)
#    0.000    1.667    0.000    4.000    0.000   15.333 
#    0.000   10.000    0.000    4.000    0.000    0.000 
#    0.000    0.000    0.000    0.000    0.000    0.000 
#
# Total GULP energy -148660.348524 kJ/mol
# GULP energy per Si atom -12388.362377 kJ/mol
# Density = 2.604538 g / cm^3
# Si number density = 26.104799 Si / 1000 Ang^3
#
#
#
# Elastic Constant Matrix: (Units=GPa)
#
#
# Indices 1 2 3 4 5 6 
#
# 1 107.5096 43.7030 47.3700 -28.3313 2.1036 0.9616
# 2 43.7030 180.6088 66.9577 -26.4693 -11.5334 -2.9722
# 3 47.3700 66.9577 118.9910 -10.4644 -17.3427 0.5519
# 4 -28.3313 -26.4693 -10.4644 38.8727 8.0685 -7.4899
# 5 2.1036 -11.5334 -17.3427 8.0685 33.7612 -10.8606
# 6 0.9616 -2.9722 0.5519 -7.4899 -10.8606 43.9745
#
#
#
# Elastic Compliance Matrix: (Units=1/GPa)
#
#
# Indices 1 2 3 4 5 6 
#
# 1 0.014832 -0.000363 -0.005738 0.010345 -0.006508 -0.000122
# 2 -0.000363 0.007671 -0.003794 0.004165 0.000121 0.001313
# 3 -0.005738 -0.003794 0.013488 -0.004509 0.007304 0.000736
# 4 0.010345 0.004165 -0.004509 0.037608 -0.009157 0.004256
# 5 -0.006508 0.000121 0.007304 -0.009157 0.038590 0.008030
# 6 -0.000122 0.001313 0.000736 0.004256 0.008030 0.025531
#
#
# Mechanical properties :
#
#
# Convention : Reuss Voigt Hill
#
# Bulk Modulus (GPa) = 61.72844 80.35234 71.04039
# Shear Modulus (GPa) = 30.69142 39.92693 35.30917
#
# Velocity S-wave (km/s) = 3.43257 3.91511 3.68175
# Velocity P-wave (km/s) = 6.27756 7.16135 6.73397
#
# Compressibility (1/GPa) = 0.01619999
#
# Stress axis : x y z
#
# Youngs Moduli (GPa) = 67.42117 130.35866 74.13896
#
# Poissons Ratio (x) = 0.04732 0.42545
# Poissons Ratio (y) = 0.02447 0.28130
# Poissons Ratio (z) = 0.38690 0.49461
#
# Static dielectric constant tensor:
#      x y z
#    x 5.143020 -0.143050 -0.294070 
#    y -0.143050 4.774270 0.259150 
#    z -0.294070 0.259150 4.642760 
# 
# 
# High freq. dielectric constant tensor:
#      x y z
#    x 2.074030 -0.000250 -0.034110 
#    y -0.000250 2.052460 0.003100 
#    z -0.034110 0.003100 2.021960 
# 
# From -- ./inp_files/148101.got.cif
#   From: 2010.06.25/outbox.cif.g09.slc.cpg/sg2_75_cif.got.tgz:148101.got - 2010.06.27 13:26:56.
