data_PCOD8019431
_publ_section_title
;
Structure prediction by ZEFSAII (Michael W. Deem and Ramdas Pophale) SiO2 
 PCOD8019431
Probable space group: P -1
;
_chemical_formula_sum "Si O2"
_cell_formula_units_Z 14
_cell_length_a 12.822943
_cell_length_b 8.549567
_cell_length_c 11.376980
_cell_angle_alpha 94.290295
_cell_angle_beta 34.787641
_cell_angle_gamma 112.212584
_cell_volume 589.590383
_symmetry_space_group_name_H-M "P -1"
_symmetry_group_IT_number 2
_symmetry_cell_setting 'triclinic'
loop_
_space_group_symop_operation_xyz
x,y,z
-x,-y,-z
loop_
_atom_site_type_symbol
_atom_site_label
_atom_site_fract_x
_atom_site_fract_y
_atom_site_fract_z
Si Si1 0.977871 0.905171 0.702764
Si Si2 0.755897 0.223075 0.874032
Si Si3 0.695774 0.884944 0.776173
Si Si4 0.926404 0.388342 0.322225
Si Si5 0.502804 0.726865 0.408882
Si Si6 0.780291 0.562544 0.160397
Si Si7 0.856208 0.094882 0.004829
O O1 0.747850 0.797537 0.835236
O O2 0.069516 0.776325 0.628629
O O3 0.151476 0.087875 0.474346
O O4 0.954685 0.980864 0.853018
O O5 0.976535 0.431947 0.672086
O O6 0.735753 0.134906 0.016618
O O7 0.756287 0.093670 0.765354
O O8 0.555321 0.248087 0.039461
O O9 0.676269 0.316692 0.526126
O O10 0.078620 0.458906 0.068691
O O11 0.627191 0.625556 0.251025
O O12 0.379251 0.644282 0.643443
O O13 0.678905 0.955090 0.260674
O O14 0.944448 0.712810 0.113862
#
# Coordination Sequence:
#
# PCOD8019431 Si02
#       7
#     2   2   2   2   2   2   2
#     4  10  22  41  67  96 130 171 225 271 335 392
#     4  10  22  41  69  94 133 172 223 276 331 395
#     4   9  21  44  65  96 126 176 222 278 335 391
#     4  12  24  43  65 103 133 173 224 271 327 402
#     4  11  24  41  65  95 139 177 218 267 322 383
#     4  11  25  45  62 103 141 172 222 273 316 404
#     4  11  22  45  67  96 140 179 213 273 327 395
#
# _framework density 23.745301000000001
#
# number of rings (size 3 to 8) (size 9 to 14) (size 15 to 20)
#    0.000    1.429    2.857    1.714    0.000    4.000 
#    2.571    0.000    0.000    0.000    0.000    0.000 
#    0.000    0.000    0.000    0.000    0.000    0.000 
#
# Total GULP energy -173591.252033 kJ/mol
# GULP energy per Si atom -12399.375145 kJ/mol
# Density = 2.369126 g / cm^3
# Si number density = 23.745301 Si / 1000 Ang^3
#
#
#
# Elastic Constant Matrix: (Units=GPa)
#
#
# Indices 1 2 3 4 5 6 
#
# 1 107.7061 23.7184 28.6715 7.9272 -29.2953 -14.2474
# 2 23.7184 47.8098 8.8228 -9.5907 -3.7588 -1.4093
# 3 28.6715 8.8228 92.1418 -6.4058 -6.7092 6.8226
# 4 7.9272 -9.5907 -6.4058 22.5818 -8.4456 -3.9193
# 5 -29.2953 -3.7588 -6.7092 -8.4456 49.0952 8.9712
# 6 -14.2474 -1.4093 6.8226 -3.9193 8.9712 28.6855
#
#
#
# Elastic Compliance Matrix: (Units=1/GPa)
#
#
# Indices 1 2 3 4 5 6 
#
# 1 0.014717 -0.007200 -0.004332 -0.006446 0.005548 0.005370
# 2 -0.007200 0.027262 0.000707 0.014380 0.000468 -0.000587
# 3 -0.004332 0.000707 0.012908 0.005013 0.000974 -0.004807
# 4 -0.006446 0.014380 0.005013 0.057172 0.007447 0.001795
# 5 0.005548 0.000468 0.000974 0.007447 0.025962 -0.004555
# 6 0.005370 -0.000587 -0.004807 0.001795 -0.004555 0.040312
#
#
# Mechanical properties :
#
#
# Convention : Reuss Voigt Hill
#
# Bulk Modulus (GPa) = 30.08615 41.12034 35.60325
# Shear Modulus (GPa) = 23.68968 32.50220 28.09594
#
# Velocity S-wave (km/s) = 3.16200 3.70372 3.44353
# Velocity P-wave (km/s) = 5.10185 5.97034 5.55310
#
# Compressibility (1/GPa) = 0.03323788
#
# Stress axis : x y z
#
# Youngs Moduli (GPa) = 67.94762 36.68116 77.46926
#
# Poissons Ratio (x) = 0.26412 0.33559
# Poissons Ratio (y) = 0.48925 -0.05480
# Poissons Ratio (z) = 0.29434 -0.02595
#
# Static dielectric constant tensor:
#      x y z
#    x 4.480820 -0.182130 -0.237720 
#    y -0.182130 4.078270 0.006920 
#    z -0.237720 0.006920 4.254240 
# 
# 
# High freq. dielectric constant tensor:
#      x y z
#    x 1.953440 -0.018370 -0.012950 
#    y -0.018370 1.920490 0.002930 
#    z -0.012950 0.002930 1.936810 
# 
# From -- ./inp_files/236714.got.cif
#   From: 2010.06.25/outbox.cif.g09.slc.cpg/sg2_119_cif.got.tgz:236714.got - 2010.06.27 13:26:56.
