data_PCOD8019559
_publ_section_title
;
Structure prediction by ZEFSAII (Michael W. Deem and Ramdas Pophale) SiO2 
 PCOD8019559
Probable space group: P -1
;
_chemical_formula_sum "Si O2"
_cell_formula_units_Z 14
_cell_length_a 12.395245
_cell_length_b 6.565794
_cell_length_c 15.582316
_cell_angle_alpha 137.373173
_cell_angle_beta 44.764882
_cell_angle_gamma 126.339162
_cell_volume 598.203318
_symmetry_space_group_name_H-M "P -1"
_symmetry_group_IT_number 2
_symmetry_cell_setting 'triclinic'
loop_
_space_group_symop_operation_xyz
x,y,z
-x,-y,-z
loop_
_atom_site_type_symbol
_atom_site_label
_atom_site_fract_x
_atom_site_fract_y
_atom_site_fract_z
Si Si1 0.189828 0.310944 0.836642
Si Si2 0.928807 0.267529 0.840551
Si Si3 0.458661 0.683833 0.707887
Si Si4 0.660479 0.236353 0.452077
Si Si5 0.386597 0.859576 0.355412
Si Si6 0.374347 0.178693 0.168148
Si Si7 0.882557 0.783747 0.443305
O O1 0.286788 0.588324 0.812811
O O2 0.036816 0.170979 0.826786
O O3 0.296926 0.052093 0.714585
O O4 0.147099 0.442961 0.993429
O O5 0.034558 0.360298 0.727328
O O6 0.797851 0.993024 0.802956
O O7 0.522409 0.395162 0.535714
O O8 0.585606 0.788410 0.743544
O O9 0.462605 0.956566 0.721571
O O10 0.596325 0.117166 0.544317
O O11 0.810365 0.496611 0.452668
O O12 0.377154 0.507807 0.224087
O O13 0.237399 0.006366 0.459086
O O14 0.500000 0.000000 0.000000
O O15 0.000000 0.000000 0.500000
#
# Coordination Sequence:
#
# PCOD8019559 Si02
#       7
#     2   2   2   2   2   2   2
#     4  11  23  43  66  97 141 179 213 275 338 401
#     4  11  24  43  66  97 139 173 221 275 339 399
#     4  10  22  44  69 101 128 178 230 271 331 399
#     4  10  22  41  68  97 131 178 222 273 330 396
#     4  10  22  41  70  96 131 171 226 287 323 385
#     4  11  23  45  69  96 131 175 229 282 330 392
#     4  11  23  42  69 102 132 175 230 271 334 402
#
# _framework density 23.403414999999999
#
# number of rings (size 3 to 8) (size 9 to 14) (size 15 to 20)
#    0.000    1.429    2.857    3.000    2.000    2.857 
#    5.143    1.429    0.000    0.000    0.000    0.000 
#    0.000    0.000    0.000    0.000    0.000    0.000 
#
# Total GULP energy -173551.177357 kJ/mol
# GULP energy per Si atom -12396.512668 kJ/mol
# Density = 2.335015 g / cm^3
# Si number density = 23.403415 Si / 1000 Ang^3
#
#
#
# Elastic Constant Matrix: (Units=GPa)
#
#
# Indices 1 2 3 4 5 6 
#
# 1 100.2850 34.6721 17.5503 5.3497 2.3045 8.5448
# 2 34.6721 149.7900 55.3570 1.9286 -0.5815 -3.0230
# 3 17.5503 55.3570 164.4968 8.0782 -7.8805 -10.2715
# 4 5.3497 1.9286 8.0782 33.2232 4.0028 -2.5388
# 5 2.3045 -0.5815 -7.8805 4.0028 30.2979 0.3619
# 6 8.5448 -3.0230 -10.2715 -2.5388 0.3619 41.0595
#
#
#
# Elastic Compliance Matrix: (Units=1/GPa)
#
#
# Indices 1 2 3 4 5 6 
#
# 1 0.011249 -0.002456 -0.000501 -0.001663 -0.000781 -0.002743
# 2 -0.002456 0.008171 -0.002504 0.000618 -0.000396 0.000528
# 3 -0.000501 -0.002504 0.007257 -0.001666 0.002078 0.001614
# 4 -0.001663 0.000618 -0.001666 0.031424 -0.004470 0.001957
# 5 -0.000781 -0.000396 0.002078 -0.004470 0.034188 0.000076
# 6 -0.002743 0.000528 0.001614 0.001957 0.000076 0.025489
#
#
# Mechanical properties :
#
#
# Convention : Reuss Voigt Hill
#
# Bulk Modulus (GPa) = 63.46782 69.97006 66.71894
# Shear Modulus (GPa) = 37.32718 41.38228 39.35473
#
# Velocity S-wave (km/s) = 3.99801 4.20958 4.10516
# Velocity P-wave (km/s) = 6.96348 7.32050 7.14422
#
# Compressibility (1/GPa) = 0.01575602
#
# Stress axis : x y z
#
# Youngs Moduli (GPa) = 88.90038 122.38404 137.79023
#
# Poissons Ratio (x) = 0.30053 0.06900
# Poissons Ratio (y) = 0.21831 0.34504
# Poissons Ratio (z) = 0.04452 0.30646
#
# Static dielectric constant tensor:
#      x y z
#    x 4.188870 0.204030 0.013250 
#    y 0.204030 4.487620 -0.019260 
#    z 0.013250 -0.019260 4.382060 
# 
# 
# High freq. dielectric constant tensor:
#      x y z
#    x 1.925850 0.020210 -0.000410 
#    y 0.020210 1.931750 -0.000940 
#    z -0.000410 -0.000940 1.940200 
# 
# From -- ./inp_files/75581.got.cif
#   From: 2010.06.25/outbox.cif.g09.slc.cpg/sg2_38_cif.got.tgz:75581.got - 2010.06.27 13:26:56.
