data_PCOD8019185
_publ_section_title
;
Structure prediction by ZEFSAII (Michael W. Deem and Ramdas Pophale) SiO2 
 PCOD8019185
Probable space group: P -1
;
_chemical_formula_sum "Si O2"
_cell_formula_units_Z 16
_cell_length_a 14.559679
_cell_length_b 14.244265
_cell_length_c 14.153271
_cell_angle_alpha 144.669278
_cell_angle_beta 149.465909
_cell_angle_gamma 31.817871
_cell_volume 746.630501
_symmetry_space_group_name_H-M "P -1"
_symmetry_group_IT_number 2
_symmetry_cell_setting 'triclinic'
loop_
_space_group_symop_operation_xyz
x,y,z
-x,-y,-z
loop_
_atom_site_type_symbol
_atom_site_label
_atom_site_fract_x
_atom_site_fract_y
_atom_site_fract_z
Si Si1 0.134084 0.905413 0.951094
Si Si2 0.022789 0.358160 0.483635
Si Si3 0.778649 0.854572 0.895987
Si Si4 0.017759 0.451932 0.867838
Si Si5 0.657362 0.634376 0.487977
Si Si6 0.508128 0.857522 0.967075
Si Si7 0.542774 0.810053 0.334330
Si Si8 0.630444 0.419582 0.453210
O O1 0.083369 0.759165 0.739720
O O2 0.373203 0.806984 0.113816
O O3 0.080567 0.067699 0.960425
O O4 0.000000 0.000000 0.000000
O O5 0.271186 0.237465 0.614715
O O6 0.000000 0.500000 0.500000
O O7 0.903694 0.467153 0.563178
O O8 0.645895 0.823541 0.671000
O O9 0.936636 0.654304 0.915569
O O10 0.608749 0.014764 0.942991
O O11 0.255617 0.301173 0.927221
O O12 0.868337 0.367108 0.640826
O O13 0.000000 0.500000 0.000000
O O14 0.574754 0.667699 0.333754
O O15 0.542479 0.567925 0.408138
O O16 0.377579 0.763408 0.734787
O O17 0.500000 0.000000 0.000000
O O18 0.500000 0.000000 0.500000
O O19 0.500000 0.500000 0.500000
#
# Coordination Sequence:
#
# PCOD8019185 Si02
#       8
#     2   2   2   2   2   2   2   2
#     4  12  23  40  66  99 135 178 221 276 331 397
#     4  10  22  41  65  94 136 173 224 280 330 394
#     4  11  24  43  69 100 139 174 228 278 329 405
#     4  11  23  47  69  98 135 176 217 280 342 391
#     4  10  22  43  65  96 135 176 220 279 331 395
#     4  12  24  45  72 100 135 177 226 279 332 404
#     4  11  21  42  67  95 132 172 222 273 332 388
#     4  11  23  43  70  98 138 174 222 278 338 400
#
# _framework density 21.429608999999999
#
# number of rings (size 3 to 8) (size 9 to 14) (size 15 to 20)
#    0.000    1.000    5.000    2.250    0.000    5.500 
#    0.000    0.000    0.000    0.000    0.000    0.000 
#    0.000    0.000    0.000    0.000    0.000    0.000 
#
# Total GULP energy -198261.740788 kJ/mol
# GULP energy per Si atom -12391.358799 kJ/mol
# Density = 2.138083 g / cm^3
# Si number density = 21.429609 Si / 1000 Ang^3
#
#
#
# Elastic Constant Matrix: (Units=GPa)
#
#
# Indices 1 2 3 4 5 6 
#
# 1 151.0954 58.2899 48.1993 14.0925 10.9166 -9.5690
# 2 58.2899 128.1179 56.8435 0.4179 10.4883 -16.2289
# 3 48.1993 56.8435 164.2436 10.7254 19.8062 -3.1828
# 4 14.0925 0.4179 10.7254 43.7380 -0.3197 -1.5253
# 5 10.9166 10.4883 19.8062 -0.3197 36.6424 11.2533
# 6 -9.5690 -16.2289 -3.1828 -1.5253 11.2533 48.7141
#
#
#
# Elastic Compliance Matrix: (Units=1/GPa)
#
#
# Indices 1 2 3 4 5 6 
#
# 1 0.008571 -0.003212 -0.001070 -0.002451 -0.001314 0.000771
# 2 -0.003212 0.011026 -0.002710 0.001697 -0.001739 0.003320
# 3 -0.001070 -0.002710 0.007828 -0.001569 -0.003175 0.000083
# 4 -0.002451 0.001697 -0.001569 0.024046 0.001159 0.000467
# 5 -0.001314 -0.001739 -0.003175 0.001159 0.032524 -0.008522
# 6 0.000771 0.003320 0.000083 0.000467 -0.008522 0.023774
#
#
# Mechanical properties :
#
#
# Convention : Reuss Voigt Hill
#
# Bulk Modulus (GPa) = 74.40205 85.56914 79.98560
# Shear Modulus (GPa) = 39.60885 44.49385 42.05135
#
# Velocity S-wave (km/s) = 4.30388 4.56156 4.43459
# Velocity P-wave (km/s) = 7.71314 8.23170 7.97663
#
# Compressibility (1/GPa) = 0.01344049
#
# Stress axis : x y z
#
# Youngs Moduli (GPa) = 116.67159 90.69068 127.75141
#
# Poissons Ratio (x) = 0.29126 0.13674
# Poissons Ratio (y) = 0.37469 0.34627
# Poissons Ratio (z) = 0.12488 0.24581
#
# Static dielectric constant tensor:
#      x y z
#    x 0.685520 0.692480 -2.832690 
#    y 0.692480 4.111510 0.680410 
#    z -2.832690 0.680410 1.984150 
# 
# 
# High freq. dielectric constant tensor:
#      x y z
#    x 1.864470 0.000240 -0.000630 
#    y 0.000240 1.837180 0.014020 
#    z -0.000630 0.014020 1.841910 
# 
# From -- ./inp_files/493455.got.cif
#   From: 2010.06.25/outbox.cif.g09.slc.cpg/sg2_247_cif.got.tgz:493455.got - 2010.06.27 13:26:56.
