data_PCOD8019934
_publ_section_title
;
Structure prediction by ZEFSAII (Michael W. Deem and Ramdas Pophale) SiO2 
 PCOD8019934
Probable space group: P -1
;
_chemical_formula_sum "Si O2"
_cell_formula_units_Z 16
_cell_length_a 6.763092
_cell_length_b 23.171592
_cell_length_c 9.215821
_cell_angle_alpha 45.559043
_cell_angle_beta 50.988541
_cell_angle_gamma 54.252285
_cell_volume 773.956585
_symmetry_space_group_name_H-M "P -1"
_symmetry_group_IT_number 2
_symmetry_cell_setting 'triclinic'
loop_
_space_group_symop_operation_xyz
x,y,z
-x,-y,-z
loop_
_atom_site_type_symbol
_atom_site_label
_atom_site_fract_x
_atom_site_fract_y
_atom_site_fract_z
Si Si1 0.729421 0.035054 0.648524
Si Si2 0.486588 0.774729 0.585306
Si Si3 0.368223 0.569576 0.249601
Si Si4 0.647778 0.389922 0.490773
Si Si5 0.976067 0.311227 0.013667
Si Si6 0.539729 0.767759 0.245361
Si Si7 0.833534 0.642814 0.852196
Si Si8 0.268896 0.953691 0.032254
O O1 0.617897 0.130399 0.482166
O O2 0.510878 0.985568 0.798520
O O3 0.780671 0.026665 0.810452
O O4 0.000000 0.000000 0.500000
O O5 0.249971 0.730644 0.759653
O O6 0.617111 0.768281 0.377676
O O7 0.703795 0.731160 0.678824
O O8 0.403604 0.470316 0.427590
O O9 0.300362 0.618476 0.346856
O O10 0.132689 0.607256 0.180751
O O11 0.638094 0.583451 0.036576
O O12 0.588811 0.307238 0.600448
O O13 0.904245 0.404600 0.268702
O O14 0.112361 0.341564 0.033651
O O15 0.191907 0.241470 0.950549
O O16 0.331363 0.854496 0.147413
O O17 0.000000 0.000000 0.000000
#
# Coordination Sequence:
#
# PCOD8019934 Si02
#       8
#     2   2   2   2   2   2   2   2
#     4  10  22  42  63  91 123 164 203 253 309 367
#     4  10  23  39  63  88 122 160 203 244 301 364
#     4  10  24  42  59  89 121 159 204 249 299 354
#     4  11  22  41  63  86 121 162 201 246 304 361
#     4  11  22  40  61  91 122 155 204 253 294 358
#     4  11  22  41  62  90 122 162 199 248 306 360
#     4  11  22  40  61  89 120 159 201 250 298 355
#     4  10  24  41  63  93 127 158 205 258 305 365
#
# _framework density 20.672993000000002
#
# number of rings (size 3 to 8) (size 9 to 14) (size 15 to 20)
#    0.000    1.500    2.500    1.875    1.750    2.500 
#    4.500    0.000    0.000    0.000    0.000    0.000 
#    0.000    0.000    0.000    0.000    0.000    0.000 
#
# Total GULP energy -198465.664018 kJ/mol
# GULP energy per Si atom -12404.104001 kJ/mol
# Density = 2.062594 g / cm^3
# Si number density = 20.672993 Si / 1000 Ang^3
#
#
#
# Elastic Constant Matrix: (Units=GPa)
#
#
# Indices 1 2 3 4 5 6 
#
# 1 111.8843 49.4928 36.6226 -11.7709 22.2392 -12.6536
# 2 49.4928 115.2326 40.8352 -6.0691 3.8015 -9.8365
# 3 36.6226 40.8352 74.3128 -2.8987 9.3977 -9.4211
# 4 -11.7709 -6.0691 -2.8987 49.0354 -8.7032 -5.9033
# 5 22.2392 3.8015 9.3977 -8.7032 38.2037 -5.5049
# 6 -12.6536 -9.8365 -9.4211 -5.9033 -5.5049 24.3999
#
#
#
# Elastic Compliance Matrix: (Units=1/GPa)
#
#
# Indices 1 2 3 4 5 6 
#
# 1 0.013516 -0.004104 -0.003184 0.001921 -0.005764 0.003289
# 2 -0.004104 0.012256 -0.004800 0.000972 0.002836 0.001834
# 3 -0.003184 -0.004800 0.018261 -0.000233 -0.001781 0.003006
# 4 0.001921 0.000972 -0.000233 0.022847 0.005200 0.007999
# 5 -0.005764 0.002836 -0.001781 0.005200 0.031719 0.005881
# 6 0.003289 0.001834 0.003006 0.007999 0.005881 0.047851
#
#
# Mechanical properties :
#
#
# Convention : Reuss Voigt Hill
#
# Bulk Modulus (GPa) = 50.36670 61.70344 56.03507
# Shear Modulus (GPa) = 28.20927 33.95975 31.08451
#
# Velocity S-wave (km/s) = 3.69799 4.05743 3.88187
# Velocity P-wave (km/s) = 6.53069 7.20156 6.87431
#
# Compressibility (1/GPa) = 0.01985439
#
# Stress axis : x y z
#
# Youngs Moduli (GPa) = 73.98818 81.59075 54.76161
#
# Poissons Ratio (x) = 0.33488 0.17438
# Poissons Ratio (y) = 0.30368 0.26288
# Poissons Ratio (z) = 0.23561 0.39167
#
# Static dielectric constant tensor:
#      x y z
#    x 3.605510 -0.110680 0.048300 
#    y -0.110680 3.780840 0.032810 
#    z 0.048300 0.032810 3.946310 
# 
# 
# High freq. dielectric constant tensor:
#      x y z
#    x 1.802120 -0.007990 0.001900 
#    y -0.007990 1.814790 0.003210 
#    z 0.001900 0.003210 1.824440 
# 
# From -- ./inp_files/47360.got.cif
#   From: 2010.06.25/outbox.cif.g09.slc.cpg/sg2_24_cif.got.tgz:47360.got - 2010.06.27 13:26:56.
