data_PCOD8019561
_publ_section_title
;
Structure prediction by ZEFSAII (Michael W. Deem and Ramdas Pophale) SiO2 
 PCOD8019561
Probable space group: P -1
;
_chemical_formula_sum "Si O2"
_cell_formula_units_Z 14
_cell_length_a 12.064623
_cell_length_b 9.159284
_cell_length_c 9.462595
_cell_angle_alpha 72.348488
_cell_angle_beta 131.247898
_cell_angle_gamma 125.889113
_cell_volume 630.949586
_symmetry_space_group_name_H-M "P -1"
_symmetry_group_IT_number 2
_symmetry_cell_setting 'triclinic'
loop_
_space_group_symop_operation_xyz
x,y,z
-x,-y,-z
loop_
_atom_site_type_symbol
_atom_site_label
_atom_site_fract_x
_atom_site_fract_y
_atom_site_fract_z
Si Si1 0.416655 0.145005 0.236674
Si Si2 0.900988 0.734846 0.545909
Si Si3 0.854161 0.037473 0.540722
Si Si4 0.858126 0.546488 0.847520
Si Si5 0.465619 0.827443 0.360079
Si Si6 0.868751 0.750319 0.063087
Si Si7 0.344921 0.513829 0.815889
O O1 0.490562 0.208956 0.436833
O O2 0.578607 0.277728 0.227591
O O3 0.369047 0.938999 0.239234
O O4 0.249716 0.161165 0.060455
O O5 0.893362 0.605348 0.697991
O O6 0.729064 0.618888 0.341556
O O7 0.067313 0.804268 0.559566
O O8 0.908626 0.900480 0.579779
O O9 0.940316 0.109396 0.748481
O O10 0.646663 0.941908 0.393986
O O11 0.662783 0.369551 0.759415
O O12 0.887466 0.705796 0.930752
O O13 0.000000 0.500000 0.000000
O O14 0.791215 0.564128 0.144762
O O15 0.500000 0.500000 0.000000
#
# Coordination Sequence:
#
# PCOD8019561 Si02
#       7
#     2   2   2   2   2   2   2
#     4  10  22  41  68  97 133 176 225 275 331 397
#     4  10  22  44  69  98 138 177 222 277 336 400
#     4  10  24  43  73 100 132 178 228 277 334 395
#     4  12  28  44  66 102 142 175 223 279 339 396
#     4  11  25  41  67 100 137 172 224 278 334 393
#     4  10  24  43  71  97 134 178 226 272 338 403
#     4   9  19  40  68  98 129 172 226 273 327 397
#
# _framework density 22.188777999999999
#
# number of rings (size 3 to 8) (size 9 to 14) (size 15 to 20)
#    0.000    1.714    1.429    0.857   10.000    3.429 
#    0.000    4.286    0.000    0.000    0.000    0.000 
#    0.000    0.000    0.000    0.000    0.000    0.000 
#
# Total GULP energy -173490.194742 kJ/mol
# GULP energy per Si atom -12392.156767 kJ/mol
# Density = 2.213827 g / cm^3
# Si number density = 22.188778 Si / 1000 Ang^3
#
#
#
# Elastic Constant Matrix: (Units=GPa)
#
#
# Indices 1 2 3 4 5 6 
#
# 1 92.8265 33.6948 58.0175 -5.8283 8.0759 11.5333
# 2 33.6948 89.2278 51.8322 0.8617 -0.7059 17.4398
# 3 58.0175 51.8322 127.2136 8.4255 -7.5456 13.3411
# 4 -5.8283 0.8617 8.4255 30.3065 4.2407 -3.5935
# 5 8.0759 -0.7059 -7.5456 4.2407 33.8020 0.8561
# 6 11.5333 17.4398 13.3411 -3.5935 0.8561 30.3057
#
#
#
# Elastic Compliance Matrix: (Units=1/GPa)
#
#
# Indices 1 2 3 4 5 6 
#
# 1 0.017571 -0.001915 -0.007945 0.006459 -0.006793 -0.001129
# 2 -0.001915 0.016080 -0.005012 -0.000163 -0.000145 -0.006334
# 3 -0.007945 -0.005012 0.014440 -0.006381 0.005852 -0.001371
# 4 0.006459 -0.000163 -0.006381 0.037723 -0.007834 0.005139
# 5 -0.006793 -0.000145 0.005852 -0.007834 0.033539 -0.001784
# 6 -0.001129 -0.006334 -0.001371 0.005139 -0.001784 0.038335
#
#
# Mechanical properties :
#
#
# Convention : Reuss Voigt Hill
#
# Bulk Modulus (GPa) = 54.50743 66.26189 60.38466
# Shear Modulus (GPa) = 25.83347 29.93105 27.88226
#
# Velocity S-wave (km/s) = 3.41582 3.67676 3.54869
# Velocity P-wave (km/s) = 6.33844 6.92476 6.63808
#
# Compressibility (1/GPa) = 0.01834612
#
# Stress axis : x y z
#
# Youngs Moduli (GPa) = 56.91259 62.18813 69.25197
#
# Poissons Ratio (x) = 0.11910 0.55024
# Poissons Ratio (y) = 0.10900 0.34709
# Poissons Ratio (z) = 0.45219 0.31168
#
# Static dielectric constant tensor:
#      x y z
#    x 5.482260 2.558720 -0.741720 
#    y 2.558720 7.343940 -0.662250 
#    z -0.741720 -0.662250 4.330380 
# 
# 
# High freq. dielectric constant tensor:
#      x y z
#    x 1.858060 0.026090 -0.007720 
#    y 0.026090 1.881370 -0.000850 
#    z -0.007720 -0.000850 1.882020 
# 
# From -- ./inp_files/158884.got.cif
#   From: 2010.06.25/outbox.cif.g09.slc.cpg/sg2_80_cif.got.tgz:158884.got - 2010.06.27 13:26:56.
