data_PCOD8019957
_publ_section_title
;
Structure prediction by ZEFSAII (Michael W. Deem and Ramdas Pophale) SiO2 
 PCOD8019957
Probable space group: P -1
;
_chemical_formula_sum "Si O2"
_cell_formula_units_Z 16
_cell_length_a 9.629894
_cell_length_b 11.758895
_cell_length_c 18.028946
_cell_angle_alpha 30.083736
_cell_angle_beta 135.246414
_cell_angle_gamma 121.928609
_cell_volume 698.977637
_symmetry_space_group_name_H-M "P -1"
_symmetry_group_IT_number 2
_symmetry_cell_setting 'triclinic'
loop_
_space_group_symop_operation_xyz
x,y,z
-x,-y,-z
loop_
_atom_site_type_symbol
_atom_site_label
_atom_site_fract_x
_atom_site_fract_y
_atom_site_fract_z
Si Si1 0.063938 0.383576 0.364491
Si Si2 0.751136 0.165178 0.449884
Si Si3 0.069766 0.378041 0.201360
Si Si4 0.576381 0.020508 0.099302
Si Si5 0.998158 0.233784 0.638117
Si Si6 0.088143 0.846628 0.189832
Si Si7 0.505210 0.768461 0.350923
Si Si8 0.665321 0.492391 0.892624
O O1 0.046955 0.470462 0.224526
O O2 0.078074 0.584138 0.314630
O O3 0.281433 0.190082 0.561935
O O4 0.873177 0.283173 0.370254
O O5 0.802148 0.214874 0.526761
O O6 0.507050 0.268931 0.290343
O O7 0.816642 0.892760 0.610476
O O8 0.214858 0.511594 0.137309
O O9 0.837925 0.442921 0.048673
O O10 0.454608 0.889627 0.182522
O O11 0.542748 0.289948 0.957963
O O12 0.813207 0.893530 0.268563
O O13 0.500000 0.000000 0.000000
O O14 0.015625 0.096910 0.800923
O O15 0.000000 0.500000 0.500000
O O16 0.316136 0.882307 0.268015
O O17 0.000000 0.000000 0.000000
O O18 0.500000 0.500000 0.500000
#
# Coordination Sequence:
#
# PCOD8019957 Si02
#       8
#     2   2   2   2   2   2   2   2
#     4  11  24  44  69  97 138 186 233 282 349 419
#     4  12  24  47  73 101 136 187 239 286 357 416
#     4  11  26  49  70 100 144 184 240 289 344 425
#     4  12  24  41  71 103 143 182 228 296 353 413
#     4  12  22  42  69 101 142 179 230 286 349 422
#     4  11  25  39  64 107 143 178 228 289 350 416
#     4  10  22  42  63  98 140 182 230 278 355 415
#     4  11  27  45  72 105 137 184 240 290 351 418
#
# _framework density 22.890574999999998
#
# number of rings (size 3 to 8) (size 9 to 14) (size 15 to 20)
#    0.000    0.750    3.750    3.000    8.750    0.500 
#    2.250    0.000    0.000    0.000    0.000    0.000 
#    0.000    0.000    0.000    0.000    0.000    0.000 
#
# Total GULP energy -198341.994613 kJ/mol
# GULP energy per Si atom -12396.374663 kJ/mol
# Density = 2.283848 g / cm^3
# Si number density = 22.890575 Si / 1000 Ang^3
#
#
#
# Elastic Constant Matrix: (Units=GPa)
#
#
# Indices 1 2 3 4 5 6 
#
# 1 104.3554 22.9728 20.9863 9.0877 -17.5388 1.5828
# 2 22.9728 58.8363 15.4920 8.5842 -3.1480 -0.4823
# 3 20.9863 15.4920 92.1454 7.0909 0.1816 5.3861
# 4 9.0877 8.5842 7.0909 31.6335 1.1086 -2.5380
# 5 -17.5388 -3.1480 0.1816 1.1086 58.7809 7.2758
# 6 1.5828 -0.4823 5.3861 -2.5380 7.2758 33.6657
#
#
#
# Elastic Compliance Matrix: (Units=1/GPa)
#
#
# Indices 1 2 3 4 5 6 
#
# 1 0.011506 -0.003530 -0.001797 -0.002163 0.003440 -0.001211
# 2 -0.003530 0.019509 -0.002218 -0.003741 0.000005 0.000517
# 3 -0.001797 -0.002218 0.011875 -0.001680 -0.000427 -0.001881
# 4 -0.002163 -0.003741 -0.001680 0.033955 -0.001887 0.003284
# 5 0.003440 0.000005 -0.000427 -0.001887 0.018603 -0.004256
# 6 -0.001211 0.000517 -0.001881 0.003284 -0.004256 0.031237
#
#
# Mechanical properties :
#
#
# Convention : Reuss Voigt Hill
#
# Bulk Modulus (GPa) = 35.97130 41.58213 38.77672
# Shear Modulus (GPa) = 33.10383 37.87508 35.48946
#
# Velocity S-wave (km/s) = 3.80699 4.07211 3.94178
# Velocity P-wave (km/s) = 5.92223 6.34937 6.13951
#
# Compressibility (1/GPa) = 0.02779994
#
# Stress axis : x y z
#
# Youngs Moduli (GPa) = 86.91215 51.25839 84.21310
#
# Poissons Ratio (x) = 0.18093 0.15130
# Poissons Ratio (y) = 0.30678 0.18682
# Poissons Ratio (z) = 0.15615 0.11371
#
# Static dielectric constant tensor:
#      x y z
#    x 4.422000 0.138040 0.051780 
#    y 0.138040 3.819230 0.120070 
#    z 0.051780 0.120070 4.465790 
# 
# 
# High freq. dielectric constant tensor:
#      x y z
#    x 1.918590 0.010980 -0.006110 
#    y 0.010980 1.881690 0.009960 
#    z -0.006110 0.009960 1.915860 
# 
# From -- ./inp_files/186502.got.cif
#   From: 2010.06.25/outbox.cif.g09.slc.cpg/sg2_94_cif.got.tgz:186502.got - 2010.06.27 13:26:56.
