data_PCOD8019445
_publ_section_title
;
Structure prediction by ZEFSAII (Michael W. Deem and Ramdas Pophale) SiO2 
 PCOD8019445
Probable space group: P -1
;
_chemical_formula_sum "Si O2"
_cell_formula_units_Z 14
_cell_length_a 10.723719
_cell_length_b 13.068779
_cell_length_c 10.870967
_cell_angle_alpha 97.857831
_cell_angle_beta 47.395791
_cell_angle_gamma 133.093742
_cell_volume 651.339619
_symmetry_space_group_name_H-M "P -1"
_symmetry_group_IT_number 2
_symmetry_cell_setting 'triclinic'
loop_
_space_group_symop_operation_xyz
x,y,z
-x,-y,-z
loop_
_atom_site_type_symbol
_atom_site_label
_atom_site_fract_x
_atom_site_fract_y
_atom_site_fract_z
Si Si1 0.435472 0.923362 0.665931
Si Si2 0.176507 0.737503 0.427644
Si Si3 0.960570 0.499588 0.325105
Si Si4 0.317580 0.352653 0.199584
Si Si5 0.893798 0.974899 0.428277
Si Si6 0.517310 0.385717 0.454164
Si Si7 0.171421 0.471975 0.969669
O O1 0.608738 0.905889 0.588296
O O2 0.500000 0.000000 0.500000
O O3 0.516437 0.053910 0.729724
O O4 0.097039 0.737270 0.872973
O O5 0.122924 0.642919 0.567932
O O6 0.178262 0.676065 0.289444
O O7 0.928647 0.700449 0.584520
O O8 0.657961 0.409046 0.488207
O O9 0.134594 0.553245 0.095227
O O10 0.533668 0.440049 0.180293
O O11 0.500000 0.500000 0.000000
O O12 0.165101 0.171575 0.219533
O O13 0.799327 0.821384 0.397402
O O14 0.000000 0.000000 0.500000
O O15 0.500000 0.500000 0.500000
O O16 0.760654 0.466363 0.206263
#
# Coordination Sequence:
#
# PCOD8019445 Si02
#       7
#     2   2   2   2   2   2   2
#     4  11  21  42  68  99 132 176 224 279 339 404
#     4  10  22  41  67  97 133 171 220 281 335 400
#     4  11  22  40  66  94 129 178 221 274 334 398
#     4  11  21  40  69 101 128 172 223 274 340 404
#     4  11  23  41  68  96 135 176 222 281 337 398
#     4  12  26  44  63  96 141 181 222 279 341 401
#     4  12  22  41  68  95 128 179 223 266 340 402
#
# _framework density 21.494164000000001
#
# number of rings (size 3 to 8) (size 9 to 14) (size 15 to 20)
#    0.000    0.857    5.714    2.143    2.000    0.000 
#    2.571    0.714    0.000    5.143    0.000    0.000 
#    0.000    0.000    0.000    0.000    0.000    0.000 
#
# Total GULP energy -173452.577252 kJ/mol
# GULP energy per Si atom -12389.469804 kJ/mol
# Density = 2.144524 g / cm^3
# Si number density = 21.494164 Si / 1000 Ang^3
#
#
#
# Elastic Constant Matrix: (Units=GPa)
#
#
# Indices 1 2 3 4 5 6 
#
# 1 117.5174 40.7385 17.1410 -6.4243 -22.5702 2.4354
# 2 40.7385 190.5821 56.5268 -22.6541 -2.0096 -15.5477
# 3 17.1410 56.5268 78.1195 -15.9073 2.7450 -1.1631
# 4 -6.4243 -22.6541 -15.9073 46.5783 -0.4275 1.3905
# 5 -22.5702 -2.0096 2.7450 -0.4275 32.3526 -6.1709
# 6 2.4354 -15.5477 -1.1631 1.3905 -6.1709 25.2793
#
#
#
# Elastic Compliance Matrix: (Units=1/GPa)
#
#
# Indices 1 2 3 4 5 6 
#
# 1 0.010787 -0.001870 -0.001233 0.000239 0.007432 -0.000445
# 2 -0.001870 0.007635 -0.004714 0.001711 0.000486 0.004684
# 3 -0.001233 -0.004714 0.017259 0.003491 -0.003133 -0.002943
# 4 0.000239 0.001711 0.003491 0.023530 0.000281 -0.000036
# 5 0.007432 0.000486 -0.003133 0.000281 0.038056 0.008713
# 6 -0.000445 0.004684 -0.002943 -0.000036 0.008713 0.044475
#
#
# Mechanical properties :
#
#
# Convention : Reuss Voigt Hill
#
# Bulk Modulus (GPa) = 49.87831 68.33685 59.10758
# Shear Modulus (GPa) = 30.47688 38.96290 34.71989
#
# Velocity S-wave (km/s) = 3.76961 4.26222 4.02346
# Velocity P-wave (km/s) = 6.49634 7.48895 7.01023
#
# Compressibility (1/GPa) = 0.02004879
#
# Stress axis : x y z
#
# Youngs Moduli (GPa) = 92.70372 130.96959 57.93949
#
# Poissons Ratio (x) = 0.24486 0.07145
# Poissons Ratio (y) = 0.17332 0.27311
# Poissons Ratio (z) = 0.11433 0.61735
#
# Static dielectric constant tensor:
#      x y z
#    x 4.238790 0.040540 -0.280300 
#    y 0.040540 4.341420 -0.325760 
#    z -0.280300 -0.325760 3.486360 
# 
# 
# High freq. dielectric constant tensor:
#      x y z
#    x 1.874010 0.003560 -0.011380 
#    y 0.003560 1.861830 -0.022060 
#    z -0.011380 -0.022060 1.799640 
# 
# From -- ./inp_files/432987.got.cif
#   From: 2010.06.25/outbox.cif.g09.slc.cpg/sg2_217_cif.got.tgz:432987.got - 2010.06.27 13:26:56.
