data_PCOD8019984
_publ_section_title
;
Structure prediction by ZEFSAII (Michael W. Deem and Ramdas Pophale) SiO2 
 PCOD8019984
Probable space group: P -1
;
_chemical_formula_sum "Si O2"
_cell_formula_units_Z 12
_cell_length_a 17.526055
_cell_length_b 9.912046
_cell_length_c 6.900674
_cell_angle_alpha 134.384972
_cell_angle_beta 125.330150
_cell_angle_gamma 45.279253
_cell_volume 599.919941
_symmetry_space_group_name_H-M "P -1"
_symmetry_group_IT_number 2
_symmetry_cell_setting 'triclinic'
loop_
_space_group_symop_operation_xyz
x,y,z
-x,-y,-z
loop_
_atom_site_type_symbol
_atom_site_label
_atom_site_fract_x
_atom_site_fract_y
_atom_site_fract_z
Si Si1 0.409671 0.695366 0.189757
Si Si2 0.961403 0.251237 0.168258
Si Si3 0.443401 0.216209 0.260033
Si Si4 0.685808 0.833954 0.637008
Si Si5 0.934302 0.569504 0.775849
Si Si6 0.712355 0.516047 0.025933
O O1 0.466265 0.722407 0.491056
O O2 0.349910 0.914191 0.193007
O O3 0.500000 0.500000 0.000000
O O4 0.317655 0.643331 0.065581
O O5 0.967405 0.349310 0.482643
O O6 0.840180 0.383229 0.036752
O O7 0.040335 0.270102 0.149816
O O8 0.000000 0.000000 0.000000
O O9 0.397717 0.176255 0.350014
O O10 0.347626 0.414538 0.198244
O O11 0.500000 0.000000 0.000000
O O12 0.806512 0.701769 0.770866
O O13 0.679506 0.732542 0.321272
O O14 0.000000 0.500000 0.000000
#
# Coordination Sequence:
#
# PCOD8019984 Si02
#       6
#     2   2   2   2   2   2
#     4  12  23  41  63  89 126 162 202 249 301 357
#     4  10  22  42  64  91 123 155 203 257 299 357
#     4  12  23  41  65  89 124 163 204 248 297 362
#     4  11  23  42  62  90 127 160 199 254 305 354
#     4  10  22  42  65  89 122 161 200 250 308 361
#     4  11  23  41  63  91 124 162 201 249 305 359
#
# _framework density 20.002669000000001
#
# number of rings (size 3 to 8) (size 9 to 14) (size 15 to 20)
#    0.000    1.000    3.333    4.000    0.000    0.667 
#    6.000    0.000    0.000    0.000    0.000    0.000 
#    0.000    0.000    0.000    0.000    0.000    0.000 
#
# Total GULP energy -148887.078492 kJ/mol
# GULP energy per Si atom -12407.256541 kJ/mol
# Density = 1.995714 g / cm^3
# Si number density = 20.002669 Si / 1000 Ang^3
#
#
#
# Elastic Constant Matrix: (Units=GPa)
#
#
# Indices 1 2 3 4 5 6 
#
# 1 65.9164 4.8291 9.2404 11.2415 8.7512 -2.3945
# 2 4.8291 104.3838 45.6486 5.8686 -0.1936 9.0754
# 3 9.2404 45.6486 97.5368 1.0543 9.5012 -9.7653
# 4 11.2415 5.8686 1.0543 44.8688 -0.7475 7.9390
# 5 8.7512 -0.1936 9.5012 -0.7475 30.7702 2.8706
# 6 -2.3945 9.0754 -9.7653 7.9390 2.8706 30.6534
#
#
#
# Elastic Compliance Matrix: (Units=1/GPa)
#
#
# Indices 1 2 3 4 5 6 
#
# 1 0.016874 -0.000577 -0.000480 -0.004764 -0.005054 0.003043
# 2 -0.000577 0.013298 -0.007111 -0.000232 0.003041 -0.006472
# 3 -0.000480 -0.007111 0.014892 -0.000711 -0.005222 0.007485
# 4 -0.004764 -0.000232 -0.000711 0.024855 0.002852 -0.007234
# 5 -0.005054 0.003041 -0.005222 0.002852 0.036299 -0.007097
# 6 0.003043 -0.006472 0.007485 -0.007234 -0.007097 0.039699
#
#
# Mechanical properties :
#
#
# Convention : Reuss Voigt Hill
#
# Bulk Modulus (GPa) = 34.80878 43.03036 38.91957
# Shear Modulus (GPa) = 29.09876 35.13307 32.11592
#
# Velocity S-wave (km/s) = 3.81825 4.19551 4.01132
# Velocity P-wave (km/s) = 6.07277 6.71035 6.39950
#
# Compressibility (1/GPa) = 0.02872839
#
# Stress axis : x y z
#
# Youngs Moduli (GPa) = 59.26192 75.20129 67.15183
#
# Poissons Ratio (x) = 0.04337 0.03225
# Poissons Ratio (y) = 0.03418 0.47749
# Poissons Ratio (z) = 0.02846 0.53473
#
# Static dielectric constant tensor:
#      x y z
#    x 3.757610 -0.033930 0.090790 
#    y -0.033930 4.095370 0.550090 
#    z 0.090790 0.550090 4.340520 
# 
# 
# High freq. dielectric constant tensor:
#      x y z
#    x 1.792660 -0.003950 0.010140 
#    y -0.003950 1.786760 0.000160 
#    z 0.010140 0.000160 1.785450 
# 
# From -- ./inp_files/3277.got.cif
#   From: 2010.06.25/outbox.cif.g09.slc.cpg/sg2_2_cif.got.tgz:3277.got - 2010.06.27 13:26:56.
