data_PCOD8019249
_publ_section_title
;
Structure prediction by ZEFSAII (Michael W. Deem and Ramdas Pophale) SiO2 
 PCOD8019249
Probable space group: P -1
;
_chemical_formula_sum "Si O2"
_cell_formula_units_Z 16
_cell_length_a 14.814297
_cell_length_b 9.646945
_cell_length_c 11.888672
_cell_angle_alpha 110.800812
_cell_angle_beta 29.596058
_cell_angle_gamma 100.377136
_cell_volume 753.358380
_symmetry_space_group_name_H-M "P -1"
_symmetry_group_IT_number 2
_symmetry_cell_setting 'triclinic'
loop_
_space_group_symop_operation_xyz
x,y,z
-x,-y,-z
loop_
_atom_site_type_symbol
_atom_site_label
_atom_site_fract_x
_atom_site_fract_y
_atom_site_fract_z
Si Si1 0.935850 0.597213 0.363263
Si Si2 0.351526 0.623347 0.943706
Si Si3 0.715444 0.151521 0.117439
Si Si4 0.903952 0.627580 0.050716
Si Si5 0.124207 0.137991 0.674257
Si Si6 0.574840 0.637807 0.910224
Si Si7 0.497614 0.104024 0.754408
Si Si8 0.502470 0.695612 0.398407
O O1 0.845771 0.738426 0.415048
O O2 0.791767 0.588277 0.615896
O O3 0.136735 0.614933 0.198362
O O4 0.978135 0.429370 0.207795
O O5 0.372425 0.716377 0.838025
O O6 0.427195 0.706061 0.989052
O O7 0.502821 0.454225 0.712099
O O8 0.676484 0.233598 0.305721
O O9 0.632444 0.009714 0.145848
O O10 0.938939 0.083785 0.832173
O O11 0.907299 0.791174 0.144653
O O12 0.684446 0.640698 0.267208
O O13 0.000000 0.500000 0.000000
O O14 0.297305 0.986031 0.445799
O O15 0.500000 0.500000 0.000000
O O16 0.583399 0.759996 0.031091
O O17 0.496689 0.167708 0.648475
#
# Coordination Sequence:
#
# PCOD8019249 Si02
#       8
#     2   2   2   2   2   2   2   2
#     4   9  22  42  67  97 131 169 228 282 310 389
#     4  10  23  44  68 100 124 177 230 269 327 390
#     4  11  24  41  72  98 134 174 219 279 335 392
#     4   9  19  38  67  99 131 169 216 272 326 384
#     4  10  22  41  66 102 133 173 218 269 346 390
#     4  12  26  45  67  93 133 184 224 263 333 404
#     4  12  26  45  61 101 144 173 218 277 331 396
#     4  11  22  43  66  99 144 170 216 279 332 391
#
# _framework density 21.238233000000001
#
# number of rings (size 3 to 8) (size 9 to 14) (size 15 to 20)
#    0.000    1.500    2.500    2.250    3.500    4.000 
#    4.500    2.500    0.000    0.000    0.000    0.000 
#    0.000    0.000    0.000    0.000    0.000    0.000 
#
# Total GULP energy -198300.410287 kJ/mol
# GULP energy per Si atom -12393.775643 kJ/mol
# Density = 2.118989 g / cm^3
# Si number density = 21.238233 Si / 1000 Ang^3
#
#
#
# Elastic Constant Matrix: (Units=GPa)
#
#
# Indices 1 2 3 4 5 6 
#
# 1 74.1021 24.8263 48.5982 -10.4724 3.2235 16.1581
# 2 24.8263 118.5146 83.5140 -15.3585 -3.6354 14.4716
# 3 48.5982 83.5140 180.6354 -14.9969 -2.5430 27.7809
# 4 -10.4724 -15.3585 -14.9969 31.3511 -1.2916 2.3381
# 5 3.2235 -3.6354 -2.5430 -1.2916 36.4508 -6.3009
# 6 16.1581 14.4716 27.7809 2.3381 -6.3009 25.7868
#
#
#
# Elastic Compliance Matrix: (Units=1/GPa)
#
#
# Indices 1 2 3 4 5 6 
#
# 1 0.018508 0.000104 -0.003169 0.005292 -0.003307 -0.009529
# 2 0.000104 0.012986 -0.005436 0.003952 0.000758 -0.001669
# 3 -0.003169 -0.005436 0.009925 0.001445 -0.000541 -0.005919
# 4 0.005292 0.003952 0.001445 0.037059 -0.000487 -0.010569
# 5 -0.003307 0.000758 -0.000541 -0.000487 0.029381 0.009453
# 6 -0.009529 -0.001669 -0.005919 -0.010569 0.009453 0.055332
#
#
# Mechanical properties :
#
#
# Convention : Reuss Voigt Hill
#
# Bulk Modulus (GPa) = 40.95713 76.34768 58.65240
# Shear Modulus (GPa) = 26.54865 33.13865 29.84365
#
# Velocity S-wave (km/s) = 3.53943 3.95439 3.75265
# Velocity P-wave (km/s) = 6.00249 7.54161 6.81563
#
# Compressibility (1/GPa) = 0.02441577
#
# Stress axis : x y z
#
# Youngs Moduli (GPa) = 54.03052 77.00560 100.75850
#
# Poissons Ratio (x) = -0.00802 0.31933
# Poissons Ratio (y) = -0.00563 0.54777
# Poissons Ratio (z) = 0.17123 0.41864
#
# Static dielectric constant tensor:
#      x y z
#    x 4.119170 0.066390 0.072340 
#    y 0.066390 3.801820 0.121280 
#    z 0.072340 0.121280 3.905890 
# 
# 
# High freq. dielectric constant tensor:
#      x y z
#    x 1.842950 0.002700 -0.003230 
#    y 0.002700 1.819970 0.001310 
#    z -0.003230 0.001310 1.832890 
# 
# From -- ./inp_files/437180.got.cif
#   From: 2010.06.25/outbox.cif.g09.slc.cpg/sg2_219_cif.got.tgz:437180.got - 2010.06.27 13:26:56.
