data_PCOD8019321
_publ_section_title
;
Structure prediction by ZEFSAII (Michael W. Deem and Ramdas Pophale) SiO2 
 PCOD8019321
Probable space group: P -1
;
_chemical_formula_sum "Si O2"
_cell_formula_units_Z 16
_cell_length_a 8.821388
_cell_length_b 22.689970
_cell_length_c 8.584238
_cell_angle_alpha 57.509032
_cell_angle_beta 94.926305
_cell_angle_gamma 46.042180
_cell_volume 683.453966
_symmetry_space_group_name_H-M "P -1"
_symmetry_group_IT_number 2
_symmetry_cell_setting 'triclinic'
loop_
_space_group_symop_operation_xyz
x,y,z
-x,-y,-z
loop_
_atom_site_type_symbol
_atom_site_label
_atom_site_fract_x
_atom_site_fract_y
_atom_site_fract_z
Si Si1 0.692382 0.696958 0.628918
Si Si2 0.865970 0.350625 0.188504
Si Si3 0.246723 0.807983 0.884341
Si Si4 0.162315 0.112046 0.744923
Si Si5 0.866039 0.398054 0.779220
Si Si6 0.153783 0.725062 0.204378
Si Si7 0.987575 0.043654 0.678641
Si Si8 0.115321 0.440301 0.842307
O O1 0.310130 0.865892 0.369897
O O2 0.916064 0.674781 0.688495
O O3 0.789302 0.618195 0.585311
O O4 0.748819 0.621151 0.884174
O O5 0.040882 0.208063 0.454087
O O6 0.500000 0.500000 0.000000
O O7 0.840357 0.364079 0.982929
O O8 0.109444 0.882339 0.598541
O O9 0.051558 0.824074 0.925998
O O10 0.618904 0.632206 0.143626
O O11 0.223080 0.884070 0.889881
O O12 0.905864 0.223816 0.700899
O O13 0.179966 0.024190 0.820777
O O14 0.500000 0.000000 0.000000
O O15 0.530456 0.560226 0.454173
O O16 0.021648 0.278619 0.841407
O O17 0.083741 0.377079 0.852713
#
# Coordination Sequence:
#
# PCOD8019321 Si02
#       8
#     2   2   2   2   2   2   2   2
#     4   9  20  36  69  98 125 169 232 279 323 401
#     4  11  23  43  72 100 132 182 231 281 339 410
#     4  10  23  41  70  98 129 180 225 284 340 406
#     4  12  28  45  66 100 141 185 225 279 346 414
#     4  10  22  41  66  97 134 172 220 288 334 407
#     4  11  24  41  63  99 138 171 222 281 351 393
#     4  10  23  47  68  93 139 184 232 271 342 423
#     4   9  19  37  62  97 126 165 225 276 332 388
#
# _framework density 23.410499999999999
#
# number of rings (size 3 to 8) (size 9 to 14) (size 15 to 20)
#    0.000    1.750    1.250    1.500   10.500    1.000 
#    2.250    1.250    0.000    0.000    0.000    0.000 
#    0.000    0.000    0.000    0.000    0.000    0.000 
#
# Total GULP energy -198267.332761 kJ/mol
# GULP energy per Si atom -12391.708298 kJ/mol
# Density = 2.335722 g / cm^3
# Si number density = 23.410500 Si / 1000 Ang^3
#
#
#
# Elastic Constant Matrix: (Units=GPa)
#
#
# Indices 1 2 3 4 5 6 
#
# 1 110.6398 48.1710 16.5921 -1.1881 7.9852 15.7484
# 2 48.1710 128.7741 11.4859 -12.5316 4.1949 29.2989
# 3 16.5921 11.4859 54.1114 -7.6940 5.3844 0.4258
# 4 -1.1881 -12.5316 -7.6940 25.5066 -2.6574 1.4822
# 5 7.9852 4.1949 5.3844 -2.6574 30.0211 -1.5483
# 6 15.7484 29.2989 0.4258 1.4822 -1.5483 38.2494
#
#
#
# Elastic Compliance Matrix: (Units=1/GPa)
#
#
# Indices 1 2 3 4 5 6 
#
# 1 0.011511 -0.003794 -0.002807 -0.002312 -0.002326 -0.001807
# 2 -0.003794 0.011491 -0.000358 0.005752 -0.000409 -0.007475
# 3 -0.002807 -0.000358 0.020433 0.005562 -0.002329 0.000893
# 4 -0.002312 0.005752 0.005562 0.044156 0.002458 -0.005128
# 5 -0.002326 -0.000409 -0.002329 0.002458 0.034756 0.002608
# 6 -0.001807 -0.007475 0.000893 -0.005128 0.002608 0.032908
#
#
# Mechanical properties :
#
#
# Convention : Reuss Voigt Hill
#
# Bulk Modulus (GPa) = 33.88039 49.55815 41.71927
# Shear Modulus (GPa) = 27.93101 33.24051 30.58576
#
# Velocity S-wave (km/s) = 3.45787 3.77224 3.61847
# Velocity P-wave (km/s) = 5.51781 6.33942 5.94283
#
# Compressibility (1/GPa) = 0.02951559
#
# Stress axis : x y z
#
# Youngs Moduli (GPa) = 86.87063 87.02812 48.94056
#
# Poissons Ratio (x) = 0.33017 0.13740
# Poissons Ratio (y) = 0.32957 0.01754
# Poissons Ratio (z) = 0.24389 0.03118
#
# Static dielectric constant tensor:
#      x y z
#    x 4.249570 0.237450 -0.074780 
#    y 0.237450 5.059540 -0.041270 
#    z -0.074780 -0.041270 4.033430 
# 
# 
# High freq. dielectric constant tensor:
#      x y z
#    x 1.926050 0.007110 -0.008230 
#    y 0.007110 1.938610 0.000700 
#    z -0.008230 0.000700 1.904830 
# 
# From -- ./inp_files/223447.got.cif
#   From: 2010.06.25/outbox.cif.g09.slc.cpg/sg2_112_cif.got.tgz:223447.got - 2010.06.27 13:26:56.
