data_PCOD8019845
_publ_section_title
;
Structure prediction by ZEFSAII (Michael W. Deem and Ramdas Pophale) SiO2 
 PCOD8019845
Probable space group: P -1
;
_chemical_formula_sum "Si O2"
_cell_formula_units_Z 16
_cell_length_a 14.381881
_cell_length_b 9.091455
_cell_length_c 14.281550
_cell_angle_alpha 81.172207
_cell_angle_beta 148.156213
_cell_angle_gamma 78.478102
_cell_volume 753.535152
_symmetry_space_group_name_H-M "P -1"
_symmetry_group_IT_number 2
_symmetry_cell_setting 'triclinic'
loop_
_space_group_symop_operation_xyz
x,y,z
-x,-y,-z
loop_
_atom_site_type_symbol
_atom_site_label
_atom_site_fract_x
_atom_site_fract_y
_atom_site_fract_z
Si Si1 0.908664 0.393363 0.220741
Si Si2 0.243915 0.187704 0.256565
Si Si3 0.982820 0.050742 0.090484
Si Si4 0.395460 0.672845 0.123319
Si Si5 0.227195 0.250165 0.826139
Si Si6 0.166880 0.687233 0.403346
Si Si7 0.646739 0.836375 0.266236
Si Si8 0.969031 0.463761 0.842504
O O1 0.797379 0.563449 0.185401
O O2 0.171979 0.225178 0.490996
O O3 0.893099 0.481529 0.098014
O O4 0.778562 0.305233 0.104655
O O5 0.206001 0.372593 0.248314
O O6 0.100528 0.146258 0.196936
O O7 0.500000 0.000000 0.500000
O O8 0.150870 0.250435 0.064382
O O9 0.727682 0.206792 0.897434
O O10 0.117793 0.865536 0.290430
O O11 0.000000 0.000000 0.000000
O O12 0.582694 0.443232 0.324149
O O13 0.519410 0.747952 0.177477
O O14 0.217175 0.241618 0.707073
O O15 0.027692 0.249994 0.694398
O O16 0.466407 0.066432 0.090525
O O17 0.186875 0.542041 0.361460
#
# Coordination Sequence:
#
# PCOD8019845 Si02
#       8
#     2   2   2   2   2   2   2   2
#     4  11  24  42  67  99 137 171 221 271 333 395
#     4  11  25  40  64  90 130 175 221 278 332 386
#     4  12  26  43  62  98 128 172 230 268 331 392
#     4  12  26  43  68 100 136 177 221 275 331 398
#     4  10  23  45  70 102 131 177 220 269 342 397
#     4  11  24  42  68  93 134 175 220 274 329 396
#     4  11  23  46  73  97 138 173 219 278 332 402
#     4  10  22  42  59  94 126 169 224 265 324 397
#
# _framework density 21.233252
#
# number of rings (size 3 to 8) (size 9 to 14) (size 15 to 20)
#    0.000    1.000    6.250    0.375    3.500    4.000 
#    0.000    1.250    0.000    0.000    0.000    0.000 
#    0.000    0.000    0.000    0.000    0.000    0.000 
#
# Total GULP energy -198372.436206 kJ/mol
# GULP energy per Si atom -12398.277263 kJ/mol
# Density = 2.118492 g / cm^3
# Si number density = 21.233252 Si / 1000 Ang^3
#
#
#
# Elastic Constant Matrix: (Units=GPa)
#
#
# Indices 1 2 3 4 5 6 
#
# 1 108.7396 27.4759 48.1282 -7.2527 -2.1881 7.6631
# 2 27.4759 69.0987 43.9925 -2.2070 4.1402 5.7132
# 3 48.1282 43.9925 133.8561 -7.0161 7.8250 4.9786
# 4 -7.2527 -2.2070 -7.0161 38.4569 -1.7667 9.3554
# 5 -2.1881 4.1402 7.8250 -1.7667 19.3762 -7.0736
# 6 7.6631 5.7132 4.9786 9.3554 -7.0736 32.9065
#
#
#
# Elastic Compliance Matrix: (Units=1/GPa)
#
#
# Indices 1 2 3 4 5 6 
#
# 1 0.011611 -0.002429 -0.003367 0.001988 0.002732 -0.001751
# 2 -0.002429 0.019119 -0.005104 0.000227 -0.003282 -0.002751
# 3 -0.003367 -0.005104 0.010686 0.001110 -0.003906 -0.001102
# 4 0.001988 0.000227 0.001110 0.028751 -0.000954 -0.009049
# 5 0.002732 -0.003282 -0.003906 -0.000954 0.059033 0.013486
# 6 -0.001751 -0.002751 -0.001102 -0.009049 0.013486 0.036913
#
#
# Mechanical properties :
#
#
# Convention : Reuss Voigt Hill
#
# Bulk Modulus (GPa) = 50.97769 61.20972 56.09371
# Shear Modulus (GPa) = 25.71324 30.95444 28.33384
#
# Velocity S-wave (km/s) = 3.48370 3.82229 3.65692
# Velocity P-wave (km/s) = 6.34367 6.95484 6.65627
#
# Compressibility (1/GPa) = 0.01961642
#
# Stress axis : x y z
#
# Youngs Moduli (GPa) = 86.12433 52.30448 93.57738
#
# Poissons Ratio (x) = 0.12704 0.31507
# Poissons Ratio (y) = 0.20918 0.47763
# Poissons Ratio (z) = 0.28998 0.26697
#
# Static dielectric constant tensor:
#      x y z
#    x 4.255310 0.101730 -0.180710 
#    y 0.101730 3.907720 -0.194610 
#    z -0.180710 -0.194610 3.895160 
# 
# 
# High freq. dielectric constant tensor:
#      x y z
#    x 1.834770 0.000180 -0.004160 
#    y 0.000180 1.833870 -0.015240 
#    z -0.004160 -0.015240 1.832570 
# 
# From -- ./inp_files/529707.got.cif
#   From: 2010.06.25/outbox.cif.g09.slc.cpg/sg2_265_cif.got.tgz:529707.got - 2010.06.27 13:26:56.
