data_PCOD8019785
_publ_section_title
;
Structure prediction by ZEFSAII (Michael W. Deem and Ramdas Pophale) SiO2 
 PCOD8019785
Probable space group: P -1
;
_chemical_formula_sum "Si O2"
_cell_formula_units_Z 16
_cell_length_a 10.527640
_cell_length_b 8.194147
_cell_length_c 14.343909
_cell_angle_alpha 126.711177
_cell_angle_beta 64.411311
_cell_angle_gamma 82.537241
_cell_volume 754.877779
_symmetry_space_group_name_H-M "P -1"
_symmetry_group_IT_number 2
_symmetry_cell_setting 'triclinic'
loop_
_space_group_symop_operation_xyz
x,y,z
-x,-y,-z
loop_
_atom_site_type_symbol
_atom_site_label
_atom_site_fract_x
_atom_site_fract_y
_atom_site_fract_z
Si Si1 0.827761 0.103561 0.538237
Si Si2 0.170279 0.313297 0.699512
Si Si3 0.627758 0.506118 0.597633
Si Si4 0.919022 0.841166 0.955731
Si Si5 0.576314 0.134943 0.072033
Si Si6 0.725019 0.799656 0.170945
Si Si7 0.440823 0.294726 0.501500
Si Si8 0.498187 0.590271 0.135094
O O1 0.780979 0.318035 0.551668
O O2 0.681522 0.193152 0.693528
O O3 0.877169 0.873195 0.380983
O O4 0.000000 0.000000 0.500000
O O5 0.167642 0.342020 0.820990
O O6 0.354929 0.194635 0.558561
O O7 0.056526 0.579190 0.781968
O O8 0.527610 0.770620 0.766671
O O9 0.492698 0.430950 0.603098
O O10 0.681623 0.531980 0.484753
O O11 0.853123 0.788517 0.052397
O O12 0.772613 0.958540 0.966324
O O13 0.000000 0.000000 0.000000
O O14 0.557593 0.360226 0.101372
O O15 0.500000 0.000000 0.000000
O O16 0.626963 0.677467 0.123836
O O17 0.604551 0.077795 0.329007
O O18 0.500000 0.500000 0.000000
#
# Coordination Sequence:
#
# PCOD8019785 Si02
#       8
#     2   2   2   2   2   2   2   2
#     4  11  25  44  65 100 140 181 228 287 347 404
#     4  12  25  41  69 105 136 170 229 290 350 402
#     4  10  22  41  72  95 131 179 228 278 345 407
#     4  12  27  45  67 104 143 178 229 290 355 407
#     4  11  24  44  69  96 139 187 230 274 340 428
#     4  12  23  45  72 100 136 181 232 285 345 422
#     4  11  21  42  73 101 129 172 232 289 338 415
#     4  11  25  45  71 100 133 185 239 278 339 422
#
# _framework density 21.195481999999998
#
# number of rings (size 3 to 8) (size 9 to 14) (size 15 to 20)
#    0.000    0.750    3.750    4.500    7.000    0.000 
#    2.250    0.625    0.000    0.000    0.000    0.000 
#    0.000    0.000    0.000    0.000    0.000    0.000 
#
# Total GULP energy -198323.656906 kJ/mol
# GULP energy per Si atom -12395.228557 kJ/mol
# Density = 2.114724 g / cm^3
# Si number density = 21.195482 Si / 1000 Ang^3
#
#
#
# Elastic Constant Matrix: (Units=GPa)
#
#
# Indices 1 2 3 4 5 6 
#
# 1 154.8828 48.3844 48.0308 2.9087 12.8770 -5.1187
# 2 48.3844 84.1081 27.3258 -0.2108 -9.1954 -3.3613
# 3 48.0308 27.3258 97.7442 12.7676 12.4720 -3.1393
# 4 2.9087 -0.2108 12.7676 41.7456 1.6515 -2.2380
# 5 12.8770 -9.1954 12.4720 1.6515 37.7033 3.7907
# 6 -5.1187 -3.3613 -3.1393 -2.2380 3.7907 44.8554
#
#
#
# Elastic Compliance Matrix: (Units=1/GPa)
#
#
# Indices 1 2 3 4 5 6 
#
# 1 0.009068 -0.004670 -0.002734 0.000359 -0.003428 0.000801
# 2 -0.004670 0.016366 -0.003277 0.001146 0.006624 -0.000038
# 3 -0.002734 -0.003277 0.013541 -0.003770 -0.004236 0.000560
# 4 0.000359 0.001146 -0.003770 0.025140 0.000192 0.001101
# 5 -0.003428 0.006624 -0.004236 0.000192 0.030983 -0.002800
# 6 0.000801 -0.000038 0.000560 0.001101 -0.002800 0.022713
#
#
# Mechanical properties :
#
#
# Convention : Reuss Voigt Hill
#
# Bulk Modulus (GPa) = 56.77459 64.91300 60.84380
# Shear Modulus (GPa) = 34.47209 39.06046 36.76628
#
# Velocity S-wave (km/s) = 4.03723 4.29752 4.16940
# Velocity P-wave (km/s) = 6.96969 7.43756 7.20742
#
# Compressibility (1/GPa) = 0.01761351
#
# Stress axis : x y z
#
# Youngs Moduli (GPa) = 110.27787 61.10204 73.84801
#
# Poissons Ratio (x) = 0.28535 0.20192
# Poissons Ratio (y) = 0.51500 0.24198
# Poissons Ratio (z) = 0.30152 0.20021
#
# Static dielectric constant tensor:
#      x y z
#    x 3.525010 -0.441280 0.223090 
#    y -0.441280 3.711850 0.235290 
#    z 0.223090 0.235290 3.563780 
# 
# 
# High freq. dielectric constant tensor:
#      x y z
#    x 1.824280 -0.007060 0.013600 
#    y -0.007060 1.845590 0.007450 
#    z 0.013600 0.007450 1.839530 
# 
# From -- ./inp_files/273591.got.cif
#   From: 2010.06.25/outbox.cif.g09.slc.cpg/sg2_137_cif.got.tgz:273591.got - 2010.06.27 13:26:56.
