data_PCOD8019366
_publ_section_title
;
Structure prediction by ZEFSAII (Michael W. Deem and Ramdas Pophale) SiO2 
 PCOD8019366
Probable space group: P -1
;
_chemical_formula_sum "Si O2"
_cell_formula_units_Z 14
_cell_length_a 11.749446
_cell_length_b 9.211563
_cell_length_c 8.734098
_cell_angle_alpha 45.105964
_cell_angle_beta 108.360317
_cell_angle_gamma 96.084445
_cell_volume 625.987339
_symmetry_space_group_name_H-M "P -1"
_symmetry_group_IT_number 2
_symmetry_cell_setting 'triclinic'
loop_
_space_group_symop_operation_xyz
x,y,z
-x,-y,-z
loop_
_atom_site_type_symbol
_atom_site_label
_atom_site_fract_x
_atom_site_fract_y
_atom_site_fract_z
Si Si1 0.055300 0.432460 0.807978
Si Si2 0.306170 0.958710 0.859356
Si Si3 0.194960 0.425351 0.559664
Si Si4 0.636699 0.243454 0.653311
Si Si5 0.117260 0.827597 0.670694
Si Si6 0.785381 0.937580 0.717125
Si Si7 0.423719 0.119966 0.513478
O O1 0.146857 0.436753 0.702777
O O2 0.078231 0.603699 0.813192
O O3 0.914821 0.467585 0.675356
O O4 0.089424 0.207927 0.070421
O O5 0.242941 0.190299 0.706893
O O6 0.404620 0.968286 0.759779
O O7 0.200528 0.837394 0.846988
O O8 0.374494 0.821886 0.126624
O O9 0.305329 0.551484 0.494587
O O10 0.499859 0.291439 0.485062
O O11 0.713502 0.038745 0.759246
O O12 0.187899 0.868912 0.514849
O O13 0.000000 0.000000 0.500000
O O14 0.707377 0.796658 0.684305
O O15 0.500000 0.000000 0.500000
#
# Coordination Sequence:
#
# PCOD8019366 Si02
#       7
#     2   2   2   2   2   2   2
#     4  11  23  41  64  95 134 170 206 255 320 377
#     4  11  23  41  66  97 125 163 213 264 318 371
#     4  11  24  38  65 100 128 163 214 261 309 384
#     4  11  22  42  67  92 125 170 213 262 320 364
#     4  11  23  40  61  93 133 167 208 256 310 387
#     4  10  22  41  67  90 127 171 210 259 321 370
#     4   9  22  44  66  91 127 166 212 266 313 377
#
# _framework density 22.364667000000001
#
# number of rings (size 3 to 8) (size 9 to 14) (size 15 to 20)
#    0.000    1.429    4.286    0.429    2.000    4.000 
#    0.000    3.571    0.000    0.000    0.000    0.000 
#    0.000    0.000    0.000    0.000    0.000    0.000 
#
# Total GULP energy -173554.910239 kJ/mol
# GULP energy per Si atom -12396.779303 kJ/mol
# Density = 2.231376 g / cm^3
# Si number density = 22.364667 Si / 1000 Ang^3
#
#
#
# Elastic Constant Matrix: (Units=GPa)
#
#
# Indices 1 2 3 4 5 6 
#
# 1 52.1093 7.5118 -8.2655 10.7116 -11.9797 6.0354
# 2 7.5118 99.7357 13.2985 8.0937 -6.8167 15.4355
# 3 -8.2655 13.2985 54.1058 9.6584 -0.4064 3.0769
# 4 10.7116 8.0937 9.6584 30.8346 -1.0886 -0.8226
# 5 -11.9797 -6.8167 -0.4064 -1.0886 30.1310 2.0321
# 6 6.0354 15.4355 3.0769 -0.8226 2.0321 42.6757
#
#
#
# Elastic Compliance Matrix: (Units=1/GPa)
#
#
# Indices 1 2 3 4 5 6 
#
# 1 0.025147 -0.000506 0.006133 -0.010294 0.009897 -0.004485
# 2 -0.000506 0.011330 -0.002236 -0.002116 0.002527 -0.004026
# 3 0.006133 -0.002236 0.021568 -0.008277 0.002050 -0.001871
# 4 -0.010294 -0.002116 -0.008277 0.039131 -0.003522 0.003740
# 5 0.009897 0.002527 0.002050 -0.003522 0.037888 -0.004334
# 6 -0.004485 -0.004026 -0.001871 0.003740 -0.004334 0.025937
#
#
# Mechanical properties :
#
#
# Convention : Reuss Voigt Hill
#
# Bulk Modulus (GPa) = 15.42561 25.67114 20.54837
# Shear Modulus (GPa) = 28.43685 33.62199 31.02942
#
# Velocity S-wave (km/s) = 3.56969 3.88152 3.72886
# Velocity P-wave (km/s) = 4.88902 5.62064 5.26755
#
# Compressibility (1/GPa) = 0.06482727
#
# Stress axis : x y z
#
# Youngs Moduli (GPa) = 39.76611 88.25817 46.36459
#
# Poissons Ratio (x) = 0.04463 -0.28435
# Poissons Ratio (y) = 0.02011 0.10369
# Poissons Ratio (z) = -0.24388 0.19738
#
# Static dielectric constant tensor:
#      x y z
#    x 4.247690 0.240570 -0.143450 
#    y 0.240570 4.344340 0.329460 
#    z -0.143450 0.329460 3.894120 
# 
# 
# High freq. dielectric constant tensor:
#      x y z
#    x 1.889200 0.006880 -0.010660 
#    y 0.006880 1.894310 0.022580 
#    z -0.010660 0.022580 1.859630 
# 
# From -- ./inp_files/34171.got.cif
#   From: 2010.06.25/outbox.cif.g09.slc.cpg/sg2_18_cif.got.tgz:34171.got - 2010.06.27 13:26:56.
