data_PCOD8019542
_publ_section_title
;
Structure prediction by ZEFSAII (Michael W. Deem and Ramdas Pophale) SiO2 
 PCOD8019542
Probable space group: P -1
;
_chemical_formula_sum "Si O2"
_cell_formula_units_Z 16
_cell_length_a 11.887635
_cell_length_b 9.315727
_cell_length_c 9.022219
_cell_angle_alpha 44.543144
_cell_angle_beta 95.689023
_cell_angle_gamma 86.722534
_cell_volume 685.596002
_symmetry_space_group_name_H-M "P -1"
_symmetry_group_IT_number 2
_symmetry_cell_setting 'triclinic'
loop_
_space_group_symop_operation_xyz
x,y,z
-x,-y,-z
loop_
_atom_site_type_symbol
_atom_site_label
_atom_site_fract_x
_atom_site_fract_y
_atom_site_fract_z
Si Si1 0.790477 0.923511 0.873736
Si Si2 0.932359 0.269845 0.552720
Si Si3 0.420959 0.872379 0.492616
Si Si4 0.421523 0.214076 0.668235
Si Si5 0.508275 0.723260 0.045091
Si Si6 0.655018 0.437096 0.064326
Si Si7 0.822368 0.720190 0.324720
Si Si8 0.894111 0.484109 0.097131
O O1 0.867738 0.096891 0.735609
O O2 0.672397 0.978490 0.728702
O O3 0.762591 0.887063 0.069818
O O4 0.869284 0.707260 0.003914
O O5 0.868932 0.484587 0.457059
O O6 0.924263 0.295700 0.356079
O O7 0.067960 0.198238 0.655416
O O8 0.504496 0.711360 0.511991
O O9 0.352984 0.750199 0.685867
O O10 0.500000 0.000000 0.500000
O O11 0.454387 0.318982 0.748226
O O12 0.283717 0.278436 0.575184
O O13 0.456840 0.964647 0.844967
O O14 0.614531 0.650793 0.997054
O O15 0.416678 0.581356 0.081129
O O16 0.784436 0.436116 0.027406
O O17 0.000000 0.500000 0.000000
#
# Coordination Sequence:
#
# PCOD8019542 Si02
#       8
#     2   2   2   2   2   2   2   2
#     4  11  23  44  71  91 141 186 227 286 361 405
#     4  10  22  46  66 101 132 186 233 286 354 411
#     4  12  25  42  70 104 142 186 228 285 359 420
#     4  11  22  42  65 105 134 175 231 289 340 417
#     4  10  22  41  68  95 140 180 226 279 352 414
#     4  11  23  45  69  99 142 187 227 283 359 421
#     4  10  23  42  71  97 141 175 233 294 343 414
#     4  11  25  44  69  98 135 181 236 292 337 414
#
# _framework density 23.337358999999999
#
# number of rings (size 3 to 8) (size 9 to 14) (size 15 to 20)
#    0.000    1.250    2.500    4.125    1.750    3.000 
#    2.250    2.500    0.000    0.000    0.000    0.000 
#    0.000    0.000    0.000    0.000    0.000    0.000 
#
# Total GULP energy -198276.659204 kJ/mol
# GULP energy per Si atom -12392.291200 kJ/mol
# Density = 2.328424 g / cm^3
# Si number density = 23.337359 Si / 1000 Ang^3
#
#
#
# Elastic Constant Matrix: (Units=GPa)
#
#
# Indices 1 2 3 4 5 6 
#
# 1 180.3852 48.3514 49.5726 16.8109 -0.1230 -2.0413
# 2 48.3514 98.1933 17.9926 11.4076 1.5989 8.7982
# 3 49.5726 17.9926 84.0634 -6.8146 6.6105 7.7363
# 4 16.8109 11.4076 -6.8146 27.8078 3.3188 -0.3568
# 5 -0.1230 1.5989 6.6105 3.3188 45.1461 2.0819
# 6 -2.0413 8.7982 7.7363 -0.3568 2.0819 33.6326
#
#
#
# Elastic Compliance Matrix: (Units=1/GPa)
#
#
# Indices 1 2 3 4 5 6 
#
# 1 0.008126 -0.002724 -0.004913 -0.005103 0.001111 0.002213
# 2 -0.002724 0.012449 -0.001079 -0.003782 0.000136 -0.003222
# 3 -0.004913 -0.001079 0.016182 0.007661 -0.002747 -0.003487
# 4 -0.005103 -0.003782 0.007661 0.042965 -0.004143 -0.000370
# 5 0.001111 0.000136 -0.002747 -0.004143 0.022892 -0.000797
# 6 0.002213 -0.003222 -0.003487 -0.000370 -0.000797 0.031558
#
#
# Mechanical properties :
#
#
# Convention : Reuss Voigt Hill
#
# Bulk Modulus (GPa) = 51.74933 66.05279 58.90106
# Shear Modulus (GPa) = 31.63651 37.76566 34.70108
#
# Velocity S-wave (km/s) = 3.68586 4.02711 3.86026
# Velocity P-wave (km/s) = 6.35112 7.07025 6.72031
#
# Compressibility (1/GPa) = 0.01932392
#
# Stress axis : x y z
#
# Youngs Moduli (GPa) = 123.06869 80.32749 61.79695
#
# Poissons Ratio (x) = 0.21884 0.30362
# Poissons Ratio (y) = 0.33529 0.06666
# Poissons Ratio (z) = 0.60467 0.08665
#
# Static dielectric constant tensor:
#      x y z
#    x 4.289280 0.186760 0.131370 
#    y 0.186760 4.076190 0.017440 
#    z 0.131370 0.017440 4.372070 
# 
# 
# High freq. dielectric constant tensor:
#      x y z
#    x 1.939180 0.009080 -0.000350 
#    y 0.009080 1.910080 -0.007580 
#    z -0.000350 -0.007580 1.929330 
# 
# From -- ./inp_files/242064.got.cif
#   From: 2010.06.25/outbox.cif.g09.slc.cpg/sg2_122_cif.got.tgz:242064.got - 2010.06.27 13:26:56.
