data_PCOD8019903
_publ_section_title
;
Structure prediction by ZEFSAII (Michael W. Deem and Ramdas Pophale) SiO2 
 PCOD8019903
Probable space group: P -1
;
_chemical_formula_sum "Si O2"
_cell_formula_units_Z 12
_cell_length_a 9.805498
_cell_length_b 8.624191
_cell_length_c 14.289345
_cell_angle_alpha 129.174345
_cell_angle_beta 33.747060
_cell_angle_gamma 117.815298
_cell_volume 515.553958
_symmetry_space_group_name_H-M "P -1"
_symmetry_group_IT_number 2
_symmetry_cell_setting 'triclinic'
loop_
_space_group_symop_operation_xyz
x,y,z
-x,-y,-z
loop_
_atom_site_type_symbol
_atom_site_label
_atom_site_fract_x
_atom_site_fract_y
_atom_site_fract_z
Si Si1 0.187118 0.409572 0.695513
Si Si2 0.179341 0.083506 0.064550
Si Si3 0.868369 0.219639 0.676820
Si Si4 0.240798 0.470427 0.287513
Si Si5 0.734159 0.262584 0.969050
Si Si6 0.685676 0.174619 0.276646
O O1 0.078328 0.362247 0.637677
O O2 0.438465 0.252577 0.505707
O O3 0.234726 0.640689 0.760978
O O4 0.984462 0.369859 0.875522
O O5 0.222868 0.305016 0.154135
O O6 0.893092 0.087259 0.199185
O O7 0.239459 0.939237 0.063741
O O8 0.350453 0.000121 0.845771
O O9 0.727844 0.320081 0.703879
O O10 0.000000 0.000000 0.500000
O O11 0.689863 0.205368 0.862936
O O12 0.482789 0.413056 0.194440
O O13 0.000000 0.500000 0.500000
#
# Coordination Sequence:
#
# PCOD8019903 Si02
#       6
#     2   2   2   2   2   2
#     4   9  22  42  62  93 121 171 206 257 310 363
#     4  11  23  41  63  98 123 169 212 250 317 371
#     4  10  22  42  62  93 123 165 208 262 317 364
#     4  12  25  41  65  94 129 165 208 264 316 371
#     4  10  24  39  64  95 127 159 209 264 313 365
#     4  10  22  42  69  87 130 171 207 255 304 384
#
# _framework density 23.275932999999998
#
# number of rings (size 3 to 8) (size 9 to 14) (size 15 to 20)
#    1.000    0.667    1.667    2.000    4.667    1.333 
#    3.000    0.000    0.000    0.000    0.000    0.000 
#    0.000    0.000    0.000    0.000    0.000    0.000 
#
# Total GULP energy -148718.182100 kJ/mol
# GULP energy per Si atom -12393.181842 kJ/mol
# Density = 2.322296 g / cm^3
# Si number density = 23.275933 Si / 1000 Ang^3
#
#
#
# Elastic Constant Matrix: (Units=GPa)
#
#
# Indices 1 2 3 4 5 6 
#
# 1 57.9955 21.4950 41.0887 11.4430 -7.9764 -21.7288
# 2 21.4950 83.2734 48.9962 13.6302 -6.8356 -23.6144
# 3 41.0887 48.9962 162.7007 2.8693 -24.4543 -7.2257
# 4 11.4430 13.6302 2.8693 41.7609 2.0148 -3.5898
# 5 -7.9764 -6.8356 -24.4543 2.0148 39.3312 18.1371
# 6 -21.7288 -23.6144 -7.2257 -3.5898 18.1371 45.4732
#
#
#
# Elastic Compliance Matrix: (Units=1/GPa)
#
#
# Indices 1 2 3 4 5 6 
#
# 1 0.028037 0.002146 -0.007752 -0.006314 -0.005307 0.014898
# 2 0.002146 0.018910 -0.006438 -0.005066 -0.005351 0.011557
# 3 -0.007752 -0.006438 0.010790 0.002408 0.007678 -0.008205
# 4 -0.006314 -0.005066 0.002408 0.026955 -0.000732 -0.002845
# 5 -0.005307 -0.005351 0.007678 -0.000732 0.036939 -0.018886
# 6 0.014898 0.011557 -0.008205 -0.002845 -0.018886 0.041116
#
#
# Mechanical properties :
#
#
# Convention : Reuss Voigt Hill
#
# Bulk Modulus (GPa) = 29.71800 58.56995 44.14398
# Shear Modulus (GPa) = 25.24616 38.13904 31.69260
#
# Velocity S-wave (km/s) = 3.29697 4.05231 3.69399
# Velocity P-wave (km/s) = 5.22386 6.86388 6.09925
#
# Compressibility (1/GPa) = 0.03364964
#
# Stress axis : x y z
#
# Youngs Moduli (GPa) = 35.66762 52.88174 92.67944
#
# Poissons Ratio (x) = -0.11351 0.71841
# Poissons Ratio (y) = -0.07656 0.59671
# Poissons Ratio (z) = 0.27648 0.34047
#
# Static dielectric constant tensor:
#      x y z
#    x 4.085440 0.122960 -0.238760 
#    y 0.122960 3.861440 0.066200 
#    z -0.238760 0.066200 4.377950 
# 
# 
# High freq. dielectric constant tensor:
#      x y z
#    x 1.907860 0.000930 -0.018820 
#    y 0.000930 1.903870 0.011150 
#    z -0.018820 0.011150 1.935430 
# 
# From -- ./inp_files/493744.got.cif
#   From: 2010.06.25/outbox.cif.g09.slc.cpg/sg2_247_cif.got.tgz:493744.got - 2010.06.27 13:26:56.
