data_PCOD8019132
_publ_section_title
;
Structure prediction by ZEFSAII (Michael W. Deem and Ramdas Pophale) SiO2 
 PCOD8019132
Probable space group: P -1
;
_chemical_formula_sum "Si O2"
_cell_formula_units_Z 14
_cell_length_a 14.395871
_cell_length_b 25.518497
_cell_length_c 25.579459
_cell_angle_alpha 168.664960
_cell_angle_beta 157.703171
_cell_angle_gamma 20.357625
_cell_volume 640.043795
_symmetry_space_group_name_H-M "P -1"
_symmetry_group_IT_number 2
_symmetry_cell_setting 'triclinic'
loop_
_space_group_symop_operation_xyz
x,y,z
-x,-y,-z
loop_
_atom_site_type_symbol
_atom_site_label
_atom_site_fract_x
_atom_site_fract_y
_atom_site_fract_z
Si Si1 0.060928 0.832017 0.506754
Si Si2 0.681346 0.642867 0.973952
Si Si3 0.255356 0.419995 0.683862
Si Si4 0.392032 0.191877 0.018769
Si Si5 0.012219 0.006505 0.842676
Si Si6 0.294387 0.898766 0.322110
Si Si7 0.586056 0.152269 0.496929
O O1 0.165447 0.496560 0.217371
O O2 0.912885 0.853821 0.506220
O O3 0.863026 0.034805 0.558003
O O4 0.303517 0.934495 0.737124
O O5 0.558859 0.880745 0.188669
O O6 0.563370 0.800743 0.012701
O O7 0.585344 0.383679 0.679550
O O8 0.000000 0.500000 0.000000
O O9 0.523697 0.369354 0.808132
O O10 0.333829 0.312935 0.560819
O O11 0.083018 0.252939 0.453183
O O12 0.075756 0.765917 0.932088
O O13 0.669423 0.130998 0.132741
O O14 0.877306 0.181259 0.889672
O O15 0.500000 0.000000 0.500000
#
# Coordination Sequence:
#
# PCOD8019132 Si02
#       7
#     2   2   2   2   2   2   2
#     4  11  22  39  61  93 118 154 200 248 294 356
#     4  12  21  38  61  89 123 157 200 242 300 352
#     4  10  22  41  65  88 117 158 206 245 291 348
#     4  12  25  38  60  90 127 158 194 241 307 357
#     4  11  23  42  59  88 126 160 192 247 299 356
#     4   9  22  41  68  89 117 156 204 245 295 349
#     4  11  21  38  64  91 114 154 209 255 283 343
#
# _framework density 21.873505000000002
#
# number of rings (size 3 to 8) (size 9 to 14) (size 15 to 20)
#    0.000    1.143    2.857    3.429    0.000    9.143 
#    0.000    4.286    0.000    0.000    0.000    0.000 
#    0.000    0.000    0.000    0.000    0.000    0.000 
#
# Total GULP energy -173623.132655 kJ/mol
# GULP energy per Si atom -12401.652332 kJ/mol
# Density = 2.182372 g / cm^3
# Si number density = 21.873505 Si / 1000 Ang^3
#
#
#
# Elastic Constant Matrix: (Units=GPa)
#
#
# Indices 1 2 3 4 5 6 
#
# 1 110.0931 27.4340 15.3810 0.8763 -16.5482 -9.2437
# 2 27.4340 64.9738 15.5696 -10.3687 -7.0263 -7.5916
# 3 15.3810 15.5696 83.2050 4.9989 -15.2712 -0.9192
# 4 0.8763 -10.3687 4.9989 31.7068 -7.4557 -4.6583
# 5 -16.5482 -7.0263 -15.2712 -7.4557 34.7639 6.0334
# 6 -9.2437 -7.5916 -0.9192 -4.6583 6.0334 20.1375
#
#
#
# Elastic Compliance Matrix: (Units=1/GPa)
#
#
# Indices 1 2 3 4 5 6 
#
# 1 0.010869 -0.003815 -0.000578 -0.000242 0.003687 0.002364
# 2 -0.003815 0.020155 -0.003243 0.008609 0.001419 0.007265
# 3 -0.000578 -0.003243 0.013785 -0.002450 0.005113 -0.002957
# 4 -0.000242 0.008609 -0.002450 0.037810 0.006977 0.009678
# 5 0.003687 0.001419 0.005113 0.006977 0.035699 -0.006621
# 6 0.002364 0.007265 -0.002957 0.009678 -0.006621 0.057570
#
#
# Mechanical properties :
#
#
# Convention : Reuss Voigt Hill
#
# Bulk Modulus (GPa) = 33.85491 41.67123 37.76307
# Shear Modulus (GPa) = 24.87510 30.64746 27.76128
#
# Velocity S-wave (km/s) = 3.37594 3.74722 3.56641
# Velocity P-wave (km/s) = 5.54140 6.14935 5.85328
#
# Compressibility (1/GPa) = 0.02953781
#
# Stress axis : x y z
#
# Youngs Moduli (GPa) = 92.00398 49.61648 72.54217
#
# Poissons Ratio (x) = 0.18926 0.04194
# Poissons Ratio (y) = 0.35095 0.23524
# Poissons Ratio (z) = 0.05319 0.16090
#
# Static dielectric constant tensor:
#      x y z
#    x 4.187080 0.102950 -0.148340 
#    y 0.102950 3.928290 -0.010700 
#    z -0.148340 -0.010700 3.760740 
# 
# 
# High freq. dielectric constant tensor:
#      x y z
#    x 1.866660 -0.009500 -0.009910 
#    y -0.009500 1.844500 0.003240 
#    z -0.009910 0.003240 1.856920 
# 
# From -- ./inp_files/35196.got.cif
#   From: 2010.06.25/outbox.cif.g09.slc.cpg/sg2_18_cif.got.tgz:35196.got - 2010.06.27 13:26:56.
