data_PCOD8019141
_publ_section_title
;
Structure prediction by ZEFSAII (Michael W. Deem and Ramdas Pophale) SiO2 
 PCOD8019141
Probable space group: P -1
;
_chemical_formula_sum "Si O2"
_cell_formula_units_Z 16
_cell_length_a 15.183538
_cell_length_b 11.078317
_cell_length_c 11.396907
_cell_angle_alpha 93.211120
_cell_angle_beta 132.582726
_cell_angle_gamma 123.717883
_cell_volume 832.938296
_symmetry_space_group_name_H-M "P -1"
_symmetry_group_IT_number 2
_symmetry_cell_setting 'triclinic'
loop_
_space_group_symop_operation_xyz
x,y,z
-x,-y,-z
loop_
_atom_site_type_symbol
_atom_site_label
_atom_site_fract_x
_atom_site_fract_y
_atom_site_fract_z
Si Si1 0.736749 0.188244 0.738576
Si Si2 0.940043 0.107671 0.845536
Si Si3 0.899167 0.044307 0.378153
Si Si4 0.720944 0.685280 0.653367
Si Si5 0.003051 0.476839 0.195818
Si Si6 0.092877 0.349241 0.768767
Si Si7 0.453717 0.602488 0.954096
Si Si8 0.170206 0.382934 0.467194
O O1 0.811847 0.116860 0.771180
O O2 0.829008 0.362541 0.743364
O O3 0.500000 0.000000 0.500000
O O4 0.797682 0.269722 0.932002
O O5 0.053218 0.223637 0.831540
O O6 0.781001 0.868742 0.676160
O O7 0.113638 0.225669 0.101837
O O8 0.956750 0.196455 0.528878
O O9 0.982388 0.148845 0.330807
O O10 0.000000 0.000000 0.500000
O O11 0.658777 0.844754 0.147974
O O12 0.500000 0.500000 0.500000
O O13 0.717284 0.593757 0.534610
O O14 0.083482 0.440174 0.352337
O O15 0.963074 0.560700 0.243389
O O16 0.328228 0.537166 0.953513
O O17 0.331899 0.535549 0.723724
O O18 0.500000 0.500000 0.000000
#
# Coordination Sequence:
#
# PCOD8019141 Si02
#       8
#     2   2   2   2   2   2   2   2
#     4  10  22  41  65  89 131 173 214 252 314 378
#     4  10  23  40  60  96 127 161 212 261 311 379
#     4  11  22  41  63  92 126 162 207 262 317 371
#     4  11  25  37  63  95 128 166 205 260 319 378
#     4  10  23  43  62  91 128 170 210 259 312 372
#     4  10  23  41  66  88 124 166 210 263 310 374
#     4  11  24  40  66  95 119 165 213 256 323 377
#     4  11  24  42  64  91 133 165 206 266 311 374
#
# _framework density 19.209106999999999
#
# number of rings (size 3 to 8) (size 9 to 14) (size 15 to 20)
#    0.000    1.500    3.750    0.750    3.500    6.000 
#    0.000    1.250    0.000    0.000    0.000    0.000 
#    0.000    0.000    0.000    0.000    0.000    0.000 
#
# Total GULP energy -198448.970903 kJ/mol
# GULP energy per Si atom -12403.060681 kJ/mol
# Density = 1.916539 g / cm^3
# Si number density = 19.209107 Si / 1000 Ang^3
#
#
#
# Elastic Constant Matrix: (Units=GPa)
#
#
# Indices 1 2 3 4 5 6 
#
# 1 128.8306 60.6850 54.2670 4.2849 1.3110 11.5960
# 2 60.6850 135.0684 58.5862 -9.5949 15.3718 3.7248
# 3 54.2670 58.5862 134.2948 11.0064 15.8918 6.1399
# 4 4.2849 -9.5949 11.0064 35.3651 6.8378 7.9107
# 5 1.3110 15.3718 15.8918 6.8378 30.2488 4.4442
# 6 11.5960 3.7248 6.1399 7.9107 4.4442 32.4165
#
#
#
# Elastic Compliance Matrix: (Units=1/GPa)
#
#
# Indices 1 2 3 4 5 6 
#
# 1 0.011316 -0.004338 -0.002877 -0.001739 0.004080 -0.003140
# 2 -0.004338 0.011767 -0.003216 0.005733 -0.005421 0.000153
# 3 -0.002877 -0.003216 0.010633 -0.003365 -0.003160 0.000639
# 4 -0.001739 0.005733 -0.003365 0.034085 -0.007798 -0.006648
# 5 0.004080 -0.005421 -0.003160 -0.007798 0.039613 -0.003766
# 6 -0.003140 0.000153 0.000639 -0.006648 -0.003766 0.033972
#
#
# Mechanical properties :
#
#
# Convention : Reuss Voigt Hill
#
# Bulk Modulus (GPa) = 77.79491 82.80778 80.30135
# Shear Modulus (GPa) = 30.02417 34.58312 32.30364
#
# Velocity S-wave (km/s) = 3.95779 4.24766 4.10528
# Velocity P-wave (km/s) = 7.84043 8.20116 8.02282
#
# Compressibility (1/GPa) = 0.01285431
#
# Stress axis : x y z
#
# Youngs Moduli (GPa) = 88.36911 84.98009 94.05088
#
# Poissons Ratio (x) = 0.36860 0.27060
# Poissons Ratio (y) = 0.38330 0.30249
# Poissons Ratio (z) = 0.25426 0.27331
#
# Static dielectric constant tensor:
#      x y z
#    x 3.558670 0.136270 -0.086340 
#    y 0.136270 3.668310 -0.064190 
#    z -0.086340 -0.064190 3.159150 
# 
# 
# High freq. dielectric constant tensor:
#      x y z
#    x 1.756440 0.003120 -0.003160 
#    y 0.003120 1.757230 0.001970 
#    z -0.003160 0.001970 1.749360 
# 
# From -- ./inp_files/450346.got.cif
#   From: 2010.06.25/outbox.cif.g09.slc.cpg/sg2_226_cif.got.tgz:450346.got - 2010.06.27 13:26:56.
