data_PCOD8019700
_publ_section_title
;
Structure prediction by ZEFSAII (Michael W. Deem and Ramdas Pophale) SiO2 
 PCOD8019700
Probable space group: P -1
;
_chemical_formula_sum "Si O2"
_cell_formula_units_Z 14
_cell_length_a 12.241258
_cell_length_b 8.252959
_cell_length_c 8.797357
_cell_angle_alpha 54.965051
_cell_angle_beta 99.935653
_cell_angle_gamma 104.431344
_cell_volume 704.275466
_symmetry_space_group_name_H-M "P -1"
_symmetry_group_IT_number 2
_symmetry_cell_setting 'triclinic'
loop_
_space_group_symop_operation_xyz
x,y,z
-x,-y,-z
loop_
_atom_site_type_symbol
_atom_site_label
_atom_site_fract_x
_atom_site_fract_y
_atom_site_fract_z
Si Si1 0.794996 0.991271 0.107629
Si Si2 0.585226 0.156068 0.031566
Si Si3 0.783984 0.130461 0.695611
Si Si4 0.207984 0.405660 0.553012
Si Si5 0.552173 0.855372 0.695851
Si Si6 0.592155 0.537811 0.636264
Si Si7 0.011649 0.088652 0.619843
O O1 0.766663 0.742901 0.221575
O O2 0.915592 0.047791 0.192240
O O3 0.697785 0.066989 0.143038
O O4 0.807960 0.108770 0.889876
O O5 0.528609 0.212509 0.143165
O O6 0.616789 0.336902 0.825169
O O7 0.500000 0.000000 0.000000
O O8 0.770256 0.358638 0.525779
O O9 0.887412 0.073312 0.661744
O O10 0.674062 0.969204 0.716254
O O11 0.289613 0.357795 0.463716
O O12 0.079008 0.322570 0.510662
O O13 0.555763 0.661841 0.699897
O O14 0.500000 0.000000 0.500000
O O15 0.500000 0.500000 0.500000
O O16 0.000000 0.000000 0.500000
#
# Coordination Sequence:
#
# PCOD8019700 Si02
#       7
#     2   2   2   2   2   2   2
#     4  10  23  41  69  93 134 174 220 272 333 391
#     4  12  22  43  66  99 136 174 224 274 338 406
#     4  12  22  46  69  97 130 177 228 271 338 398
#     4  10  22  41  70  93 131 174 222 270 342 381
#     4  12  26  40  67 100 134 175 224 279 335 405
#     4  12  24  43  66  97 138 178 220 276 343 400
#     4  10  24  43  68  97 135 174 225 279 331 395
#
# _framework density 19.878585000000001
#
# number of rings (size 3 to 8) (size 9 to 14) (size 15 to 20)
#    0.857    0.000    2.857    5.571    2.000    0.000 
#    2.571    0.714    0.000    0.000    0.000    0.000 
#    0.000    0.000    0.000    0.000    0.000    0.000 
#
# Total GULP energy -173481.898749 kJ/mol
# GULP energy per Si atom -12391.564196 kJ/mol
# Density = 1.983334 g / cm^3
# Si number density = 19.878585 Si / 1000 Ang^3
#
#
#
# Elastic Constant Matrix: (Units=GPa)
#
#
# Indices 1 2 3 4 5 6 
#
# 1 128.0560 20.8822 35.6211 10.9910 -2.3861 -20.7406
# 2 20.8822 85.2997 25.5573 5.4487 5.5987 -14.3227
# 3 35.6211 25.5573 102.3841 -7.0699 9.8053 -3.4407
# 4 10.9910 5.4487 -7.0699 39.2208 -4.3941 -1.1918
# 5 -2.3861 5.5987 9.8053 -4.3941 36.6276 -0.4505
# 6 -20.7406 -14.3227 -3.4407 -1.1918 -0.4505 31.0579
#
#
#
# Elastic Compliance Matrix: (Units=1/GPa)
#
#
# Indices 1 2 3 4 5 6 
#
# 1 0.010144 -0.000261 -0.003603 -0.003116 0.001367 0.006155
# 2 -0.000261 0.013984 -0.003229 -0.002445 -0.001512 0.005801
# 3 -0.003603 -0.003229 0.012225 0.003291 -0.002649 -0.002453
# 4 -0.003116 -0.002445 0.003291 0.027538 0.002572 -0.001750
# 5 0.001367 -0.001512 -0.002649 0.002572 0.028645 0.000436
# 6 0.006155 0.005801 -0.002453 -0.001750 0.000436 0.038651
#
#
# Mechanical properties :
#
#
# Convention : Reuss Voigt Hill
#
# Bulk Modulus (GPa) = 45.11256 53.31788 49.21522
# Shear Modulus (GPa) = 32.73058 36.95987 34.84523
#
# Velocity S-wave (km/s) = 4.06214 4.31662 4.19131
# Velocity P-wave (km/s) = 6.68914 7.19196 6.94510
#
# Compressibility (1/GPa) = 0.02216678
#
# Stress axis : x y z
#
# Youngs Moduli (GPa) = 98.58342 71.50907 81.79736
#
# Poissons Ratio (x) = 0.01866 0.29474
# Poissons Ratio (y) = 0.02572 0.26413
# Poissons Ratio (z) = 0.35522 0.23091
#
# Static dielectric constant tensor:
#      x y z
#    x 3.909880 -0.080370 -0.043200 
#    y -0.080370 3.371500 0.012490 
#    z -0.043200 0.012490 3.770070 
# 
# 
# High freq. dielectric constant tensor:
#      x y z
#    x 1.795950 -0.007510 -0.003040 
#    y -0.007510 1.758340 -0.005710 
#    z -0.003040 -0.005710 1.783170 
# 
# From -- ./inp_files/221658.got.cif
#   From: 2010.06.25/outbox.cif.g09.slc.cpg/sg2_111_cif.got.tgz:221658.got - 2010.06.27 13:26:56.
