data_PCOD8019474
_publ_section_title
;
Structure prediction by ZEFSAII (Michael W. Deem and Ramdas Pophale) SiO2 
 PCOD8019474
Probable space group: P -1
;
_chemical_formula_sum "Si O2"
_cell_formula_units_Z 16
_cell_length_a 9.761882
_cell_length_b 15.740848
_cell_length_c 10.798928
_cell_angle_alpha 35.859663
_cell_angle_beta 58.477318
_cell_angle_gamma 50.011382
_cell_volume 744.757894
_symmetry_space_group_name_H-M "P -1"
_symmetry_group_IT_number 2
_symmetry_cell_setting 'triclinic'
loop_
_space_group_symop_operation_xyz
x,y,z
-x,-y,-z
loop_
_atom_site_type_symbol
_atom_site_label
_atom_site_fract_x
_atom_site_fract_y
_atom_site_fract_z
Si Si1 0.958213 0.063816 0.583563
Si Si2 0.308734 0.007371 0.046428
Si Si3 0.318702 0.886260 0.762610
Si Si4 0.390018 0.725319 0.163899
Si Si5 0.352529 0.192467 0.448334
Si Si6 0.731728 0.506111 0.398245
Si Si7 0.186025 0.340491 0.607628
Si Si8 0.022485 0.366230 0.245308
O O1 0.937714 0.247039 0.379555
O O2 0.000000 0.000000 0.500000
O O3 0.117486 0.953785 0.729744
O O4 0.779195 0.051550 0.730261
O O5 0.168287 0.186819 0.856325
O O6 0.500000 0.000000 0.000000
O O7 0.344098 0.897251 0.040246
O O8 0.451613 0.821758 0.658366
O O9 0.358379 0.017021 0.667140
O O10 0.357276 0.741914 0.012194
O O11 0.590427 0.591943 0.254726
O O12 0.257361 0.663765 0.362424
O O13 0.283070 0.297622 0.480293
O O14 0.230204 0.270450 0.293324
O O15 0.686885 0.623365 0.399257
O O16 0.926195 0.459704 0.305280
O O17 0.000000 0.500000 0.500000
O O18 0.000000 0.500000 0.000000
#
# Coordination Sequence:
#
# PCOD8019474 Si02
#       8
#     2   2   2   2   2   2   2   2
#     4  11  28  44  68 104 139 181 244 292 351 427
#     4  12  26  45  74 101 139 193 239 295 349 425
#     4  10  23  43  69  96 137 183 234 286 350 418
#     4  11  23  44  68  98 134 186 234 284 356 421
#     4  10  22  41  68 101 132 184 234 281 344 432
#     4  11  24  41  66 103 141 174 231 292 350 419
#     4  12  25  41  70 106 141 179 237 293 354 415
#     4  11  23  43  68  96 142 185 222 286 362 417
#
# _framework density 21.483491999999998
#
# number of rings (size 3 to 8) (size 9 to 14) (size 15 to 20)
#    0.000    1.000    5.000    0.750    5.250    1.500 
#    0.000    0.625    0.000    0.000    0.000    0.000 
#    0.000    0.000    0.000    0.000    0.000    0.000 
#
# Total GULP energy -198380.840448 kJ/mol
# GULP energy per Si atom -12398.802528 kJ/mol
# Density = 2.143459 g / cm^3
# Si number density = 21.483492 Si / 1000 Ang^3
#
#
#
# Elastic Constant Matrix: (Units=GPa)
#
#
# Indices 1 2 3 4 5 6 
#
# 1 75.6960 35.5637 55.7214 15.8455 -5.3888 2.3854
# 2 35.5637 124.6961 48.3689 10.7791 -4.6887 6.1618
# 3 55.7214 48.3689 151.6360 -7.7323 9.9048 -5.6163
# 4 15.8455 10.7791 -7.7323 32.3869 1.9069 -3.7081
# 5 -5.3888 -4.6887 9.9048 1.9069 31.5888 2.6757
# 6 2.3854 6.1618 -5.6163 -3.7081 2.6757 39.4316
#
#
#
# Elastic Compliance Matrix: (Units=1/GPa)
#
#
# Indices 1 2 3 4 5 6 
#
# 1 0.025715 -0.001274 -0.010613 -0.015782 0.008898 -0.004956
# 2 -0.001274 0.010233 -0.003278 -0.004022 0.002789 -0.002556
# 3 -0.010613 -0.003278 0.012702 0.010250 -0.007273 0.004421
# 4 -0.015782 -0.004022 0.010250 0.043859 -0.009814 0.007834
# 5 0.008898 0.002789 -0.007273 -0.009814 0.036922 -0.005438
# 6 -0.004956 -0.002556 0.004421 0.007834 -0.005438 0.027795
#
#
# Mechanical properties :
#
#
# Convention : Reuss Voigt Hill
#
# Bulk Modulus (GPa) = 54.58276 70.14847 62.36561
# Shear Modulus (GPa) = 25.81832 34.83972 30.32902
#
# Velocity S-wave (km/s) = 3.47042 4.03140 3.76138
# Velocity P-wave (km/s) = 6.44364 7.37514 6.92507
#
# Compressibility (1/GPa) = 0.01832080
#
# Stress axis : x y z
#
# Youngs Moduli (GPa) = 38.88855 97.72120 78.72987
#
# Poissons Ratio (x) = 0.12446 0.83552
# Poissons Ratio (y) = 0.04953 0.25809
# Poissons Ratio (z) = 0.41271 0.32034
#
# Static dielectric constant tensor:
#      x y z
#    x 3.802310 -0.000180 0.013900 
#    y -0.000180 3.899370 -0.082990 
#    z 0.013900 -0.082990 3.929870 
# 
# 
# High freq. dielectric constant tensor:
#      x y z
#    x 1.833730 -0.001390 0.008880 
#    y -0.001390 1.848100 -0.002570 
#    z 0.008880 -0.002570 1.852230 
# 
# From -- ./inp_files/436330.got.cif
#   From: 2010.06.25/outbox.cif.g09.slc.cpg/sg2_219_cif.got.tgz:436330.got - 2010.06.27 13:26:56.
