data_PCOD8019630
_publ_section_title
;
Structure prediction by ZEFSAII (Michael W. Deem and Ramdas Pophale) SiO2 
 PCOD8019630
Probable space group: P -1
;
_chemical_formula_sum "Si O2"
_cell_formula_units_Z 14
_cell_length_a 11.339406
_cell_length_b 8.622288
_cell_length_c 11.565603
_cell_angle_alpha 62.081507
_cell_angle_beta 45.197237
_cell_angle_gamma 54.234556
_cell_volume 647.901461
_symmetry_space_group_name_H-M "P -1"
_symmetry_group_IT_number 2
_symmetry_cell_setting 'triclinic'
loop_
_space_group_symop_operation_xyz
x,y,z
-x,-y,-z
loop_
_atom_site_type_symbol
_atom_site_label
_atom_site_fract_x
_atom_site_fract_y
_atom_site_fract_z
Si Si1 0.175554 0.388819 0.848740
Si Si2 0.756728 0.925985 0.535130
Si Si3 0.555866 0.002631 0.093827
Si Si4 0.311330 0.672945 0.569660
Si Si5 0.120167 0.703575 0.460743
Si Si6 0.944591 0.651295 0.300093
Si Si7 0.690225 0.333274 0.888884
O O1 0.198855 0.587525 0.751572
O O2 0.149108 0.297793 0.778185
O O3 0.328538 0.218931 0.873436
O O4 0.000000 0.500000 0.000000
O O5 0.617577 0.905507 0.732916
O O6 0.798561 0.780499 0.450100
O O7 0.949423 0.895591 0.472761
O O8 0.675991 0.135773 0.456013
O O9 0.675870 0.127834 0.979225
O O10 0.500000 0.000000 0.000000
O O11 0.500000 0.500000 0.500000
O O12 0.232901 0.739871 0.472714
O O13 0.022221 0.563541 0.612199
O O14 0.267721 0.621535 0.285535
O O15 0.136388 0.674169 0.152847
O O16 0.500000 0.500000 0.000000
#
# Coordination Sequence:
#
# PCOD8019630 Si02
#       7
#     2   2   2   2   2   2   2
#     4  11  28  46  67  96 140 176 217 281 339 397
#     4  11  22  44  70  97 132 173 230 271 322 403
#     4  12  27  43  68 103 136 176 222 273 337 395
#     4  11  23  43  65  97 129 179 222 268 330 394
#     4  10  22  41  69  94 133 176 223 268 329 399
#     4  10  24  46  69  98 131 180 225 272 339 387
#     4  11  23  40  68 102 132 171 220 279 330 389
#
# _framework density 21.608222999999999
#
# number of rings (size 3 to 8) (size 9 to 14) (size 15 to 20)
#    0.000    1.143    1.429    4.714   10.000    1.143 
#    2.571    0.000    0.000    0.000    0.000    0.000 
#    0.000    0.000    0.000    0.000    0.000    0.000 
#
# Total GULP energy -173446.776482 kJ/mol
# GULP energy per Si atom -12389.055463 kJ/mol
# Density = 2.155904 g / cm^3
# Si number density = 21.608223 Si / 1000 Ang^3
#
#
#
# Elastic Constant Matrix: (Units=GPa)
#
#
# Indices 1 2 3 4 5 6 
#
# 1 60.6807 35.6095 50.3744 -6.7415 4.3812 -6.6944
# 2 35.6095 99.5203 30.1834 5.5633 6.7837 -9.9655
# 3 50.3744 30.1834 144.8463 16.5616 -2.9279 -4.7241
# 4 -6.7415 5.5633 16.5616 44.2812 0.4261 -6.9086
# 5 4.3812 6.7837 -2.9279 0.4261 33.7981 -8.8686
# 6 -6.6944 -9.9655 -4.7241 -6.9086 -8.8686 31.0929
#
#
#
# Elastic Compliance Matrix: (Units=1/GPa)
#
#
# Indices 1 2 3 4 5 6 
#
# 1 0.031763 -0.008192 -0.010445 0.010460 -0.002390 0.004269
# 2 -0.008192 0.013238 0.000442 -0.002814 -0.001100 0.001607
# 3 -0.010445 0.000442 0.011133 -0.006013 0.001995 -0.001183
# 4 0.010460 -0.002814 -0.006013 0.027813 0.000079 0.006639
# 5 -0.002390 -0.001100 0.001995 0.000079 0.032585 0.008748
# 6 0.004269 0.001607 -0.001183 0.006639 0.008748 0.037387
#
#
# Mechanical properties :
#
#
# Convention : Reuss Voigt Hill
#
# Bulk Modulus (GPa) = 50.64134 59.70911 55.17523
# Shear Modulus (GPa) = 25.39473 34.42643 29.91058
#
# Velocity S-wave (km/s) = 3.43189 3.99583 3.72455
# Velocity P-wave (km/s) = 6.26026 6.99868 6.63974
#
# Compressibility (1/GPa) = 0.01974671
#
# Stress axis : x y z
#
# Youngs Moduli (GPa) = 31.48282 75.53749 89.81925
#
# Poissons Ratio (x) = 0.61880 0.93813
# Poissons Ratio (y) = 0.25790 -0.03973
# Poissons Ratio (z) = 0.32883 -0.03341
#
# Static dielectric constant tensor:
#      x y z
#    x 4.017480 0.002890 -0.256580 
#    y 0.002890 3.895200 -0.033650 
#    z -0.256580 -0.033650 4.516510 
# 
# 
# High freq. dielectric constant tensor:
#      x y z
#    x 1.841940 0.001110 -0.008100 
#    y 0.001110 1.860570 -0.001680 
#    z -0.008100 -0.001680 1.866360 
# 
# From -- ./inp_files/174578.got.cif
#   From: 2010.06.25/outbox.cif.g09.slc.cpg/sg2_88_cif.got.tgz:174578.got - 2010.06.27 13:26:56.
