data_PCOD8019136
_publ_section_title
;
Structure prediction by ZEFSAII (Michael W. Deem and Ramdas Pophale) SiO2 
 PCOD8019136
Probable space group: P -1
;
_chemical_formula_sum "Si O2"
_cell_formula_units_Z 16
_cell_length_a 13.411934
_cell_length_b 10.962581
_cell_length_c 13.393697
_cell_angle_alpha 96.822087
_cell_angle_beta 62.129960
_cell_angle_gamma 147.651081
_cell_volume 756.285984
_symmetry_space_group_name_H-M "P -1"
_symmetry_group_IT_number 2
_symmetry_cell_setting 'triclinic'
loop_
_space_group_symop_operation_xyz
x,y,z
-x,-y,-z
loop_
_atom_site_type_symbol
_atom_site_label
_atom_site_fract_x
_atom_site_fract_y
_atom_site_fract_z
Si Si1 0.359956 0.159710 0.793002
Si Si2 0.500909 0.630907 0.458313
Si Si3 0.947673 0.064442 0.601344
Si Si4 0.448093 0.448260 0.135679
Si Si5 0.689365 0.158683 0.217557
Si Si6 0.548953 0.824576 0.642269
Si Si7 0.269490 0.725387 0.011557
Si Si8 0.797154 0.596031 0.074657
O O1 0.327796 0.201646 0.706693
O O2 0.566115 0.429658 0.795335
O O3 0.441802 0.100939 0.720199
O O4 0.101544 0.899622 0.953308
O O5 0.500000 0.500000 0.500000
O O6 0.608008 0.835865 0.504795
O O7 0.213076 0.387556 0.538611
O O8 0.809878 0.879125 0.748262
O O9 0.782184 0.009816 0.622048
O O10 0.000000 0.000000 0.500000
O O11 0.691275 0.622114 0.090562
O O12 0.500000 0.500000 0.000000
O O13 0.485834 0.062787 0.338004
O O14 0.974418 0.453496 0.164841
O O15 0.720932 0.189569 0.086739
O O16 0.285271 0.508795 0.781645
O O17 0.318415 0.628425 0.960121
O O18 0.500000 0.000000 0.000000
#
# Coordination Sequence:
#
# PCOD8019136 Si02
#       8
#     2   2   2   2   2   2   2   2
#     4  11  23  41  60  90 130 158 207 256 312 372
#     4  12  24  40  68  86 119 175 201 256 319 365
#     4  11  22  44  61  91 122 157 218 251 306 381
#     4  11  24  35  61  91 120 156 200 264 305 356
#     4   9  21  39  58  91 128 163 202 258 303 369
#     4  10  22  41  65  89 122 163 206 256 308 369
#     4   9  18  36  64  87 127 168 199 245 316 372
#     4   9  21  39  58  94 119 151 208 257 301 369
#
# _framework density 21.156016999999999
#
# number of rings (size 3 to 8) (size 9 to 14) (size 15 to 20)
#    0.000    1.750    2.500    1.875    5.250    3.500 
#    0.000    0.625    0.000    0.000    0.000    0.000 
#    0.000    0.000    0.000    0.000    0.000    0.000 
#
# Total GULP energy -198321.395283 kJ/mol
# GULP energy per Si atom -12395.087205 kJ/mol
# Density = 2.110786 g / cm^3
# Si number density = 21.156017 Si / 1000 Ang^3
#
#
#
# Elastic Constant Matrix: (Units=GPa)
#
#
# Indices 1 2 3 4 5 6 
#
# 1 95.2468 26.8373 18.4976 2.3252 -6.3798 -14.1098
# 2 26.8373 92.1910 8.0988 2.3680 3.5980 2.8770
# 3 18.4976 8.0988 69.2638 9.4671 7.5754 8.2947
# 4 2.3252 2.3680 9.4671 34.0293 5.1804 -4.0742
# 5 -6.3798 3.5980 7.5754 5.1804 37.5340 3.6950
# 6 -14.1098 2.8770 8.2947 -4.0742 3.6950 32.2777
#
#
#
# Elastic Compliance Matrix: (Units=1/GPa)
#
#
# Indices 1 2 3 4 5 6 
#
# 1 0.013744 -0.003967 -0.004533 0.001057 0.002762 0.007344
# 2 -0.003967 0.012146 0.000242 -0.000747 -0.001509 -0.002800
# 3 -0.004533 0.000242 0.017425 -0.004913 -0.002967 -0.006761
# 4 0.001057 -0.000747 -0.004913 0.032063 -0.003800 0.006273
# 5 0.002762 -0.001509 -0.002967 -0.003800 0.028542 -0.001642
# 6 0.007344 -0.002800 -0.006761 0.006273 -0.001642 0.037158
#
#
# Mechanical properties :
#
#
# Convention : Reuss Voigt Hill
#
# Bulk Modulus (GPa) = 37.31364 40.39656 38.85510
# Shear Modulus (GPa) = 30.02510 34.31940 32.17225
#
# Velocity S-wave (km/s) = 3.77134 4.03203 3.90386
# Velocity P-wave (km/s) = 6.05307 6.38846 6.22303
#
# Compressibility (1/GPa) = 0.02679985
#
# Stress axis : x y z
#
# Youngs Moduli (GPa) = 72.75799 82.33114 57.38723
#
# Poissons Ratio (x) = 0.32660 0.26012
# Poissons Ratio (y) = 0.28863 -0.01387
# Poissons Ratio (z) = 0.32979 -0.01990
#
# Static dielectric constant tensor:
#      x y z
#    x 4.125230 -0.158540 -0.049860 
#    y -0.158540 3.885430 0.004560 
#    z -0.049860 0.004560 3.892070 
# 
# 
# High freq. dielectric constant tensor:
#      x y z
#    x 1.829800 -0.011800 -0.002320 
#    y -0.011800 1.810530 0.002980 
#    z -0.002320 0.002980 1.824720 
# 
# From -- ./inp_files/531196.got.cif
#   From: 2010.06.25/outbox.cif.g09.slc.cpg/sg2_266_cif.got.tgz:531196.got - 2010.06.27 13:26:56.
