data_PCOD8019238
_publ_section_title
;
Structure prediction by ZEFSAII (Michael W. Deem and Ramdas Pophale) SiO2 
 PCOD8019238
Probable space group: P -1
;
_chemical_formula_sum "Si O2"
_cell_formula_units_Z 14
_cell_length_a 9.394517
_cell_length_b 9.579844
_cell_length_c 12.624586
_cell_angle_alpha 143.248845
_cell_angle_beta 102.647914
_cell_angle_gamma 75.757238
_cell_volume 658.463865
_symmetry_space_group_name_H-M "P -1"
_symmetry_group_IT_number 2
_symmetry_cell_setting 'triclinic'
loop_
_space_group_symop_operation_xyz
x,y,z
-x,-y,-z
loop_
_atom_site_type_symbol
_atom_site_label
_atom_site_fract_x
_atom_site_fract_y
_atom_site_fract_z
Si Si1 0.432265 0.705475 0.342950
Si Si2 0.457839 0.924736 0.273790
Si Si3 0.874311 0.191013 0.555705
Si Si4 0.722207 0.012425 0.229032
Si Si5 0.907565 0.725737 0.909352
Si Si6 0.793852 0.081714 0.934689
Si Si7 0.428714 0.761128 0.839266
O O1 0.466441 0.700005 0.218843
O O2 0.266746 0.825795 0.404267
O O3 0.444725 0.450447 0.245463
O O4 0.544092 0.849662 0.512830
O O5 0.305049 0.965998 0.210997
O O6 0.598658 0.890575 0.198792
O O7 0.838613 0.121605 0.387804
O O8 0.925457 0.447402 0.728190
O O9 0.000000 0.000000 0.500000
O O10 0.643956 0.239104 0.289098
O O11 0.800859 0.813561 0.042710
O O12 0.846612 0.839850 0.858194
O O13 0.067445 0.796397 0.006824
O O14 0.696735 0.256984 0.104724
O O15 0.500000 0.000000 0.000000
#
# Coordination Sequence:
#
# PCOD8019238 Si02
#       7
#     2   2   2   2   2   2   2
#     4  10  24  41  66  99 133 168 219 282 326 382
#     4  10  22  41  66 100 130 168 222 272 330 386
#     4  11  26  44  65  96 137 177 221 266 328 405
#     4  10  23  43  72  99 128 177 224 268 331 387
#     4  10  24  45  64  99 136 176 218 268 331 395
#     4  10  22  41  68  98 132 170 219 272 332 392
#     4  11  21  42  67 101 127 166 225 274 323 394
#
# _framework density 21.261607000000001
#
# number of rings (size 3 to 8) (size 9 to 14) (size 15 to 20)
#    0.000    1.714    1.429    1.714    4.000    5.714 
#    2.571    2.143    0.000    0.000    0.000    0.000 
#    0.000    0.000    0.000    0.000    0.000    0.000 
#
# Total GULP energy -173589.851747 kJ/mol
# GULP energy per Si atom -12399.275125 kJ/mol
# Density = 2.121321 g / cm^3
# Si number density = 21.261607 Si / 1000 Ang^3
#
#
#
# Elastic Constant Matrix: (Units=GPa)
#
#
# Indices 1 2 3 4 5 6 
#
# 1 128.5932 80.9718 57.3279 -10.4022 12.7946 -18.6255
# 2 80.9718 169.2587 87.0977 -7.9158 4.6879 -12.1162
# 3 57.3279 87.0977 109.2252 -3.2904 15.5018 -11.5570
# 4 -10.4022 -7.9158 -3.2904 41.9375 -4.7771 -0.8956
# 5 12.7946 4.6879 15.5018 -4.7771 32.1964 -0.0285
# 6 -18.6255 -12.1162 -11.5570 -0.8956 -0.0285 31.0985
#
#
#
# Elastic Compliance Matrix: (Units=1/GPa)
#
#
# Indices 1 2 3 4 5 6 
#
# 1 0.012732 -0.004487 -0.002056 0.001904 -0.003129 0.005165
# 2 -0.004487 0.011932 -0.007784 0.000957 0.003935 -0.000901
# 3 -0.002056 -0.007784 0.017591 -0.001316 -0.006712 0.002229
# 4 0.001904 0.000957 -0.001316 0.024822 0.003422 0.001742
# 5 -0.003129 0.003935 -0.006712 0.003422 0.035467 -0.002704
# 6 0.005165 -0.000901 0.002229 0.001742 -0.002704 0.035774
#
#
# Mechanical properties :
#
#
# Convention : Reuss Voigt Hill
#
# Bulk Modulus (GPa) = 73.53609 95.31913 84.42761
# Shear Modulus (GPa) = 29.15333 33.15847 31.15590
#
# Velocity S-wave (km/s) = 3.70695 3.95339 3.83215
# Velocity P-wave (km/s) = 7.27897 8.10975 7.70556
#
# Compressibility (1/GPa) = 0.01359876
#
# Stress axis : x y z
#
# Youngs Moduli (GPa) = 78.54085 83.80950 56.84789
#
# Poissons Ratio (x) = 0.37608 0.11690
# Poissons Ratio (y) = 0.35244 0.44252
# Poissons Ratio (z) = 0.16151 0.65240
#
# Static dielectric constant tensor:
#      x y z
#    x 4.002180 -0.075910 0.070540 
#    y -0.075910 4.155610 -0.224380 
#    z 0.070540 -0.224380 3.705720 
# 
# 
# High freq. dielectric constant tensor:
#      x y z
#    x 1.842550 -0.001260 0.008510 
#    y -0.001260 1.841430 -0.014290 
#    z 0.008510 -0.014290 1.821690 
# 
# From -- ./inp_files/183846.got.cif
#   From: 2010.06.25/outbox.cif.g09.slc.cpg/sg2_92_cif.got.tgz:183846.got - 2010.06.27 13:26:56.
