data_PCOD8019263
_publ_section_title
;
Structure prediction by ZEFSAII (Michael W. Deem and Ramdas Pophale) SiO2 
 PCOD8019263
Probable space group: P -1
;
_chemical_formula_sum "Si O2"
_cell_formula_units_Z 16
_cell_length_a 12.469553
_cell_length_b 11.179255
_cell_length_c 11.701399
_cell_angle_alpha 93.994162
_cell_angle_beta 144.780947
_cell_angle_gamma 110.244373
_cell_volume 669.819990
_symmetry_space_group_name_H-M "P -1"
_symmetry_group_IT_number 2
_symmetry_cell_setting 'triclinic'
loop_
_space_group_symop_operation_xyz
x,y,z
-x,-y,-z
loop_
_atom_site_type_symbol
_atom_site_label
_atom_site_fract_x
_atom_site_fract_y
_atom_site_fract_z
Si Si1 0.123066 0.818747 0.495500
Si Si2 0.786584 0.292513 0.639053
Si Si3 0.573617 0.568862 0.942722
Si Si4 0.351327 0.245971 0.335296
Si Si5 0.648837 0.409381 0.814795
Si Si6 0.181197 0.902224 0.177083
Si Si7 0.028113 0.396066 0.441488
Si Si8 0.645114 0.161642 0.890220
O O1 0.165341 0.716972 0.451537
O O2 0.064087 0.758836 0.571417
O O3 0.860074 0.763524 0.208497
O O4 0.385019 0.014386 0.726979
O O5 0.588753 0.315195 0.463378
O O6 0.687152 0.128490 0.615047
O O7 0.046305 0.447460 0.942100
O O8 0.589300 0.452879 0.880164
O O9 0.333959 0.535910 0.681056
O O10 0.500000 0.500000 0.000000
O O11 0.470375 0.374867 0.553437
O O12 0.242859 0.067693 0.269289
O O13 0.137333 0.239154 0.093464
O O14 0.570923 0.235514 0.747409
O O15 0.251529 0.900377 0.105106
O O16 0.000000 0.500000 0.500000
O O17 0.862985 0.312274 0.176423
#
# Coordination Sequence:
#
# PCOD8019263 Si02
#       8
#     2   2   2   2   2   2   2   2
#     4  10  22  41  66  91 126 171 208 264 324 380
#     4  11  21  43  61  92 131 171 214 261 320 378
#     4   9  20  42  62  87 121 161 212 258 315 378
#     4  11  22  40  60  94 129 167 216 259 322 379
#     4  11  23  39  65  90 128 170 209 268 318 380
#     4  11  24  39  65  94 130 172 209 270 317 384
#     4  11  23  44  66  93 126 163 214 270 321 382
#     4  12  22  41  66  94 129 168 214 265 327 376
#
# _framework density 23.887013
#
# number of rings (size 3 to 8) (size 9 to 14) (size 15 to 20)
#    0.000    1.250    2.500    4.875    0.000    0.500 
#    9.000    8.125    0.000    0.000    0.000    0.000 
#    0.000    0.000    0.000    0.000    0.000    0.000 
#
# Total GULP energy -198223.617495 kJ/mol
# GULP energy per Si atom -12388.976093 kJ/mol
# Density = 2.383265 g / cm^3
# Si number density = 23.887013 Si / 1000 Ang^3
#
#
#
# Elastic Constant Matrix: (Units=GPa)
#
#
# Indices 1 2 3 4 5 6 
#
# 1 92.9376 -9.0428 34.2826 -2.5150 6.8795 -4.0473
# 2 -9.0428 26.6209 -9.8304 -0.7530 7.0083 -1.6362
# 3 34.2826 -9.8304 134.1195 -5.7796 11.3993 -11.5109
# 4 -2.5150 -0.7530 -5.7796 27.4265 -2.3742 -4.8894
# 5 6.8795 7.0083 11.3993 -2.3742 48.8158 -4.5939
# 6 -4.0473 -1.6362 -11.5109 -4.8894 -4.5939 24.6207
#
#
#
# Elastic Compliance Matrix: (Units=1/GPa)
#
#
# Indices 1 2 3 4 5 6 
#
# 1 0.012257 0.003668 -0.002629 0.000696 -0.001523 0.000884
# 2 0.003668 0.042089 0.003174 0.002297 -0.006806 0.004070
# 3 -0.002629 0.003174 0.008956 0.002322 -0.001677 0.004114
# 4 0.000696 0.002297 0.002322 0.038913 0.001809 0.009418
# 5 -0.001523 -0.006806 -0.001677 0.001809 0.022444 0.003060
# 6 0.000884 0.004070 0.004114 0.009418 0.003060 0.045397
#
#
# Mechanical properties :
#
#
# Convention : Reuss Voigt Hill
#
# Bulk Modulus (GPa) = 13.94148 31.61076 22.77612
# Shear Modulus (GPa) = 26.94842 36.05718 31.50280
#
# Velocity S-wave (km/s) = 3.36246 3.88943 3.63550
# Velocity P-wave (km/s) = 4.57427 5.78207 5.21327
#
# Compressibility (1/GPa) = 0.07172837
#
# Stress axis : x y z
#
# Youngs Moduli (GPa) = 81.58918 23.75895 111.65289
#
# Poissons Ratio (x) = -0.08714 0.29351
# Poissons Ratio (y) = -0.29923 -0.35442
# Poissons Ratio (z) = 0.21448 -0.07542
#
# Static dielectric constant tensor:
#      x y z
#    x 4.437910 0.031350 0.455700 
#    y 0.031350 4.204410 -0.279070 
#    z 0.455700 -0.279070 5.256190 
# 
# 
# High freq. dielectric constant tensor:
#      x y z
#    x 1.952210 0.003560 0.007370 
#    y 0.003560 1.913570 0.005950 
#    z 0.007370 0.005950 1.978240 
# 
# From -- ./inp_files/304527.got.cif
#   From: 2010.06.25/outbox.cif.g09.slc.cpg/sg2_153_cif.got.tgz:304527.got - 2010.06.27 13:26:56.
