data_PCOD8019996
_publ_section_title
;
Structure prediction by ZEFSAII (Michael W. Deem and Ramdas Pophale) SiO2 
 PCOD8019996
Probable space group: P -1
;
_chemical_formula_sum "Si O2"
_cell_formula_units_Z 16
_cell_length_a 7.305089
_cell_length_b 15.163094
_cell_length_c 24.169203
_cell_angle_alpha 18.000791
_cell_angle_beta 70.596668
_cell_angle_gamma 70.289442
_cell_volume 778.247250
_symmetry_space_group_name_H-M "P -1"
_symmetry_group_IT_number 2
_symmetry_cell_setting 'triclinic'
loop_
_space_group_symop_operation_xyz
x,y,z
-x,-y,-z
loop_
_atom_site_type_symbol
_atom_site_label
_atom_site_fract_x
_atom_site_fract_y
_atom_site_fract_z
Si Si1 0.742717 0.227746 0.980100
Si Si2 0.582987 0.860004 0.498950
Si Si3 0.653184 0.213236 0.875926
Si Si4 0.967994 0.261675 0.721475
Si Si5 0.803146 0.860854 0.586979
Si Si6 0.424357 0.239610 0.090966
Si Si7 0.272545 0.822349 0.804374
Si Si8 0.109887 0.843093 0.329968
O O1 0.729845 0.107350 0.991209
O O2 0.849337 0.522252 0.792283
O O3 0.530043 0.288756 0.992590
O O4 0.862522 0.991076 0.145583
O O5 0.545616 0.527210 0.705363
O O6 0.731234 0.943436 0.482823
O O7 0.372930 0.033176 0.418171
O O8 0.679139 0.923683 0.393095
O O9 0.829407 0.214213 0.815007
O O10 0.500000 0.000000 0.000000
O O11 0.852839 0.249031 0.682614
O O12 0.060660 0.566866 0.535427
O O13 0.000000 0.000000 0.500000
O O14 0.580222 0.182912 0.156838
O O15 0.304080 0.960200 0.265390
O O16 0.283043 0.520372 0.951347
O O17 0.057607 0.899282 0.803063
#
# Coordination Sequence:
#
# PCOD8019996 Si02
#       8
#     2   2   2   2   2   2   2   2
#     4  11  23  43  62  94 128 157 215 260 306 380
#     4  10  22  42  64  92 128 160 212 260 305 376
#     4  11  24  41  64  91 126 169 207 258 312 368
#     4  11  24  43  62  92 127 164 216 255 301 381
#     4  10  23  41  66  93 124 167 205 262 318 363
#     4  11  24  41  67  94 124 166 204 262 320 361
#     4  11  22  44  62  96 129 155 216 259 304 380
#     4  11  24  43  66  90 126 170 208 256 312 367
#
# _framework density 20.559017999999998
#
# number of rings (size 3 to 8) (size 9 to 14) (size 15 to 20)
#    0.000    1.250    3.750    1.500    1.750    3.500 
#    0.000    0.000    0.000    0.000    0.000    0.000 
#    0.000    0.000    0.000    0.000    0.000    0.000 
#
# Total GULP energy -198470.239654 kJ/mol
# GULP energy per Si atom -12404.389978 kJ/mol
# Density = 2.051222 g / cm^3
# Si number density = 20.559018 Si / 1000 Ang^3
#
#
#
# Elastic Constant Matrix: (Units=GPa)
#
#
# Indices 1 2 3 4 5 6 
#
# 1 101.1251 35.8904 49.0159 -10.5447 -23.5369 3.5532
# 2 35.8904 113.6690 28.8826 7.7580 -16.5190 -4.1802
# 3 49.0159 28.8826 99.7372 -5.0464 -14.8792 10.8947
# 4 -10.5447 7.7580 -5.0464 36.7916 -0.2154 -1.4859
# 5 -23.5369 -16.5190 -14.8792 -0.2154 41.4498 -7.7678
# 6 3.5532 -4.1802 10.8947 -1.4859 -7.7678 22.9665
#
#
#
# Elastic Compliance Matrix: (Units=1/GPa)
#
#
# Indices 1 2 3 4 5 6 
#
# 1 0.015524 -0.002721 -0.005968 0.004331 0.006033 0.002255
# 2 -0.002721 0.010954 -0.002022 -0.003183 0.002853 0.004133
# 3 -0.005968 -0.002022 0.014209 0.000411 -0.000263 -0.006247
# 4 0.004331 -0.003183 0.000411 0.029200 0.001680 0.001013
# 5 0.006033 0.002853 -0.000263 0.001680 0.030502 0.010136
# 6 0.002255 0.004133 -0.006247 0.001013 0.010136 0.050402
#
#
# Mechanical properties :
#
#
# Convention : Reuss Voigt Hill
#
# Bulk Modulus (GPa) = 51.90861 60.23435 56.07148
# Shear Modulus (GPa) = 27.98993 33.62441 30.80717
#
# Velocity S-wave (km/s) = 3.69378 4.04853 3.87521
# Velocity P-wave (km/s) = 6.59510 7.15653 6.88155
#
# Compressibility (1/GPa) = 0.01926463
#
# Stress axis : x y z
#
# Youngs Moduli (GPa) = 64.41640 91.28943 70.37762
#
# Poissons Ratio (x) = 0.24839 0.42005
# Poissons Ratio (y) = 0.17527 0.14230
# Poissons Ratio (z) = 0.38447 0.18458
#
# Static dielectric constant tensor:
#      x y z
#    x 3.470060 -0.070730 0.041250 
#    y -0.070730 4.035380 0.020690 
#    z 0.041250 0.020690 3.848080 
# 
# 
# High freq. dielectric constant tensor:
#      x y z
#    x 1.787960 -0.003320 0.003360 
#    y -0.003320 1.820990 -0.002360 
#    z 0.003360 -0.002360 1.812570 
# 
# From -- ./inp_files/111066.got.cif
#   From: 2010.06.25/outbox.cif.g09.slc.cpg/sg2_56_cif.got.tgz:111066.got - 2010.06.27 13:26:56.
