data_PCOD8019354
_publ_section_title
;
Structure prediction by ZEFSAII (Michael W. Deem and Ramdas Pophale) SiO2 
 PCOD8019354
Probable space group: P -1
;
_chemical_formula_sum "Si O2"
_cell_formula_units_Z 16
_cell_length_a 16.231412
_cell_length_b 11.858080
_cell_length_c 5.350920
_cell_angle_alpha 104.310239
_cell_angle_beta 121.447811
_cell_angle_gamma 51.720484
_cell_volume 685.264645
_symmetry_space_group_name_H-M "P -1"
_symmetry_group_IT_number 2
_symmetry_cell_setting 'triclinic'
loop_
_space_group_symop_operation_xyz
x,y,z
-x,-y,-z
loop_
_atom_site_type_symbol
_atom_site_label
_atom_site_fract_x
_atom_site_fract_y
_atom_site_fract_z
Si Si1 0.904412 0.734762 0.545981
Si Si2 0.498417 0.076227 0.785759
Si Si3 0.076051 0.515602 0.330658
Si Si4 0.182796 0.826596 0.316377
Si Si5 0.619468 0.489531 0.702731
Si Si6 0.945038 0.893697 0.074766
Si Si7 0.335794 0.403746 0.655415
Si Si8 0.259160 0.982232 0.787813
O O1 0.878035 0.617345 0.479486
O O2 0.970247 0.755866 0.887013
O O3 0.994174 0.673307 0.416090
O O4 0.776334 0.892781 0.401778
O O5 0.382608 0.240389 0.691234
O O6 0.500000 0.000000 0.500000
O O7 0.613949 0.076300 0.930362
O O8 0.500000 0.000000 0.000000
O O9 0.194514 0.497736 0.418602
O O10 0.000000 0.500000 0.000000
O O11 0.262297 0.674280 0.220844
O O12 0.272017 0.841426 0.632626
O O13 0.120219 0.957496 0.096558
O O14 0.078423 0.843252 0.332799
O O15 0.500000 0.500000 0.500000
O O16 0.607665 0.586144 0.503731
O O17 0.631204 0.544005 0.019312
O O18 0.858925 0.924923 0.180674
#
# Coordination Sequence:
#
# PCOD8019354 Si02
#       8
#     2   2   2   2   2   2   2   2
#     4  10  23  40  66 101 142 179 236 285 366 426
#     4  12  29  49  77 105 144 190 246 298 356 425
#     4  11  25  41  70  99 148 186 233 296 368 433
#     4  10  24  41  69 101 140 182 238 289 359 420
#     4  12  28  49  77 103 149 192 245 302 362 428
#     4  10  22  41  67 101 139 179 235 293 355 428
#     4  12  29  48  75 109 145 191 247 295 365 434
#     4  11  24  41  73  98 141 183 239 297 358 423
#
# _framework density 23.348645999999999
#
# number of rings (size 3 to 8) (size 9 to 14) (size 15 to 20)
#    0.000    1.000    0.000    4.500   17.500    0.000 
#    0.000    0.000    0.000    0.000    0.000    0.000 
#    0.000    0.000    0.000    0.000    0.000    0.000 
#
# Total GULP energy -198314.310692 kJ/mol
# GULP energy per Si atom -12394.644418 kJ/mol
# Density = 2.329550 g / cm^3
# Si number density = 23.348646 Si / 1000 Ang^3
#
#
#
# Elastic Constant Matrix: (Units=GPa)
#
#
# Indices 1 2 3 4 5 6 
#
# 1 93.7930 3.5341 32.4862 -6.0634 8.5765 -0.2610
# 2 3.5341 109.1211 12.0821 16.5597 -4.2236 -1.0253
# 3 32.4862 12.0821 129.0094 27.3513 12.2078 -2.7892
# 4 -6.0634 16.5597 27.3513 30.5089 -7.1293 -1.3187
# 5 8.5765 -4.2236 12.2078 -7.1293 44.6785 -2.9911
# 6 -0.2610 -1.0253 -2.7892 -1.3187 -2.9911 28.3110
#
#
#
# Elastic Compliance Matrix: (Units=1/GPa)
#
#
# Indices 1 2 3 4 5 6 
#
# 1 0.012786 -0.001000 -0.004644 0.007214 -0.000132 -0.000054
# 2 -0.001000 0.010073 0.000634 -0.006233 -0.000015 0.000126
# 3 -0.004644 0.000634 0.012063 -0.013113 -0.004431 0.000090
# 4 0.007214 -0.006233 -0.013113 0.051775 0.010006 0.002018
# 5 -0.000132 -0.000015 -0.004431 0.010006 0.025395 0.002711
# 6 -0.000054 0.000126 0.000090 0.002018 0.002711 0.035715
#
#
# Mechanical properties :
#
#
# Convention : Reuss Voigt Hill
#
# Bulk Modulus (GPa) = 40.15908 47.56980 43.86444
# Shear Modulus (GPa) = 30.09714 39.62109 34.85912
#
# Velocity S-wave (km/s) = 3.59420 4.12385 3.86810
# Velocity P-wave (km/s) = 5.87039 6.56451 6.22713
#
# Compressibility (1/GPa) = 0.02490097
#
# Stress axis : x y z
#
# Youngs Moduli (GPa) = 78.20806 99.27765 82.89950
#
# Poissons Ratio (x) = 0.09931 0.38501
# Poissons Ratio (y) = 0.07824 -0.05257
# Poissons Ratio (z) = 0.36322 -0.06295
#
# Static dielectric constant tensor:
#      x y z
#    x 4.453930 0.167010 0.073260 
#    y 0.167010 4.463200 0.026770 
#    z 0.073260 0.026770 4.182630 
# 
# 
# High freq. dielectric constant tensor:
#      x y z
#    x 1.929990 0.007390 0.006430 
#    y 0.007390 1.945780 0.001850 
#    z 0.006430 0.001850 1.919290 
# 
# From -- ./inp_files/109825.got.cif
#   From: 2010.06.25/outbox.cif.g09.slc.cpg/sg2_55_cif.got.tgz:109825.got - 2010.06.27 13:26:56.
