data_PCOD8019983
_publ_section_title
;
Structure prediction by ZEFSAII (Michael W. Deem and Ramdas Pophale) SiO2 
 PCOD8019983
Probable space group: P -1
;
_chemical_formula_sum "Si O2"
_cell_formula_units_Z 16
_cell_length_a 9.007013
_cell_length_b 9.153224
_cell_length_c 10.432889
_cell_angle_alpha 102.035763
_cell_angle_beta 65.361555
_cell_angle_gamma 90.753102
_cell_volume 761.987936
_symmetry_space_group_name_H-M "P -1"
_symmetry_group_IT_number 2
_symmetry_cell_setting 'triclinic'
loop_
_space_group_symop_operation_xyz
x,y,z
-x,-y,-z
loop_
_atom_site_type_symbol
_atom_site_label
_atom_site_fract_x
_atom_site_fract_y
_atom_site_fract_z
Si Si1 0.648737 0.960462 0.532557
Si Si2 0.319896 0.850660 0.069927
Si Si3 0.011135 0.834508 0.018901
Si Si4 0.623983 0.833648 0.789068
Si Si5 0.637163 0.264128 0.690745
Si Si6 0.042582 0.539085 0.845232
Si Si7 0.266621 0.268344 0.734062
Si Si8 0.851595 0.529442 0.658706
O O1 0.581700 0.885731 0.670074
O O2 0.770175 0.841517 0.391362
O O3 0.500000 0.000000 0.500000
O O4 0.732664 0.113155 0.567432
O O5 0.367562 0.751779 0.158252
O O6 0.140235 0.813510 0.083940
O O7 0.311891 0.029565 0.127401
O O8 0.453496 0.792711 0.904836
O O9 0.833366 0.791670 0.121318
O O10 0.068896 0.716439 0.863327
O O11 0.000000 0.000000 0.000000
O O12 0.762501 0.695781 0.710927
O O13 0.453406 0.273697 0.706535
O O14 0.723398 0.409928 0.645773
O O15 0.908904 0.503170 0.780246
O O16 0.207624 0.435122 0.737039
O O17 0.000000 0.500000 0.000000
O O18 0.000000 0.500000 0.500000
#
# Coordination Sequence:
#
# PCOD8019983 Si02
#       8
#     2   2   2   2   2   2   2   2
#     4   9  20  41  64  92 128 171 215 264 327 391
#     4  10  23  41  66  97 131 169 223 267 332 388
#     4  11  24  38  64  97 128 166 213 276 324 376
#     4  10  23  40  68  98 132 168 224 278 317 392
#     4  10  23  41  69  93 127 181 214 265 333 392
#     4  10  23  42  63  93 132 169 217 263 328 389
#     4  10  22  42  64  90 131 170 217 261 322 399
#     4  12  26  45  66  98 136 172 223 277 330 392
#
# _framework density 20.997706999999998
#
# number of rings (size 3 to 8) (size 9 to 14) (size 15 to 20)
#    0.000    1.750    0.000    3.000   12.250    2.500 
#    2.250    6.250    0.000    0.000    0.000    0.000 
#    0.000    0.000    0.000    0.000    0.000    0.000 
#
# Total GULP energy -198324.138956 kJ/mol
# GULP energy per Si atom -12395.258685 kJ/mol
# Density = 2.094992 g / cm^3
# Si number density = 20.997707 Si / 1000 Ang^3
#
#
#
# Elastic Constant Matrix: (Units=GPa)
#
#
# Indices 1 2 3 4 5 6 
#
# 1 114.6977 44.8157 45.2851 4.2393 3.4583 2.0783
# 2 44.8157 140.7461 60.2204 24.9699 -10.2489 -2.0483
# 3 45.2851 60.2204 110.5226 19.8136 -0.3761 -5.4977
# 4 4.2393 24.9699 19.8136 38.6984 -2.9507 -3.2274
# 5 3.4583 -10.2489 -0.3761 -2.9507 35.4222 -3.5682
# 6 2.0783 -2.0483 -5.4977 -3.2274 -3.5682 35.1758
#
#
#
# Elastic Compliance Matrix: (Units=1/GPa)
#
#
# Indices 1 2 3 4 5 6 
#
# 1 0.011135 -0.002498 -0.003634 0.001999 -0.001820 -0.001373
# 2 -0.002498 0.010565 -0.003951 -0.004295 0.002906 0.000046
# 3 -0.003634 -0.003951 0.013463 -0.003869 -0.000801 0.001653
# 4 0.001999 -0.004295 -0.003869 0.030635 0.001271 0.001967
# 5 -0.001820 0.002906 -0.000801 0.001271 0.029677 0.003279
# 6 -0.001373 0.000046 0.001653 0.001967 0.003279 0.029284
#
#
# Mechanical properties :
#
#
# Convention : Reuss Voigt Hill
#
# Bulk Modulus (GPa) = 66.68098 74.06764 70.37431
# Shear Modulus (GPa) = 33.35012 36.23563 34.79288
#
# Velocity S-wave (km/s) = 3.98964 4.15865 4.07502
# Velocity P-wave (km/s) = 7.28342 7.64264 7.46519
#
# Compressibility (1/GPa) = 0.01499678
#
# Stress axis : x y z
#
# Youngs Moduli (GPa) = 89.80388 94.65144 74.27822
#
# Poissons Ratio (x) = 0.23642 0.26996
# Poissons Ratio (y) = 0.22432 0.29347
# Poissons Ratio (z) = 0.32639 0.37396
#
# Static dielectric constant tensor:
#      x y z
#    x 3.720960 -0.007530 0.193130 
#    y -0.007530 4.282730 0.610460 
#    z 0.193130 0.610460 4.187210 
# 
# 
# High freq. dielectric constant tensor:
#      x y z
#    x 1.818770 -0.007740 0.014950 
#    y -0.007740 1.835630 0.021530 
#    z 0.014950 0.021530 1.821090 
# 
# From -- ./inp_files/379440.got.cif
#   From: 2010.06.25/outbox.cif.g09.slc.cpg/sg2_190_cif.got.tgz:379440.got - 2010.06.27 13:26:56.
