data_PCOD8019306
_publ_section_title
;
Structure prediction by ZEFSAII (Michael W. Deem and Ramdas Pophale) SiO2 
 PCOD8019306
Probable space group: P -1
;
_chemical_formula_sum "Si O2"
_cell_formula_units_Z 16
_cell_length_a 14.212053
_cell_length_b 14.659986
_cell_length_c 15.614494
_cell_angle_alpha 27.437068
_cell_angle_beta 131.640833
_cell_angle_gamma 149.391955
_cell_volume 691.350915
_symmetry_space_group_name_H-M "P -1"
_symmetry_group_IT_number 2
_symmetry_cell_setting 'triclinic'
loop_
_space_group_symop_operation_xyz
x,y,z
-x,-y,-z
loop_
_atom_site_type_symbol
_atom_site_label
_atom_site_fract_x
_atom_site_fract_y
_atom_site_fract_z
Si Si1 0.096073 0.106588 0.194333
Si Si2 0.566219 0.216390 0.482086
Si Si3 0.555262 0.295490 0.788459
Si Si4 0.195592 0.523319 0.765231
Si Si5 0.016202 0.303348 0.285151
Si Si6 0.364343 0.343352 0.308977
Si Si7 0.079961 0.527216 0.435540
Si Si8 0.133712 0.889605 0.832700
O O1 0.295098 0.355117 0.168142
O O2 0.914928 0.001567 0.218670
O O3 0.155964 0.274975 0.999626
O O4 0.034825 0.808544 0.386554
O O5 0.706697 0.411856 0.320477
O O6 0.543202 0.407191 0.347218
O O7 0.679289 0.220485 0.619039
O O8 0.347791 0.853683 0.633523
O O9 0.791463 0.594557 0.649722
O O10 0.546007 0.373038 0.813763
O O11 0.380743 0.191260 0.713433
O O12 0.500000 0.000000 0.000000
O O13 0.979001 0.371529 0.750934
O O14 0.981932 0.207522 0.244495
O O15 0.059863 0.591121 0.078742
O O16 0.823638 0.008249 0.470042
O O17 0.000000 0.500000 0.500000
#
# Coordination Sequence:
#
# PCOD8019306 Si02
#       8
#     2   2   2   2   2   2   2   2
#     4  12  24  42  71  99 136 178 220 271 334 398
#     4  10  22  45  69  97 134 173 225 275 330 393
#     4  10  22  42  63  93 128 170 221 272 324 389
#     4  10  23  46  68  98 138 174 217 280 332 389
#     4  10  22  43  65  91 137 171 215 284 327 384
#     4  12  23  42  68  99 134 177 223 270 333 396
#     4  10  23  46  67  97 133 172 221 278 330 388
#     4  10  22  41  66  95 129 174 223 270 332 388
#
# _framework density 23.143096
#
# number of rings (size 3 to 8) (size 9 to 14) (size 15 to 20)
#    0.000    1.500    2.500    1.875    0.000    3.000 
#    6.750    0.000    0.000    0.000    0.000    0.000 
#    0.000    0.000    0.000    0.000    0.000    0.000 
#
# Total GULP energy -198347.253083 kJ/mol
# GULP energy per Si atom -12396.703318 kJ/mol
# Density = 2.309042 g / cm^3
# Si number density = 23.143096 Si / 1000 Ang^3
#
#
#
# Elastic Constant Matrix: (Units=GPa)
#
#
# Indices 1 2 3 4 5 6 
#
# 1 120.6431 40.1131 20.9506 -11.5866 28.8650 0.1944
# 2 40.1131 132.1536 10.5396 2.2425 2.7881 19.4030
# 3 20.9506 10.5396 58.8913 5.1182 -1.2886 -1.2633
# 4 -11.5866 2.2425 5.1182 21.0859 -5.9338 11.0866
# 5 28.8650 2.7881 -1.2886 -5.9338 26.0946 -5.4693
# 6 0.1944 19.4030 -1.2633 11.0866 -5.4693 47.3970
#
#
#
# Elastic Compliance Matrix: (Units=1/GPa)
#
#
# Indices 1 2 3 4 5 6 
#
# 1 0.014647 -0.003498 -0.005533 0.006616 -0.015028 -0.002057
# 2 -0.003498 0.009120 -0.000377 -0.000437 0.002066 -0.003388
# 3 -0.005533 -0.000377 0.019898 -0.007832 0.006040 0.003236
# 4 0.006616 -0.000437 -0.007832 0.061318 0.003348 -0.014013
# 5 -0.015028 0.002066 0.006040 0.003348 0.056865 0.005155
# 6 -0.002057 -0.003388 0.003236 -0.014013 0.005155 0.026453
#
#
# Mechanical properties :
#
#
# Convention : Reuss Voigt Hill
#
# Bulk Modulus (GPa) = 40.24137 50.54383 45.39260
# Shear Modulus (GPa) = 23.21251 34.92115 29.06683
#
# Velocity S-wave (km/s) = 3.17045 3.88870 3.54780
# Velocity P-wave (km/s) = 5.55231 6.48458 6.03647
#
# Compressibility (1/GPa) = 0.02485005
#
# Stress axis : x y z
#
# Youngs Moduli (GPa) = 68.27294 109.64831 50.25518
#
# Poissons Ratio (x) = 0.38353 0.27805
# Poissons Ratio (y) = 0.23880 0.01896
# Poissons Ratio (z) = 0.37773 0.04137
#
# Static dielectric constant tensor:
#      x y z
#    x 4.277190 0.241990 0.257430 
#    y 0.241990 4.868810 0.116460 
#    z 0.257430 0.116460 3.862100 
# 
# 
# High freq. dielectric constant tensor:
#      x y z
#    x 1.928580 0.004780 0.023960 
#    y 0.004780 1.935080 0.004170 
#    z 0.023960 0.004170 1.886300 
# 
# From -- ./inp_files/534137.got.cif
#   From: 2010.06.25/outbox.cif.g09.slc.cpg/sg2_268_cif.got.tgz:534137.got - 2010.06.27 13:26:56.
