data_PCOD8019279
_publ_section_title
;
Structure prediction by ZEFSAII (Michael W. Deem and Ramdas Pophale) SiO2 
 PCOD8019279
Probable space group: P -1
;
_chemical_formula_sum "Si O2"
_cell_formula_units_Z 16
_cell_length_a 11.452980
_cell_length_b 17.228124
_cell_length_c 13.783375
_cell_angle_alpha 158.940039
_cell_angle_beta 49.862290
_cell_angle_gamma 129.821951
_cell_volume 739.632564
_symmetry_space_group_name_H-M "P -1"
_symmetry_group_IT_number 2
_symmetry_cell_setting 'triclinic'
loop_
_space_group_symop_operation_xyz
x,y,z
-x,-y,-z
loop_
_atom_site_type_symbol
_atom_site_label
_atom_site_fract_x
_atom_site_fract_y
_atom_site_fract_z
Si Si1 0.887460 0.969568 0.388535
Si Si2 0.317842 0.437355 0.032641
Si Si3 0.081371 0.682636 0.366364
Si Si4 0.412588 0.712718 0.801000
Si Si5 0.183286 0.484006 0.367292
Si Si6 0.109579 0.174316 0.206306
Si Si7 0.886374 0.287505 0.931110
Si Si8 0.671264 0.095395 0.130363
O O1 0.861910 0.171003 0.705379
O O2 0.908119 0.070198 0.387616
O O3 0.043713 0.874086 0.219949
O O4 0.737335 0.785915 0.257435
O O5 0.237682 0.396419 0.133600
O O6 0.252120 0.633087 0.241118
O O7 0.500000 0.500000 0.000000
O O8 0.987509 0.661778 0.493722
O O9 0.001592 0.514294 0.131408
O O10 0.500000 0.500000 0.500000
O O11 0.334100 0.774704 0.815511
O O12 0.277465 0.651775 0.878516
O O13 0.513794 0.933273 0.043235
O O14 0.223902 0.318816 0.237929
O O15 0.290669 0.718261 0.591398
O O16 0.000000 0.500000 0.500000
O O17 0.197197 0.060776 0.111757
O O18 0.000000 0.000000 0.000000
#
# Coordination Sequence:
#
# PCOD8019279 Si02
#       8
#     2   2   2   2   2   2   2   2
#     4  10  23  42  67  93 125 175 224 271 323 393
#     4  11  26  44  63  96 137 172 215 274 335 396
#     4  11  21  40  67  96 127 170 223 273 323 388
#     4  11  24  43  63  98 139 175 213 280 340 400
#     4  12  23  42  68  99 130 170 226 274 327 403
#     4  12  22  39  69 100 133 171 224 277 327 392
#     4  10  22  41  66  93 128 167 228 267 326 394
#     4  11  24  40  65  99 134 173 219 273 341 389
#
# _framework density 21.632363000000002
#
# number of rings (size 3 to 8) (size 9 to 14) (size 15 to 20)
#    0.000    1.000    2.500    4.125    3.500    1.500 
#    4.500    0.000    0.000    0.000    0.000    0.000 
#    0.000    0.000    0.000    0.000    0.000    0.000 
#
# Total GULP energy -198296.146507 kJ/mol
# GULP energy per Si atom -12393.509157 kJ/mol
# Density = 2.158313 g / cm^3
# Si number density = 21.632363 Si / 1000 Ang^3
#
#
#
# Elastic Constant Matrix: (Units=GPa)
#
#
# Indices 1 2 3 4 5 6 
#
# 1 108.8918 43.8559 41.7540 -2.0187 -3.2332 9.9012
# 2 43.8559 95.1480 36.8521 -0.1015 -13.6038 7.1231
# 3 41.7540 36.8521 105.1101 1.6995 2.9144 5.6606
# 4 -2.0187 -0.1015 1.6995 36.7453 -0.0144 -7.8464
# 5 -3.2332 -13.6038 2.9144 -0.0144 45.3583 7.8105
# 6 9.9012 7.1231 5.6606 -7.8464 7.8105 32.4419
#
#
#
# Elastic Compliance Matrix: (Units=1/GPa)
#
#
# Indices 1 2 3 4 5 6 
#
# 1 0.012374 -0.004215 -0.003329 0.000344 0.000217 -0.002239
# 2 -0.004215 0.014667 -0.003449 -0.000590 0.004772 -0.002623
# 3 -0.003329 -0.003449 0.012116 -0.000761 -0.002045 -0.000033
# 4 0.000344 -0.000590 -0.000761 0.028861 -0.001381 0.007470
# 5 0.000217 0.004772 -0.002045 -0.001381 0.024842 -0.007072
# 6 -0.002239 -0.002623 -0.000033 0.007470 -0.007072 0.035599
#
#
# Mechanical properties :
#
#
# Convention : Reuss Voigt Hill
#
# Bulk Modulus (GPa) = 58.23834 61.56380 59.90107
# Shear Modulus (GPa) = 32.01674 35.35495 33.68584
#
# Velocity S-wave (km/s) = 3.85130 4.04710 3.95041
# Velocity P-wave (km/s) = 6.83791 7.09645 6.96838
#
# Compressibility (1/GPa) = 0.01717082
#
# Stress axis : x y z
#
# Youngs Moduli (GPa) = 80.81584 68.18158 82.53447
#
# Poissons Ratio (x) = 0.28739 0.27472
# Poissons Ratio (y) = 0.34065 0.28469
# Poissons Ratio (z) = 0.26900 0.23518
#
# Static dielectric constant tensor:
#      x y z
#    x 4.114190 -0.123140 0.055370 
#    y -0.123140 3.687000 0.228420 
#    z 0.055370 0.228420 4.041660 
# 
# 
# High freq. dielectric constant tensor:
#      x y z
#    x 1.858400 -0.007750 0.006540 
#    y -0.007750 1.829370 0.018710 
#    z 0.006540 0.018710 1.862260 
# 
# From -- ./inp_files/523354.got.cif
#   From: 2010.06.25/outbox.cif.g09.slc.cpg/sg2_262_cif.got.tgz:523354.got - 2010.06.27 13:26:56.
