data_PCOD8019396
_publ_section_title
;
Structure prediction by ZEFSAII (Michael W. Deem and Ramdas Pophale) SiO2 
 PCOD8019396
Probable space group: P -1
;
_chemical_formula_sum "Si O2"
_cell_formula_units_Z 16
_cell_length_a 13.006439
_cell_length_b 11.298353
_cell_length_c 12.966528
_cell_angle_alpha 59.319922
_cell_angle_beta 135.265775
_cell_angle_gamma 84.695726
_cell_volume 760.868705
_symmetry_space_group_name_H-M "P -1"
_symmetry_group_IT_number 2
_symmetry_cell_setting 'triclinic'
loop_
_space_group_symop_operation_xyz
x,y,z
-x,-y,-z
loop_
_atom_site_type_symbol
_atom_site_label
_atom_site_fract_x
_atom_site_fract_y
_atom_site_fract_z
Si Si1 0.461689 0.632958 0.051702
Si Si2 0.497667 0.299371 0.166864
Si Si3 0.397692 0.857828 0.317968
Si Si4 0.093562 0.546714 0.118872
Si Si5 0.040393 0.627017 0.441381
Si Si6 0.827111 0.709467 0.051572
Si Si7 0.843325 0.002618 0.709832
Si Si8 0.794427 0.057105 0.077989
O O1 0.423701 0.496644 0.076207
O O2 0.717132 0.490797 0.309520
O O3 0.379249 0.761857 0.828298
O O4 0.329077 0.776897 0.992569
O O5 0.281744 0.358506 0.963120
O O6 0.645991 0.113017 0.438692
O O7 0.643547 0.637157 0.616460
O O8 0.369037 0.043369 0.224958
O O9 0.244032 0.901050 0.279649
O O10 0.346649 0.841276 0.173424
O O11 0.000000 0.500000 0.000000
O O12 0.000846 0.558190 0.154388
O O13 0.009438 0.757363 0.936861
O O14 0.000000 0.500000 0.500000
O O15 0.855099 0.862119 0.252633
O O16 0.989195 0.667803 0.266265
O O17 0.969867 0.044132 0.736949
#
# Coordination Sequence:
#
# PCOD8019396 Si02
#       8
#     2   2   2   2   2   2   2   2
#     4  11  25  44  67  97 133 172 222 261 328 393
#     4  11  23  45  65  95 139 174 208 276 325 382
#     4  10  23  44  65  96 131 168 220 273 321 386
#     4  11  23  39  64  97 127 172 216 263 329 390
#     4  11  22  46  68  94 129 170 215 273 323 377
#     4  10  22  41  67  94 132 169 215 268 327 381
#     4  11  24  41  65  96 134 170 215 271 325 383
#     4  11  25  43  68  99 127 174 222 266 325 392
#
# _framework density 21.028596
#
# number of rings (size 3 to 8) (size 9 to 14) (size 15 to 20)
#    0.000    1.250    2.500    2.625    3.500    3.500 
#    4.500    0.000    0.000    0.000    0.000    0.000 
#    0.000    0.000    0.000    0.000    0.000    0.000 
#
# Total GULP energy -198323.331320 kJ/mol
# GULP energy per Si atom -12395.208207 kJ/mol
# Density = 2.098073 g / cm^3
# Si number density = 21.028596 Si / 1000 Ang^3
#
#
#
# Elastic Constant Matrix: (Units=GPa)
#
#
# Indices 1 2 3 4 5 6 
#
# 1 80.5965 42.1712 35.3427 -10.9971 -11.3215 -12.1821
# 2 42.1712 123.1033 45.7280 -3.8211 -0.6661 -21.1215
# 3 35.3427 45.7280 86.9978 -8.9880 -5.4712 -12.3283
# 4 -10.9971 -3.8211 -8.9880 32.0209 3.4890 3.9456
# 5 -11.3215 -0.6661 -5.4712 3.4890 25.0278 2.4254
# 6 -12.1821 -21.1215 -12.3283 3.9456 2.4254 42.7819
#
#
#
# Elastic Compliance Matrix: (Units=1/GPa)
#
#
# Indices 1 2 3 4 5 6 
#
# 1 0.018061 -0.004316 -0.004119 0.003682 0.006533 0.001115
# 2 -0.004316 0.011732 -0.004216 -0.001417 -0.002716 0.003633
# 3 -0.004119 -0.004216 0.015834 0.002283 0.001067 0.001037
# 4 0.003682 -0.001417 0.002283 0.033462 -0.002349 -0.001946
# 5 0.006533 -0.002716 0.001067 -0.002349 0.043537 -0.001425
# 6 0.001115 0.003633 0.001037 -0.001946 -0.001425 0.026045
#
#
# Mechanical properties :
#
#
# Convention : Reuss Voigt Hill
#
# Bulk Modulus (GPa) = 49.20078 59.68682 54.44380
# Shear Modulus (GPa) = 27.66279 31.12983 29.39631
#
# Velocity S-wave (km/s) = 3.63090 3.85172 3.74293
# Velocity P-wave (km/s) = 6.40513 6.94451 6.68027
#
# Compressibility (1/GPa) = 0.02032488
#
# Stress axis : x y z
#
# Youngs Moduli (GPa) = 55.36851 85.23354 63.15556
#
# Poissons Ratio (x) = 0.36786 0.26016
# Poissons Ratio (y) = 0.23897 0.26626
# Poissons Ratio (z) = 0.22808 0.35934
#
# Static dielectric constant tensor:
#      x y z
#    x 3.911810 0.058220 -0.340240 
#    y 0.058220 3.998980 0.165370 
#    z -0.340240 0.165370 4.074470 
# 
# 
# High freq. dielectric constant tensor:
#      x y z
#    x 1.823660 0.002680 -0.012110 
#    y 0.002680 1.837480 0.009300 
#    z -0.012110 0.009300 1.829000 
# 
# From -- ./inp_files/84213.got.cif
#   From: 2010.06.25/outbox.cif.g09.slc.cpg/sg2_43_cif.got.tgz:84213.got - 2010.06.27 13:26:56.
