data_PCOD8019748
_publ_section_title
;
Structure prediction by ZEFSAII (Michael W. Deem and Ramdas Pophale) SiO2 
 PCOD8019748
Probable space group: P -1
;
_chemical_formula_sum "Si O2"
_cell_formula_units_Z 16
_cell_length_a 8.209820
_cell_length_b 13.968585
_cell_length_c 8.729863
_cell_angle_alpha 108.819846
_cell_angle_beta 129.982943
_cell_angle_gamma 71.338322
_cell_volume 717.276740
_symmetry_space_group_name_H-M "P -1"
_symmetry_group_IT_number 2
_symmetry_cell_setting 'triclinic'
loop_
_space_group_symop_operation_xyz
x,y,z
-x,-y,-z
loop_
_atom_site_type_symbol
_atom_site_label
_atom_site_fract_x
_atom_site_fract_y
_atom_site_fract_z
Si Si1 0.885505 0.928119 0.495098
Si Si2 0.639643 0.270491 0.897165
Si Si3 0.760171 0.433730 0.531869
Si Si4 0.290956 0.768437 0.736703
Si Si5 0.630072 0.464554 0.805103
Si Si6 0.914682 0.070226 0.843755
Si Si7 0.728623 0.833999 0.079329
Si Si8 0.219108 0.360796 0.819546
O O1 0.059750 0.830875 0.593715
O O2 0.700726 0.892714 0.258237
O O3 0.000000 0.000000 0.500000
O O4 0.801303 0.995848 0.626274
O O5 0.716209 0.357001 0.881840
O O6 0.724455 0.160493 0.818782
O O7 0.379538 0.295003 0.761079
O O8 0.726202 0.274363 0.124179
O O9 0.661251 0.327834 0.399621
O O10 0.755282 0.470871 0.724375
O O11 0.625456 0.519607 0.385465
O O12 0.010537 0.412548 0.626056
O O13 0.485427 0.835915 0.869344
O O14 0.664766 0.552972 0.988648
O O15 0.119299 0.114854 0.917677
O O16 0.000000 0.000000 0.000000
O O17 0.836202 0.716424 0.119197
#
# Coordination Sequence:
#
# PCOD8019748 Si02
#       8
#     2   2   2   2   2   2   2   2
#     4  10  22  41  71  91 128 172 220 267 331 383
#     4  11  24  43  65  96 144 169 215 280 328 385
#     4  11  23  41  70  96 134 172 230 262 324 403
#     4  11  22  44  67  96 132 171 221 269 329 398
#     4  11  24  43  67 100 135 172 221 277 324 393
#     4  11  23  43  68 100 132 170 221 279 326 387
#     4  10  22  42  72  93 128 175 215 269 329 389
#     4  11  22  43  70  98 134 177 217 266 338 393
#
# _framework density 22.306592999999999
#
# number of rings (size 3 to 8) (size 9 to 14) (size 15 to 20)
#    0.000    1.250    5.000    1.500    1.750    2.500 
#    0.000    5.000    2.750    0.000    0.000    0.000 
#    0.000    0.000    0.000    0.000    0.000    0.000 
#
# Total GULP energy -198266.972174 kJ/mol
# GULP energy per Si atom -12391.685761 kJ/mol
# Density = 2.225582 g / cm^3
# Si number density = 22.306593 Si / 1000 Ang^3
#
#
#
# Elastic Constant Matrix: (Units=GPa)
#
#
# Indices 1 2 3 4 5 6 
#
# 1 81.0090 36.3463 39.8536 1.1572 -4.2235 -16.7883
# 2 36.3463 123.9904 26.9648 -4.1742 -14.5399 -15.3313
# 3 39.8536 26.9648 92.2456 8.6889 -0.0846 -11.2953
# 4 1.1572 -4.1742 8.6889 35.5193 -3.2985 -8.7087
# 5 -4.2235 -14.5399 -0.0846 -3.2985 26.0092 -0.9967
# 6 -16.7883 -15.3313 -11.2953 -8.7087 -0.9967 44.2760
#
#
#
# Elastic Compliance Matrix: (Units=1/GPa)
#
#
# Indices 1 2 3 4 5 6 
#
# 1 0.017867 -0.003026 -0.006462 0.001892 0.001601 0.004487
# 2 -0.003026 0.010439 -0.001680 0.002951 0.005819 0.002750
# 3 -0.006462 -0.001680 0.014460 -0.003784 -0.002427 -0.000142
# 4 0.001892 0.002951 -0.003784 0.031697 0.006238 0.007149
# 5 0.001601 0.005819 -0.002427 0.006238 0.042905 0.004195
# 6 0.004487 0.002750 -0.000142 0.007149 0.004195 0.026703
#
#
# Mechanical properties :
#
#
# Convention : Reuss Voigt Hill
#
# Bulk Modulus (GPa) = 48.94631 55.95270 52.44951
# Shear Modulus (GPa) = 28.86525 34.09959 31.48242
#
# Velocity S-wave (km/s) = 3.60116 3.91407 3.76087
# Velocity P-wave (km/s) = 6.26748 6.75015 6.51329
#
# Compressibility (1/GPa) = 0.02043055
#
# Stress axis : x y z
#
# Youngs Moduli (GPa) = 55.96781 95.79175 69.15399
#
# Poissons Ratio (x) = 0.28988 0.44688
# Poissons Ratio (y) = 0.16937 0.11618
# Poissons Ratio (z) = 0.36167 0.16093
#
# Static dielectric constant tensor:
#      x y z
#    x 3.764830 -0.069080 -0.124880 
#    y -0.069080 3.059280 -1.947030 
#    z -0.124880 -1.947030 1.112380 
# 
# 
# High freq. dielectric constant tensor:
#      x y z
#    x 1.851760 -0.009570 -0.005610 
#    y -0.009570 1.896370 -0.001200 
#    z -0.005610 -0.001200 1.881900 
# 
# From -- ./inp_files/203365.got.cif
#   From: 2010.06.25/outbox.cif.g09.slc.cpg/sg2_102_cif.got.tgz:203365.got - 2010.06.27 13:26:56.
