data_PCOD8019104
_publ_section_title
;
Structure prediction by ZEFSAII (Michael W. Deem and Ramdas Pophale) SiO2 
 PCOD8019104
Probable space group: P -1
;
_chemical_formula_sum "Si O2"
_cell_formula_units_Z 16
_cell_length_a 9.178919
_cell_length_b 9.172662
_cell_length_c 11.441190
_cell_angle_alpha 110.210930
_cell_angle_beta 120.217159
_cell_angle_gamma 64.731588
_cell_volume 742.163044
_symmetry_space_group_name_H-M "P -1"
_symmetry_group_IT_number 2
_symmetry_cell_setting 'triclinic'
loop_
_space_group_symop_operation_xyz
x,y,z
-x,-y,-z
loop_
_atom_site_type_symbol
_atom_site_label
_atom_site_fract_x
_atom_site_fract_y
_atom_site_fract_z
Si Si1 0.017848 0.180080 0.688226
Si Si2 0.762751 0.306139 0.232709
Si Si3 0.735477 0.149236 0.405029
Si Si4 0.273795 0.323462 0.737778
Si Si5 0.091251 0.312101 0.998079
Si Si6 0.931814 0.885630 0.855571
Si Si7 0.553345 0.807610 0.986734
Si Si8 0.473185 0.986095 0.350364
O O1 0.077163 0.301958 0.655995
O O2 0.023147 0.217112 0.839394
O O3 0.819822 0.185434 0.570816
O O4 0.144438 0.998925 0.664891
O O5 0.717680 0.299666 0.350478
O O6 0.744886 0.491270 0.245532
O O7 0.614539 0.254388 0.088700
O O8 0.951443 0.180307 0.231855
O O9 0.552109 0.112716 0.347779
O O10 0.414305 0.203662 0.675461
O O11 0.337658 0.256345 0.871954
O O12 0.042616 0.271605 0.096639
O O13 0.304453 0.272189 0.078380
O O14 0.000000 0.500000 0.000000
O O15 0.730569 0.977730 0.759712
O O16 0.000000 0.000000 0.000000
O O17 0.500000 0.000000 0.000000
O O18 0.500000 0.000000 0.500000
#
# Coordination Sequence:
#
# PCOD8019104 Si02
#       8
#     2   2   2   2   2   2   2   2
#     4   9  20  40  68  92 126 182 225 268 327 417
#     4  12  24  40  67 100 133 176 223 279 339 408
#     4  10  22  42  68  91 129 180 231 259 337 424
#     4  10  22  41  64  98 133 172 223 281 338 398
#     4  11  23  41  65  99 136 167 218 288 341 388
#     4  12  25  40  68 103 134 169 226 281 336 394
#     4  11  21  42  68  92 131 186 228 265 329 417
#     4  11  26  46  67  97 135 179 226 286 340 403
#
# _framework density 21.558603999999999
#
# number of rings (size 3 to 8) (size 9 to 14) (size 15 to 20)
#    0.000    1.250    0.000    7.875    7.000    1.500 
#    2.250    0.625    0.000    0.000    0.000    0.000 
#    0.000    0.000    0.000    0.000    0.000    0.000 
#
# Total GULP energy -198253.843552 kJ/mol
# GULP energy per Si atom -12390.865222 kJ/mol
# Density = 2.150954 g / cm^3
# Si number density = 21.558604 Si / 1000 Ang^3
#
#
#
# Elastic Constant Matrix: (Units=GPa)
#
#
# Indices 1 2 3 4 5 6 
#
# 1 115.8345 39.1126 36.4041 -0.9354 10.0213 -3.5628
# 2 39.1126 102.2306 18.5724 -2.7509 8.9524 12.9666
# 3 36.4041 18.5724 98.5884 -6.0202 10.3409 -3.3417
# 4 -0.9354 -2.7509 -6.0202 21.2421 7.0249 -1.0462
# 5 10.0213 8.9524 10.3409 7.0249 42.6494 -5.5280
# 6 -3.5628 12.9666 -3.3417 -1.0462 -5.5280 37.8827
#
#
#
# Elastic Compliance Matrix: (Units=1/GPa)
#
#
# Indices 1 2 3 4 5 6 
#
# 1 0.011071 -0.003851 -0.003267 -0.000628 -0.000643 0.001960
# 2 -0.003851 0.012267 -0.000691 0.001786 -0.002435 -0.004928
# 3 -0.003267 -0.000691 0.012023 0.004062 -0.002577 0.000726
# 4 -0.000628 0.001786 0.004062 0.051643 -0.009759 -0.000310
# 5 -0.000643 -0.002435 -0.002577 -0.009759 0.026886 0.004199
# 6 0.001960 -0.004928 0.000726 -0.000310 0.004199 0.028937
#
#
# Mechanical properties :
#
#
# Convention : Reuss Voigt Hill
#
# Bulk Modulus (GPa) = 50.65403 56.09239 53.37321
# Shear Modulus (GPa) = 30.29813 35.19246 32.74529
#
# Velocity S-wave (km/s) = 3.75291 4.04469 3.90153
# Velocity P-wave (km/s) = 6.50585 6.92010 6.71617
#
# Compressibility (1/GPa) = 0.01974177
#
# Stress axis : x y z
#
# Youngs Moduli (GPa) = 90.32577 81.51769 83.17578
#
# Poissons Ratio (x) = 0.31395 0.27173
# Poissons Ratio (y) = 0.34788 0.05751
# Poissons Ratio (z) = 0.29509 0.05636
#
# Static dielectric constant tensor:
#      x y z
#    x 5.139280 -0.031830 -0.159350 
#    y -0.031830 3.766540 0.069320 
#    z -0.159350 0.069320 4.109900 
# 
# 
# High freq. dielectric constant tensor:
#      x y z
#    x 1.861450 0.012270 0.001510 
#    y 0.012270 1.837580 -0.006090 
#    z 0.001510 -0.006090 1.847740 
# 
# From -- ./inp_files/189056.got.cif
#   From: 2010.06.25/outbox.cif.g09.slc.cpg/sg2_95_cif.got.tgz:189056.got - 2010.06.27 13:26:56.
