data_PCOD8019530
_publ_section_title
;
Structure prediction by ZEFSAII (Michael W. Deem and Ramdas Pophale) SiO2 
 PCOD8019530
Probable space group: P -1
;
_chemical_formula_sum "Si O2"
_cell_formula_units_Z 14
_cell_length_a 7.587024
_cell_length_b 11.392620
_cell_length_c 18.027498
_cell_angle_alpha 153.195228
_cell_angle_beta 94.725064
_cell_angle_gamma 97.892121
_cell_volume 618.456397
_symmetry_space_group_name_H-M "P -1"
_symmetry_group_IT_number 2
_symmetry_cell_setting 'triclinic'
loop_
_space_group_symop_operation_xyz
x,y,z
-x,-y,-z
loop_
_atom_site_type_symbol
_atom_site_label
_atom_site_fract_x
_atom_site_fract_y
_atom_site_fract_z
Si Si1 0.601234 0.320466 0.989329
Si Si2 0.529042 0.323097 0.335768
Si Si3 0.948957 0.710755 0.936766
Si Si4 0.787467 0.627475 0.731072
Si Si5 0.058168 0.364281 0.537913
Si Si6 0.846701 0.660422 0.309502
Si Si7 0.806750 0.742672 0.110358
O O1 0.387857 0.217096 0.886169
O O2 0.604775 0.024557 0.850550
O O3 0.642475 0.550417 0.190939
O O4 0.764333 0.482408 0.020977
O O5 0.500000 0.500000 0.500000
O O6 0.437815 0.432013 0.326395
O O7 0.762791 0.405431 0.378685
O O8 0.783534 0.567764 0.785145
O O9 0.077902 0.540606 0.845225
O O10 0.860530 0.660432 0.986942
O O11 0.065928 0.048801 0.109650
O O12 0.869502 0.428057 0.577400
O O13 0.180559 0.413879 0.647009
O O14 0.981994 0.041940 0.319483
O O15 0.000000 0.000000 0.500000
#
# Coordination Sequence:
#
# PCOD8019530 Si02
#       7
#     2   2   2   2   2   2   2
#     4  11  25  43  69  99 139 181 227 281 345 408
#     4  12  25  42  72 105 137 177 235 281 340 410
#     4  10  22  41  68  94 137 178 224 282 341 400
#     4  10  22  43  64 104 138 174 224 284 341 403
#     4  11  25  43  73 101 140 179 226 289 343 398
#     4  11  23  45  67  98 137 181 232 279 338 412
#     4  11  24  45  69  98 138 182 226 284 344 404
#
# _framework density 22.637004000000001
#
# number of rings (size 3 to 8) (size 9 to 14) (size 15 to 20)
#    0.000    1.143    2.857    2.571    2.000    4.000 
#    0.000    0.714    0.000    0.000    0.000    0.000 
#    0.000    0.000    0.000    0.000    0.000    0.000 
#
# Total GULP energy -173467.352181 kJ/mol
# GULP energy per Si atom -12390.525156 kJ/mol
# Density = 2.258548 g / cm^3
# Si number density = 22.637004 Si / 1000 Ang^3
#
#
#
# Elastic Constant Matrix: (Units=GPa)
#
#
# Indices 1 2 3 4 5 6 
#
# 1 65.1585 29.0081 26.7915 -5.2104 1.8992 8.4220
# 2 29.0081 121.4549 52.4849 -9.8710 -0.3138 14.6058
# 3 26.7915 52.4849 136.0807 -2.1140 1.5567 16.0248
# 4 -5.2104 -9.8710 -2.1140 41.4662 -0.9683 0.4381
# 5 1.8992 -0.3138 1.5567 -0.9683 26.0783 -9.6590
# 6 8.4220 14.6058 16.0248 0.4381 -9.6590 32.9906
#
#
#
# Elastic Compliance Matrix: (Units=1/GPa)
#
#
# Indices 1 2 3 4 5 6 
#
# 1 0.018068 -0.002975 -0.002007 0.001438 -0.002294 -0.003011
# 2 -0.002975 0.010825 -0.003250 0.002057 -0.000339 -0.002581
# 3 -0.002007 -0.003250 0.009367 -0.000553 -0.001607 -0.003062
# 4 0.001438 0.002057 -0.000553 0.024781 0.000424 -0.001214
# 5 -0.002294 -0.000339 -0.001607 0.000424 0.043946 0.014377
# 6 -0.003011 -0.002581 -0.003062 -0.001214 0.014377 0.037936
#
#
# Mechanical properties :
#
#
# Convention : Reuss Voigt Hill
#
# Bulk Modulus (GPa) = 45.87638 59.91814 52.89726
# Shear Modulus (GPa) = 29.64703 34.40099 32.02401
#
# Velocity S-wave (km/s) = 3.62286 3.90254 3.76530
# Velocity P-wave (km/s) = 6.14901 6.84346 6.50551
#
# Compressibility (1/GPa) = 0.02179771
#
# Stress axis : x y z
#
# Youngs Moduli (GPa) = 55.34716 92.37866 106.75369
#
# Poissons Ratio (x) = 0.27484 0.21420
# Poissons Ratio (y) = 0.16466 0.34691
# Poissons Ratio (z) = 0.11106 0.30019
#
# Static dielectric constant tensor:
#      x y z
#    x 3.825650 0.012060 0.190750 
#    y 0.012060 4.191550 -0.283570 
#    z 0.190750 -0.283570 4.677070 
# 
# 
# High freq. dielectric constant tensor:
#      x y z
#    x 1.875770 -0.016150 0.006740 
#    y -0.016150 1.905150 -0.018900 
#    z 0.006740 -0.018900 1.903970 
# 
# From -- ./inp_files/559410.got.cif
#   From: 2010.06.25/outbox.cif.g09.slc.cpg/sg2_280_cif.got.tgz:559410.got - 2010.06.27 13:26:56.
