data_PCOD8019157
_publ_section_title
;
Structure prediction by ZEFSAII (Michael W. Deem and Ramdas Pophale) SiO2 
 PCOD8019157
Probable space group: P -1
;
_chemical_formula_sum "Si O2"
_cell_formula_units_Z 16
_cell_length_a 11.199172
_cell_length_b 13.107604
_cell_length_c 9.787053
_cell_angle_alpha 137.721062
_cell_angle_beta 119.283783
_cell_angle_gamma 84.956113
_cell_volume 745.460697
_symmetry_space_group_name_H-M "P -1"
_symmetry_group_IT_number 2
_symmetry_cell_setting 'triclinic'
loop_
_space_group_symop_operation_xyz
x,y,z
-x,-y,-z
loop_
_atom_site_type_symbol
_atom_site_label
_atom_site_fract_x
_atom_site_fract_y
_atom_site_fract_z
Si Si1 0.401920 0.451537 0.111047
Si Si2 0.933917 0.358251 0.130836
Si Si3 0.686520 0.734098 0.410578
Si Si4 0.979121 0.708738 0.605150
Si Si5 0.548517 0.844120 0.035160
Si Si6 0.278664 0.858109 0.761368
Si Si7 0.845824 0.465299 0.797901
Si Si8 0.659686 0.028985 0.560392
O O1 0.551655 0.633830 0.347370
O O2 0.262426 0.474241 0.121672
O O3 0.345074 0.363847 0.847099
O O4 0.449967 0.337527 0.126179
O O5 0.902437 0.513177 0.315500
O O6 0.951709 0.262985 0.177491
O O7 0.091686 0.425435 0.198305
O O8 0.785721 0.228800 0.831018
O O9 0.847811 0.765701 0.594105
O O10 0.711819 0.923668 0.586804
O O11 0.115373 0.828912 0.698954
O O12 0.639126 0.963385 0.330095
O O13 0.634989 0.944522 0.044897
O O14 0.373216 0.817128 0.893540
O O15 0.255049 0.733900 0.495671
O O16 0.000000 0.500000 0.000000
O O17 0.500000 0.000000 0.500000
#
# Coordination Sequence:
#
# PCOD8019157 Si02
#       8
#     2   2   2   2   2   2   2   2
#     4  10  23  41  62  93 126 164 208 254 308 372
#     4  10  23  39  66  92 122 168 204 252 314 367
#     4  10  24  39  63  91 127 166 203 257 312 362
#     4  10  22  42  64  90 129 162 208 252 309 380
#     4  10  23  41  63  92 126 166 209 253 317 367
#     4  10  22  41  65  92 123 168 206 257 313 365
#     4  11  23  40  64  93 124 162 210 259 305 371
#     4  11  24  39  63  93 124 163 208 261 306 370
#
# _framework density 21.463236999999999
#
# number of rings (size 3 to 8) (size 9 to 14) (size 15 to 20)
#    0.000    1.750    0.000    3.000   14.000    2.000 
#    0.000    3.125    0.000    0.000    0.000    0.000 
#    0.000    0.000    0.000    0.000    0.000    0.000 
#
# Total GULP energy -198405.991600 kJ/mol
# GULP energy per Si atom -12400.374475 kJ/mol
# Density = 2.141439 g / cm^3
# Si number density = 21.463237 Si / 1000 Ang^3
#
#
#
# Elastic Constant Matrix: (Units=GPa)
#
#
# Indices 1 2 3 4 5 6 
#
# 1 133.2484 36.2461 14.8807 -0.3575 10.6741 -4.7457
# 2 36.2461 95.9899 13.6098 -5.5825 4.1140 -3.0327
# 3 14.8807 13.6098 78.5505 -1.1069 12.2864 -1.9555
# 4 -0.3575 -5.5825 -1.1069 24.5188 1.8201 10.1922
# 5 10.6741 4.1140 12.2864 1.8201 30.1935 -4.9978
# 6 -4.7457 -3.0327 -1.9555 10.1922 -4.9978 29.3710
#
#
#
# Elastic Compliance Matrix: (Units=1/GPa)
#
#
# Indices 1 2 3 4 5 6 
#
# 1 0.008628 -0.003079 -0.000759 -0.000853 -0.002111 0.000962
# 2 -0.003079 0.011941 -0.001427 0.002769 -0.000183 -0.000352
# 3 -0.000759 -0.001427 0.013960 0.000933 -0.005370 -0.000578
# 4 -0.000853 0.002769 0.000933 0.049417 -0.006419 -0.018030
# 5 -0.002111 -0.000183 -0.005370 -0.006419 0.037777 0.007938
# 6 0.000962 -0.000352 -0.000578 -0.018030 0.007938 0.041736
#
#
# Mechanical properties :
#
#
# Convention : Reuss Voigt Hill
#
# Bulk Modulus (GPa) = 41.66716 48.58468 45.12592
# Shear Modulus (GPa) = 27.47439 33.02013 30.24726
#
# Velocity S-wave (km/s) = 3.58168 3.92656 3.75808
# Velocity P-wave (km/s) = 6.04649 6.57591 6.31675
#
# Compressibility (1/GPa) = 0.02399972
#
# Stress axis : x y z
#
# Youngs Moduli (GPa) = 115.89863 83.74845 71.63169
#
# Poissons Ratio (x) = 0.25788 0.05436
# Poissons Ratio (y) = 0.35687 0.10219
# Poissons Ratio (z) = 0.08795 0.11948
#
# Static dielectric constant tensor:
#      x y z
#    x 3.582560 0.238020 0.512370 
#    y 0.238020 3.872040 -0.247670 
#    z 0.512370 -0.247670 2.962170 
# 
# 
# High freq. dielectric constant tensor:
#      x y z
#    x 1.837310 0.009330 0.011940 
#    y 0.009330 1.851490 -0.004070 
#    z 0.011940 -0.004070 1.842090 
# 
# From -- ./inp_files/263599.got.cif
#   From: 2010.06.25/outbox.cif.g09.slc.cpg/sg2_132_cif.got.tgz:263599.got - 2010.06.27 13:26:56.
