data_PCOD8019093
_publ_section_title
;
Structure prediction by ZEFSAII (Michael W. Deem and Ramdas Pophale) SiO2 
 PCOD8019093
Probable space group: P -1
;
_chemical_formula_sum "Si O2"
_cell_formula_units_Z 16
_cell_length_a 22.975964
_cell_length_b 5.418701
_cell_length_c 7.624802
_cell_angle_alpha 110.534129
_cell_angle_beta 50.486839
_cell_angle_gamma 123.874062
_cell_volume 608.036947
_symmetry_space_group_name_H-M "P -1"
_symmetry_group_IT_number 2
_symmetry_cell_setting 'triclinic'
loop_
_space_group_symop_operation_xyz
x,y,z
-x,-y,-z
loop_
_atom_site_type_symbol
_atom_site_label
_atom_site_fract_x
_atom_site_fract_y
_atom_site_fract_z
Si Si1 0.649377 0.722868 0.687980
Si Si2 0.882599 0.743846 0.952688
Si Si3 0.402842 0.409189 0.636737
Si Si4 0.174690 0.856521 0.651684
Si Si5 0.038437 0.694876 0.641081
Si Si6 0.752248 0.150291 0.136044
Si Si7 0.656066 0.331110 0.880350
Si Si8 0.161044 0.201240 0.310197
O O1 0.615953 0.561271 0.524588
O O2 0.619766 0.473150 0.835632
O O3 0.751904 0.890152 0.543445
O O4 0.617410 0.974012 0.842556
O O5 0.902242 0.795161 0.719835
O O6 0.954270 0.676781 0.893177
O O7 0.784414 0.474092 0.071664
O O8 0.885588 0.021580 0.114351
O O9 0.500000 0.500000 0.500000
O O10 0.348905 0.064108 0.718134
O O11 0.375185 0.616838 0.857014
O O12 0.099563 0.592877 0.613034
O O13 0.217476 0.758450 0.697857
O O14 0.000000 0.500000 0.500000
O O15 0.104171 0.034899 0.545611
O O16 0.794265 0.981566 0.907484
O O17 0.760522 0.474305 0.705380
#
# Coordination Sequence:
#
# PCOD8019093 Si02
#       8
#     2   2   2   2   2   2   2   2
#     4  11  26  49  79 113 148 204 252 301 376 458
#     4  11  23  41  65  92 134 181 244 296 368 428
#     4  10  25  49  78 117 154 190 246 315 376 448
#     4  10  24  42  62  95 133 186 238 299 352 433
#     4  12  23  39  61  95 136 180 238 299 363 421
#     4   9  21  43  68  93 129 186 231 289 367 439
#     4  11  26  47  82 108 151 202 252 300 376 451
#     4  10  22  41  64  96 134 185 236 299 355 431
#
# _framework density 26.314191999999998
#
# number of rings (size 3 to 8) (size 9 to 14) (size 15 to 20)
#    0.000    1.500    2.500    1.500    8.750    2.500 
#    2.250    1.250    0.000    0.000    0.000    0.000 
#    0.000    0.000    0.000    0.000    0.000    0.000 
#
# Total GULP energy -198247.638677 kJ/mol
# GULP energy per Si atom -12390.477417 kJ/mol
# Density = 2.625430 g / cm^3
# Si number density = 26.314192 Si / 1000 Ang^3
#
#
#
# Elastic Constant Matrix: (Units=GPa)
#
#
# Indices 1 2 3 4 5 6 
#
# 1 107.7018 42.8131 33.5310 -1.5899 7.0015 17.9551
# 2 42.8131 72.2136 26.6169 -1.0423 3.1252 5.4759
# 3 33.5310 26.6169 86.8340 5.0118 11.0065 17.0222
# 4 -1.5899 -1.0423 5.0118 35.8074 14.3685 -2.2792
# 5 7.0015 3.1252 11.0065 14.3685 38.5173 -5.9327
# 6 17.9551 5.4759 17.0222 -2.2792 -5.9327 43.8938
#
#
#
# Elastic Compliance Matrix: (Units=1/GPa)
#
#
# Indices 1 2 3 4 5 6 
#
# 1 0.013508 -0.006797 -0.002093 0.001425 -0.002473 -0.004126
# 2 -0.006797 0.019082 -0.003759 0.000562 0.000860 0.002003
# 3 -0.002093 -0.003759 0.015046 -0.001020 -0.004020 -0.005106
# 4 0.001425 0.000562 -0.001020 0.033111 -0.012398 -0.000214
# 5 -0.002473 0.000860 -0.004020 -0.012398 0.033085 0.006291
# 6 -0.004126 0.002003 -0.005106 -0.000214 0.006291 0.027040
#
#
# Mechanical properties :
#
#
# Convention : Reuss Voigt Hill
#
# Bulk Modulus (GPa) = 44.76317 52.51905 48.64111
# Shear Modulus (GPa) = 28.79973 34.56292 31.68133
#
# Velocity S-wave (km/s) = 3.31185 3.62812 3.47358
# Velocity P-wave (km/s) = 5.62782 6.12803 5.88324
#
# Compressibility (1/GPa) = 0.02233979
#
# Stress axis : x y z
#
# Youngs Moduli (GPa) = 74.03115 52.40635 66.46372
#
# Poissons Ratio (x) = 0.35618 0.13908
# Poissons Ratio (y) = 0.50316 0.24981
# Poissons Ratio (z) = 0.15492 0.19697
#
# Static dielectric constant tensor:
#      x y z
#    x 5.348870 0.508680 -0.368410 
#    y 0.508680 5.005650 -0.323840 
#    z -0.368410 -0.323840 5.572660 
# 
# 
# High freq. dielectric constant tensor:
#      x y z
#    x 2.052590 0.009040 0.014050 
#    y 0.009040 2.035430 0.018080 
#    z 0.014050 0.018080 2.063000 
# 
# From -- ./inp_files/351080.got.cif
#   From: 2010.06.25/outbox.cif.g09.slc.cpg/sg2_176_cif.got.tgz:351080.got - 2010.06.27 13:26:56.
