data_PCOD8019662
_publ_section_title
;
Structure prediction by ZEFSAII (Michael W. Deem and Ramdas Pophale) SiO2 
 PCOD8019662
Probable space group: P -1
;
_chemical_formula_sum "Si O2"
_cell_formula_units_Z 14
_cell_length_a 11.990849
_cell_length_b 8.895729
_cell_length_c 17.363615
_cell_angle_alpha 129.907067
_cell_angle_beta 33.730708
_cell_angle_gamma 140.622747
_cell_volume 652.481237
_symmetry_space_group_name_H-M "P -1"
_symmetry_group_IT_number 2
_symmetry_cell_setting 'triclinic'
loop_
_space_group_symop_operation_xyz
x,y,z
-x,-y,-z
loop_
_atom_site_type_symbol
_atom_site_label
_atom_site_fract_x
_atom_site_fract_y
_atom_site_fract_z
Si Si1 0.352798 0.587192 0.655310
Si Si2 0.646895 0.478728 0.812834
Si Si3 0.304241 0.031951 0.291785
Si Si4 0.901958 0.656568 0.131398
Si Si5 0.371336 0.126017 0.978036
Si Si6 0.915132 0.503021 0.367838
Si Si7 0.624610 0.530006 0.671310
O O1 0.500000 0.500000 0.500000
O O2 0.534758 0.824062 0.677665
O O3 0.153640 0.377549 0.756701
O O4 0.206201 0.624886 0.685910
O O5 0.562786 0.655419 0.933381
O O6 0.692254 0.470545 0.694126
O O7 0.900932 0.569389 0.739430
O O8 0.436561 0.221101 0.883077
O O9 0.241183 0.188426 0.328775
O O10 0.053831 0.789429 0.378799
O O11 0.463491 0.971020 0.127317
O O12 0.660171 0.582926 0.201204
O O13 0.091041 0.925757 0.086441
O O14 0.000000 0.500000 0.000000
O O15 0.703315 0.415252 0.523932
#
# Coordination Sequence:
#
# PCOD8019662 Si02
#       7
#     2   2   2   2   2   2   2
#     4  11  22  40  67 103 130 163 225 277 329 394
#     4  10  25  42  64  93 137 181 218 264 336 415
#     4  10  22  41  69  98 128 174 225 282 330 377
#     4  11  22  40  67 102 128 164 223 286 330 377
#     4  10  22  46  59  97 133 174 228 263 337 396
#     4  11  23  44  66  97 138 177 218 276 335 401
#     4  11  22  41  66  97 131 171 228 272 332 394
#
# _framework density 21.456557
#
# number of rings (size 3 to 8) (size 9 to 14) (size 15 to 20)
#    0.000    1.429    5.714    0.857    2.000    4.571 
#    5.143    0.714    0.000    0.000    0.000    0.000 
#    0.000    0.000    0.000    0.000    0.000    0.000 
#
# Total GULP energy -173551.883925 kJ/mol
# GULP energy per Si atom -12396.563137 kJ/mol
# Density = 2.140772 g / cm^3
# Si number density = 21.456557 Si / 1000 Ang^3
#
#
#
# Elastic Constant Matrix: (Units=GPa)
#
#
# Indices 1 2 3 4 5 6 
#
# 1 131.3550 4.0121 30.6683 -10.7966 17.6285 -4.2343
# 2 4.0121 59.3441 22.8369 -10.7302 13.2135 -2.4975
# 3 30.6683 22.8369 126.7018 -7.4584 5.1166 -6.7062
# 4 -10.7966 -10.7302 -7.4584 31.8194 -1.3169 -5.5554
# 5 17.6285 13.2135 5.1166 -1.3169 31.3356 -3.6589
# 6 -4.2343 -2.4975 -6.7062 -5.5554 -3.6589 21.1537
#
#
#
# Elastic Compliance Matrix: (Units=1/GPa)
#
#
# Indices 1 2 3 4 5 6 
#
# 1 0.009063 0.002021 -0.002079 0.003283 -0.005318 0.001336
# 2 0.002021 0.021436 -0.003456 0.007103 -0.009064 0.002138
# 3 -0.002079 -0.003456 0.009139 0.000773 0.001463 0.002529
# 4 0.003283 0.007103 0.000773 0.036965 -0.002121 0.011082
# 5 -0.005318 -0.009064 0.001463 -0.002121 0.038924 0.004505
# 6 0.001336 0.002138 0.002529 0.011082 0.004505 0.052284
#
#
# Mechanical properties :
#
#
# Convention : Reuss Voigt Hill
#
# Bulk Modulus (GPa) = 30.66457 48.04840 39.35648
# Shear Modulus (GPa) = 26.92376 34.18730 30.55553
#
# Velocity S-wave (km/s) = 3.54616 3.99598 3.77777
# Velocity P-wave (km/s) = 5.57580 6.61305 6.11645
#
# Compressibility (1/GPa) = 0.03261093
#
# Stress axis : x y z
#
# Youngs Moduli (GPa) = 110.33602 46.64953 109.42045
#
# Poissons Ratio (x) = -0.09429 0.22753
# Poissons Ratio (y) = -0.22301 0.37812
# Poissons Ratio (z) = 0.22943 0.16121
#
# Static dielectric constant tensor:
#      x y z
#    x 3.845210 0.013550 -0.027280 
#    y 0.013550 3.681650 0.039760 
#    z -0.027280 0.039760 3.959930 
# 
# 
# High freq. dielectric constant tensor:
#      x y z
#    x 1.824270 -0.011060 0.000340 
#    y -0.011060 1.823430 -0.005300 
#    z 0.000340 -0.005300 1.867940 
# 
# From -- ./inp_files/172768.got.cif
#   From: 2010.06.25/outbox.cif.g09.slc.cpg/sg2_87_cif.got.tgz:172768.got - 2010.06.27 13:26:56.
