data_PCOD8019938
_publ_section_title
;
Structure prediction by ZEFSAII (Michael W. Deem and Ramdas Pophale) SiO2 
 PCOD8019938
Probable space group: P -1
;
_chemical_formula_sum "Si O2"
_cell_formula_units_Z 16
_cell_length_a 8.833137
_cell_length_b 10.210866
_cell_length_c 12.725215
_cell_angle_alpha 96.356836
_cell_angle_beta 98.808339
_cell_angle_gamma 136.538174
_cell_volume 737.457631
_symmetry_space_group_name_H-M "P -1"
_symmetry_group_IT_number 2
_symmetry_cell_setting 'triclinic'
loop_
_space_group_symop_operation_xyz
x,y,z
-x,-y,-z
loop_
_atom_site_type_symbol
_atom_site_label
_atom_site_fract_x
_atom_site_fract_y
_atom_site_fract_z
Si Si1 0.247430 0.088445 0.541481
Si Si2 0.932703 0.115376 0.186319
Si Si3 0.583996 0.711369 0.207984
Si Si4 0.428994 0.350544 0.224818
Si Si5 0.728113 0.292883 0.949357
Si Si6 0.359825 0.049222 0.061808
Si Si7 0.125274 0.752789 0.612031
Si Si8 0.359918 0.645456 0.563089
O O1 0.402872 0.256130 0.663252
O O2 0.196571 0.903415 0.544359
O O3 0.604202 0.807960 0.540554
O O4 0.000000 0.000000 0.500000
O O5 0.840299 0.168230 0.260146
O O6 0.209013 0.286729 0.241867
O O7 0.824569 0.904904 0.192462
O O8 0.850215 0.093112 0.058078
O O9 0.545579 0.529220 0.170449
O O10 0.377449 0.668269 0.137054
O O11 0.331833 0.156108 0.142840
O O12 0.608703 0.436880 0.345420
O O13 0.669302 0.104925 0.887756
O O14 0.611747 0.226930 0.047123
O O15 0.000000 0.500000 0.000000
O O16 0.304035 0.748881 0.619384
O O17 0.854821 0.535995 0.549441
#
# Coordination Sequence:
#
# PCOD8019938 Si02
#       8
#     2   2   2   2   2   2   2   2
#     4  11  22  41  66  90 127 169 216 262 318 379
#     4  10  22  42  67  87 128 170 210 262 319 373
#     4  10  23  39  63  93 125 168 211 257 317 379
#     4  12  24  39  64  98 129 164 212 262 316 377
#     4  10  22  42  63  92 124 170 209 256 320 374
#     4  10  24  40  66  93 128 164 214 260 314 379
#     4  10  23  42  63  91 129 167 214 262 319 378
#     4  11  24  39  62  97 128 167 212 265 316 379
#
# _framework density 21.696164
#
# number of rings (size 3 to 8) (size 9 to 14) (size 15 to 20)
#    0.000    1.500    0.000    4.500    7.000    4.500 
#    2.250    0.000    0.000    0.000    0.000    0.000 
#    0.000    0.000    0.000    0.000    0.000    0.000 
#
# Total GULP energy -198399.601386 kJ/mol
# GULP energy per Si atom -12399.975087 kJ/mol
# Density = 2.164678 g / cm^3
# Si number density = 21.696164 Si / 1000 Ang^3
#
#
#
# Elastic Constant Matrix: (Units=GPa)
#
#
# Indices 1 2 3 4 5 6 
#
# 1 94.0707 39.9779 20.2295 -3.2014 11.5239 4.9541
# 2 39.9779 103.5822 10.4221 -4.3424 9.3444 -6.6172
# 3 20.2295 10.4221 70.6595 -7.0081 10.5117 1.9301
# 4 -3.2014 -4.3424 -7.0081 28.7743 -4.9384 8.3417
# 5 11.5239 9.3444 10.5117 -4.9384 35.5993 3.0925
# 6 4.9541 -6.6172 1.9301 8.3417 3.0925 40.6394
#
#
#
# Elastic Compliance Matrix: (Units=1/GPa)
#
#
# Indices 1 2 3 4 5 6 
#
# 1 0.013723 -0.004958 -0.002788 0.000404 -0.002064 -0.002274
# 2 -0.004958 0.011910 -0.000143 0.000154 -0.001688 0.002647
# 3 -0.002788 -0.000143 0.015790 0.003210 -0.003203 -0.000848
# 4 0.000404 0.000154 0.003210 0.038946 0.005027 -0.008553
# 5 -0.002064 -0.001688 -0.003203 0.005027 0.031129 -0.003272
# 6 -0.002274 0.002647 -0.000848 -0.008553 -0.003272 0.027360
#
#
# Mechanical properties :
#
#
# Convention : Reuss Voigt Hill
#
# Bulk Modulus (GPa) = 38.99572 45.50792 42.25182
# Shear Modulus (GPa) = 30.64009 34.18144 32.41077
#
# Velocity S-wave (km/s) = 3.76205 3.97351 3.86923
# Velocity P-wave (km/s) = 6.07316 6.48632 6.28314
#
# Compressibility (1/GPa) = 0.02564384
#
# Stress axis : x y z
#
# Youngs Moduli (GPa) = 72.86833 83.96301 63.33171
#
# Poissons Ratio (x) = 0.41630 0.17659
# Poissons Ratio (y) = 0.36129 0.00907
# Poissons Ratio (z) = 0.20318 0.01202
#
# Static dielectric constant tensor:
#      x y z
#    x 3.884410 -0.170100 0.137110 
#    y -0.170100 4.148190 0.014600 
#    z 0.137110 0.014600 3.839030 
# 
# 
# High freq. dielectric constant tensor:
#      x y z
#    x 1.851200 -0.008220 0.015970 
#    y -0.008220 1.865030 0.002580 
#    z 0.015970 0.002580 1.847000 
# 
# From -- ./inp_files/493005.got.cif
#   From: 2010.06.25/outbox.cif.g09.slc.cpg/sg2_247_cif.got.tgz:493005.got - 2010.06.27 13:26:56.
