data_PCOD8019879
_publ_section_title
;
Structure prediction by ZEFSAII (Michael W. Deem and Ramdas Pophale) SiO2 
 PCOD8019879
Probable space group: P -1
;
_chemical_formula_sum "Si O2"
_cell_formula_units_Z 14
_cell_length_a 16.347827
_cell_length_b 9.579336
_cell_length_c 17.244693
_cell_angle_alpha 118.360482
_cell_angle_beta 156.783797
_cell_angle_gamma 47.618797
_cell_volume 682.770252
_symmetry_space_group_name_H-M "P -1"
_symmetry_group_IT_number 2
_symmetry_cell_setting 'triclinic'
loop_
_space_group_symop_operation_xyz
x,y,z
-x,-y,-z
loop_
_atom_site_type_symbol
_atom_site_label
_atom_site_fract_x
_atom_site_fract_y
_atom_site_fract_z
Si Si1 0.656691 0.141446 0.436102
Si Si2 0.731370 0.034319 0.295665
Si Si3 0.915420 0.793452 0.686754
Si Si4 0.328114 0.215287 0.303871
Si Si5 0.701831 0.469633 0.533160
Si Si6 0.174020 0.329490 0.796825
Si Si7 0.866906 0.233576 0.971209
O O1 0.631694 0.112755 0.317083
O O2 0.359693 0.246032 0.247926
O O3 0.721291 0.292110 0.547353
O O4 0.915746 0.908625 0.642264
O O5 0.801460 0.811320 0.287784
O O6 0.482983 0.216307 0.068417
O O7 0.000000 0.000000 0.500000
O O8 0.013030 0.567770 0.686142
O O9 0.121997 0.751404 0.922611
O O10 0.594238 0.956669 0.487165
O O11 0.375734 0.351846 0.428201
O O12 0.029555 0.290622 0.082965
O O13 0.003851 0.342431 0.723302
O O14 0.462276 0.582935 0.288136
O O15 0.000000 0.000000 0.000000
#
# Coordination Sequence:
#
# PCOD8019879 Si02
#       7
#     2   2   2   2   2   2   2
#     4  10  24  42  63  98 132 168 214 271 319 370
#     4  11  24  48  70  90 120 169 228 263 325 381
#     4  10  22  42  61  96 135 162 212 263 314 378
#     4  10  23  40  62  95 145 158 217 256 312 387
#     4  12  22  41  67  97 132 175 213 249 330 385
#     4  11  24  43  73  89 122 174 215 271 314 387
#     4  12  21  37  66  95 131 183 205 248 318 393
#
# _framework density 20.504702000000002
#
# number of rings (size 3 to 8) (size 9 to 14) (size 15 to 20)
#    0.857    0.286    4.286    2.571    0.000    1.143 
#    5.143    0.714    0.000    0.000    0.000    0.000 
#    0.000    0.000    0.000    0.000    0.000    0.000 
#
# Total GULP energy -173575.187667 kJ/mol
# GULP energy per Si atom -12398.227691 kJ/mol
# Density = 2.045803 g / cm^3
# Si number density = 20.504702 Si / 1000 Ang^3
#
#
#
# Elastic Constant Matrix: (Units=GPa)
#
#
# Indices 1 2 3 4 5 6 
#
# 1 61.2484 20.4331 33.0972 9.9196 -9.6940 -1.8528
# 2 20.4331 155.4877 31.1364 5.6284 -4.3348 4.1273
# 3 33.0972 31.1364 89.6533 14.0182 11.6547 1.2416
# 4 9.9196 5.6284 14.0182 27.8446 -6.7836 -3.2387
# 5 -9.6940 -4.3348 11.6547 -6.7836 25.2011 2.2208
# 6 -1.8528 4.1273 1.2416 -3.2387 2.2208 38.2203
#
#
#
# Elastic Compliance Matrix: (Units=1/GPa)
#
#
# Indices 1 2 3 4 5 6 
#
# 1 0.024629 -0.000712 -0.010788 0.000398 0.014375 0.000820
# 2 -0.000712 0.007112 -0.002603 0.000615 0.002390 -0.000805
# 3 -0.010788 -0.002603 0.019650 -0.009555 -0.016190 -0.000749
# 4 0.000398 0.000615 -0.009555 0.044832 0.016472 0.003105
# 5 0.014375 0.002390 -0.016190 0.016472 0.057630 -0.000988
# 6 0.000820 -0.000805 -0.000749 0.003105 -0.000988 0.026636
#
#
# Mechanical properties :
#
#
# Convention : Reuss Voigt Hill
#
# Bulk Modulus (GPa) = 43.12880 52.85809 47.99345
# Shear Modulus (GPa) = 23.10309 33.03471 28.06890
#
# Velocity S-wave (km/s) = 3.36031 4.01818 3.70388
# Velocity P-wave (km/s) = 6.01123 6.88202 6.46131
#
# Compressibility (1/GPa) = 0.02318636
#
# Stress axis : x y z
#
# Youngs Moduli (GPa) = 40.60203 140.61037 50.89181
#
# Poissons Ratio (x) = 0.10009 0.54900
# Poissons Ratio (y) = 0.02890 0.13246
# Poissons Ratio (z) = 0.43800 0.36598
#
# Static dielectric constant tensor:
#      x y z
#    x 3.546750 -0.076550 0.026870 
#    y -0.076550 3.980070 0.028290 
#    z 0.026870 0.028290 3.620770 
# 
# 
# High freq. dielectric constant tensor:
#      x y z
#    x 1.783820 -0.006140 -0.000010 
#    y -0.006140 1.822130 0.003010 
#    z -0.000010 0.003010 1.792900 
# 
# From -- ./inp_files/297112.got.cif
#   From: 2010.06.25/outbox.cif.g09.slc.cpg/sg2_149_cif.got.tgz:297112.got - 2010.06.27 13:26:56.
