data_PCOD8019346
_publ_section_title
;
Structure prediction by ZEFSAII (Michael W. Deem and Ramdas Pophale) SiO2 
 PCOD8019346
Probable space group: P -1
;
_chemical_formula_sum "Si O2"
_cell_formula_units_Z 14
_cell_length_a 8.726361
_cell_length_b 9.952618
_cell_length_c 8.708885
_cell_angle_alpha 89.310271
_cell_angle_beta 74.520520
_cell_angle_gamma 128.030157
_cell_volume 558.440592
_symmetry_space_group_name_H-M "P -1"
_symmetry_group_IT_number 2
_symmetry_cell_setting 'triclinic'
loop_
_space_group_symop_operation_xyz
x,y,z
-x,-y,-z
loop_
_atom_site_type_symbol
_atom_site_label
_atom_site_fract_x
_atom_site_fract_y
_atom_site_fract_z
Si Si1 0.262939 0.860679 0.513454
Si Si2 0.655684 0.967123 0.995130
Si Si3 0.589435 0.305179 0.685887
Si Si4 0.085272 0.430685 0.182363
Si Si5 0.938906 0.646229 0.146932
Si Si6 0.806523 0.917782 0.681774
Si Si7 0.242876 0.245595 0.591960
O O1 0.247019 0.714370 0.422588
O O2 0.107375 0.763018 0.701918
O O3 0.500000 0.000000 0.500000
O O4 0.201264 0.951472 0.422766
O O5 0.883054 0.149991 0.935438
O O6 0.646053 0.847526 0.865611
O O7 0.500000 0.000000 0.000000
O O8 0.597745 0.867539 0.170743
O O9 0.719718 0.476829 0.756184
O O10 0.467585 0.316275 0.584686
O O11 0.020578 0.550930 0.189847
O O12 0.164513 0.426878 0.992767
O O13 0.789417 0.626863 0.320129
O O14 0.745213 0.752402 0.599542
O O15 0.044457 0.039002 0.680501
#
# Coordination Sequence:
#
# PCOD8019346 Si02
#       7
#     2   2   2   2   2   2   2
#     4  12  23  42  71  98 124 170 228 273 322 393
#     4  11  20  39  71 100 127 173 226 270 316 389
#     4  12  23  40  69 101 132 173 223 270 326 392
#     4  11  25  43  68  97 131 173 223 277 324 391
#     4  10  23  44  66  95 139 173 217 272 332 390
#     4  10  22  41  67 100 133 170 224 274 322 388
#     4  10  23  43  64  98 138 173 218 269 336 387
#
# _framework density 25.069807999999998
#
# number of rings (size 3 to 8) (size 9 to 14) (size 15 to 20)
#    0.000    1.143    4.286    2.143    0.000    2.857 
#    2.571    2.857    0.000    0.000    0.000    0.000 
#    0.000    0.000    0.000    0.000    0.000    0.000 
#
# Total GULP energy -173478.614199 kJ/mol
# GULP energy per Si atom -12391.329586 kJ/mol
# Density = 2.501275 g / cm^3
# Si number density = 25.069808 Si / 1000 Ang^3
#
#
#
# Elastic Constant Matrix: (Units=GPa)
#
#
# Indices 1 2 3 4 5 6 
#
# 1 67.5083 26.8615 11.7622 20.6152 -7.0142 8.6896
# 2 26.8615 92.5056 22.4064 19.1796 6.7883 16.7974
# 3 11.7622 22.4064 79.7757 33.8311 -15.8591 -9.6016
# 4 20.6152 19.1796 33.8311 59.0948 -9.8910 0.6218
# 5 -7.0142 6.7883 -15.8591 -9.8910 35.5171 15.2093
# 6 8.6896 16.7974 -9.6016 0.6218 15.2093 42.3111
#
#
#
# Elastic Compliance Matrix: (Units=1/GPa)
#
#
# Indices 1 2 3 4 5 6 
#
# 1 0.018911 -0.004482 0.001152 -0.004871 0.005328 -0.003687
# 2 -0.004482 0.014480 -0.004133 -0.001403 -0.004052 -0.004288
# 3 0.001152 -0.004133 0.018870 -0.009027 0.005245 0.003934
# 4 -0.004871 -0.001403 -0.009027 0.024767 0.003001 -0.001934
# 5 0.005328 -0.004052 0.005245 0.003001 0.038352 -0.012126
# 6 -0.003687 -0.004288 0.003934 -0.001934 -0.012126 0.031374
#
#
# Mechanical properties :
#
#
# Convention : Reuss Voigt Hill
#
# Bulk Modulus (GPa) = 26.78401 40.20554 33.49477
# Shear Modulus (GPa) = 28.71489 39.30191 34.00840
#
# Velocity S-wave (km/s) = 3.38804 3.96371 3.68713
# Velocity P-wave (km/s) = 5.10020 6.08443 5.61393
#
# Compressibility (1/GPa) = 0.03733571
#
# Stress axis : x y z
#
# Youngs Moduli (GPa) = 52.87818 69.06260 52.99305
#
# Poissons Ratio (x) = 0.30953 -0.06104
# Poissons Ratio (y) = 0.23700 0.21901
# Poissons Ratio (z) = -0.06091 0.28542
#
# Static dielectric constant tensor:
#      x y z
#    x 4.465020 0.492980 -0.697180 
#    y 0.492980 2.428110 1.492550 
#    z -0.697180 1.492550 4.672730 
# 
# 
# High freq. dielectric constant tensor:
#      x y z
#    x 1.989160 0.005380 -0.013340 
#    y 0.005380 1.991120 0.023730 
#    z -0.013340 0.023730 2.009340 
# 
# From -- ./inp_files/170745.got.cif
#   From: 2010.06.25/outbox.cif.g09.slc.cpg/sg2_86_cif.got.tgz:170745.got - 2010.06.27 13:26:56.
