data_PCOD8019135
_publ_section_title
;
Structure prediction by ZEFSAII (Michael W. Deem and Ramdas Pophale) SiO2 
 PCOD8019135
Probable space group: P -1
;
_chemical_formula_sum "Si O2"
_cell_formula_units_Z 16
_cell_length_a 18.030624
_cell_length_b 15.591124
_cell_length_c 13.577375
_cell_angle_alpha 47.689151
_cell_angle_beta 22.115663
_cell_angle_gamma 34.632400
_cell_volume 742.410459
_symmetry_space_group_name_H-M "P -1"
_symmetry_group_IT_number 2
_symmetry_cell_setting 'triclinic'
loop_
_space_group_symop_operation_xyz
x,y,z
-x,-y,-z
loop_
_atom_site_type_symbol
_atom_site_label
_atom_site_fract_x
_atom_site_fract_y
_atom_site_fract_z
Si Si1 0.364186 0.704649 0.448337
Si Si2 0.127939 0.168697 0.914934
Si Si3 0.675436 0.785661 0.538182
Si Si4 0.037021 0.539675 0.027771
Si Si5 0.307652 0.978917 0.213843
Si Si6 0.819169 0.490383 0.504180
Si Si7 0.316237 0.268798 0.211404
Si Si8 0.680288 0.329479 0.688882
O O1 0.370180 0.837234 0.309052
O O2 0.311449 0.650510 0.455297
O O3 0.652202 0.540155 0.272173
O O4 0.139669 0.785806 0.749369
O O5 0.098383 0.234583 0.788725
O O6 0.181242 0.260636 0.846398
O O7 0.378327 0.973278 0.758827
O O8 0.628038 0.676572 0.635849
O O9 0.781147 0.731248 0.561477
O O10 0.998072 0.453921 0.218917
O O11 0.000000 0.500000 0.000000
O O12 0.410002 0.915726 0.023747
O O13 0.977240 0.145267 0.495113
O O14 0.500000 0.000000 0.000000
O O15 0.633033 0.462042 0.713877
O O16 0.043426 0.357753 0.412650
O O17 0.409453 0.364538 0.021860
#
# Coordination Sequence:
#
# PCOD8019135 Si02
#       8
#     2   2   2   2   2   2   2   2
#     4  11  21  39  66  99 127 161 215 267 330 387
#     4  10  22  41  65  88 127 178 211 263 312 380
#     4  10  23  41  63  86 130 178 220 253 317 377
#     4  11  22  40  67  97 132 164 211 271 330 382
#     4  11  20  36  64 100 133 160 201 269 343 381
#     4  11  22  41  63  96 128 168 217 265 320 388
#     4  11  21  40  65  94 127 168 213 266 329 383
#     4  11  21  37  66  99 129 160 205 274 335 380
#
# _framework density 21.551421000000001
#
# number of rings (size 3 to 8) (size 9 to 14) (size 15 to 20)
#    0.000    1.250    3.750    4.500    0.000    1.500 
#    0.000    0.000    5.500    3.750    0.000    0.000 
#    0.000    0.000    0.000    0.000    0.000    0.000 
#
# Total GULP energy -198293.480325 kJ/mol
# GULP energy per Si atom -12393.342520 kJ/mol
# Density = 2.150237 g / cm^3
# Si number density = 21.551421 Si / 1000 Ang^3
#
#
#
# Elastic Constant Matrix: (Units=GPa)
#
#
# Indices 1 2 3 4 5 6 
#
# 1 159.6612 66.9467 57.5577 -10.7632 14.0540 3.5364
# 2 66.9467 94.6110 23.7600 6.9644 11.9670 14.7570
# 3 57.5577 23.7600 68.2712 -15.8381 16.4438 -2.5810
# 4 -10.7632 6.9644 -15.8381 32.5410 -0.8558 -0.0724
# 5 14.0540 11.9670 16.4438 -0.8558 42.4543 -6.2903
# 6 3.5364 14.7570 -2.5810 -0.0724 -6.2903 33.6759
#
#
#
# Elastic Compliance Matrix: (Units=1/GPa)
#
#
# Indices 1 2 3 4 5 6 
#
# 1 0.011863 -0.007082 -0.007317 0.001912 0.001167 0.001519
# 2 -0.007082 0.018153 -0.001427 -0.007033 -0.003547 -0.007998
# 3 -0.007317 -0.001427 0.025270 0.010020 -0.006443 0.002148
# 4 0.001912 -0.007033 0.010020 0.037720 -0.001253 0.003496
# 5 0.001167 -0.003547 -0.006443 -0.001253 0.027539 0.006079
# 6 0.001519 -0.007998 0.002148 0.003496 0.006079 0.034348
#
#
# Mechanical properties :
#
#
# Convention : Reuss Voigt Hill
#
# Bulk Modulus (GPa) = 42.30925 68.78581 55.54753
# Shear Modulus (GPa) = 25.71722 33.35284 29.53503
#
# Velocity S-wave (km/s) = 3.45816 3.93821 3.70597
# Velocity P-wave (km/s) = 5.96821 7.25712 6.64399
#
# Compressibility (1/GPa) = 0.02363549
#
# Stress axis : x y z
#
# Youngs Moduli (GPa) = 84.29542 55.08741 39.57246
#
# Poissons Ratio (x) = 0.39013 0.28954
# Poissons Ratio (y) = 0.59699 0.05645
# Poissons Ratio (z) = 0.61676 0.07859
#
# Static dielectric constant tensor:
#      x y z
#    x 3.985550 0.064700 0.256260 
#    y 0.064700 4.125940 -0.046780 
#    z 0.256260 -0.046780 3.911500 
# 
# 
# High freq. dielectric constant tensor:
#      x y z
#    x 1.842610 0.003850 0.020180 
#    y 0.003850 1.858750 -0.002130 
#    z 0.020180 -0.002130 1.836770 
# 
# From -- ./inp_files/455596.got.cif
#   From: 2010.06.25/outbox.cif.g09.slc.cpg/sg2_228_cif.got.tgz:455596.got - 2010.06.27 13:26:56.
