data_PCOD8019986
_publ_section_title
;
Structure prediction by ZEFSAII (Michael W. Deem and Ramdas Pophale) SiO2 
 PCOD8019986
Probable space group: P -1
;
_chemical_formula_sum "Si O2"
_cell_formula_units_Z 10
_cell_length_a 15.050293
_cell_length_b 6.069102
_cell_length_c 6.197031
_cell_angle_alpha 85.363735
_cell_angle_beta 113.421613
_cell_angle_gamma 62.278297
_cell_volume 434.488488
_symmetry_space_group_name_H-M "P -1"
_symmetry_group_IT_number 2
_symmetry_cell_setting 'triclinic'
loop_
_space_group_symop_operation_xyz
x,y,z
-x,-y,-z
loop_
_atom_site_type_symbol
_atom_site_label
_atom_site_fract_x
_atom_site_fract_y
_atom_site_fract_z
Si Si1 0.042800 0.798425 0.861109
Si Si2 0.837038 0.008104 0.343627
Si Si3 0.231197 0.239010 0.057517
Si Si4 0.352881 0.739844 0.529342
Si Si5 0.571986 0.712668 0.685285
O O1 0.122753 0.840644 0.776382
O O2 0.121672 0.497189 0.043164
O O3 0.932893 0.834864 0.629006
O O4 0.000000 0.000000 0.000000
O O5 0.716915 0.225344 0.323760
O O6 0.814238 0.818151 0.198152
O O7 0.327277 0.302245 0.072142
O O8 0.283414 0.002919 0.297012
O O9 0.481341 0.666870 0.726658
O O10 0.364919 0.499288 0.427906
O O11 0.500000 0.000000 0.500000
#
# Coordination Sequence:
#
# PCOD8019986 Si02
#       5
#     2   2   2   2   2
#     4  11  25  43  61  88 126 164 203 252 306 360
#     4  11  24  39  63  93 121 159 209 251 299 363
#     4  11  22  40  64  91 123 161 202 253 304 355
#     4  10  22  42  64  91 124 161 204 248 301 364
#     4   9  20  40  65  90 124 162 197 248 307 360
#
# _framework density 23.01557
#
# number of rings (size 3 to 8) (size 9 to 14) (size 15 to 20)
#    0.000    1.600    0.000    4.200    0.000   10.400 
#    0.000   14.000    0.000    0.000    0.000    0.000 
#    0.000    0.000    0.000    0.000    0.000    0.000 
#
# Total GULP energy -123975.187808 kJ/mol
# GULP energy per Si atom -12397.518781 kJ/mol
# Density = 2.296319 g / cm^3
# Si number density = 23.015570 Si / 1000 Ang^3
#
#
#
# Elastic Constant Matrix: (Units=GPa)
#
#
# Indices 1 2 3 4 5 6 
#
# 1 138.2885 42.5827 35.9666 33.7625 13.7642 -17.1323
# 2 42.5827 174.3696 40.8242 9.9615 6.9364 -22.2635
# 3 35.9666 40.8242 76.8889 20.9241 22.3329 -2.2383
# 4 33.7625 9.9615 20.9241 38.1483 6.4265 4.4432
# 5 13.7642 6.9364 22.3329 6.4265 45.0072 13.3497
# 6 -17.1323 -22.2635 -2.2383 4.4432 13.3497 39.9765
#
#
#
# Elastic Compliance Matrix: (Units=1/GPa)
#
#
# Indices 1 2 3 4 5 6 
#
# 1 0.011177 -0.001027 -0.001029 -0.009237 -0.003295 0.006288
# 2 -0.001027 0.007171 -0.003293 0.000487 -0.000233 0.003393
# 3 -0.001029 -0.003293 0.020055 -0.008063 -0.008771 0.002673
# 4 -0.009237 0.000487 -0.008063 0.039143 0.004084 -0.009853
# 5 -0.003295 -0.000233 -0.008771 0.004084 0.030822 -0.012780
# 6 0.006288 0.003393 0.002673 -0.009853 -0.012780 0.035111
#
#
# Mechanical properties :
#
#
# Convention : Reuss Voigt Hill
#
# Bulk Modulus (GPa) = 36.09466 69.81045 52.95256
# Shear Modulus (GPa) = 30.59689 42.63795 36.61742
#
# Velocity S-wave (km/s) = 3.65005 4.30882 3.99304
# Velocity P-wave (km/s) = 5.78624 7.42646 6.65706
#
# Compressibility (1/GPa) = 0.02770493
#
# Stress axis : x y z
#
# Youngs Moduli (GPa) = 89.46733 139.44103 49.86167
#
# Poissons Ratio (x) = 0.14321 0.05132
# Poissons Ratio (y) = 0.09189 0.16421
# Poissons Ratio (z) = 0.09209 0.45922
#
# Static dielectric constant tensor:
#      x y z
#    x 4.878500 -0.076390 0.642450 
#    y -0.076390 4.241390 0.017320 
#    z 0.642450 0.017320 4.020100 
# 
# 
# High freq. dielectric constant tensor:
#      x y z
#    x 1.927140 -0.004470 0.031770 
#    y -0.004470 1.926120 -0.002320 
#    z 0.031770 -0.002320 1.886680 
# 
# From -- ./inp_files/1451.got.cif
#   From: 2010.06.25/outbox.cif.g09.slc.cpg/sg2_1_cif.got.tgz:1451.got - 2010.06.27 13:26:56.
