data_PCOD8019726
_publ_section_title
;
Structure prediction by ZEFSAII (Michael W. Deem and Ramdas Pophale) SiO2 
 PCOD8019726
Probable space group: P -1
;
_chemical_formula_sum "Si O2"
_cell_formula_units_Z 16
_cell_length_a 6.271103
_cell_length_b 13.956402
_cell_length_c 8.904910
_cell_angle_alpha 92.708771
_cell_angle_beta 111.570486
_cell_angle_gamma 100.491648
_cell_volume 707.095419
_symmetry_space_group_name_H-M "P -1"
_symmetry_group_IT_number 2
_symmetry_cell_setting 'triclinic'
loop_
_space_group_symop_operation_xyz
x,y,z
-x,-y,-z
loop_
_atom_site_type_symbol
_atom_site_label
_atom_site_fract_x
_atom_site_fract_y
_atom_site_fract_z
Si Si1 0.023827 0.066095 0.159445
Si Si2 0.251949 0.493951 0.128715
Si Si3 0.227957 0.107362 0.732172
Si Si4 0.003338 0.531766 0.333992
Si Si5 0.291312 0.795708 0.018372
Si Si6 0.885585 0.247264 0.706118
Si Si7 0.433354 0.104060 0.473038
Si Si8 0.569379 0.385985 0.070382
O O1 0.296363 0.108473 0.279833
O O2 0.911047 0.000549 0.266328
O O3 0.900519 0.156660 0.110151
O O4 0.000000 0.000000 0.000000
O O5 0.231762 0.506917 0.304203
O O6 0.326134 0.390391 0.095987
O O7 0.444855 0.581693 0.106710
O O8 0.000000 0.500000 0.000000
O O9 0.481213 0.120976 0.877972
O O10 0.256549 0.116840 0.561879
O O11 0.095359 0.189694 0.761613
O O12 0.015680 0.647625 0.334028
O O13 0.000000 0.500000 0.500000
O O14 0.766118 0.470085 0.200480
O O15 0.190920 0.740245 0.141120
O O16 0.366318 0.719899 0.913813
O O17 0.668496 0.189172 0.545215
O O18 0.500000 0.000000 0.500000
#
# Coordination Sequence:
#
# PCOD8019726 Si02
#       8
#     2   2   2   2   2   2   2   2
#     4  12  23  46  70 106 142 179 232 295 347 418
#     4   9  20  40  69  92 129 175 230 281 344 405
#     4  11  24  43  72 100 141 186 227 287 358 423
#     4  11  25  44  67 101 144 179 238 291 349 419
#     4  11  24  41  71 108 138 182 241 288 351 417
#     4  11  24  45  72 102 138 191 233 286 358 424
#     4  11  24  46  72  98 141 187 235 283 354 426
#     4  10  22  41  70  99 131 185 228 290 345 409
#
# _framework density 22.627780000000001
#
# number of rings (size 3 to 8) (size 9 to 14) (size 15 to 20)
#    0.000    1.250    3.750    1.500    5.250    1.500 
#    2.250    0.000    0.000    0.000    0.000    0.000 
#    0.000    0.000    0.000    0.000    0.000    0.000 
#
# Total GULP energy -198345.357101 kJ/mol
# GULP energy per Si atom -12396.584819 kJ/mol
# Density = 2.257628 g / cm^3
# Si number density = 22.627780 Si / 1000 Ang^3
#
#
#
# Elastic Constant Matrix: (Units=GPa)
#
#
# Indices 1 2 3 4 5 6 
#
# 1 115.4160 36.5721 51.5546 -2.0835 -4.9548 -28.9179
# 2 36.5721 125.5307 45.0803 -0.8176 3.7829 -23.4953
# 3 51.5546 45.0803 111.4276 -1.1971 6.9248 -10.3786
# 4 -2.0835 -0.8176 -1.1971 33.3764 2.3320 -0.5292
# 5 -4.9548 3.7829 6.9248 2.3320 43.8629 0.5171
# 6 -28.9179 -23.4953 -10.3786 -0.5292 0.5171 49.4917
#
#
#
# Elastic Compliance Matrix: (Units=1/GPa)
#
#
# Indices 1 2 3 4 5 6 
#
# 1 0.012855 -0.000820 -0.005190 0.000535 0.002243 0.006016
# 2 -0.000820 0.010097 -0.003336 0.000168 -0.000488 0.003622
# 3 -0.005190 -0.003336 0.012690 0.000179 -0.002289 -0.001929
# 4 0.000535 0.000168 0.000179 0.030129 -0.001593 0.000769
# 5 0.002243 -0.000488 -0.002289 -0.001593 0.023536 0.000336
# 6 0.006016 0.003622 -0.001929 0.000769 0.000336 0.025040
#
#
# Mechanical properties :
#
#
# Convention : Reuss Voigt Hill
#
# Bulk Modulus (GPa) = 58.99290 68.75424 63.87357
# Shear Modulus (GPa) = 36.05225 39.95735 38.00480
#
# Velocity S-wave (km/s) = 3.99591 4.20676 4.10269
# Velocity P-wave (km/s) = 6.88603 7.35164 7.12264
#
# Compressibility (1/GPa) = 0.01695119
#
# Stress axis : x y z
#
# Youngs Moduli (GPa) = 77.78783 99.04232 78.80441
#
# Poissons Ratio (x) = 0.08119 0.40896
# Poissons Ratio (y) = 0.06376 0.26290
# Poissons Ratio (z) = 0.40368 0.33041
#
# Static dielectric constant tensor:
#      x y z
#    x 4.669810 -0.092870 -0.190430 
#    y -0.092870 3.882350 0.176110 
#    z -0.190430 0.176110 4.030770 
# 
# 
# High freq. dielectric constant tensor:
#      x y z
#    x 1.910810 -0.008430 -0.003090 
#    y -0.008430 1.882030 0.012680 
#    z -0.003090 0.012680 1.878880 
# 
# From -- ./inp_files/135578.got.cif
#   From: 2010.06.25/outbox.cif.g09.slc.cpg/sg2_68_cif.got.tgz:135578.got - 2010.06.27 13:26:56.
