data_PCOD8019732
_publ_section_title
;
Structure prediction by ZEFSAII (Michael W. Deem and Ramdas Pophale) SiO2 
 PCOD8019732
Probable space group: P -1
;
_chemical_formula_sum "Si O2"
_cell_formula_units_Z 14
_cell_length_a 9.829003
_cell_length_b 16.552350
_cell_length_c 12.439823
_cell_angle_alpha 155.143531
_cell_angle_beta 126.204570
_cell_angle_gamma 43.825767
_cell_volume 574.709929
_symmetry_space_group_name_H-M "P -1"
_symmetry_group_IT_number 2
_symmetry_cell_setting 'triclinic'
loop_
_space_group_symop_operation_xyz
x,y,z
-x,-y,-z
loop_
_atom_site_type_symbol
_atom_site_label
_atom_site_fract_x
_atom_site_fract_y
_atom_site_fract_z
Si Si1 0.365782 0.863766 0.305414
Si Si2 0.084832 0.565135 0.516058
Si Si3 0.556048 0.788517 0.888509
Si Si4 0.425539 0.623414 0.823885
Si Si5 0.331271 0.884241 0.696696
Si Si6 0.929125 0.196474 0.791621
Si Si7 0.197995 0.302424 0.649981
O O1 0.284496 0.734289 0.177795
O O2 0.564453 0.808998 0.394422
O O3 0.197468 0.140498 0.549098
O O4 0.410644 0.777007 0.099764
O O5 0.242915 0.351405 0.259145
O O6 0.204939 0.680577 0.753521
O O7 0.000000 0.500000 0.500000
O O8 0.898911 0.720289 0.533924
O O9 0.544840 0.659612 0.829362
O O10 0.369681 0.848224 0.798416
O O11 0.549948 0.017677 0.191696
O O12 0.580414 0.359873 0.614492
O O13 0.094037 0.065616 0.802534
O O14 0.910871 0.433966 0.038714
O O15 0.000000 0.000000 0.500000
#
# Coordination Sequence:
#
# PCOD8019732 Si02
#       7
#     2   2   2   2   2   2   2
#     4  11  28  47  71 101 144 191 238 289 351 424
#     4  11  23  43  74 107 146 183 232 296 351 420
#     4  10  23  42  68 103 141 184 227 290 354 415
#     4  11  25  45  73 105 141 186 236 286 352 426
#     4  10  22  41  71 101 138 179 233 288 354 410
#     4  12  26  44  74 102 136 187 238 294 350 426
#     4  11  26  50  68 103 145 186 236 292 354 417
#
# _framework density 24.360115
#
# number of rings (size 3 to 8) (size 9 to 14) (size 15 to 20)
#    0.000    1.143    1.429    3.857    4.000   10.286 
#    0.000    0.000    0.000    0.000    0.000    0.000 
#    0.000    0.000    0.000    0.000    0.000    0.000 
#
# Total GULP energy -173454.007135 kJ/mol
# GULP energy per Si atom -12389.571938 kJ/mol
# Density = 2.430467 g / cm^3
# Si number density = 24.360115 Si / 1000 Ang^3
#
#
#
# Elastic Constant Matrix: (Units=GPa)
#
#
# Indices 1 2 3 4 5 6 
#
# 1 110.3726 14.2466 30.0727 -2.3562 -3.8000 15.1216
# 2 14.2466 100.5639 20.3485 13.3779 -8.0562 -16.6577
# 3 30.0727 20.3485 107.8256 17.6572 9.6183 8.1578
# 4 -2.3562 13.3779 17.6572 37.5990 0.6663 3.2192
# 5 -3.8000 -8.0562 9.6183 0.6663 25.5521 1.3979
# 6 15.1216 -16.6577 8.1578 3.2192 1.3979 32.0604
#
#
#
# Elastic Compliance Matrix: (Units=1/GPa)
#
#
# Indices 1 2 3 4 5 6 
#
# 1 0.011154 -0.002253 -0.002984 0.003384 0.002318 -0.006113
# 2 -0.002253 0.013083 -0.002118 -0.004620 0.004233 0.008679
# 3 -0.002984 -0.002118 0.011917 -0.004762 -0.005363 -0.002013
# 4 0.003384 -0.004620 -0.004762 0.031190 0.000351 -0.005932
# 5 0.002318 0.004233 -0.005363 0.000351 0.042793 0.000570
# 6 -0.006113 0.008679 -0.002013 -0.005932 0.000570 0.039667
#
#
# Mechanical properties :
#
#
# Convention : Reuss Voigt Hill
#
# Bulk Modulus (GPa) = 46.63707 49.78864 48.21286
# Shear Modulus (GPa) = 29.12693 35.98191 32.55442
#
# Velocity S-wave (km/s) = 3.46161 3.84745 3.65962
# Velocity P-wave (km/s) = 5.92988 6.34194 6.13936
#
# Compressibility (1/GPa) = 0.02144217
#
# Stress axis : x y z
#
# Youngs Moduli (GPa) = 89.65620 76.43542 83.91539
#
# Poissons Ratio (x) = 0.17225 0.25040
# Poissons Ratio (y) = 0.20204 0.17775
# Poissons Ratio (z) = 0.26753 0.16190
#
# Static dielectric constant tensor:
#      x y z
#    x 3.687860 0.015860 0.425660 
#    y 0.015860 4.674960 -0.051950 
#    z 0.425660 -0.051950 4.604800 
# 
# 
# High freq. dielectric constant tensor:
#      x y z
#    x 1.948260 -0.012900 0.022840 
#    y -0.012900 1.982470 0.002720 
#    z 0.022840 0.002720 1.976610 
# 
# From -- ./inp_files/400165.got.cif
#   From: 2010.06.25/outbox.cif.g09.slc.cpg/sg2_201_cif.got.tgz:400165.got - 2010.06.27 13:26:56.
