data_PCOD8019506
_publ_section_title
;
Structure prediction by ZEFSAII (Michael W. Deem and Ramdas Pophale) SiO2 
 PCOD8019506
Probable space group: P -1
;
_chemical_formula_sum "Si O2"
_cell_formula_units_Z 16
_cell_length_a 11.942631
_cell_length_b 7.900937
_cell_length_c 9.400161
_cell_angle_alpha 124.150354
_cell_angle_beta 84.099958
_cell_angle_gamma 85.816114
_cell_volume 720.890825
_symmetry_space_group_name_H-M "P -1"
_symmetry_group_IT_number 2
_symmetry_cell_setting 'triclinic'
loop_
_space_group_symop_operation_xyz
x,y,z
-x,-y,-z
loop_
_atom_site_type_symbol
_atom_site_label
_atom_site_fract_x
_atom_site_fract_y
_atom_site_fract_z
Si Si1 0.599851 0.103403 0.972367
Si Si2 0.785639 0.319756 0.527782
Si Si3 0.209632 0.097501 0.516537
Si Si4 0.026207 0.120295 0.308004
Si Si5 0.407178 0.677367 0.656046
Si Si6 0.081709 0.281453 0.886381
Si Si7 0.552050 0.963129 0.630532
Si Si8 0.803132 0.747549 0.853194
O O1 0.581008 0.145390 0.823148
O O2 0.716801 0.947739 0.910900
O O3 0.603579 0.312945 0.164478
O O4 0.500000 0.000000 0.000000
O O5 0.716613 0.333799 0.395927
O O6 0.756956 0.538787 0.714268
O O7 0.918623 0.275403 0.453823
O O8 0.749197 0.135638 0.540338
O O9 0.119940 0.082433 0.399230
O O10 0.150804 0.254082 0.717049
O O11 0.323339 0.178662 0.479001
O O12 0.074288 0.232333 0.221309
O O13 0.993407 0.899560 0.165595
O O14 0.500000 0.500000 0.500000
O O15 0.455590 0.878115 0.691544
O O16 0.178568 0.265884 0.986731
O O17 0.000000 0.500000 0.000000
O O18 0.500000 0.000000 0.500000
#
# Coordination Sequence:
#
# PCOD8019506 Si02
#       8
#     2   2   2   2   2   2   2   2
#     4  10  22  41  68  91 128 170 217 267 327 378
#     4  11  22  40  67  93 133 171 214 265 333 385
#     4  11  22  43  65  93 133 172 208 268 332 387
#     4  11  23  41  67  93 128 172 217 269 325 382
#     4  11  24  44  66  94 129 173 219 267 326 386
#     4  11  24  42  63  96 134 170 213 262 327 391
#     4  11  22  43  68  94 128 170 217 271 327 386
#     4  12  23  41  66  97 129 169 220 271 316 390
#
# _framework density 22.194762000000001
#
# number of rings (size 3 to 8) (size 9 to 14) (size 15 to 20)
#    0.000    1.000    2.500    6.750    1.750    0.000 
#    2.250    0.625    0.000    0.000    0.000    0.000 
#    0.000    0.000    0.000    0.000    0.000    0.000 
#
# Total GULP energy -198244.500076 kJ/mol
# GULP energy per Si atom -12390.281255 kJ/mol
# Density = 2.214425 g / cm^3
# Si number density = 22.194762 Si / 1000 Ang^3
#
#
#
# Elastic Constant Matrix: (Units=GPa)
#
#
# Indices 1 2 3 4 5 6 
#
# 1 103.3796 2.1868 35.2447 -8.0208 16.5336 -18.4051
# 2 2.1868 39.1763 41.1217 -2.4540 10.0037 -17.7466
# 3 35.2447 41.1217 183.1335 -8.1298 30.4889 -25.6943
# 4 -8.0208 -2.4540 -8.1298 39.0994 -9.2329 3.0438
# 5 16.5336 10.0037 30.4889 -9.2329 42.0616 -10.6080
# 6 -18.4051 -17.7466 -25.6943 3.0438 -10.6080 33.5378
#
#
#
# Elastic Compliance Matrix: (Units=1/GPa)
#
#
# Indices 1 2 3 4 5 6 
#
# 1 0.011991 0.005353 -0.002072 0.001244 -0.002463 0.006934
# 2 0.005353 0.042171 -0.007531 0.000272 -0.001856 0.018871
# 3 -0.002072 -0.007531 0.008099 0.000015 -0.003248 0.000055
# 4 0.001244 0.000272 0.000015 0.027122 0.005411 0.000088
# 5 -0.002463 -0.001856 -0.003248 0.005411 0.029761 0.004099
# 6 0.006934 0.018871 0.000055 0.000088 0.004099 0.044939
#
#
# Mechanical properties :
#
#
# Convention : Reuss Voigt Hill
#
# Bulk Modulus (GPa) = 18.60020 53.64398 36.12209
# Shear Modulus (GPa) = 26.24641 39.41551 32.83096
#
# Velocity S-wave (km/s) = 3.44255 4.21871 3.85024
# Velocity P-wave (km/s) = 4.91937 6.92475 6.00634
#
# Compressibility (1/GPa) = 0.05376286
#
# Stress axis : x y z
#
# Youngs Moduli (GPa) = 83.39573 23.71297 123.46737
#
# Poissons Ratio (x) = -0.12694 0.25577
# Poissons Ratio (y) = -0.44642 0.92980
# Poissons Ratio (z) = 0.17276 0.17858
#
# Static dielectric constant tensor:
#      x y z
#    x 4.204630 -0.019620 0.396190 
#    y -0.019620 4.022720 0.031770 
#    z 0.396190 0.031770 5.055460 
# 
# 
# High freq. dielectric constant tensor:
#      x y z
#    x 1.894160 -0.009910 0.006790 
#    y -0.009910 1.836220 -0.015030 
#    z 0.006790 -0.015030 1.897300 
# 
# From -- ./inp_files/245946.got.cif
#   From: 2010.06.25/outbox.cif.g09.slc.cpg/sg2_123_cif.got.tgz:245946.got - 2010.06.27 13:26:56.
