data_PCOD8019465
_publ_section_title
;
Structure prediction by ZEFSAII (Michael W. Deem and Ramdas Pophale) SiO2 
 PCOD8019465
Probable space group: P -1
;
_chemical_formula_sum "Si O2"
_cell_formula_units_Z 16
_cell_length_a 13.676261
_cell_length_b 14.427891
_cell_length_c 10.716276
_cell_angle_alpha 133.153206
_cell_angle_beta 33.876021
_cell_angle_gamma 110.434522
_cell_volume 724.883614
_symmetry_space_group_name_H-M "P -1"
_symmetry_group_IT_number 2
_symmetry_cell_setting 'triclinic'
loop_
_space_group_symop_operation_xyz
x,y,z
-x,-y,-z
loop_
_atom_site_type_symbol
_atom_site_label
_atom_site_fract_x
_atom_site_fract_y
_atom_site_fract_z
Si Si1 0.672626 0.622133 0.722533
Si Si2 0.075493 0.624112 0.274488
Si Si3 0.978321 0.101058 0.729924
Si Si4 0.847808 0.439296 0.597990
Si Si5 0.788189 0.950966 0.909491
Si Si6 0.888399 0.906974 0.035044
Si Si7 0.385729 0.961818 0.318902
Si Si8 0.726885 0.446584 0.251372
O O1 0.664154 0.539308 0.782240
O O2 0.712965 0.537560 0.471204
O O3 0.868353 0.635241 0.547192
O O4 0.463275 0.785617 0.082673
O O5 0.229879 0.556522 0.171155
O O6 0.995883 0.799512 0.495362
O O7 0.175171 0.526112 0.952579
O O8 0.210428 0.043114 0.474840
O O9 0.000000 0.000000 0.500000
O O10 0.831840 0.084093 0.968974
O O11 0.866113 0.273611 0.976852
O O12 0.000000 0.500000 0.500000
O O13 0.951807 0.270965 0.278655
O O14 0.763765 0.931678 0.063007
O O15 0.573677 0.985182 0.105045
O O16 0.714685 0.962340 0.374499
O O17 0.000000 0.000000 0.000000
O O18 0.500000 0.500000 0.500000
#
# Coordination Sequence:
#
# PCOD8019465 Si02
#       8
#     2   2   2   2   2   2   2   2
#     4  10  22  41  67  99 131 171 225 272 337 406
#     4   9  20  43  67  92 131 175 215 279 330 401
#     4  12  24  44  68  92 137 175 227 282 331 406
#     4   9  20  41  68  98 135 174 221 284 345 401
#     4  10  22  42  69  99 129 175 226 273 340 402
#     4  11  21  40  72  99 140 179 223 284 343 403
#     4  11  24  44  70  99 135 178 223 278 340 413
#     4  12  25  43  63  95 135 175 221 278 341 399
#
# _framework density 22.072509
#
# number of rings (size 3 to 8) (size 9 to 14) (size 15 to 20)
#    0.000    1.500    2.500    3.000    0.000    0.500 
#   11.250    1.250    0.000    0.000    0.000    0.000 
#    0.000    0.000    0.000    0.000    0.000    0.000 
#
# Total GULP energy -198258.712489 kJ/mol
# GULP energy per Si atom -12391.169531 kJ/mol
# Density = 2.202227 g / cm^3
# Si number density = 22.072509 Si / 1000 Ang^3
#
#
#
# Elastic Constant Matrix: (Units=GPa)
#
#
# Indices 1 2 3 4 5 6 
#
# 1 130.3250 22.5726 60.2340 8.8426 -2.4765 -15.6317
# 2 22.5726 71.5475 18.8866 17.2033 -14.3216 -3.4215
# 3 60.2340 18.8866 77.2863 23.7354 -6.7261 -14.0960
# 4 8.8426 17.2033 23.7354 37.4111 2.1764 2.0336
# 5 -2.4765 -14.3216 -6.7261 2.1764 49.4352 -1.5573
# 6 -15.6317 -3.4215 -14.0960 2.0336 -1.5573 36.7294
#
#
#
# Elastic Compliance Matrix: (Units=1/GPa)
#
#
# Indices 1 2 3 4 5 6 
#
# 1 0.012973 -0.002792 -0.011124 0.005351 -0.001889 0.000616
# 2 -0.002792 0.017837 0.001324 -0.008804 0.005649 0.001709
# 3 -0.011124 0.001324 0.028060 -0.016444 0.004597 0.007263
# 4 0.005351 -0.008804 -0.016444 0.040729 -0.006546 -0.007386
# 5 -0.001889 0.005649 0.004597 -0.006546 0.022773 0.002815
# 6 0.000616 0.001709 0.007263 -0.007386 0.002815 0.030963
#
#
# Mechanical properties :
#
#
# Convention : Reuss Voigt Hill
#
# Bulk Modulus (GPa) = 29.68529 53.61614 41.65071
# Shear Modulus (GPa) = 26.35085 36.54616 31.44851
#
# Velocity S-wave (km/s) = 3.45893 4.07348 3.77872
# Velocity P-wave (km/s) = 5.42499 6.81674 6.16030
#
# Compressibility (1/GPa) = 0.03368672
#
# Stress axis : x y z
#
# Youngs Moduli (GPa) = 77.08462 56.06191 35.63807
#
# Poissons Ratio (x) = 0.15651 0.39643
# Poissons Ratio (y) = 0.21520 -0.04718
# Poissons Ratio (z) = 0.85748 -0.07422
#
# Static dielectric constant tensor:
#      x y z
#    x 4.773890 0.305210 0.067530 
#    y 0.305210 5.487720 0.201650 
#    z 0.067530 0.201650 3.835850 
# 
# 
# High freq. dielectric constant tensor:
#      x y z
#    x 1.888930 -0.008830 0.009640 
#    y -0.008830 1.867510 0.006660 
#    z 0.009640 0.006660 1.855440 
# 
# From -- ./inp_files/455906.got.cif
#   From: 2010.06.25/outbox.cif.g09.slc.cpg/sg2_228_cif.got.tgz:455906.got - 2010.06.27 13:26:56.
