data_PCOD8019012
_publ_section_title
;
Structure prediction by ZEFSAII (Michael W. Deem and Ramdas Pophale) SiO2 
 PCOD8019012
Probable space group: P -1
;
_chemical_formula_sum "Si O2"
_cell_formula_units_Z 14
_cell_length_a 22.206327
_cell_length_b 9.607648
_cell_length_c 5.533582
_cell_angle_alpha 92.827716
_cell_angle_beta 66.928150
_cell_angle_gamma 142.508187
_cell_volume 584.511125
_symmetry_space_group_name_H-M "P -1"
_symmetry_group_IT_number 2
_symmetry_cell_setting 'triclinic'
loop_
_space_group_symop_operation_xyz
x,y,z
-x,-y,-z
loop_
_atom_site_type_symbol
_atom_site_label
_atom_site_fract_x
_atom_site_fract_y
_atom_site_fract_z
Si Si1 0.581448 0.983848 0.626310
Si Si2 0.511251 0.382230 0.624968
Si Si3 0.227437 0.164779 0.551717
Si Si4 0.667442 0.387883 0.786945
Si Si5 0.837456 0.490291 0.756493
Si Si6 0.706531 0.005474 0.748780
Si Si7 0.023421 0.202171 0.940208
O O1 0.539689 0.856517 0.419585
O O2 0.683757 0.053989 0.546831
O O3 0.646125 0.251591 0.568563
O O4 0.460980 0.770777 0.965508
O O5 0.500000 0.500000 0.500000
O O6 0.653550 0.614635 0.452859
O O7 0.431261 0.270758 0.974565
O O8 0.233085 0.312810 0.387540
O O9 0.224525 0.016162 0.394856
O O10 0.105333 0.948623 0.882864
O O11 0.721731 0.388625 0.917166
O O12 0.914874 0.657246 0.403672
O O13 0.789232 0.245128 0.818443
O O14 0.904777 0.622197 0.916777
O O15 0.000000 0.000000 0.000000
#
# Coordination Sequence:
#
# PCOD8019012 Si02
#       7
#     2   2   2   2   2   2   2
#     4  10  22  41  64 104 143 179 231 286 370 431
#     4  12  24  40  73 106 144 182 232 300 366 433
#     4  12  25  43  71 101 142 186 239 294 362 427
#     4  10  22  42  68 103 143 185 231 294 360 430
#     4  11  28  49  76 102 148 189 246 298 349 423
#     4  11  25  46  68 103 142 185 234 301 360 429
#     4  12  28  50  74 108 142 192 246 298 352 420
#
# _framework density 23.951637999999999
#
# number of rings (size 3 to 8) (size 9 to 14) (size 15 to 20)
#    0.000    0.857    4.286    1.714    6.000    2.857 
#    0.000    0.000    0.000    0.000    0.000    0.000 
#    0.000    0.000    0.000    0.000    0.000    0.000 
#
# Total GULP energy -173453.576964 kJ/mol
# GULP energy per Si atom -12389.541212 kJ/mol
# Density = 2.389712 g / cm^3
# Si number density = 23.951638 Si / 1000 Ang^3
#
#
#
# Elastic Constant Matrix: (Units=GPa)
#
#
# Indices 1 2 3 4 5 6 
#
# 1 86.3746 37.4982 26.5302 0.5923 -21.0231 -11.9783
# 2 37.4982 132.8356 21.5379 7.3675 -5.4338 -9.9965
# 3 26.5302 21.5379 92.3681 -1.6311 -9.9561 3.7218
# 4 0.5923 7.3675 -1.6311 29.8203 1.6845 -1.2459
# 5 -21.0231 -5.4338 -9.9561 1.6845 34.8077 -0.3988
# 6 -11.9783 -9.9965 3.7218 -1.2459 -0.3988 50.6715
#
#
#
# Elastic Compliance Matrix: (Units=1/GPa)
#
#
# Indices 1 2 3 4 5 6 
#
# 1 0.016707 -0.003583 -0.003172 0.000039 0.008663 0.003545
# 2 -0.003583 0.008883 -0.001226 -0.002094 -0.001016 0.000936
# 3 -0.003172 -0.001226 0.012258 0.000883 0.001335 -0.001860
# 4 0.000039 -0.002094 0.000883 0.034210 -0.001702 0.000359
# 5 0.008663 -0.001016 0.001335 -0.001702 0.034290 0.001977
# 6 0.003545 0.000936 -0.001860 0.000359 0.001977 0.020919
#
#
# Mechanical properties :
#
#
# Convention : Reuss Voigt Hill
#
# Bulk Modulus (GPa) = 45.69146 53.63454 49.66300
# Shear Modulus (GPa) = 33.21732 38.12737 35.67234
#
# Velocity S-wave (km/s) = 3.72808 3.99413 3.86339
# Velocity P-wave (km/s) = 6.13591 6.61152 6.37815
#
# Compressibility (1/GPa) = 0.02188593
#
# Stress axis : x y z
#
# Youngs Moduli (GPa) = 59.85542 112.56887 81.58202
#
# Poissons Ratio (x) = 0.40333 0.25874
# Poissons Ratio (y) = 0.21446 0.10006
# Poissons Ratio (z) = 0.18983 0.13806
#
# Static dielectric constant tensor:
#      x y z
#    x 4.230090 -0.089810 -0.226610 
#    y -0.089810 4.703490 -0.110410 
#    z -0.226610 -0.110410 4.346750 
# 
# 
# High freq. dielectric constant tensor:
#      x y z
#    x 1.950790 -0.011260 -0.014960 
#    y -0.011260 1.967530 -0.006140 
#    z -0.014960 -0.006140 1.934620 
# 
# From -- ./inp_files/68181.got.cif
#   From: 2010.06.25/outbox.cif.g09.slc.cpg/sg2_35_cif.got.tgz:68181.got - 2010.06.27 13:26:56.
