data_PCOD8019722
_publ_section_title
;
Structure prediction by ZEFSAII (Michael W. Deem and Ramdas Pophale) SiO2 
 PCOD8019722
Probable space group: P -1
;
_chemical_formula_sum "Si O2"
_cell_formula_units_Z 16
_cell_length_a 18.113519
_cell_length_b 12.392432
_cell_length_c 8.549144
_cell_angle_alpha 54.844900
_cell_angle_beta 66.004346
_cell_angle_gamma 27.200092
_cell_volume 688.043767
_symmetry_space_group_name_H-M "P -1"
_symmetry_group_IT_number 2
_symmetry_cell_setting 'triclinic'
loop_
_space_group_symop_operation_xyz
x,y,z
-x,-y,-z
loop_
_atom_site_type_symbol
_atom_site_label
_atom_site_fract_x
_atom_site_fract_y
_atom_site_fract_z
Si Si1 0.567069 0.582538 0.125114
Si Si2 0.227466 0.951559 0.656005
Si Si3 0.153242 0.628106 0.983759
Si Si4 0.272927 0.104453 0.726425
Si Si5 0.032172 0.350087 0.963795
Si Si6 0.689962 0.195340 0.644372
Si Si7 0.129331 0.825954 0.392560
Si Si8 0.841031 0.451864 0.611866
O O1 0.669396 0.327786 0.147138
O O2 0.498675 0.592015 0.327994
O O3 0.698798 0.507860 0.126750
O O4 0.418592 0.865750 0.924891
O O5 0.240969 0.953063 0.457373
O O6 0.304146 0.969026 0.661177
O O7 0.035960 0.210386 0.656053
O O8 0.208128 0.550170 0.182887
O O9 0.131822 0.507502 0.041380
O O10 0.974855 0.957709 0.840887
O O11 0.087323 0.343749 0.761219
O O12 0.278362 0.249593 0.553167
O O13 0.000000 0.500000 0.000000
O O14 0.190468 0.035431 0.134495
O O15 0.710387 0.322539 0.556336
O O16 0.195050 0.591022 0.469536
O O17 0.000000 0.000000 0.500000
#
# Coordination Sequence:
#
# PCOD8019722 Si02
#       8
#     2   2   2   2   2   2   2   2
#     4  11  25  46  66  99 141 182 222 274 344 408
#     4  12  22  43  74  99 134 178 233 279 330 409
#     4  11  24  42  70  99 136 173 231 270 337 401
#     4  11  26  43  67 104 137 180 223 278 354 390
#     4  10  22  41  70  98 135 177 225 281 335 401
#     4  10  23  41  70 102 132 178 229 278 338 398
#     4  11  22  42  70 104 129 174 233 281 325 397
#     4  12  24  41  73 102 135 172 233 289 326 400
#
# _framework density 23.254335999999999
#
# number of rings (size 3 to 8) (size 9 to 14) (size 15 to 20)
#    0.000    1.000    3.750    2.250    3.500    1.500 
#    0.000    2.500    0.000    0.000    0.000    0.000 
#    0.000    0.000    0.000    0.000    0.000    0.000 
#
# Total GULP energy -198384.631107 kJ/mol
# GULP energy per Si atom -12399.039444 kJ/mol
# Density = 2.320141 g / cm^3
# Si number density = 23.254336 Si / 1000 Ang^3
#
#
#
# Elastic Constant Matrix: (Units=GPa)
#
#
# Indices 1 2 3 4 5 6 
#
# 1 183.0242 58.0405 38.6289 9.6439 -7.8723 8.0974
# 2 58.0405 72.9339 27.3021 1.1527 -8.0434 0.0366
# 3 38.6289 27.3021 97.2548 5.0353 -14.3298 0.6319
# 4 9.6439 1.1527 5.0353 35.6086 3.2849 -1.6938
# 5 -7.8723 -8.0434 -14.3298 3.2849 30.3778 2.2204
# 6 8.0974 0.0366 0.6319 -1.6938 2.2204 50.6708
#
#
#
# Elastic Compliance Matrix: (Units=1/GPa)
#
#
# Indices 1 2 3 4 5 6 
#
# 1 0.007667 -0.005544 -0.001365 -0.001779 0.000160 -0.001271
# 2 -0.005544 0.019466 -0.003017 0.001144 0.002108 0.000855
# 3 -0.001365 -0.003017 0.012493 -0.001766 0.004947 -0.000211
# 4 -0.001779 0.001144 -0.001766 0.029241 -0.004260 0.001470
# 5 0.000160 0.002108 0.004947 -0.004260 0.036446 -0.001828
# 6 -0.001271 0.000855 -0.000211 0.001470 -0.001828 0.020070
#
#
# Mechanical properties :
#
#
# Convention : Reuss Voigt Hill
#
# Bulk Modulus (GPa) = 50.56955 66.79508 58.68231
# Shear Modulus (GPa) = 32.93264 38.61420 35.77342
#
# Velocity S-wave (km/s) = 3.76732 4.07936 3.92644
# Velocity P-wave (km/s) = 6.38099 7.13963 6.77095
#
# Compressibility (1/GPa) = 0.01977475
#
# Stress axis : x y z
#
# Youngs Moduli (GPa) = 130.43372 51.37137 80.04472
#
# Poissons Ratio (x) = 0.28479 0.10925
# Poissons Ratio (y) = 0.72310 0.24149
# Poissons Ratio (z) = 0.17803 0.15498
#
# Static dielectric constant tensor:
#      x y z
#    x 4.452540 -0.169470 -0.162200 
#    y -0.169470 4.011570 -0.044370 
#    z -0.162200 -0.044370 4.495890 
# 
# 
# High freq. dielectric constant tensor:
#      x y z
#    x 1.926640 -0.003590 -0.003170 
#    y -0.003590 1.895920 -0.001300 
#    z -0.003170 -0.001300 1.937190 
# 
# From -- ./inp_files/331704.got.cif
#   From: 2010.06.25/outbox.cif.g09.slc.cpg/sg2_166_cif.got.tgz:331704.got - 2010.06.27 13:26:56.
