data_PCOD8019172
_publ_section_title
;
Structure prediction by ZEFSAII (Michael W. Deem and Ramdas Pophale) SiO2 
 PCOD8019172
Probable space group: P -1
;
_chemical_formula_sum "Si O2"
_cell_formula_units_Z 14
_cell_length_a 8.649836
_cell_length_b 8.492963
_cell_length_c 13.619723
_cell_angle_alpha 124.019686
_cell_angle_beta 131.312500
_cell_angle_gamma 71.743226
_cell_volume 620.368364
_symmetry_space_group_name_H-M "P -1"
_symmetry_group_IT_number 2
_symmetry_cell_setting 'triclinic'
loop_
_space_group_symop_operation_xyz
x,y,z
-x,-y,-z
loop_
_atom_site_type_symbol
_atom_site_label
_atom_site_fract_x
_atom_site_fract_y
_atom_site_fract_z
Si Si1 0.621335 0.585204 0.716668
Si Si2 0.066251 0.570483 0.945945
Si Si3 0.292286 0.437520 0.832054
Si Si4 0.575205 0.106465 0.164778
Si Si5 0.540195 0.129047 0.772428
Si Si6 0.602169 0.764309 0.568993
Si Si7 0.951575 0.333807 0.343738
O O1 0.522536 0.688870 0.803219
O O2 0.531757 0.670809 0.610586
O O3 0.546932 0.357143 0.614361
O O4 0.864553 0.640847 0.835870
O O5 0.132781 0.398770 0.843387
O O6 0.242724 0.743969 0.086325
O O7 0.000000 0.500000 0.000000
O O8 0.342415 0.255472 0.723113
O O9 0.195495 0.596072 0.780091
O O10 0.500000 0.500000 0.000000
O O11 0.823702 0.155286 0.282106
O O12 0.495200 0.982427 0.179983
O O13 0.500000 0.000000 0.000000
O O14 0.551082 0.985757 0.633565
O O15 0.841250 0.743164 0.638620
O O16 0.000000 0.500000 0.500000
#
# Coordination Sequence:
#
# PCOD8019172 Si02
#       7
#     2   2   2   2   2   2   2
#     4  10  22  41  65  93 137 177 218 276 344 395
#     4  11  24  40  70  96 135 182 223 276 353 404
#     4  10  23  45  65  99 140 180 222 282 347 408
#     4  11  24  38  68 100 137 173 234 281 337 402
#     4  10  25  43  66 102 135 175 231 288 333 404
#     4  10  22  43  67  97 132 176 228 278 332 408
#     4  12  24  44  73 100 135 188 229 276 351 417
#
# _framework density 22.567236999999999
#
# number of rings (size 3 to 8) (size 9 to 14) (size 15 to 20)
#    0.000    1.429    2.857    1.714    8.000    1.143 
#    0.000    5.714    0.000    0.000    0.000    0.000 
#    0.000    0.000    0.000    0.000    0.000    0.000 
#
# Total GULP energy -173435.335853 kJ/mol
# GULP energy per Si atom -12388.238275 kJ/mol
# Density = 2.251587 g / cm^3
# Si number density = 22.567237 Si / 1000 Ang^3
#
#
#
# Elastic Constant Matrix: (Units=GPa)
#
#
# Indices 1 2 3 4 5 6 
#
# 1 163.6309 44.4769 55.6908 26.7096 -1.1151 -15.0415
# 2 44.4769 62.3832 23.2488 22.8870 -4.8917 -13.2819
# 3 55.6908 23.2488 107.0918 31.0051 1.8995 -3.8730
# 4 26.7096 22.8870 31.0051 39.8583 -3.4269 -7.2195
# 5 -1.1151 -4.8917 1.8995 -3.4269 39.7024 14.1050
# 6 -15.0415 -13.2819 -3.8730 -7.2195 14.1050 46.6674
#
#
#
# Elastic Compliance Matrix: (Units=1/GPa)
#
#
# Indices 1 2 3 4 5 6 
#
# 1 0.008674 -0.004550 -0.003342 -0.000411 -0.000677 0.001364
# 2 -0.004550 0.023669 0.000251 -0.010040 0.000652 0.003540
# 3 -0.003342 0.000251 0.013524 -0.008682 -0.001147 -0.000880
# 4 -0.000411 -0.010040 -0.008682 0.038344 0.001890 0.001650
# 5 -0.000677 0.000652 -0.001147 0.001890 0.028465 -0.008439
# 6 0.001364 0.003540 -0.000880 0.001650 -0.008439 0.025608
#
#
# Mechanical properties :
#
#
# Convention : Reuss Voigt Hill
#
# Bulk Modulus (GPa) = 32.69834 64.43764 48.56799
# Shear Modulus (GPa) = 30.53245 39.22494 34.87870
#
# Velocity S-wave (km/s) = 3.68224 4.17362 3.93561
# Velocity P-wave (km/s) = 5.70958 7.20007 6.49771
#
# Compressibility (1/GPa) = 0.03058259
#
# Stress axis : x y z
#
# Youngs Moduli (GPa) = 115.29335 42.24985 73.94496
#
# Poissons Ratio (x) = 0.19225 0.24716
# Poissons Ratio (y) = 0.52461 -0.01857
# Poissons Ratio (z) = 0.38536 -0.01061
#
# Static dielectric constant tensor:
#      x y z
#    x 4.507280 -0.374690 -0.275960 
#    y -0.374690 4.184900 0.284980 
#    z -0.275960 0.284980 4.674720 
# 
# 
# High freq. dielectric constant tensor:
#      x y z
#    x 1.921700 -0.010530 -0.011390 
#    y -0.010530 1.860990 0.009800 
#    z -0.011390 0.009800 1.889810 
# 
# From -- ./inp_files/173095.got.cif
#   From: 2010.06.25/outbox.cif.g09.slc.cpg/sg2_87_cif.got.tgz:173095.got - 2010.06.27 13:26:56.
