data_PCOD8019200
_publ_section_title
;
Structure prediction by ZEFSAII (Michael W. Deem and Ramdas Pophale) SiO2 
 PCOD8019200
Probable space group: P -1
;
_chemical_formula_sum "Si O2"
_cell_formula_units_Z 16
_cell_length_a 11.054076
_cell_length_b 11.115951
_cell_length_c 8.339595
_cell_angle_alpha 120.557565
_cell_angle_beta 53.631523
_cell_angle_gamma 93.006980
_cell_volume 663.144465
_symmetry_space_group_name_H-M "P -1"
_symmetry_group_IT_number 2
_symmetry_cell_setting 'triclinic'
loop_
_space_group_symop_operation_xyz
x,y,z
-x,-y,-z
loop_
_atom_site_type_symbol
_atom_site_label
_atom_site_fract_x
_atom_site_fract_y
_atom_site_fract_z
Si Si1 0.727086 0.288505 0.783781
Si Si2 0.662559 0.803361 0.831598
Si Si3 0.761025 0.025553 0.177542
Si Si4 0.061670 0.773637 0.706948
Si Si5 0.324415 0.894398 0.041139
Si Si6 0.241654 0.443812 0.896748
Si Si7 0.483165 0.181490 0.713742
Si Si8 0.881236 0.508788 0.325924
O O1 0.881642 0.285974 0.556543
O O2 0.784954 0.152993 0.777219
O O3 0.580955 0.279833 0.781896
O O4 0.674016 0.442732 0.029922
O O5 0.808103 0.644184 0.603248
O O6 0.705875 0.930231 0.788017
O O7 0.507404 0.786302 0.858943
O O8 0.610925 0.865437 0.097896
O O9 0.869543 0.093843 0.239701
O O10 0.609390 0.036930 0.421317
O O11 0.711583 0.131181 0.131417
O O12 0.866843 0.852547 0.926631
O O13 0.129566 0.641469 0.692136
O O14 0.354872 0.279121 0.751251
O O15 0.227396 0.449833 0.719869
O O16 0.064619 0.486853 0.137921
#
# Coordination Sequence:
#
# PCOD8019200 Si02
#       8
#     2   2   2   2   2   2   2   2
#     4  10  22  42  67  98 124 167 213 264 317 374
#     4  10  23  43  64  97 129 166 213 259 318 378
#     4  10  22  41  65  96 127 170 209 262 315 373
#     4  10  23  43  64  97 129 166 213 259 318 378
#     4  10  22  41  65  96 127 170 209 262 315 373
#     4  11  24  42  66  96 128 167 213 263 319 378
#     4  10  22  42  67  98 124 167 213 264 317 374
#     4  11  25  44  63  94 133 169 209 263 320 379
#
# _framework density 24.127472000000001
#
# number of rings (size 3 to 8) (size 9 to 14) (size 15 to 20)
#    0.000    1.750    0.000    2.625    3.500    5.000 
#   22.500    6.250    0.000    0.000    0.000    0.000 
#    0.000    0.000    0.000    0.000    0.000    0.000 
#
# Total GULP energy -198389.615779 kJ/mol
# GULP energy per Si atom -12399.350986 kJ/mol
# Density = 2.407256 g / cm^3
# Si number density = 24.127472 Si / 1000 Ang^3
#
#
#
# Elastic Constant Matrix: (Units=GPa)
#
#
# Indices 1 2 3 4 5 6 
#
# 1 60.2810 10.4922 33.5966 -16.6290 -5.5051 -20.1994
# 2 10.4922 138.4359 61.7309 -17.6033 -11.6573 -31.1218
# 3 33.5966 61.7309 152.4162 -2.4012 -4.5530 -19.5333
# 4 -16.6290 -17.6033 -2.4012 34.0928 -7.2582 2.6046
# 5 -5.5051 -11.6573 -4.5530 -7.2582 34.6140 0.9129
# 6 -20.1994 -31.1218 -19.5333 2.6046 0.9129 39.1329
#
#
#
# Elastic Compliance Matrix: (Units=1/GPa)
#
#
# Indices 1 2 3 4 5 6 
#
# 1 0.031822 0.008402 -0.007502 0.020248 0.010681 0.017766
# 2 0.008402 0.013728 -0.005531 0.011475 0.007333 0.011559
# 3 -0.007502 -0.005531 0.009903 -0.006236 -0.002986 -0.002843
# 4 0.020248 0.011475 -0.006236 0.047065 0.015792 0.012964
# 5 0.010681 0.007333 -0.002986 0.015792 0.035767 0.007970
# 6 0.017766 0.011559 -0.002843 0.012964 0.007970 0.041449
#
#
# Mechanical properties :
#
#
# Convention : Reuss Voigt Hill
#
# Bulk Modulus (GPa) = 21.64967 62.53028 42.08997
# Shear Modulus (GPa) = 24.46252 37.92216 31.19234
#
# Velocity S-wave (km/s) = 3.18761 3.96882 3.59947
# Velocity P-wave (km/s) = 4.74767 6.85383 5.89556
#
# Compressibility (1/GPa) = 0.04619007
#
# Stress axis : x y z
#
# Youngs Moduli (GPa) = 31.42482 72.84163 100.97989
#
# Poissons Ratio (x) = -0.61199 0.75758
# Poissons Ratio (y) = -0.26402 0.55851
# Poissons Ratio (z) = 0.23576 0.40288
#
# Static dielectric constant tensor:
#      x y z
#    x 4.374610 -0.029260 -0.059600 
#    y -0.029260 4.149580 -0.250290 
#    z -0.059600 -0.250290 4.528570 
# 
# 
# High freq. dielectric constant tensor:
#      x y z
#    x 1.974850 0.008460 0.003400 
#    y 0.008460 1.955340 -0.008600 
#    z 0.003400 -0.008600 1.957920 
# 
# From -- ./inp_files/262920.got.cif
#   From: 2010.06.25/outbox.cif.g09.slc.cpg/sg2_132_cif.got.tgz:262920.got - 2010.06.27 13:26:56.
