data_PCOD8019315
_publ_section_title
;
Structure prediction by ZEFSAII (Michael W. Deem and Ramdas Pophale) SiO2 
 PCOD8019315
Probable space group: P -1
;
_chemical_formula_sum "Si O2"
_cell_formula_units_Z 16
_cell_length_a 9.102713
_cell_length_b 14.917797
_cell_length_c 12.482161
_cell_angle_alpha 28.221930
_cell_angle_beta 95.164042
_cell_angle_gamma 87.490617
_cell_volume 770.537328
_symmetry_space_group_name_H-M "P -1"
_symmetry_group_IT_number 2
_symmetry_cell_setting 'triclinic'
loop_
_space_group_symop_operation_xyz
x,y,z
-x,-y,-z
loop_
_atom_site_type_symbol
_atom_site_label
_atom_site_fract_x
_atom_site_fract_y
_atom_site_fract_z
Si Si1 0.373399 0.417025 0.517332
Si Si2 0.335846 0.479642 0.823641
Si Si3 0.912018 0.329588 0.878156
Si Si4 0.901557 0.003589 0.384429
Si Si5 0.979494 0.430677 0.189755
Si Si6 0.443717 0.917991 0.688573
Si Si7 0.562912 0.147445 0.635827
Si Si8 0.222092 0.257942 0.863182
O O1 0.500000 0.500000 0.500000
O O2 0.258538 0.599841 0.256545
O O3 0.456804 0.244853 0.624407
O O4 0.266325 0.317007 0.686804
O O5 0.201527 0.513279 0.865292
O O6 0.377452 0.684845 0.595650
O O7 0.285309 0.401440 0.792296
O O8 0.477002 0.312851 0.053315
O O9 0.933194 0.483388 0.805002
O O10 0.039439 0.298237 0.825215
O O11 0.934842 0.130910 0.154597
O O12 0.731612 0.073330 0.343360
O O13 0.940709 0.794525 0.553194
O O14 0.000000 0.000000 0.500000
O O15 0.000000 0.500000 0.000000
O O16 0.467647 0.049088 0.652241
O O17 0.500000 0.000000 0.500000
O O18 0.704838 0.973584 0.869039
#
# Coordination Sequence:
#
# PCOD8019315 Si02
#       8
#     2   2   2   2   2   2   2   2
#     4  12  24  45  71  97 133 178 228 282 337 388
#     4  10  22  41  66  96 132 172 226 273 328 404
#     4  11  25  44  68  96 137 176 220 279 332 398
#     4  12  25  42  66  97 136 175 220 275 333 401
#     4  11  22  41  67  96 133 178 221 266 336 401
#     4  11  26  41  66 101 136 176 226 270 337 404
#     4  11  23  43  70  95 135 174 217 284 336 394
#     4  10  23  44  68  96 130 174 223 275 336 395
#
# _framework density 20.764731000000001
#
# number of rings (size 3 to 8) (size 9 to 14) (size 15 to 20)
#    0.000    1.000    2.500    3.750    7.000    0.500 
#    2.250    0.625    0.000    0.000    0.000    0.000 
#    0.000    0.000    0.000    0.000    0.000    0.000 
#
# Total GULP energy -198410.072382 kJ/mol
# GULP energy per Si atom -12400.629524 kJ/mol
# Density = 2.071747 g / cm^3
# Si number density = 20.764731 Si / 1000 Ang^3
#
#
#
# Elastic Constant Matrix: (Units=GPa)
#
#
# Indices 1 2 3 4 5 6 
#
# 1 142.0151 76.3940 58.5494 -4.9498 14.4929 -0.9436
# 2 76.3940 194.3143 58.5447 -31.9416 13.7145 11.0675
# 3 58.5494 58.5447 150.8030 -11.7507 -2.3630 7.3572
# 4 -4.9498 -31.9416 -11.7507 51.5612 -9.3843 -16.1310
# 5 14.4929 13.7145 -2.3630 -9.3843 47.2423 8.3959
# 6 -0.9436 11.0675 7.3572 -16.1310 8.3959 42.3381
#
#
#
# Elastic Compliance Matrix: (Units=1/GPa)
#
#
# Indices 1 2 3 4 5 6 
#
# 1 0.010310 -0.003334 -0.002971 -0.001820 -0.002974 0.001514
# 2 -0.003334 0.007539 -0.001323 0.003896 -0.000414 -0.000249
# 3 -0.002971 -0.001323 0.008457 0.000798 0.002109 -0.001304
# 4 -0.001820 0.003896 0.000798 0.024754 0.003028 0.007633
# 5 -0.002974 -0.000414 0.002109 0.003028 0.023591 -0.003849
# 6 0.001514 -0.000249 -0.001304 0.007633 -0.003849 0.027616
#
#
# Mechanical properties :
#
#
# Convention : Reuss Voigt Hill
#
# Bulk Modulus (GPa) = 90.49379 97.12318 93.80849
# Shear Modulus (GPa) = 41.25151 47.80460 44.52805
#
# Velocity S-wave (km/s) = 4.46198 4.80333 4.63580
# Velocity P-wave (km/s) = 8.37979 8.81121 8.59820
#
# Compressibility (1/GPa) = 0.01105048
#
# Stress axis : x y z
#
# Youngs Moduli (GPa) = 96.99570 132.63565 118.24159
#
# Poissons Ratio (x) = 0.44216 0.35128
# Poissons Ratio (y) = 0.32335 0.15649
# Poissons Ratio (z) = 0.28816 0.17554
#
# Static dielectric constant tensor:
#      x y z
#    x 3.553070 -0.261160 0.117720 
#    y -0.261160 3.835060 -0.072630 
#    z 0.117720 -0.072630 3.870850 
# 
# 
# High freq. dielectric constant tensor:
#      x y z
#    x 1.822050 -0.014180 -0.001130 
#    y -0.014180 1.820400 -0.005560 
#    z -0.001130 -0.005560 1.828870 
# 
# From -- ./inp_files/398155.got.cif
#   From: 2010.06.25/outbox.cif.g09.slc.cpg/sg2_200_cif.got.tgz:398155.got - 2010.06.27 13:26:56.
