data_PCOD8019078
_publ_section_title
;
Structure prediction by ZEFSAII (Michael W. Deem and Ramdas Pophale) SiO2 
 PCOD8019078
Probable space group: P -1
;
_chemical_formula_sum "Si O2"
_cell_formula_units_Z 14
_cell_length_a 9.041763
_cell_length_b 13.740797
_cell_length_c 21.410032
_cell_angle_alpha 30.370493
_cell_angle_beta 130.165347
_cell_angle_gamma 151.108525
_cell_volume 579.637569
_symmetry_space_group_name_H-M "P -1"
_symmetry_group_IT_number 2
_symmetry_cell_setting 'triclinic'
loop_
_space_group_symop_operation_xyz
x,y,z
-x,-y,-z
loop_
_atom_site_type_symbol
_atom_site_label
_atom_site_fract_x
_atom_site_fract_y
_atom_site_fract_z
Si Si1 0.359302 0.844552 0.797398
Si Si2 0.511432 0.926073 0.426481
Si Si3 0.497059 0.661503 0.769945
Si Si4 0.890414 0.685744 0.267008
Si Si5 0.166441 0.035189 0.713936
Si Si6 0.871555 0.770432 0.532781
Si Si7 0.142480 0.286603 0.999529
O O1 0.397276 0.022195 0.650651
O O2 0.223856 0.856881 0.812144
O O3 0.082732 0.446600 0.927088
O O4 0.729975 0.057233 0.794974
O O5 0.221457 0.528941 0.584014
O O6 0.361638 0.015814 0.347129
O O7 0.855916 0.181851 0.420635
O O8 0.382254 0.586070 0.709696
O O9 0.174806 0.336184 0.905555
O O10 0.816576 0.774513 0.802867
O O11 0.859380 0.891773 0.157604
O O12 0.486092 0.372785 0.655497
O O13 0.108718 0.105968 0.595809
O O14 0.000000 0.000000 0.500000
O O15 0.500000 0.500000 0.000000
#
# Coordination Sequence:
#
# PCOD8019078 Si02
#       7
#     2   2   2   2   2   2   2
#     4  10  22  41  64  94 131 169 215 263 323 380
#     4  11  22  38  64  98 129 170 215 260 324 383
#     4  11  23  40  66  96 127 168 221 263 321 384
#     4  11  21  38  65  93 128 172 220 263 315 383
#     4  11  24  40  64  97 136 165 211 270 322 383
#     4  11  23  39  61  96 141 166 203 264 337 375
#     4   9  22  43  62  88 126 174 216 265 317 382
#
# _framework density 24.153025
#
# number of rings (size 3 to 8) (size 9 to 14) (size 15 to 20)
#    0.000    1.429    2.857    2.143    4.000    3.429 
#    0.000    3.571    0.000    1.714    0.000    0.000 
#    0.000    0.000    0.000    0.000    0.000    0.000 
#
# Total GULP energy -173531.190787 kJ/mol
# GULP energy per Si atom -12395.085056 kJ/mol
# Density = 2.409805 g / cm^3
# Si number density = 24.153025 Si / 1000 Ang^3
#
#
#
# Elastic Constant Matrix: (Units=GPa)
#
#
# Indices 1 2 3 4 5 6 
#
# 1 121.4149 35.0071 42.8879 -16.7295 28.9694 5.4909
# 2 35.0071 84.6953 1.2325 -8.5899 8.2833 0.9524
# 3 42.8879 1.2325 129.6878 -8.5754 27.1791 -6.7442
# 4 -16.7295 -8.5899 -8.5754 24.2242 0.0468 0.9268
# 5 28.9694 8.2833 27.1791 0.0468 19.2233 0.3736
# 6 5.4909 0.9524 -6.7442 0.9268 0.3736 40.2054
#
#
#
# Elastic Compliance Matrix: (Units=1/GPa)
#
#
# Indices 1 2 3 4 5 6 
#
# 1 0.016158 -0.003386 0.000056 0.010105 -0.022954 -0.002137
# 2 -0.003386 0.013870 0.002009 0.003282 -0.003732 0.000430
# 3 0.000056 0.002009 0.011808 0.004890 -0.017695 0.001977
# 4 0.010105 0.003282 0.004890 0.051261 -0.023649 -0.001599
# 5 -0.022954 -0.003732 -0.017695 -0.023649 0.113301 -0.000253
# 6 -0.002137 0.000430 0.001977 -0.001599 -0.000253 0.025525
#
#
# Mechanical properties :
#
#
# Convention : Reuss Voigt Hill
#
# Bulk Modulus (GPa) = 25.51294 54.89476 40.20385
# Shear Modulus (GPa) = 20.19148 33.84194 27.01671
#
# Velocity S-wave (km/s) = 2.89447 3.74725 3.34812
# Velocity P-wave (km/s) = 4.66440 6.44203 5.62389
#
# Compressibility (1/GPa) = 0.03919580
#
# Stress axis : x y z
#
# Youngs Moduli (GPa) = 61.88782 72.09685 84.68991
#
# Poissons Ratio (x) = 0.24410 -0.00476
# Poissons Ratio (y) = 0.20954 -0.17017
# Poissons Ratio (z) = -0.00348 -0.14486
#
# Static dielectric constant tensor:
#      x y z
#    x 4.566530 0.005850 0.456990 
#    y 0.005850 4.579640 -0.302700 
#    z 0.456990 -0.302700 7.088790 
# 
# 
# High freq. dielectric constant tensor:
#      x y z
#    x 1.950920 -0.008330 0.014610 
#    y -0.008330 1.957520 0.011610 
#    z 0.014610 0.011610 1.947320 
# 
# From -- ./inp_files/608070.got.cif
#   From: 2010.06.25/outbox.cif.g09.slc.cpg/sg2_305_cif.got.tgz:608070.got - 2010.06.27 13:26:56.
