data_PCOD8019904
_publ_section_title
;
Structure prediction by ZEFSAII (Michael W. Deem and Ramdas Pophale) SiO2 
 PCOD8019904
Probable space group: P -1
;
_chemical_formula_sum "Si O2"
_cell_formula_units_Z 12
_cell_length_a 6.296672
_cell_length_b 13.028360
_cell_length_c 11.737808
_cell_angle_alpha 121.457436
_cell_angle_beta 71.935542
_cell_angle_gamma 66.155873
_cell_volume 559.196505
_symmetry_space_group_name_H-M "P -1"
_symmetry_group_IT_number 2
_symmetry_cell_setting 'triclinic'
loop_
_space_group_symop_operation_xyz
x,y,z
-x,-y,-z
loop_
_atom_site_type_symbol
_atom_site_label
_atom_site_fract_x
_atom_site_fract_y
_atom_site_fract_z
Si Si1 0.239090 0.082566 0.724229
Si Si2 0.281975 0.648747 0.207936
Si Si3 0.897721 0.166709 0.066837
Si Si4 0.822318 0.498895 0.667291
Si Si5 0.644508 0.130396 0.599960
Si Si6 0.137911 0.612070 0.638390
O O1 0.470600 0.109356 0.708454
O O2 0.004270 0.196151 0.726500
O O3 0.408197 0.897910 0.538532
O O4 0.079388 0.121643 0.893533
O O5 0.163272 0.597540 0.288246
O O6 0.469188 0.687938 0.262241
O O7 0.500000 0.500000 0.000000
O O8 0.527864 0.320163 0.195999
O O9 0.015060 0.217222 0.172434
O O10 0.000000 0.000000 0.000000
O O11 0.981650 0.367144 0.458275
O O12 0.044940 0.528167 0.677627
O O13 0.000000 0.000000 0.500000
O O14 0.500000 0.500000 0.500000
#
# Coordination Sequence:
#
# PCOD8019904 Si02
#       6
#     2   2   2   2   2   2
#     4  10  22  42  62  93 124 159 207 246 308 361
#     4  11  22  38  67  92 121 158 200 259 304 361
#     4  11  24  40  64  90 122 162 205 253 300 364
#     4  10  22  44  62  91 123 158 208 248 309 358
#     4   9  22  42  60  91 126 163 197 251 305 363
#     4   9  22  43  63  88 122 161 204 252 299 363
#
# _framework density 21.459364000000001
#
# number of rings (size 3 to 8) (size 9 to 14) (size 15 to 20)
#    0.000    2.000    1.667    0.000    4.667    4.000 
#   24.000    0.000    0.000    0.000    0.000    0.000 
#    0.000    0.000    0.000    0.000    0.000    0.000 
#
# Total GULP energy -148668.719661 kJ/mol
# GULP energy per Si atom -12389.059972 kJ/mol
# Density = 2.141052 g / cm^3
# Si number density = 21.459364 Si / 1000 Ang^3
#
#
#
# Elastic Constant Matrix: (Units=GPa)
#
#
# Indices 1 2 3 4 5 6 
#
# 1 121.2628 56.4071 62.7358 -3.0514 14.0465 48.4831
# 2 56.4071 145.5922 79.3974 -20.1517 16.9028 37.4572
# 3 62.7358 79.3974 164.0857 -15.7394 33.9898 34.9697
# 4 -3.0514 -20.1517 -15.7394 36.0945 10.7433 -4.2333
# 5 14.0465 16.9028 33.9898 10.7433 38.6186 6.9441
# 6 48.4831 37.4572 34.9697 -4.2333 6.9441 43.6692
#
#
#
# Elastic Compliance Matrix: (Units=1/GPa)
#
#
# Indices 1 2 3 4 5 6 
#
# 1 0.016081 -0.001340 -0.002644 -0.002410 0.000412 -0.014887
# 2 -0.001340 0.011202 -0.002877 0.005017 -0.002389 -0.004951
# 3 -0.002644 -0.002877 0.011216 0.005517 -0.008892 -0.001630
# 4 -0.002410 0.005017 0.005517 0.037714 -0.016715 0.000269
# 5 0.000412 -0.002389 -0.008892 -0.016715 0.039109 0.000874
# 6 -0.014887 -0.004951 -0.001630 0.000269 0.000874 0.044866
#
#
# Mechanical properties :
#
#
# Convention : Reuss Voigt Hill
#
# Bulk Modulus (GPa) = 40.35923 92.00237 66.18080
# Shear Modulus (GPa) = 27.44705 39.16984 33.30845
#
# Velocity S-wave (km/s) = 3.58023 4.27699 3.94403
# Velocity P-wave (km/s) = 5.99490 8.20708 7.18662
#
# Compressibility (1/GPa) = 0.02477748
#
# Stress axis : x y z
#
# Youngs Moduli (GPa) = 62.18406 89.26996 89.16022
#
# Poissons Ratio (x) = 0.11962 0.23573
# Poissons Ratio (y) = 0.08333 0.25650
# Poissons Ratio (z) = 0.16441 0.25682
#
# Static dielectric constant tensor:
#      x y z
#    x 4.737440 0.699500 0.341880 
#    y 0.699500 4.004060 0.189100 
#    z 0.341880 0.189100 5.761490 
# 
# 
# High freq. dielectric constant tensor:
#      x y z
#    x 1.849650 0.028020 0.011670 
#    y 0.028020 1.822970 -0.007310 
#    z 0.011670 -0.007310 1.862150 
# 
# From -- ./inp_files/19947.got.cif
#   From: 2010.06.25/outbox.cif.g09.slc.cpg/sg2_10_cif.got.tgz:19947.got - 2010.06.27 13:26:56.
