data_PCOD8019846
_publ_section_title
;
Structure prediction by ZEFSAII (Michael W. Deem and Ramdas Pophale) SiO2 
 PCOD8019846
Probable space group: P -1
;
_chemical_formula_sum "Si O2"
_cell_formula_units_Z 16
_cell_length_a 7.124241
_cell_length_b 10.494687
_cell_length_c 16.629958
_cell_angle_alpha 49.729443
_cell_angle_beta 56.646021
_cell_angle_gamma 80.314664
_cell_volume 757.491764
_symmetry_space_group_name_H-M "P -1"
_symmetry_group_IT_number 2
_symmetry_cell_setting 'triclinic'
loop_
_space_group_symop_operation_xyz
x,y,z
-x,-y,-z
loop_
_atom_site_type_symbol
_atom_site_label
_atom_site_fract_x
_atom_site_fract_y
_atom_site_fract_z
Si Si1 0.500776 0.857983 0.954599
Si Si2 0.297013 0.459486 0.352052
Si Si3 0.289369 0.428007 0.902371
Si Si4 0.674111 0.662824 0.434338
Si Si5 0.758783 0.283242 0.088960
Si Si6 0.827619 0.201220 0.800441
Si Si7 0.342975 0.991634 0.647163
Si Si8 0.194101 0.085517 0.482807
O O1 0.417846 0.799502 0.907948
O O2 0.677125 0.055871 0.832182
O O3 0.640037 0.733170 0.010146
O O4 0.270920 0.854351 0.063942
O O5 0.569401 0.513419 0.237706
O O6 0.251292 0.427477 0.469618
O O7 0.183531 0.606630 0.293717
O O8 0.167908 0.278650 0.412669
O O9 0.346330 0.582392 0.892352
O O10 0.019668 0.381157 0.956268
O O11 0.500000 0.500000 0.500000
O O12 0.546324 0.807094 0.432274
O O13 0.894438 0.773926 0.282920
O O14 0.796542 0.130492 0.199301
O O15 0.160921 0.989962 0.617129
O O16 0.548543 0.911062 0.607690
O O17 0.000000 0.000000 0.500000
#
# Coordination Sequence:
#
# PCOD8019846 Si02
#       8
#     2   2   2   2   2   2   2   2
#     4  10  23  43  67  90 129 170 214 265 317 372
#     4  10  22  43  62  92 129 160 215 264 311 386
#     4  10  22  42  60 100 125 159 216 265 317 386
#     4  11  25  39  64  94 129 170 206 265 317 377
#     4  11  22  39  70  91 128 168 204 272 322 374
#     4  10  23  44  62  94 127 169 222 258 306 392
#     4  10  23  42  60  99 124 155 223 253 312 391
#     4  10  22  42  67  90 126 169 201 267 324 371
#
# _framework density 21.122340000000001
#
# number of rings (size 3 to 8) (size 9 to 14) (size 15 to 20)
#    0.000    1.750    1.250    1.500    5.250    3.000 
#    9.000    2.500    0.000    0.000    0.000    0.000 
#    0.000    0.000    0.000    0.000    0.000    0.000 
#
# Total GULP energy -198322.196997 kJ/mol
# GULP energy per Si atom -12395.137312 kJ/mol
# Density = 2.107426 g / cm^3
# Si number density = 21.122340 Si / 1000 Ang^3
#
#
#
# Elastic Constant Matrix: (Units=GPa)
#
#
# Indices 1 2 3 4 5 6 
#
# 1 74.3076 49.7445 24.4534 -11.6933 -2.0230 14.9283
# 2 49.7445 130.0655 26.5531 -17.4349 4.1472 22.1099
# 3 24.4534 26.5531 86.6015 -7.6403 -3.9062 6.4415
# 4 -11.6933 -17.4349 -7.6403 33.0204 -7.5275 -5.9416
# 5 -2.0230 4.1472 -3.9062 -7.5275 24.2174 -6.2913
# 6 14.9283 22.1099 6.4415 -5.9416 -6.2913 32.4903
#
#
#
# Elastic Compliance Matrix: (Units=1/GPa)
#
#
# Indices 1 2 3 4 5 6 
#
# 1 0.019706 -0.005997 -0.003110 0.002991 0.002223 -0.003379
# 2 -0.005997 0.011511 -0.001442 0.001919 -0.003435 -0.005106
# 3 -0.003110 -0.001442 0.013117 0.001966 0.002904 0.000731
# 4 0.002991 0.001919 0.001966 0.036990 0.013368 0.006283
# 5 0.002223 -0.003435 0.002904 0.013368 0.050034 0.012873
# 6 -0.003379 -0.005106 0.000731 0.006283 0.012873 0.039303
#
#
# Mechanical properties :
#
#
# Convention : Reuss Voigt Hill
#
# Bulk Modulus (GPa) = 43.03622 54.71963 48.87793
# Shear Modulus (GPa) = 25.06205 30.62720 27.84463
#
# Velocity S-wave (km/s) = 3.44832 3.81201 3.63472
# Velocity P-wave (km/s) = 6.02275 6.73331 6.38792
#
# Compressibility (1/GPa) = 0.02323624
#
# Stress axis : x y z
#
# Youngs Moduli (GPa) = 50.74627 86.87142 76.23433
#
# Poissons Ratio (x) = 0.52100 0.23708
# Poissons Ratio (y) = 0.30434 0.10992
# Poissons Ratio (z) = 0.15782 0.12526
#
# Static dielectric constant tensor:
#      x y z
#    x 2.450570 -0.112040 -0.023240 
#    y -0.112040 4.106610 0.017180 
#    z -0.023240 0.017180 4.108280 
# 
# 
# High freq. dielectric constant tensor:
#      x y z
#    x 1.797090 -0.010880 -0.002740 
#    y -0.010880 1.852220 -0.004580 
#    z -0.002740 -0.004580 1.836740 
# 
# From -- ./inp_files/482607.got.cif
#   From: 2010.06.25/outbox.cif.g09.slc.cpg/sg2_242_cif.got.tgz:482607.got - 2010.06.27 13:26:56.
