data_PCOD8019564
_publ_section_title
;
Structure prediction by ZEFSAII (Michael W. Deem and Ramdas Pophale) SiO2 
 PCOD8019564
Probable space group: P -1
;
_chemical_formula_sum "Si O2"
_cell_formula_units_Z 10
_cell_length_a 10.716487
_cell_length_b 9.280804
_cell_length_c 7.987110
_cell_angle_alpha 50.801757
_cell_angle_beta 97.306651
_cell_angle_gamma 136.433565
_cell_volume 333.132496
_symmetry_space_group_name_H-M "P -1"
_symmetry_group_IT_number 2
_symmetry_cell_setting 'triclinic'
loop_
_space_group_symop_operation_xyz
x,y,z
-x,-y,-z
loop_
_atom_site_type_symbol
_atom_site_label
_atom_site_fract_x
_atom_site_fract_y
_atom_site_fract_z
Si Si1 0.212354 0.220212 0.589550
Si Si2 0.311635 0.711405 0.438583
Si Si3 0.765207 0.849743 0.756912
Si Si4 0.201667 0.751907 0.721159
Si Si5 0.330670 0.096227 0.974864
O O1 0.257839 0.436232 0.577627
O O2 0.256534 0.074447 0.792450
O O3 0.394488 0.491729 0.267987
O O4 0.942063 0.896114 0.726737
O O5 0.146793 0.576013 0.664369
O O6 0.568492 0.046253 0.309409
O O7 0.310941 0.848460 0.175125
O O8 0.789090 0.015300 0.481956
O O9 0.500000 0.500000 0.000000
O O10 0.836795 0.032167 0.813959
O O11 0.000000 0.500000 0.000000
#
# Coordination Sequence:
#
# PCOD8019564 Si02
#       5
#     2   2   2   2   2
#     4  11  23  42  68  97 133 175 221 272 330 394
#     4  10  22  42  67  98 133 169 222 274 324 394
#     4  11  24  43  65  96 135 173 221 276 329 390
#     4  10  22  41  68  98 132 176 218 269 334 395
#     4  10  23  41  66  99 130 172 221 273 332 392
#
# _framework density 30.018086
#
# number of rings (size 3 to 8) (size 9 to 14) (size 15 to 20)
#    0.000    1.600    0.000    3.600    0.000    5.600 
#    0.000   16.000    0.000    3.600    0.000    0.000 
#    0.000    0.000    0.000    0.000    0.000    0.000 
#
# Total GULP energy -123941.589187 kJ/mol
# GULP energy per Si atom -12394.158919 kJ/mol
# Density = 2.994976 g / cm^3
# Si number density = 30.018086 Si / 1000 Ang^3
#
#
#
# Elastic Constant Matrix: (Units=GPa)
#
#
# Indices 1 2 3 4 5 6 
#
# 1 126.0073 33.2225 60.7965 17.2196 -19.8457 28.2359
# 2 33.2225 86.9294 42.9901 15.9703 -3.5269 19.3883
# 3 60.7965 42.9901 201.5664 44.1351 -21.9374 13.4866
# 4 17.2196 15.9703 44.1351 40.4086 2.0875 6.7091
# 5 -19.8457 -3.5269 -21.9374 2.0875 67.9731 2.1611
# 6 28.2359 19.3883 13.4866 6.7091 2.1611 53.8319
#
#
#
# Elastic Compliance Matrix: (Units=1/GPa)
#
#
# Indices 1 2 3 4 5 6 
#
# 1 0.011019 -0.001854 -0.002112 -0.001034 0.002616 -0.004559
# 2 -0.001854 0.014271 -0.001762 -0.002347 -0.000188 -0.003426
# 3 -0.002112 -0.001762 0.007678 -0.006993 0.001965 0.000611
# 4 -0.001034 -0.002347 -0.006993 0.034104 -0.003697 -0.000962
# 5 0.002616 -0.000188 0.001965 -0.003697 0.016277 -0.001989
# 6 -0.004559 -0.003426 0.000611 -0.000962 -0.001989 0.022248
#
#
# Mechanical properties :
#
#
# Convention : Reuss Voigt Hill
#
# Bulk Modulus (GPa) = 46.48384 76.50237 61.49310
# Shear Modulus (GPa) = 40.25024 50.94232 45.59628
#
# Velocity S-wave (km/s) = 3.66576 4.12400 3.90161
# Velocity P-wave (km/s) = 5.78238 6.94387 6.38957
#
# Compressibility (1/GPa) = 0.02151285
#
# Stress axis : x y z
#
# Youngs Moduli (GPa) = 90.75518 70.07161 130.24132
#
# Poissons Ratio (x) = 0.12989 0.27505
# Poissons Ratio (y) = 0.16824 0.22948
# Poissons Ratio (z) = 0.19166 0.12346
#
# Static dielectric constant tensor:
#      x y z
#    x 6.106440 -0.644260 -0.938830 
#    y -0.644260 7.039300 0.861430 
#    z -0.938830 0.861430 6.000480 
# 
# 
# High freq. dielectric constant tensor:
#      x y z
#    x 2.244330 -0.002130 -0.029500 
#    y -0.002130 2.252070 0.007280 
#    z -0.029500 0.007280 2.238850 
# 
# From -- ./inp_files/144051.got.cif
#   From: 2010.06.25/outbox.cif.g09.slc.cpg/sg2_73_cif.got.tgz:144051.got - 2010.06.27 13:26:56.
