data_PCOD8019556
_publ_section_title
;
Structure prediction by ZEFSAII (Michael W. Deem and Ramdas Pophale) SiO2 
 PCOD8019556
Probable space group: P -1
;
_chemical_formula_sum "Si O2"
_cell_formula_units_Z 14
_cell_length_a 5.220178
_cell_length_b 11.502736
_cell_length_c 17.595857
_cell_angle_alpha 136.019646
_cell_angle_beta 129.697694
_cell_angle_gamma 59.359845
_cell_volume 562.041681
_symmetry_space_group_name_H-M "P -1"
_symmetry_group_IT_number 2
_symmetry_cell_setting 'triclinic'
loop_
_space_group_symop_operation_xyz
x,y,z
-x,-y,-z
loop_
_atom_site_type_symbol
_atom_site_label
_atom_site_fract_x
_atom_site_fract_y
_atom_site_fract_z
Si Si1 0.253127 0.194200 0.692075
Si Si2 0.399414 0.485694 0.059651
Si Si3 0.789424 0.010156 0.619988
Si Si4 0.452621 0.889649 0.055019
Si Si5 0.892668 0.617696 0.605775
Si Si6 0.840534 0.286317 0.512608
Si Si7 0.042560 0.947910 0.855175
O O1 0.403410 0.372787 0.796709
O O2 0.586353 0.062546 0.683260
O O3 0.052242 0.146857 0.707745
O O4 0.982130 0.194963 0.572868
O O5 0.500000 0.500000 0.000000
O O6 0.560723 0.309060 0.038925
O O7 0.000000 0.500000 0.000000
O O8 0.500000 0.000000 0.500000
O O9 0.986085 0.823325 0.576769
O O10 0.834001 0.933775 0.133331
O O11 0.247838 0.966056 0.980155
O O12 0.329691 0.979151 0.153808
O O13 0.884710 0.484497 0.610702
O O14 0.551128 0.728194 0.573483
O O15 0.000000 0.500000 0.500000
O O16 0.114789 0.758392 0.746477
#
# Coordination Sequence:
#
# PCOD8019556 Si02
#       7
#     2   2   2   2   2   2   2
#     4  11  24  44  70  95 131 183 220 281 337 405
#     4  12  26  45  65 103 136 169 231 284 347 398
#     4  10  22  41  68  97 128 173 228 264 325 410
#     4  10  23  46  71  99 126 184 224 280 338 400
#     4  11  26  41  63 103 137 177 219 283 344 404
#     4  10  24  42  62  96 134 176 221 268 337 410
#     4  10  23  45  72  95 134 172 233 276 336 403
#
# _framework density 24.909185000000001
#
# number of rings (size 3 to 8) (size 9 to 14) (size 15 to 20)
#    0.000    1.429    0.000    4.286   10.000    3.429 
#    5.143    0.000    0.000    0.000    0.000    0.000 
#    0.000    0.000    0.000    0.000    0.000    0.000 
#
# Total GULP energy -173453.939375 kJ/mol
# GULP energy per Si atom -12389.567098 kJ/mol
# Density = 2.485249 g / cm^3
# Si number density = 24.909185 Si / 1000 Ang^3
#
#
#
# Elastic Constant Matrix: (Units=GPa)
#
#
# Indices 1 2 3 4 5 6 
#
# 1 191.2212 40.9211 36.7372 13.0514 -4.7736 -6.1593
# 2 40.9211 93.6875 12.1691 29.5369 2.8187 -17.0870
# 3 36.7372 12.1691 81.9880 34.7148 1.3195 -1.3798
# 4 13.0514 29.5369 34.7148 40.2667 -0.1948 4.5344
# 5 -4.7736 2.8187 1.3195 -0.1948 43.6063 12.0837
# 6 -6.1593 -17.0870 -1.3798 4.5344 12.0837 38.8271
#
#
#
# Elastic Compliance Matrix: (Units=1/GPa)
#
#
# Indices 1 2 3 4 5 6 
#
# 1 0.006700 -0.004515 -0.004719 0.005476 0.001830 -0.002301
# 2 -0.004515 0.021785 0.009367 -0.024192 -0.006158 0.013946
# 3 -0.004719 0.009367 0.024943 -0.027870 -0.004469 0.008905
# 4 0.005476 -0.024192 -0.027870 0.067299 0.009268 -0.021512
# 5 0.001830 -0.006158 -0.004469 0.009268 0.027055 -0.012081
# 6 -0.002301 0.013946 0.008905 -0.021512 -0.012081 0.038116
#
#
# Mechanical properties :
#
#
# Convention : Reuss Voigt Hill
#
# Bulk Modulus (GPa) = 18.62415 60.72794 39.67604
# Shear Modulus (GPa) = 24.56621 43.01131 33.78876
#
# Velocity S-wave (km/s) = 3.14384 4.15990 3.68703
# Velocity P-wave (km/s) = 4.54657 6.89243 5.83854
#
# Compressibility (1/GPa) = 0.05369373
#
# Stress axis : x y z
#
# Youngs Moduli (GPa) = 149.25117 45.90358 40.09067
#
# Poissons Ratio (x) = 0.20724 0.18919
# Poissons Ratio (y) = 0.67384 -0.37551
# Poissons Ratio (z) = 0.70432 -0.42996
#
# Static dielectric constant tensor:
#      x y z
#    x 5.192310 -0.319470 -0.123490 
#    y -0.319470 4.451080 0.179710 
#    z -0.123490 0.179710 4.258450 
# 
# 
# High freq. dielectric constant tensor:
#      x y z
#    x 2.005760 -0.001340 0.005810 
#    y -0.001340 1.999470 0.009030 
#    z 0.005810 0.009030 1.990720 
# 
# From -- ./inp_files/583121.got.cif
#   From: 2010.06.25/outbox.cif.g09.slc.cpg/sg2_292_cif.got.tgz:583121.got - 2010.06.27 13:26:56.
