data_PCOD8019583
_publ_section_title
;
Structure prediction by ZEFSAII (Michael W. Deem and Ramdas Pophale) SiO2 
 PCOD8019583
Probable space group: P -1
;
_chemical_formula_sum "Si O2"
_cell_formula_units_Z 16
_cell_length_a 11.629352
_cell_length_b 8.775291
_cell_length_c 16.244912
_cell_angle_alpha 55.766695
_cell_angle_beta 116.847374
_cell_angle_gamma 70.048168
_cell_volume 722.126895
_symmetry_space_group_name_H-M "P -1"
_symmetry_group_IT_number 2
_symmetry_cell_setting 'triclinic'
loop_
_space_group_symop_operation_xyz
x,y,z
-x,-y,-z
loop_
_atom_site_type_symbol
_atom_site_label
_atom_site_fract_x
_atom_site_fract_y
_atom_site_fract_z
Si Si1 0.520895 0.668224 0.498147
Si Si2 0.782902 0.097536 0.539780
Si Si3 0.721773 0.630416 0.706657
Si Si4 0.531959 0.101182 0.160936
Si Si5 0.220279 0.498434 0.507499
Si Si6 0.121498 0.419408 0.856557
Si Si7 0.232032 0.025241 0.873678
Si Si8 0.568293 0.564962 0.813616
O O1 0.500000 0.500000 0.500000
O O2 0.300903 0.938193 0.400251
O O3 0.722653 0.461194 0.691126
O O4 0.571724 0.747239 0.414624
O O5 0.814330 0.269861 0.526781
O O6 0.620551 0.287855 0.352715
O O7 0.007888 0.742326 0.692606
O O8 0.708193 0.563373 0.814315
O O9 0.945602 0.482064 0.818303
O O10 0.500000 0.000000 0.500000
O O11 0.538765 0.229221 0.201680
O O12 0.725940 0.726233 0.343472
O O13 0.579143 0.165837 0.075014
O O14 0.299399 0.266980 0.028979
O O15 0.003450 0.705281 0.325399
O O16 0.243138 0.184602 0.890876
O O17 0.273781 0.786441 0.007209
#
# Coordination Sequence:
#
# PCOD8019583 Si02
#       8
#     2   2   2   2   2   2   2   2
#     4   9  18  36  65  96 131 162 211 268 326 396
#     4  10  22  41  69 100 134 171 212 277 342 400
#     4  11  20  42  71 100 133 168 214 270 341 401
#     4  12  27  45  65  96 135 180 229 273 322 391
#     4  11  22  44  68  96 130 179 227 272 330 389
#     4  12  24  43  69  98 139 172 219 275 332 394
#     4  12  26  46  66  95 133 180 230 274 322 391
#     4  11  24  44  70  97 137 170 221 277 333 394
#
# _framework density 22.156770999999999
#
# number of rings (size 3 to 8) (size 9 to 14) (size 15 to 20)
#    0.000    1.000    3.750    4.125    0.000    1.000 
#    6.750    1.875    0.000    0.000    0.000    0.000 
#    0.000    0.000    0.000    0.000    0.000    0.000 
#
# Total GULP energy -198278.832054 kJ/mol
# GULP energy per Si atom -12392.427003 kJ/mol
# Density = 2.210634 g / cm^3
# Si number density = 22.156771 Si / 1000 Ang^3
#
#
#
# Elastic Constant Matrix: (Units=GPa)
#
#
# Indices 1 2 3 4 5 6 
#
# 1 73.9504 33.9533 35.2048 1.2632 -10.1113 -7.3301
# 2 33.9533 116.7217 19.5993 3.6303 -8.4476 4.8848
# 3 35.2048 19.5993 117.5233 -8.1847 -5.6237 10.9690
# 4 1.2632 3.6303 -8.1847 34.3983 7.0119 -2.0058
# 5 -10.1113 -8.4476 -5.6237 7.0119 32.7157 6.4802
# 6 -7.3301 4.8848 10.9690 -2.0058 6.4802 32.5000
#
#
#
# Elastic Compliance Matrix: (Units=1/GPa)
#
#
# Indices 1 2 3 4 5 6 
#
# 1 0.019400 -0.004696 -0.005596 -0.001787 0.002963 0.006269
# 2 -0.004696 0.010270 -0.000019 -0.001535 0.002144 -0.003118
# 3 -0.005596 -0.000019 0.010839 0.002382 0.000586 -0.004887
# 4 -0.001787 -0.001535 0.002382 0.031606 -0.007815 0.002533
# 5 0.002963 0.002144 0.000586 -0.007815 0.035270 -0.007367
# 6 0.006269 -0.003118 -0.004887 0.002533 -0.007367 0.035926
#
#
# Mechanical properties :
#
#
# Convention : Reuss Voigt Hill
#
# Bulk Modulus (GPa) = 50.28676 53.96780 52.12728
# Shear Modulus (GPa) = 29.31482 34.55199 31.93341
#
# Velocity S-wave (km/s) = 3.64134 3.95325 3.80050
# Velocity P-wave (km/s) = 6.35801 6.72664 6.54492
#
# Compressibility (1/GPa) = 0.01988595
#
# Stress axis : x y z
#
# Youngs Moduli (GPa) = 51.54746 97.37066 92.26342
#
# Poissons Ratio (x) = 0.45724 0.51630
# Poissons Ratio (y) = 0.24206 0.00178
# Poissons Ratio (z) = 0.28845 0.00188
#
# Static dielectric constant tensor:
#      x y z
#    x 4.420790 -0.444690 -0.197620 
#    y -0.444690 5.455880 0.565410 
#    z -0.197620 0.565410 4.002670 
# 
# 
# High freq. dielectric constant tensor:
#      x y z
#    x 1.873330 0.008430 0.004550 
#    y 0.008430 1.893270 0.013790 
#    z 0.004550 0.013790 1.854060 
# 
# From -- ./inp_files/447828.got.cif
#   From: 2010.06.25/outbox.cif.g09.slc.cpg/sg2_224_cif.got.tgz:447828.got - 2010.06.27 13:26:56.
