data_PCOD8019648
_publ_section_title
;
Structure prediction by ZEFSAII (Michael W. Deem and Ramdas Pophale) SiO2 
 PCOD8019648
Probable space group: P -1
;
_chemical_formula_sum "Si O2"
_cell_formula_units_Z 16
_cell_length_a 19.514475
_cell_length_b 10.133429
_cell_length_c 7.489050
_cell_angle_alpha 54.203924
_cell_angle_beta 126.663548
_cell_angle_gamma 145.403154
_cell_volume 660.189535
_symmetry_space_group_name_H-M "P -1"
_symmetry_group_IT_number 2
_symmetry_cell_setting 'triclinic'
loop_
_space_group_symop_operation_xyz
x,y,z
-x,-y,-z
loop_
_atom_site_type_symbol
_atom_site_label
_atom_site_fract_x
_atom_site_fract_y
_atom_site_fract_z
Si Si1 0.682920 0.760131 0.477505
Si Si2 0.402461 0.224237 0.031549
Si Si3 0.564156 0.188263 0.173783
Si Si4 0.162512 0.501991 0.689641
Si Si5 0.087111 0.414859 0.052554
Si Si6 0.827368 0.229081 0.798988
Si Si7 0.508576 0.767431 0.347756
Si Si8 0.054551 0.016847 0.258435
O O1 0.615935 0.777555 0.510213
O O2 0.617984 0.492565 0.575820
O O3 0.825028 0.929638 0.621173
O O4 0.675087 0.845685 0.212352
O O5 0.490822 0.188144 0.207819
O O6 0.297477 0.053358 0.154805
O O7 0.500000 0.500000 0.000000
O O8 0.711758 0.427664 0.200194
O O9 0.543094 0.969187 0.364510
O O10 0.502186 0.167889 0.913444
O O11 0.172771 0.689294 0.460265
O O12 0.052898 0.248831 0.619638
O O13 0.140978 0.508325 0.861321
O O14 0.172472 0.634784 0.149196
O O15 0.086061 0.221678 0.260912
O O16 0.945640 0.276889 0.957013
O O17 0.000000 0.000000 0.000000
#
# Coordination Sequence:
#
# PCOD8019648 Si02
#       8
#     2   2   2   2   2   2   2   2
#     4  10  22  41  69  96 140 184 236 291 372 417
#     4  11  28  47  66  99 149 194 238 303 354 435
#     4  10  23  41  70 101 140 180 244 293 360 425
#     4  11  25  44  74 106 141 190 240 301 360 426
#     4  10  25  47  71 104 147 188 238 300 355 436
#     4  11  27  46  71 105 144 192 242 296 364 424
#     4   9  20  40  67 101 130 183 235 298 348 434
#     4  10  23  42  71 106 140 184 235 299 357 429
#
# _framework density 24.235467
#
# number of rings (size 3 to 8) (size 9 to 14) (size 15 to 20)
#    0.000    1.750    0.000    1.875   14.000    4.000 
#    2.250    0.000    0.000    0.000    0.000    0.000 
#    0.000    0.000    0.000    0.000    0.000    0.000 
#
# Total GULP energy -198337.794450 kJ/mol
# GULP energy per Si atom -12396.112153 kJ/mol
# Density = 2.418031 g / cm^3
# Si number density = 24.235467 Si / 1000 Ang^3
#
#
#
# Elastic Constant Matrix: (Units=GPa)
#
#
# Indices 1 2 3 4 5 6 
#
# 1 77.4830 52.7074 36.5020 4.2727 27.2719 15.3724
# 2 52.7074 162.1600 41.2031 -14.4554 21.4606 22.4495
# 3 36.5020 41.2031 75.3850 -7.1226 11.7972 4.2655
# 4 4.2727 -14.4554 -7.1226 46.9020 7.0610 8.0146
# 5 27.2719 21.4606 11.7972 7.0610 44.1855 1.7315
# 6 15.3724 22.4495 4.2655 8.0146 1.7315 39.4404
#
#
#
# Elastic Compliance Matrix: (Units=1/GPa)
#
#
# Indices 1 2 3 4 5 6 
#
# 1 0.024063 -0.003911 -0.007789 -0.002098 -0.010325 -0.005431
# 2 -0.003911 0.009172 -0.002224 0.003840 -0.001898 -0.004153
# 3 -0.007789 -0.002224 0.018292 0.002410 0.000548 0.001810
# 4 -0.002098 0.003840 0.002410 0.024912 -0.004941 -0.006474
# 5 -0.010325 -0.001898 0.000548 -0.004941 0.030385 0.004715
# 6 -0.005431 -0.004153 0.001810 -0.006474 0.004715 0.030748
#
#
# Mechanical properties :
#
#
# Convention : Reuss Voigt Hill
#
# Bulk Modulus (GPa) = 42.23341 63.98365 53.10853
# Shear Modulus (GPa) = 28.84957 38.41329 33.63143
#
# Velocity S-wave (km/s) = 3.45394 3.98553 3.72922
# Velocity P-wave (km/s) = 5.77671 6.90199 6.36427
#
# Compressibility (1/GPa) = 0.02367794
#
# Stress axis : x y z
#
# Youngs Moduli (GPa) = 41.55744 109.03323 54.66851
#
# Poissons Ratio (x) = 0.42642 0.42582
# Poissons Ratio (y) = 0.16253 0.12160
# Poissons Ratio (z) = 0.32369 0.24253
#
# Static dielectric constant tensor:
#      x y z
#    x 4.500010 -0.176290 0.340870 
#    y -0.176290 4.804840 -0.300200 
#    z 0.340870 -0.300200 4.500500 
# 
# 
# High freq. dielectric constant tensor:
#      x y z
#    x 1.953360 0.005520 0.016450 
#    y 0.005520 1.972300 -0.006080 
#    z 0.016450 -0.006080 1.965560 
# 
# From -- ./inp_files/345970.got.cif
#   From: 2010.06.25/outbox.cif.g09.slc.cpg/sg2_173_cif.got.tgz:345970.got - 2010.06.27 13:26:56.
