data_PCOD8019604
_publ_section_title
;
Structure prediction by ZEFSAII (Michael W. Deem and Ramdas Pophale) SiO2 
 PCOD8019604
Probable space group: P -1
;
_chemical_formula_sum "Si O2"
_cell_formula_units_Z 14
_cell_length_a 7.653024
_cell_length_b 12.866632
_cell_length_c 9.942033
_cell_angle_alpha 58.848788
_cell_angle_beta 66.971511
_cell_angle_gamma 44.744003
_cell_volume 589.312270
_symmetry_space_group_name_H-M "P -1"
_symmetry_group_IT_number 2
_symmetry_cell_setting 'triclinic'
loop_
_space_group_symop_operation_xyz
x,y,z
-x,-y,-z
loop_
_atom_site_type_symbol
_atom_site_label
_atom_site_fract_x
_atom_site_fract_y
_atom_site_fract_z
Si Si1 0.732594 0.994657 0.443452
Si Si2 0.908115 0.084287 0.828729
Si Si3 0.903391 0.655777 0.298327
Si Si4 0.215179 0.123202 0.038749
Si Si5 0.575036 0.574831 0.323724
Si Si6 0.041092 0.279379 0.261727
Si Si7 0.701762 0.686635 0.608691
O O1 0.600842 0.179742 0.393911
O O2 0.871894 0.937304 0.298184
O O3 0.500000 0.000000 0.500000
O O4 0.919389 0.872694 0.586005
O O5 0.861231 0.980737 0.827618
O O6 0.665398 0.270364 0.782684
O O7 0.000000 0.000000 0.000000
O O8 0.721763 0.624487 0.318644
O O9 0.816438 0.724520 0.429379
O O10 0.191893 0.492322 0.326816
O O11 0.913607 0.772577 0.127566
O O12 0.142226 0.242061 0.103769
O O13 0.500000 0.000000 0.000000
O O14 0.500000 0.500000 0.500000
O O15 0.753330 0.439133 0.248726
O O16 0.204663 0.306063 0.279798
#
# Coordination Sequence:
#
# PCOD8019604 Si02
#       7
#     2   2   2   2   2   2   2
#     4  10  22  41  69  98 135 184 236 282 345 426
#     4  12  29  44  71 108 147 186 236 304 366 420
#     4  10  22  41  69 104 141 189 226 298 361 426
#     4  12  26  44  70 105 149 182 237 297 369 425
#     4  11  23  45  70 102 143 185 246 296 349 427
#     4  10  23  41  74 100 137 190 237 290 356 430
#     4   9  21  39  71 102 134 185 246 278 354 430
#
# _framework density 23.756505000000001
#
# number of rings (size 3 to 8) (size 9 to 14) (size 15 to 20)
#    0.000    1.429    2.857    0.857    8.000    6.286 
#    0.000    1.429    0.000    0.000    0.000    0.000 
#    0.000    0.000    0.000    0.000    0.000    0.000 
#
# Total GULP energy -173486.869197 kJ/mol
# GULP energy per Si atom -12391.919228 kJ/mol
# Density = 2.370243 g / cm^3
# Si number density = 23.756505 Si / 1000 Ang^3
#
#
#
# Elastic Constant Matrix: (Units=GPa)
#
#
# Indices 1 2 3 4 5 6 
#
# 1 48.0252 27.2908 9.9459 0.4939 -12.4493 -7.1595
# 2 27.2908 206.7858 63.5870 -9.1301 2.5206 -36.1380
# 3 9.9459 63.5870 133.2957 -7.9689 1.9590 -11.3775
# 4 0.4939 -9.1301 -7.9689 57.5708 1.7589 5.2913
# 5 -12.4493 2.5206 1.9590 1.7589 31.5555 -1.0848
# 6 -7.1595 -36.1380 -11.3775 5.2913 -1.0848 32.1482
#
#
#
# Elastic Compliance Matrix: (Units=1/GPa)
#
#
# Indices 1 2 3 4 5 6 
#
# 1 0.025786 -0.002937 -0.000517 -0.001344 0.010612 0.002837
# 2 -0.002937 0.007176 -0.002623 0.000254 -0.001363 0.006396
# 3 -0.000517 -0.002623 0.008843 0.000839 -0.000593 -0.000092
# 4 -0.001344 0.000254 0.000839 0.017839 -0.001690 -0.002710
# 5 0.010612 -0.001363 -0.000593 -0.001690 0.036190 0.002120
# 6 0.002837 0.006396 -0.000092 -0.002710 0.002120 0.039413
#
#
# Mechanical properties :
#
#
# Convention : Reuss Voigt Hill
#
# Bulk Modulus (GPa) = 33.72549 65.52822 49.62686
# Shear Modulus (GPa) = 31.78979 43.40711 37.59845
#
# Velocity S-wave (km/s) = 3.66204 4.27918 3.98258
# Velocity P-wave (km/s) = 5.66638 7.21514 6.48715
#
# Compressibility (1/GPa) = 0.02965116
#
# Stress axis : x y z
#
# Youngs Moduli (GPa) = 38.78037 139.36032 113.08529
#
# Poissons Ratio (x) = 0.40930 0.05848
# Poissons Ratio (y) = 0.11390 0.29659
# Poissons Ratio (z) = 0.02005 0.36551
#
# Static dielectric constant tensor:
#      x y z
#    x 5.462890 1.036050 -1.835810 
#    y 1.036050 6.288370 -1.685140 
#    z -1.835810 -1.685140 6.387440 
# 
# 
# High freq. dielectric constant tensor:
#      x y z
#    x 1.907970 0.001220 0.002490 
#    y 0.001220 1.976210 -0.010350 
#    z 0.002490 -0.010350 1.936440 
# 
# From -- ./inp_files/195587.got.cif
#   From: 2010.06.25/outbox.cif.g09.slc.cpg/sg2_98_cif.got.tgz:195587.got - 2010.06.27 13:26:56.
