data_PCOD8019848
_publ_section_title
;
Structure prediction by ZEFSAII (Michael W. Deem and Ramdas Pophale) SiO2 
 PCOD8019848
Probable space group: P -1
;
_chemical_formula_sum "Si O2"
_cell_formula_units_Z 16
_cell_length_a 17.493243
_cell_length_b 20.155966
_cell_length_c 9.127016
_cell_angle_alpha 126.020760
_cell_angle_beta 115.160814
_cell_angle_gamma 19.383150
_cell_volume 756.509400
_symmetry_space_group_name_H-M "P -1"
_symmetry_group_IT_number 2
_symmetry_cell_setting 'triclinic'
loop_
_space_group_symop_operation_xyz
x,y,z
-x,-y,-z
loop_
_atom_site_type_symbol
_atom_site_label
_atom_site_fract_x
_atom_site_fract_y
_atom_site_fract_z
Si Si1 0.703660 0.447374 0.367495
Si Si2 0.660069 0.034657 0.483793
Si Si3 0.634077 0.056559 0.836422
Si Si4 0.941189 0.910132 0.052743
Si Si5 0.163289 0.496098 0.485481
Si Si6 0.101453 0.493305 0.126223
Si Si7 0.859394 0.002809 0.424557
Si Si8 0.805905 0.218226 0.365136
O O1 0.767967 0.481202 0.513390
O O2 0.393769 0.713741 0.474304
O O3 0.875075 0.225547 0.312862
O O4 0.785195 0.366802 0.158948
O O5 0.606654 0.095791 0.691279
O O6 0.380690 0.269559 0.486510
O O7 0.770269 0.017411 0.486203
O O8 0.869959 0.771857 0.273808
O O9 0.701246 0.079915 0.004784
O O10 0.363471 0.272171 0.960796
O O11 0.876683 0.768871 0.684508
O O12 0.982702 0.849996 0.179626
O O13 0.900978 0.043032 0.160369
O O14 0.161867 0.431324 0.268901
O O15 0.000000 0.500000 0.000000
O O16 0.056979 0.885426 0.504622
O O17 0.500000 0.500000 0.500000
#
# Coordination Sequence:
#
# PCOD8019848 Si02
#       8
#     2   2   2   2   2   2   2   2
#     4  10  22  42  60  85 121 161 209 253 299 352
#     4  10  23  41  68  91 125 163 202 256 302 362
#     4  10  22  42  64  91 122 161 207 249 308 364
#     4  11  23  40  64  88 118 165 206 256 300 358
#     4   9  21  43  62  91 127 161 205 257 299 359
#     4  11  24  41  66  96 127 160 197 247 308 374
#     4  11  23  42  59  87 123 159 205 254 303 351
#     4  12  24  39  58  87 126 164 202 256 307 347
#
# _framework density 21.149771000000001
#
# number of rings (size 3 to 8) (size 9 to 14) (size 15 to 20)
#    0.000    1.500    1.250    4.500    1.750    7.000 
#    2.250    1.250    0.000    0.000    0.000    0.000 
#    0.000    0.000    0.000    0.000    0.000    0.000 
#
# Total GULP energy -198371.131874 kJ/mol
# GULP energy per Si atom -12398.195742 kJ/mol
# Density = 2.110163 g / cm^3
# Si number density = 21.149771 Si / 1000 Ang^3
#
#
#
# Elastic Constant Matrix: (Units=GPa)
#
#
# Indices 1 2 3 4 5 6 
#
# 1 58.2893 39.7347 42.4581 -9.9579 4.2560 -11.3936
# 2 39.7347 128.7884 60.6881 -17.4296 5.5747 -7.2547
# 3 42.4581 60.6881 128.5279 -22.7294 -2.1671 -16.9958
# 4 -9.9579 -17.4296 -22.7294 37.1033 -4.2868 4.6052
# 5 4.2560 5.5747 -2.1671 -4.2868 33.9309 -5.9421
# 6 -11.3936 -7.2547 -16.9958 4.6052 -5.9421 27.0749
#
#
#
# Elastic Compliance Matrix: (Units=1/GPa)
#
#
# Indices 1 2 3 4 5 6 
#
# 1 0.025760 -0.004970 -0.005370 0.000384 -0.001711 0.005696
# 2 -0.004970 0.011202 -0.003627 0.001774 -0.001577 -0.002014
# 3 -0.005370 -0.003627 0.012748 0.004475 0.003485 0.004775
# 4 0.000384 0.001774 0.004475 0.031187 0.003703 -0.001046
# 5 -0.001711 -0.001577 0.003485 0.003703 0.031936 0.007424
# 6 0.005696 -0.002014 0.004775 -0.001046 0.007424 0.043596
#
#
# Mechanical properties :
#
#
# Convention : Reuss Voigt Hill
#
# Bulk Modulus (GPa) = 45.92266 66.81862 56.37064
# Shear Modulus (GPa) = 26.09300 31.13681 28.61491
#
# Velocity S-wave (km/s) = 3.51625 3.84110 3.68226
# Velocity P-wave (km/s) = 6.18430 7.16475 6.69251
#
# Compressibility (1/GPa) = 0.02177574
#
# Stress axis : x y z
#
# Youngs Moduli (GPa) = 38.82049 89.26999 78.44116
#
# Poissons Ratio (x) = 0.44366 0.42127
# Poissons Ratio (y) = 0.19293 0.28449
# Poissons Ratio (z) = 0.20848 0.32376
#
# Static dielectric constant tensor:
#      x y z
#    x 3.814840 0.105340 -0.061890 
#    y 0.105340 4.132730 -0.043460 
#    z -0.061890 -0.043460 3.757750 
# 
# 
# High freq. dielectric constant tensor:
#      x y z
#    x 1.813810 -0.005910 -0.007760 
#    y -0.005910 1.837800 -0.003790 
#    z -0.007760 -0.003790 1.838860 
# 
# From -- ./inp_files/337846.got.cif
#   From: 2010.06.25/outbox.cif.g09.slc.cpg/sg2_169_cif.got.tgz:337846.got - 2010.06.27 13:26:56.
