data_PCOD8019216
_publ_section_title
;
Structure prediction by ZEFSAII (Michael W. Deem and Ramdas Pophale) SiO2 
 PCOD8019216
Probable space group: P -1
;
_chemical_formula_sum "Si O2"
_cell_formula_units_Z 16
_cell_length_a 12.651104
_cell_length_b 23.757621
_cell_length_c 5.274299
_cell_angle_alpha 58.049620
_cell_angle_beta 67.584818
_cell_angle_gamma 30.438123
_cell_volume 670.998841
_symmetry_space_group_name_H-M "P -1"
_symmetry_group_IT_number 2
_symmetry_cell_setting 'triclinic'
loop_
_space_group_symop_operation_xyz
x,y,z
-x,-y,-z
loop_
_atom_site_type_symbol
_atom_site_label
_atom_site_fract_x
_atom_site_fract_y
_atom_site_fract_z
Si Si1 0.490870 0.078641 0.422300
Si Si2 0.009562 0.315781 0.327288
Si Si3 0.181671 0.766913 0.057410
Si Si4 0.615059 0.215887 0.393320
Si Si5 0.704857 0.023925 0.867751
Si Si6 0.195821 0.452595 0.970073
Si Si7 0.510535 0.617152 0.508219
Si Si8 0.818653 0.356679 0.930456
O O1 0.253841 0.214146 0.389305
O O2 0.624356 0.025009 0.686586
O O3 0.500000 0.000000 0.500000
O O4 0.562325 0.088239 0.096029
O O5 0.923381 0.325606 0.639767
O O6 0.888570 0.442062 0.052639
O O7 0.982551 0.279712 0.198685
O O8 0.240786 0.816083 0.866723
O O9 0.340692 0.662615 0.376021
O O10 0.239270 0.693198 0.932565
O O11 0.932752 0.882262 0.070324
O O12 0.722509 0.093302 0.633915
O O13 0.371572 0.325823 0.267342
O O14 0.622763 0.263870 0.500227
O O15 0.300504 0.431178 0.672787
O O16 0.000000 0.500000 0.000000
O O17 0.618803 0.501993 0.828853
#
# Coordination Sequence:
#
# PCOD8019216 Si02
#       8
#     2   2   2   2   2   2   2   2
#     4  12  26  48  72 103 137 179 233 283 337 407
#     4  11  23  42  68 102 135 175 224 288 341 406
#     4  11  26  44  69  94 138 185 230 286 333 403
#     4  11  25  44  66 101 139 176 233 276 339 411
#     4  12  28  45  72 102 137 186 228 281 341 400
#     4  10  22  41  65  97 137 176 221 275 349 409
#     4  10  24  42  66 102 134 179 229 284 334 409
#     4  11  23  44  69 103 135 179 230 282 348 397
#
# _framework density 23.845047000000001
#
# number of rings (size 3 to 8) (size 9 to 14) (size 15 to 20)
#    0.000    1.000    1.250    4.125    8.750    2.500 
#    0.000    0.000    0.000    0.000    0.000    0.000 
#    0.000    0.000    0.000    0.000    0.000    0.000 
#
# Total GULP energy -198311.327901 kJ/mol
# GULP energy per Si atom -12394.457994 kJ/mol
# Density = 2.379077 g / cm^3
# Si number density = 23.845047 Si / 1000 Ang^3
#
#
#
# Elastic Constant Matrix: (Units=GPa)
#
#
# Indices 1 2 3 4 5 6 
#
# 1 131.0654 25.8059 31.3161 -0.9428 11.0885 -7.9839
# 2 25.8059 82.1208 13.0812 -13.4007 7.8571 -2.3921
# 3 31.3161 13.0812 72.8022 0.3820 13.3528 -9.0447
# 4 -0.9428 -13.4007 0.3820 30.2131 11.1944 6.1581
# 5 11.0885 7.8571 13.3528 11.1944 41.4893 -10.7708
# 6 -7.9839 -2.3921 -9.0447 6.1581 -10.7708 36.3404
#
#
#
# Elastic Compliance Matrix: (Units=1/GPa)
#
#
# Indices 1 2 3 4 5 6 
#
# 1 0.008956 -0.002355 -0.003219 -0.000766 -0.000443 0.001010
# 2 -0.002355 0.014967 -0.001159 0.009008 -0.004997 -0.002828
# 3 -0.003219 -0.001159 0.016261 0.000071 -0.003606 0.002183
# 4 -0.000766 0.009008 0.000071 0.045956 -0.017150 -0.012428
# 5 -0.000443 -0.004997 -0.003606 -0.017150 0.033981 0.011654
# 6 0.001010 -0.002828 0.002183 -0.012428 0.011654 0.033657
#
#
# Mechanical properties :
#
#
# Convention : Reuss Voigt Hill
#
# Bulk Modulus (GPa) = 37.42503 47.37720 42.40111
# Shear Modulus (GPa) = 28.38521 35.99424 32.18972
#
# Velocity S-wave (km/s) = 3.45396 3.88945 3.67816
# Velocity P-wave (km/s) = 5.62456 6.33106 5.98824
#
# Compressibility (1/GPa) = 0.02672009
#
# Stress axis : x y z
#
# Youngs Moduli (GPa) = 111.65763 66.81234 61.49780
#
# Poissons Ratio (x) = 0.15733 0.19794
# Poissons Ratio (y) = 0.26294 0.07125
# Poissons Ratio (z) = 0.35938 0.07740
#
# Static dielectric constant tensor:
#      x y z
#    x 4.435230 -0.096990 -0.079060 
#    y -0.096990 4.416250 0.053960 
#    z -0.079060 0.053960 4.322630 
# 
# 
# High freq. dielectric constant tensor:
#      x y z
#    x 1.958160 -0.002890 -0.003210 
#    y -0.002890 1.951740 -0.002570 
#    z -0.003210 -0.002570 1.943560 
# 
# From -- ./inp_files/71188.got.cif
#   From: 2010.06.25/outbox.cif.g09.slc.cpg/sg2_36_cif.got.tgz:71188.got - 2010.06.27 13:26:56.
