data_PCOD8019550
_publ_section_title
;
Structure prediction by ZEFSAII (Michael W. Deem and Ramdas Pophale) SiO2 
 PCOD8019550
Probable space group: P -1
;
_chemical_formula_sum "Si O2"
_cell_formula_units_Z 14
_cell_length_a 21.759648
_cell_length_b 13.814993
_cell_length_c 6.948712
_cell_angle_alpha 89.944803
_cell_angle_beta 79.285986
_cell_angle_gamma 20.067606
_cell_volume 603.642483
_symmetry_space_group_name_H-M "P -1"
_symmetry_group_IT_number 2
_symmetry_cell_setting 'triclinic'
loop_
_space_group_symop_operation_xyz
x,y,z
-x,-y,-z
loop_
_atom_site_type_symbol
_atom_site_label
_atom_site_fract_x
_atom_site_fract_y
_atom_site_fract_z
Si Si1 0.427005 0.250700 0.199159
Si Si2 0.863567 0.293240 0.300715
Si Si3 0.786129 0.874851 0.084345
Si Si4 0.660105 0.185396 0.817081
Si Si5 0.280645 0.675347 0.844896
Si Si6 0.297168 0.338467 0.920844
Si Si7 0.155622 0.044564 0.681618
O O1 0.202938 0.601567 0.437781
O O2 0.589762 0.094814 0.156901
O O3 0.517995 0.012608 0.213346
O O4 0.372335 0.320814 0.004600
O O5 0.765070 0.342026 0.273653
O O6 0.762376 0.535224 0.253362
O O7 0.116370 0.920645 0.121098
O O8 0.744713 0.002285 0.295749
O O9 0.000000 0.500000 0.000000
O O10 0.811312 0.910513 0.887235
O O11 0.512903 0.321101 0.802991
O O12 0.807245 0.017222 0.569345
O O13 0.500000 0.500000 0.000000
O O14 0.271623 0.786691 0.725974
O O15 0.097258 0.582824 0.139364
#
# Coordination Sequence:
#
# PCOD8019550 Si02
#       7
#     2   2   2   2   2   2   2
#     4  11  23  41  68  94 135 177 221 279 335 397
#     4  10  22  41  68  96 135 173 219 280 336 395
#     4  12  26  47  68 102 136 179 230 278 338 406
#     4  12  26  41  70 100 135 182 224 272 342 398
#     4  10  22  44  66 104 135 175 225 274 337 411
#     4  10  23  43  63 100 131 175 229 271 334 407
#     4  11  24  45  68  98 143 172 224 286 332 401
#
# _framework density 23.192534999999999
#
# number of rings (size 3 to 8) (size 9 to 14) (size 15 to 20)
#    0.000    1.143    2.857    2.571    4.000    0.571 
#    5.143    2.857    0.000    0.000    0.000    0.000 
#    0.000    0.000    0.000    0.000    0.000    0.000 
#
# Total GULP energy -173605.394925 kJ/mol
# GULP energy per Si atom -12400.385352 kJ/mol
# Density = 2.313975 g / cm^3
# Si number density = 23.192535 Si / 1000 Ang^3
#
#
#
# Elastic Constant Matrix: (Units=GPa)
#
#
# Indices 1 2 3 4 5 6 
#
# 1 97.1061 3.3152 30.7555 1.1075 -0.7972 -1.1350
# 2 3.3152 69.9024 10.2899 -2.3284 -4.1848 -0.1924
# 3 30.7555 10.2899 116.5635 5.0771 -0.6065 8.7138
# 4 1.1075 -2.3284 5.0771 24.3807 0.3005 0.6989
# 5 -0.7972 -4.1848 -0.6065 0.3005 24.1644 6.4453
# 6 -1.1350 -0.1924 8.7138 0.6989 6.4453 29.7984
#
#
#
# Elastic Compliance Matrix: (Units=1/GPa)
#
#
# Indices 1 2 3 4 5 6 
#
# 1 0.011289 -0.000081 -0.003076 0.000082 -0.000078 0.001344
# 2 -0.000081 0.014711 -0.001329 0.001657 0.002518 -0.000103
# 3 -0.003076 -0.001329 0.009830 -0.001954 0.000772 -0.003122
# 4 0.000082 0.001657 -0.001954 0.041590 -0.000183 -0.000351
# 5 -0.000078 0.002518 0.000772 -0.000183 0.044459 -0.009824
# 6 0.001344 -0.000103 -0.003122 -0.000351 -0.009824 0.036655
#
#
# Mechanical properties :
#
#
# Convention : Reuss Voigt Hill
#
# Bulk Modulus (GPa) = 37.23103 41.36591 39.29847
# Shear Modulus (GPa) = 28.33527 31.61612 29.97569
#
# Velocity S-wave (km/s) = 3.49913 3.69616 3.59900
# Velocity P-wave (km/s) = 5.69325 6.00750 5.85249
#
# Compressibility (1/GPa) = 0.02685931
#
# Stress axis : x y z
#
# Youngs Moduli (GPa) = 88.58078 67.97742 101.72518
#
# Poissons Ratio (x) = 0.00550 0.31291
# Poissons Ratio (y) = 0.00716 0.13516
# Poissons Ratio (z) = 0.27247 0.09032
#
# Static dielectric constant tensor:
#      x y z
#    x 4.338950 -0.098630 0.064160 
#    y -0.098630 4.212520 -0.035470 
#    z 0.064160 -0.035470 4.126830 
# 
# 
# High freq. dielectric constant tensor:
#      x y z
#    x 1.931480 -0.003580 0.006090 
#    y -0.003580 1.912830 -0.001070 
#    z 0.006090 -0.001070 1.911480 
# 
# From -- ./inp_files/124238.got.cif
#   From: 2010.06.25/outbox.cif.g09.slc.cpg/sg2_63_cif.got.tgz:124238.got - 2010.06.27 13:26:56.
