data_PCOD8019809
_publ_section_title
;
Structure prediction by ZEFSAII (Michael W. Deem and Ramdas Pophale) SiO2 
 PCOD8019809
Probable space group: P -1
;
_chemical_formula_sum "Si O2"
_cell_formula_units_Z 16
_cell_length_a 15.264583
_cell_length_b 8.941471
_cell_length_c 12.017234
_cell_angle_alpha 76.238207
_cell_angle_beta 38.167119
_cell_angle_gamma 53.797827
_cell_volume 728.669061
_symmetry_space_group_name_H-M "P -1"
_symmetry_group_IT_number 2
_symmetry_cell_setting 'triclinic'
loop_
_space_group_symop_operation_xyz
x,y,z
-x,-y,-z
loop_
_atom_site_type_symbol
_atom_site_label
_atom_site_fract_x
_atom_site_fract_y
_atom_site_fract_z
Si Si1 0.675542 0.258869 0.377139
Si Si2 0.635612 0.016311 0.297319
Si Si3 0.036650 0.608661 0.356901
Si Si4 0.057635 0.443569 0.140785
Si Si5 0.520406 0.645747 0.015518
Si Si6 0.578371 0.012461 0.109665
Si Si7 0.698185 0.067041 0.619264
Si Si8 0.929302 0.353840 0.097693
O O1 0.500000 0.500000 0.500000
O O2 0.679007 0.156647 0.502313
O O3 0.867272 0.221942 0.186315
O O4 0.654749 0.167090 0.307975
O O5 0.500000 0.000000 0.500000
O O6 0.551409 0.101689 0.243527
O O7 0.845073 0.790293 0.122709
O O8 0.963499 0.603624 0.309356
O O9 0.259253 0.489261 0.147659
O O10 0.000000 0.500000 0.500000
O O11 0.917081 0.851624 0.462226
O O12 0.894265 0.464746 0.232486
O O13 0.164696 0.485639 0.941002
O O14 0.213478 0.213724 0.076306
O O15 0.442816 0.834771 0.981051
O O16 0.500000 0.500000 0.000000
O O17 0.382778 0.750699 0.243063
O O18 0.420978 0.001546 0.241364
#
# Coordination Sequence:
#
# PCOD8019809 Si02
#       8
#     2   2   2   2   2   2   2   2
#     4  12  27  42  69 106 146 180 231 292 359 416
#     4  11  24  42  70 103 139 189 235 277 355 425
#     4  12  25  43  77 101 134 187 237 288 349 417
#     4  10  22  41  73  99 137 181 237 280 360 413
#     4  12  29  47  71 103 142 181 234 301 352 406
#     4  11  22  45  71  98 136 186 236 287 343 426
#     4  12  25  47  73 102 140 186 239 286 348 430
#     4  10  24  42  67 103 145 181 229 295 346 423
#
# _framework density 21.957840999999998
#
# number of rings (size 3 to 8) (size 9 to 14) (size 15 to 20)
#    0.000    0.750    3.750    3.000    5.250    3.500 
#    0.000    0.000    0.000    0.000    0.000    0.000 
#    0.000    0.000    0.000    0.000    0.000    0.000 
#
# Total GULP energy -198405.152101 kJ/mol
# GULP energy per Si atom -12400.322006 kJ/mol
# Density = 2.190786 g / cm^3
# Si number density = 21.957841 Si / 1000 Ang^3
#
#
#
# Elastic Constant Matrix: (Units=GPa)
#
#
# Indices 1 2 3 4 5 6 
#
# 1 124.0288 20.7207 31.3176 6.0616 18.5477 25.1467
# 2 20.7207 106.5893 14.9292 8.3809 4.0795 -1.7013
# 3 31.3176 14.9292 72.1310 11.7720 5.9374 6.0949
# 4 6.0616 8.3809 11.7720 38.6050 5.5693 -3.0152
# 5 18.5477 4.0795 5.9374 5.5693 36.4713 1.3471
# 6 25.1467 -1.7013 6.0949 -3.0152 1.3471 45.6847
#
#
#
# Elastic Compliance Matrix: (Units=1/GPa)
#
#
# Indices 1 2 3 4 5 6 
#
# 1 0.011053 -0.001548 -0.003620 -0.000057 -0.004646 -0.005526
# 2 -0.001548 0.009993 -0.001275 -0.001444 0.000049 0.001297
# 3 -0.003620 -0.001275 0.016432 -0.004202 -0.000030 -0.000523
# 4 -0.000057 -0.001444 -0.004202 0.028211 -0.003526 0.002504
# 5 -0.004646 0.000049 -0.000030 -0.003526 0.030266 0.001438
# 6 -0.005526 0.001297 -0.000523 0.002504 0.001438 0.025172
#
#
# Mechanical properties :
#
#
# Convention : Reuss Voigt Hill
#
# Bulk Modulus (GPa) = 40.66036 48.52044 44.59040
# Shear Modulus (GPa) = 35.15930 39.87097 37.51513
#
# Velocity S-wave (km/s) = 4.00586 4.26584 4.13789
# Velocity P-wave (km/s) = 6.32089 6.81236 6.57122
#
# Compressibility (1/GPa) = 0.02459398
#
# Stress axis : x y z
#
# Youngs Moduli (GPa) = 90.47236 100.06506 60.85790
#
# Poissons Ratio (x) = 0.15486 0.22031
# Poissons Ratio (y) = 0.14001 0.07757
# Poissons Ratio (z) = 0.32752 0.12754
#
# Static dielectric constant tensor:
#      x y z
#    x 3.140130 -1.061720 0.122810 
#    y -1.061720 3.089140 0.093750 
#    z 0.122810 0.093750 4.090130 
# 
# 
# High freq. dielectric constant tensor:
#      x y z
#    x 1.874790 -0.002670 0.011250 
#    y -0.002670 1.875640 0.007270 
#    z 0.011250 0.007270 1.857310 
# 
# From -- ./inp_files/447075.got.cif
#   From: 2010.06.25/outbox.cif.g09.slc.cpg/sg2_224_cif.got.tgz:447075.got - 2010.06.27 13:26:56.
