data_PCOD8019857
_publ_section_title
;
Structure prediction by ZEFSAII (Michael W. Deem and Ramdas Pophale) SiO2 
 PCOD8019857
Probable space group: P -1
;
_chemical_formula_sum "Si O2"
_cell_formula_units_Z 16
_cell_length_a 17.031837
_cell_length_b 7.630640
_cell_length_c 9.989941
_cell_angle_alpha 132.678203
_cell_angle_beta 67.649223
_cell_angle_gamma 84.284511
_cell_volume 751.022028
_symmetry_space_group_name_H-M "P -1"
_symmetry_group_IT_number 2
_symmetry_cell_setting 'triclinic'
loop_
_space_group_symop_operation_xyz
x,y,z
-x,-y,-z
loop_
_atom_site_type_symbol
_atom_site_label
_atom_site_fract_x
_atom_site_fract_y
_atom_site_fract_z
Si Si1 0.274755 0.938482 0.511335
Si Si2 0.152895 0.335477 0.588694
Si Si3 0.048683 0.352695 0.253868
Si Si4 0.815381 0.269976 0.066974
Si Si5 0.651795 0.670639 0.928824
Si Si6 0.200683 0.400152 0.002264
Si Si7 0.443703 0.815091 0.156864
Si Si8 0.301298 0.962288 0.085569
O O1 0.316880 0.607304 0.323840
O O2 0.356672 0.991789 0.412692
O O3 0.175190 0.101044 0.566757
O O4 0.249074 0.083623 0.747913
O O5 0.198739 0.174092 0.337470
O O6 0.035566 0.552090 0.756793
O O7 0.206128 0.504380 0.686809
O O8 0.000000 0.500000 0.500000
O O9 0.099931 0.025522 0.081377
O O10 0.123817 0.440660 0.190349
O O11 0.714774 0.269857 0.096164
O O12 0.850705 0.365412 0.960190
O O13 0.690723 0.855157 0.938558
O O14 0.709079 0.569824 0.981494
O O15 0.531480 0.882060 0.129759
O O16 0.397486 0.832374 0.050095
O O17 0.500000 0.500000 0.000000
#
# Coordination Sequence:
#
# PCOD8019857 Si02
#       8
#     2   2   2   2   2   2   2   2
#     4   9  22  40  62  91 119 166 209 253 309 366
#     4  10  22  42  61  86 125 163 204 258 305 360
#     4  12  24  43  61  96 123 162 211 257 307 368
#     4  11  23  41  63  88 125 166 201 260 304 362
#     4  11  21  38  64  93 124 167 200 260 308 366
#     4  11  24  42  65  90 126 165 208 253 311 366
#     4   9  19  38  64  89 124 163 206 252 307 367
#     4  11  21  40  61  94 128 158 209 252 308 368
#
# _framework density 21.304300999999999
#
# number of rings (size 3 to 8) (size 9 to 14) (size 15 to 20)
#    0.000    1.500    2.500    3.000    1.750    3.000 
#    4.500    3.750    0.000   11.250    0.000    0.000 
#    0.000    0.000    0.000    0.000    0.000    0.000 
#
# Total GULP energy -198268.335528 kJ/mol
# GULP energy per Si atom -12391.770971 kJ/mol
# Density = 2.125581 g / cm^3
# Si number density = 21.304301 Si / 1000 Ang^3
#
#
#
# Elastic Constant Matrix: (Units=GPa)
#
#
# Indices 1 2 3 4 5 6 
#
# 1 135.4238 25.4352 26.3890 -1.5062 -8.9437 -6.0133
# 2 25.4352 76.3914 12.3988 13.4702 -8.1498 3.6573
# 3 26.3890 12.3988 50.7655 2.5796 2.9367 1.8526
# 4 -1.5062 13.4702 2.5796 24.5927 -4.4670 -1.8622
# 5 -8.9437 -8.1498 2.9367 -4.4670 30.0306 12.8226
# 6 -6.0133 3.6573 1.8526 -1.8622 12.8226 34.8921
#
#
#
# Elastic Compliance Matrix: (Units=1/GPa)
#
#
# Indices 1 2 3 4 5 6 
#
# 1 0.008967 -0.002630 -0.004349 0.002956 0.002228 0.001391
# 2 -0.002630 0.016510 -0.002340 -0.008467 0.004435 -0.004141
# 3 -0.004349 -0.002340 0.022905 -0.002204 -0.004404 -0.000219
# 4 0.002956 -0.008467 -0.002204 0.046753 0.004793 0.002248
# 5 0.002228 0.004435 -0.004404 0.004793 0.042861 -0.015342
# 6 0.001391 -0.004141 -0.000219 0.002248 -0.015342 0.035103
#
#
# Mechanical properties :
#
#
# Convention : Reuss Voigt Hill
#
# Bulk Modulus (GPa) = 33.61981 43.44742 38.53361
# Shear Modulus (GPa) = 24.79486 31.12693 27.96090
#
# Velocity S-wave (km/s) = 3.41522 3.82653 3.62671
# Velocity P-wave (km/s) = 5.60059 6.32148 5.97192
#
# Compressibility (1/GPa) = 0.02974437
#
# Stress axis : x y z
#
# Youngs Moduli (GPa) = 111.51464 60.56767 43.65766
#
# Poissons Ratio (x) = 0.15930 0.18986
# Poissons Ratio (y) = 0.29329 0.10218
# Poissons Ratio (z) = 0.48497 0.14176
#
# Static dielectric constant tensor:
#      x y z
#    x 3.345690 -0.126970 0.134270 
#    y -0.126970 3.899260 0.017200 
#    z 0.134270 0.017200 3.932430 
# 
# 
# High freq. dielectric constant tensor:
#      x y z
#    x 1.842490 -0.016650 0.001050 
#    y -0.016650 1.840720 0.009260 
#    z 0.001050 0.009260 1.815140 
# 
# From -- ./inp_files/448331.got.cif
#   From: 2010.06.25/outbox.cif.g09.slc.cpg/sg2_225_cif.got.tgz:448331.got - 2010.06.27 13:26:56.
