data_PCOD8019747
_publ_section_title
;
Structure prediction by ZEFSAII (Michael W. Deem and Ramdas Pophale) SiO2 
 PCOD8019747
Probable space group: P -1
;
_chemical_formula_sum "Si O2"
_cell_formula_units_Z 14
_cell_length_a 9.277018
_cell_length_b 21.086791
_cell_length_c 12.647336
_cell_angle_alpha 149.130473
_cell_angle_beta 35.283395
_cell_angle_gamma 147.872164
_cell_volume 637.822201
_symmetry_space_group_name_H-M "P -1"
_symmetry_group_IT_number 2
_symmetry_cell_setting 'triclinic'
loop_
_space_group_symop_operation_xyz
x,y,z
-x,-y,-z
loop_
_atom_site_type_symbol
_atom_site_label
_atom_site_fract_x
_atom_site_fract_y
_atom_site_fract_z
Si Si1 0.274258 0.796667 0.755385
Si Si2 0.181776 0.349613 0.818451
Si Si3 0.434179 0.780840 0.047660
Si Si4 0.607391 0.654581 0.950227
Si Si5 0.419130 0.241806 0.673002
Si Si6 0.667051 0.907401 0.872556
Si Si7 0.872793 0.059418 0.496752
O O1 0.337863 0.724116 0.512252
O O2 0.438560 0.799631 0.769403
O O3 0.936743 0.706167 0.851180
O O4 0.380548 0.958886 0.892017
O O5 0.430171 0.484194 0.801425
O O6 0.260806 0.333637 0.869227
O O7 0.879811 0.347731 0.983856
O O8 0.148904 0.200880 0.579970
O O9 0.390260 0.906596 0.308474
O O10 0.586068 0.724924 0.955570
O O11 0.628567 0.833261 0.902338
O O12 0.460185 0.699267 0.197192
O O13 0.207608 0.072581 0.566532
O O14 0.001833 0.965068 0.722929
#
# Coordination Sequence:
#
# PCOD8019747 Si02
#       7
#     2   2   2   2   2   2   2
#     4  11  23  38  68  96 127 159 216 261 317 360
#     4  10  23  45  65  90 127 171 214 250 312 379
#     4  10  24  42  66  89 131 171 210 245 321 380
#     4  12  26  42  61  97 137 163 200 263 322 376
#     4  12  22  43  68  97 121 161 218 270 306 361
#     4  11  21  41  68  95 122 166 214 265 301 373
#     4  10  22  41  71  91 119 167 219 255 306 371
#
# _framework density 21.949688999999999
#
# number of rings (size 3 to 8) (size 9 to 14) (size 15 to 20)
#    0.857    0.286    4.286    2.143    2.000    2.857 
#    2.571    0.714    0.000    0.000    0.000    0.000 
#    0.000    0.000    0.000    0.000    0.000    0.000 
#
# Total GULP energy -173454.966360 kJ/mol
# GULP energy per Si atom -12389.640454 kJ/mol
# Density = 2.189973 g / cm^3
# Si number density = 21.949689 Si / 1000 Ang^3
#
#
#
# Elastic Constant Matrix: (Units=GPa)
#
#
# Indices 1 2 3 4 5 6 
#
# 1 86.7464 19.2039 28.9246 -5.1858 0.9767 -26.7569
# 2 19.2039 50.3097 20.9638 -4.5683 0.4126 -5.8416
# 3 28.9246 20.9638 89.0041 -22.6712 13.2190 -8.0311
# 4 -5.1858 -4.5683 -22.6712 33.4536 -1.5645 1.4051
# 5 0.9767 0.4126 13.2190 -1.5645 25.2237 -7.3397
# 6 -26.7569 -5.8416 -8.0311 1.4051 -7.3397 31.4869
#
#
#
# Elastic Compliance Matrix: (Units=1/GPa)
#
#
# Indices 1 2 3 4 5 6 
#
# 1 0.018597 -0.003327 -0.005193 -0.001437 0.006457 0.015431
# 2 -0.003327 0.023179 -0.004804 -0.000526 0.002482 0.000850
# 3 -0.005193 -0.004804 0.017758 0.010278 -0.009385 -0.003421
# 4 -0.001437 -0.000526 0.010278 0.036451 -0.003385 -0.001113
# 5 0.006457 0.002482 -0.009385 -0.003385 0.048425 0.014993
# 6 0.015431 0.000850 -0.003421 -0.001113 0.014993 0.047702
#
#
# Mechanical properties :
#
#
# Convention : Reuss Voigt Hill
#
# Bulk Modulus (GPa) = 30.40758 40.47163 35.43960
# Shear Modulus (GPa) = 21.76548 28.49736 25.13142
#
# Velocity S-wave (km/s) = 3.15240 3.60711 3.38739
# Velocity P-wave (km/s) = 5.20898 5.98554 5.61071
#
# Compressibility (1/GPa) = 0.03288654
#
# Stress axis : x y z
#
# Youngs Moduli (GPa) = 53.77292 43.14202 56.31358
#
# Poissons Ratio (x) = 0.14352 0.29241
# Poissons Ratio (y) = 0.17888 0.27055
# Poissons Ratio (z) = 0.27922 0.20727
#
# Static dielectric constant tensor:
#      x y z
#    x 3.659110 -0.048510 0.068780 
#    y -0.048510 3.780330 0.003030 
#    z 0.068780 0.003030 3.847410 
# 
# 
# High freq. dielectric constant tensor:
#      x y z
#    x 1.848180 -0.008730 0.003860 
#    y -0.008730 1.856770 -0.008770 
#    z 0.003860 -0.008770 1.852170 
# 
# From -- ./inp_files/212470.got.cif
#   From: 2010.06.25/outbox.cif.g09.slc.cpg/sg2_107_cif.got.tgz:212470.got - 2010.06.27 13:26:56.
