data_PCOD8019715
_publ_section_title
;
Structure prediction by ZEFSAII (Michael W. Deem and Ramdas Pophale) SiO2 
 PCOD8019715
Probable space group: P -1
;
_chemical_formula_sum "Si O2"
_cell_formula_units_Z 16
_cell_length_a 9.094351
_cell_length_b 20.530083
_cell_length_c 23.955065
_cell_angle_alpha 158.746131
_cell_angle_beta 148.156437
_cell_angle_gamma 28.559994
_cell_volume 762.686535
_symmetry_space_group_name_H-M "P -1"
_symmetry_group_IT_number 2
_symmetry_cell_setting 'triclinic'
loop_
_space_group_symop_operation_xyz
x,y,z
-x,-y,-z
loop_
_atom_site_type_symbol
_atom_site_label
_atom_site_fract_x
_atom_site_fract_y
_atom_site_fract_z
Si Si1 0.210575 0.458750 0.365939
Si Si2 0.683641 0.186669 0.064706
Si Si3 0.881073 0.751387 0.396345
Si Si4 0.584143 0.007233 0.096617
Si Si5 0.786100 0.095895 0.456504
Si Si6 0.806332 0.123050 0.744070
Si Si7 0.126484 0.278141 0.887273
Si Si8 0.176439 0.451014 0.575818
O O1 0.500000 0.500000 0.500000
O O2 0.025276 0.553146 0.323861
O O3 0.011376 0.549855 0.430251
O O4 0.344083 0.219285 0.215356
O O5 0.703778 0.385870 0.246072
O O6 0.502852 0.153689 0.031843
O O7 0.471626 0.229600 0.976995
O O8 0.000000 0.000000 0.000000
O O9 0.568673 0.763408 0.273906
O O10 0.118212 0.752853 0.426552
O O11 0.832895 0.933493 0.566590
O O12 0.951618 0.952244 0.184671
O O13 0.500000 0.000000 0.000000
O O14 0.445364 0.225563 0.475497
O O15 0.815131 0.902354 0.279116
O O16 0.000000 0.000000 0.500000
O O17 0.895298 0.273878 0.857710
O O18 0.000000 0.500000 0.000000
O O19 0.000000 0.500000 0.500000
#
# Coordination Sequence:
#
# PCOD8019715 Si02
#       8
#     2   2   2   2   2   2   2   2
#     4  12  25  44  72  99 137 185 229 282 350 406
#     4  11  23  44  66  94 136 180 226 279 346 404
#     4  10  22  41  70  97 136 173 229 283 337 406
#     4  11  25  44  69 100 138 180 229 282 346 413
#     4  11  25  43  68 104 135 177 234 284 340 409
#     4   9  21  41  69  95 130 178 224 276 342 400
#     4  10  22  42  69  94 137 181 221 280 345 413
#     4  12  27  43  70 103 137 178 238 286 340 412
#
# _framework density 20.978473999999999
#
# number of rings (size 3 to 8) (size 9 to 14) (size 15 to 20)
#    0.000    1.250    2.500    2.250   12.250    0.000 
#    2.250    0.625    0.000    0.000    0.000    0.000 
#    0.000    0.000    0.000    0.000    0.000    0.000 
#
# Total GULP energy -198235.366864 kJ/mol
# GULP energy per Si atom -12389.710429 kJ/mol
# Density = 2.093073 g / cm^3
# Si number density = 20.978474 Si / 1000 Ang^3
#
#
#
# Elastic Constant Matrix: (Units=GPa)
#
#
# Indices 1 2 3 4 5 6 
#
# 1 121.9875 68.9337 52.3116 -7.6534 -5.2506 3.3361
# 2 68.9337 167.8554 52.3626 -21.3337 -1.1264 7.9126
# 3 52.3116 52.3626 107.7165 -13.4106 9.5653 0.6453
# 4 -7.6534 -21.3337 -13.4106 48.0612 4.8631 -2.8712
# 5 -5.2506 -1.1264 9.5653 4.8631 32.5363 -1.5017
# 6 3.3361 7.9126 0.6453 -2.8712 -1.5017 40.3489
#
#
#
# Elastic Compliance Matrix: (Units=1/GPa)
#
#
# Indices 1 2 3 4 5 6 
#
# 1 0.012398 -0.003780 -0.004657 -0.001361 0.003434 -0.000178
# 2 -0.003780 0.008499 -0.001952 0.002576 -0.000180 -0.001146
# 3 -0.004657 -0.001952 0.013272 0.002643 -0.005090 0.000554
# 4 -0.001361 0.002576 0.002643 0.022967 -0.004293 0.001040
# 5 0.003434 -0.000180 -0.005090 -0.004293 0.033457 0.000772
# 6 -0.000178 -0.001146 0.000554 0.001040 0.000772 0.025117
#
#
# Mechanical properties :
#
#
# Convention : Reuss Voigt Hill
#
# Bulk Modulus (GPa) = 74.67906 82.75281 78.71593
# Shear Modulus (GPa) = 35.47299 39.11937 37.29618
#
# Velocity S-wave (km/s) = 4.11655 4.32295 4.22101
# Velocity P-wave (km/s) = 7.63347 8.02803 7.83324
#
# Compressibility (1/GPa) = 0.01339064
#
# Stress axis : x y z
#
# Youngs Moduli (GPa) = 80.65805 117.65811 75.34751
#
# Poissons Ratio (x) = 0.44480 0.35086
# Poissons Ratio (y) = 0.30492 0.14709
# Poissons Ratio (z) = 0.37559 0.22968
#
# Static dielectric constant tensor:
#      x y z
#    x 3.917160 -0.447600 -0.298470 
#    y -0.447600 5.282280 1.028240 
#    z -0.298470 1.028240 5.060030 
# 
# 
# High freq. dielectric constant tensor:
#      x y z
#    x 1.816600 0.005440 0.010270 
#    y 0.005440 1.839770 -0.006600 
#    z 0.010270 -0.006600 1.830210 
# 
# From -- ./inp_files/208782.got.cif
#   From: 2010.06.25/outbox.cif.g09.slc.cpg/sg2_105_cif.got.tgz:208782.got - 2010.06.27 13:26:56.
