data_PCOD8019971
_publ_section_title
;
Structure prediction by ZEFSAII (Michael W. Deem and Ramdas Pophale) SiO2 
 PCOD8019971
Probable space group: P -1
;
_chemical_formula_sum "Si O2"
_cell_formula_units_Z 16
_cell_length_a 18.576981
_cell_length_b 12.655852
_cell_length_c 9.245488
_cell_angle_alpha 80.703287
_cell_angle_beta 130.149711
_cell_angle_gamma 140.176125
_cell_volume 778.595090
_symmetry_space_group_name_H-M "P -1"
_symmetry_group_IT_number 2
_symmetry_cell_setting 'triclinic'
loop_
_space_group_symop_operation_xyz
x,y,z
-x,-y,-z
loop_
_atom_site_type_symbol
_atom_site_label
_atom_site_fract_x
_atom_site_fract_y
_atom_site_fract_z
Si Si1 0.891789 0.279390 0.893332
Si Si2 0.715720 0.662595 0.111183
Si Si3 0.710062 0.430029 0.694451
Si Si4 0.520202 0.906747 0.291330
Si Si5 0.432517 0.182580 0.896772
Si Si6 0.148985 0.075228 0.492063
Si Si7 0.583194 0.542313 0.447255
Si Si8 0.416326 0.037179 0.193564
O O1 0.736802 0.125903 0.595386
O O2 0.782900 0.142429 0.932740
O O3 0.000000 0.500000 0.000000
O O4 0.053138 0.348153 0.054699
O O5 0.760926 0.760046 0.301983
O O6 0.609738 0.444060 0.049089
O O7 0.584392 0.613000 0.858519
O O8 0.913273 0.838282 0.236780
O O9 0.625383 0.323921 0.768294
O O10 0.649409 0.486682 0.553674
O O11 0.608605 0.240856 0.499866
O O12 0.537985 0.889282 0.152781
O O13 0.416948 0.918986 0.156084
O O14 0.223480 0.028865 0.621860
O O15 0.425091 0.134762 0.060561
O O16 0.226343 0.196599 0.410987
O O17 0.500000 0.500000 0.500000
#
# Coordination Sequence:
#
# PCOD8019971 Si02
#       8
#     2   2   2   2   2   2   2   2
#     4  11  21  42  63  85 120 160 204 248 290 354
#     4  10  22  43  64  83 123 161 201 252 293 359
#     4  11  21  39  66  87 118 164 204 243 299 357
#     4  11  23  39  60  89 125 159 196 251 304 354
#     4  11  23  39  60  92 123 157 199 249 308 353
#     4  10  22  42  64  87 120 161 206 245 298 363
#     4  11  23  38  61  95 126 155 197 252 306 358
#     4  11  22  39  63  89 119 160 207 243 296 364
#
# _framework density 20.549834000000001
#
# number of rings (size 3 to 8) (size 9 to 14) (size 15 to 20)
#    0.000    1.250    2.500    5.625    0.000    7.500 
#    0.000    0.625    0.000    0.000    0.000    0.000 
#    0.000    0.000    0.000    0.000    0.000    0.000 
#
# Total GULP energy -198469.672999 kJ/mol
# GULP energy per Si atom -12404.354562 kJ/mol
# Density = 2.050306 g / cm^3
# Si number density = 20.549834 Si / 1000 Ang^3
#
#
#
# Elastic Constant Matrix: (Units=GPa)
#
#
# Indices 1 2 3 4 5 6 
#
# 1 80.7591 30.0541 26.2632 7.0398 10.9964 14.8513
# 2 30.0541 107.5519 50.1435 -8.1780 13.9701 18.3305
# 3 26.2632 50.1435 66.8062 11.6893 23.8054 9.7663
# 4 7.0398 -8.1780 11.6893 24.1552 3.6508 5.2605
# 5 10.9964 13.9701 23.8054 3.6508 38.1735 -0.7124
# 6 14.8513 18.3305 9.7663 5.2605 -0.7124 39.3910
#
#
#
# Elastic Compliance Matrix: (Units=1/GPa)
#
#
# Indices 1 2 3 4 5 6 
#
# 1 0.015282 -0.002543 -0.002410 -0.003102 -0.001739 -0.003598
# 2 -0.002543 0.019797 -0.016589 0.016523 0.002135 -0.006309
# 3 -0.002410 -0.016589 0.036776 -0.021026 -0.014119 0.002063
# 4 -0.003102 0.016523 -0.021026 0.059774 0.002070 -0.009251
# 5 -0.001739 0.002135 -0.014119 0.002070 0.034588 0.003512
# 6 -0.003598 -0.006309 0.002063 -0.009251 0.003512 0.030466
#
#
# Mechanical properties :
#
#
# Convention : Reuss Voigt Hill
#
# Bulk Modulus (GPa) = 34.75891 52.00432 43.38162
# Shear Modulus (GPa) = 20.05152 30.25439 25.15295
#
# Velocity S-wave (km/s) = 3.12709 3.84115 3.50236
# Velocity P-wave (km/s) = 5.47626 6.71073 6.12468
#
# Compressibility (1/GPa) = 0.02876960
#
# Stress axis : x y z
#
# Youngs Moduli (GPa) = 65.43826 50.51284 27.19160
#
# Poissons Ratio (x) = 0.12848 0.06554
# Poissons Ratio (y) = 0.16644 0.45108
# Poissons Ratio (z) = 0.15772 0.83795
#
# Static dielectric constant tensor:
#      x y z
#    x 3.867350 0.185830 0.171860 
#    y 0.185830 3.798860 0.058380 
#    z 0.171860 0.058380 3.706250 
# 
# 
# High freq. dielectric constant tensor:
#      x y z
#    x 1.816970 0.006080 0.009140 
#    y 0.006080 1.810420 -0.001400 
#    z 0.009140 -0.001400 1.794020 
# 
# From -- ./inp_files/258340.got.cif
#   From: 2010.06.25/outbox.cif.g09.slc.cpg/sg2_130_cif.got.tgz:258340.got - 2010.06.27 13:26:56.
