data_PCOD8019579
_publ_section_title
;
Structure prediction by ZEFSAII (Michael W. Deem and Ramdas Pophale) SiO2 
 PCOD8019579
Probable space group: P -1
;
_chemical_formula_sum "Si O2"
_cell_formula_units_Z 14
_cell_length_a 8.653310
_cell_length_b 8.767271
_cell_length_c 11.865531
_cell_angle_alpha 118.564263
_cell_angle_beta 49.382139
_cell_angle_gamma 116.009119
_cell_volume 589.103005
_symmetry_space_group_name_H-M "P -1"
_symmetry_group_IT_number 2
_symmetry_cell_setting 'triclinic'
loop_
_space_group_symop_operation_xyz
x,y,z
-x,-y,-z
loop_
_atom_site_type_symbol
_atom_site_label
_atom_site_fract_x
_atom_site_fract_y
_atom_site_fract_z
Si Si1 0.018689 0.972119 0.172566
Si Si2 0.381540 0.804390 0.954302
Si Si3 0.359754 0.529472 0.683274
Si Si4 0.980853 0.494582 0.334070
Si Si5 0.600607 0.750524 0.242282
Si Si6 0.670270 0.697568 0.945889
Si Si7 0.156982 0.779580 0.510227
O O1 0.802937 0.904609 0.187853
O O2 0.171027 0.113561 0.073224
O O3 0.136887 0.809220 0.085532
O O4 0.954966 0.058066 0.349073
O O5 0.421562 0.724049 0.782564
O O6 0.465252 0.678960 0.959410
O O7 0.500000 0.000000 0.000000
O O8 0.500000 0.500000 0.500000
O O9 0.126590 0.508198 0.737851
O O10 0.367534 0.379854 0.718629
O O11 0.841312 0.353146 0.432245
O O12 0.210175 0.454195 0.202589
O O13 0.015249 0.687683 0.442445
O O14 0.399459 0.841122 0.385945
O O15 0.583215 0.653067 0.096235
#
# Coordination Sequence:
#
# PCOD8019579 Si02
#       7
#     2   2   2   2   2   2   2
#     4  10  23  44  67 101 139 180 225 285 345 402
#     4  10  24  46  72 100 136 184 226 278 349 403
#     4  12  26  43  71 101 140 176 229 284 340 403
#     4  10  22  43  69  97 137 182 225 282 343 402
#     4  12  24  43  69 105 135 181 233 281 342 404
#     4  10  23  43  73  95 139 178 234 278 344 406
#     4  10  22  41  68  99 138 180 228 277 342 409
#
# _framework density 23.764944
#
# number of rings (size 3 to 8) (size 9 to 14) (size 15 to 20)
#    0.000    1.429    1.429    2.571    6.000    9.143 
#    5.143    1.429    0.000    0.000    0.000    0.000 
#    0.000    0.000    0.000    0.000    0.000    0.000 
#
# Total GULP energy -173508.865030 kJ/mol
# GULP energy per Si atom -12393.490359 kJ/mol
# Density = 2.371085 g / cm^3
# Si number density = 23.764944 Si / 1000 Ang^3
#
#
#
# Elastic Constant Matrix: (Units=GPa)
#
#
# Indices 1 2 3 4 5 6 
#
# 1 137.2681 27.2250 79.3609 8.5153 8.6996 -1.3764
# 2 27.2250 41.6994 39.5205 4.9857 -0.1061 5.1235
# 3 79.3609 39.5205 176.2143 21.2578 -0.1489 -3.5035
# 4 8.5153 4.9857 21.2578 47.0424 6.4026 1.9791
# 5 8.6996 -0.1061 -0.1489 6.4026 52.9308 -0.5698
# 6 -1.3764 5.1235 -3.5035 1.9791 -0.5698 28.8524
#
#
#
# Elastic Compliance Matrix: (Units=1/GPa)
#
#
# Indices 1 2 3 4 5 6 
#
# 1 0.010289 -0.003047 -0.004001 0.000488 -0.001762 0.000478
# 2 -0.003047 0.032527 -0.006062 0.000059 0.000470 -0.006652
# 3 -0.004001 -0.006062 0.009250 -0.003052 0.001065 0.002239
# 4 0.000488 0.000059 -0.003052 0.023020 -0.002895 -0.001994
# 5 -0.001762 0.000470 0.001065 -0.002895 0.019542 0.000546
# 6 0.000478 -0.006652 0.002239 -0.001994 0.000546 0.036283
#
#
# Mechanical properties :
#
#
# Convention : Reuss Voigt Hill
#
# Bulk Modulus (GPa) = 38.69072 71.93274 55.31173
# Shear Modulus (GPa) = 30.16664 39.70345 34.93505
#
# Velocity S-wave (km/s) = 3.56669 4.09182 3.83825
# Velocity P-wave (km/s) = 5.76868 7.25659 6.55499
#
# Compressibility (1/GPa) = 0.02584599
#
# Stress axis : x y z
#
# Youngs Moduli (GPa) = 97.19278 30.74378 108.10639
#
# Poissons Ratio (x) = 0.09367 0.43257
# Poissons Ratio (y) = 0.29612 0.65533
# Poissons Ratio (z) = 0.38890 0.18636
#
# Static dielectric constant tensor:
#      x y z
#    x 4.633760 0.053270 -0.181620 
#    y 0.053270 4.012210 0.207830 
#    z -0.181620 0.207830 4.515810 
# 
# 
# High freq. dielectric constant tensor:
#      x y z
#    x 1.952700 0.017190 -0.007980 
#    y 0.017190 1.921480 0.014160 
#    z -0.007980 0.014160 1.953350 
# 
# From -- ./inp_files/209404.got.cif
#   From: 2010.06.25/outbox.cif.g09.slc.cpg/sg2_105_cif.got.tgz:209404.got - 2010.06.27 13:26:56.
