data_PCOD8019632
_publ_section_title
;
Structure prediction by ZEFSAII (Michael W. Deem and Ramdas Pophale) SiO2 
 PCOD8019632
Probable space group: P -1
;
_chemical_formula_sum "Si O2"
_cell_formula_units_Z 14
_cell_length_a 14.493759
_cell_length_b 15.264775
_cell_length_c 6.544490
_cell_angle_alpha 66.366434
_cell_angle_beta 66.886844
_cell_angle_gamma 28.500089
_cell_volume 630.259459
_symmetry_space_group_name_H-M "P -1"
_symmetry_group_IT_number 2
_symmetry_cell_setting 'triclinic'
loop_
_space_group_symop_operation_xyz
x,y,z
-x,-y,-z
loop_
_atom_site_type_symbol
_atom_site_label
_atom_site_fract_x
_atom_site_fract_y
_atom_site_fract_z
Si Si1 0.796403 0.094411 0.481069
Si Si2 0.731414 0.796556 0.998995
Si Si3 0.587143 0.235307 0.138331
Si Si4 0.177177 0.608421 0.261419
Si Si5 0.845749 0.903879 0.963394
Si Si6 0.211541 0.772201 0.283042
Si Si7 0.030477 0.536508 0.639280
O O1 0.636475 0.182570 0.384750
O O2 0.707166 0.255225 0.542581
O O3 0.868539 0.949560 0.699834
O O4 0.979929 0.981543 0.295399
O O5 0.790698 0.654480 0.209448
O O6 0.832171 0.804318 0.013040
O O7 0.825332 0.706337 0.778448
O O8 0.500000 0.000000 0.000000
O O9 0.356042 0.425872 0.140874
O O10 0.687974 0.250586 0.963100
O O11 0.653224 0.091462 0.079930
O O12 0.250220 0.629292 0.339176
O O13 0.083397 0.601492 0.481487
O O14 0.026026 0.776225 0.075886
O O15 0.000000 0.500000 0.500000
#
# Coordination Sequence:
#
# PCOD8019632 Si02
#       7
#     2   2   2   2   2   2   2
#     4  10  22  41  69  94 136 176 231 275 328 403
#     4  11  27  46  76 100 135 177 228 282 345 408
#     4  11  25  43  67 101 132 181 233 269 333 411
#     4  12  25  44  70  94 144 178 218 284 341 393
#     4  11  25  44  65 102 134 176 224 279 341 396
#     4  10  22  43  64  98 137 179 223 281 332 392
#     4  11  26  49  68 106 136 172 229 284 339 412
#
# _framework density 22.213073000000001
#
# number of rings (size 3 to 8) (size 9 to 14) (size 15 to 20)
#    0.000    1.143    2.857    1.714    8.000    1.143 
#    7.714    0.000    0.000    0.000    0.000    0.000 
#    0.000    0.000    0.000    0.000    0.000    0.000 
#
# Total GULP energy -173618.505242 kJ/mol
# GULP energy per Si atom -12401.321803 kJ/mol
# Density = 2.216251 g / cm^3
# Si number density = 22.213073 Si / 1000 Ang^3
#
#
#
# Elastic Constant Matrix: (Units=GPa)
#
#
# Indices 1 2 3 4 5 6 
#
# 1 65.7426 15.7247 36.3495 1.5089 -1.0626 19.0800
# 2 15.7247 132.8935 52.0254 19.0792 -1.7632 -8.3538
# 3 36.3495 52.0254 124.3602 3.9546 -8.8754 -0.7510
# 4 1.5089 19.0792 3.9546 29.6645 11.4058 -0.9147
# 5 -1.0626 -1.7632 -8.8754 11.4058 28.7135 7.3826
# 6 19.0800 -8.3538 -0.7510 -0.9147 7.3826 39.5536
#
#
#
# Elastic Compliance Matrix: (Units=1/GPa)
#
#
# Indices 1 2 3 4 5 6 
#
# 1 0.022078 -0.000805 -0.005992 -0.001021 0.002246 -0.011377
# 2 -0.000805 0.010144 -0.003680 -0.006516 0.001523 0.002026
# 3 -0.005992 -0.003680 0.011519 0.000213 0.002549 0.001861
# 4 -0.001021 -0.006516 0.000213 0.045511 -0.019427 0.003799
# 5 0.002246 0.001523 0.002549 -0.019427 0.046016 -0.009751
# 6 -0.011377 0.002026 0.001861 0.003799 -0.009751 0.033141
#
#
# Mechanical properties :
#
#
# Convention : Reuss Voigt Hill
#
# Bulk Modulus (GPa) = 43.88844 59.02172 51.45508
# Shear Modulus (GPa) = 25.38600 34.17944 29.78272
#
# Velocity S-wave (km/s) = 3.38426 3.92689 3.66563
# Velocity P-wave (km/s) = 5.92214 6.86943 6.41330
#
# Compressibility (1/GPa) = 0.02278504
#
# Stress axis : x y z
#
# Youngs Moduli (GPa) = 45.29356 98.58224 86.81599
#
# Poissons Ratio (x) = 0.07940 0.52023
# Poissons Ratio (y) = 0.03648 0.31949
# Poissons Ratio (z) = 0.27141 0.36279
#
# Static dielectric constant tensor:
#      x y z
#    x 3.958300 0.214420 0.055520 
#    y 0.214420 3.990630 0.149380 
#    z 0.055520 0.149380 4.063170 
# 
# 
# High freq. dielectric constant tensor:
#      x y z
#    x 1.872170 0.015300 0.004080 
#    y 0.015300 1.875710 0.012560 
#    z 0.004080 0.012560 1.879700 
# 
# From -- ./inp_files/97678.got.cif
#   From: 2010.06.25/outbox.cif.g09.slc.cpg/sg2_49_cif.got.tgz:97678.got - 2010.06.27 13:26:56.
