data_PCOD8019808
_publ_section_title
;
Structure prediction by ZEFSAII (Michael W. Deem and Ramdas Pophale) SiO2 
 PCOD8019808
Probable space group: P -1
;
_chemical_formula_sum "Si O2"
_cell_formula_units_Z 14
_cell_length_a 13.005184
_cell_length_b 8.478759
_cell_length_c 9.378977
_cell_angle_alpha 118.944176
_cell_angle_beta 130.422964
_cell_angle_gamma 59.259837
_cell_volume 658.051331
_symmetry_space_group_name_H-M "P -1"
_symmetry_group_IT_number 2
_symmetry_cell_setting 'triclinic'
loop_
_space_group_symop_operation_xyz
x,y,z
-x,-y,-z
loop_
_atom_site_type_symbol
_atom_site_label
_atom_site_fract_x
_atom_site_fract_y
_atom_site_fract_z
Si Si1 0.132945 0.820609 0.063039
Si Si2 0.356334 0.543204 0.671708
Si Si3 0.413043 0.900028 0.973915
Si Si4 0.866340 0.220612 0.629107
Si Si5 0.563056 0.143155 0.698825
Si Si6 0.849272 0.863546 0.304416
Si Si7 0.854606 0.501951 0.294776
O O1 0.127390 0.739775 0.180895
O O2 0.273410 0.884953 0.199798
O O3 0.123412 0.663443 0.872776
O O4 0.000000 0.000000 0.000000
O O5 0.442880 0.684363 0.859453
O O6 0.269586 0.620985 0.484584
O O7 0.473370 0.349638 0.657699
O O8 0.254116 0.523780 0.697752
O O9 0.248171 0.015683 0.855167
O O10 0.458596 0.900406 0.176497
O O11 0.500000 0.000000 0.000000
O O12 0.001902 0.246034 0.680583
O O13 0.861902 0.006926 0.504188
O O14 0.500000 0.000000 0.500000
O O15 0.787443 0.704831 0.247516
O O16 0.000000 0.500000 0.500000
#
# Coordination Sequence:
#
# PCOD8019808 Si02
#       7
#     2   2   2   2   2   2   2
#     4  12  28  45  71 104 143 181 237 293 350 411
#     4  11  25  47  70 103 140 184 239 279 356 428
#     4  11  24  44  72  99 135 186 235 286 341 426
#     4  10  23  44  70 101 138 179 234 291 339 418
#     4  12  29  46  70 104 146 184 229 299 355 413
#     4  10  22  41  73  99 135 182 235 281 350 410
#     4  12  24  44  75 102 140 186 229 291 351 424
#
# _framework density 21.274936
#
# number of rings (size 3 to 8) (size 9 to 14) (size 15 to 20)
#    0.000    0.857    2.857    3.000   12.000    2.286 
#    0.000    0.000    0.000    0.000    0.000    0.000 
#    0.000    0.000    0.000    0.000    0.000    0.000 
#
# Total GULP energy -173671.255068 kJ/mol
# GULP energy per Si atom -12405.089648 kJ/mol
# Density = 2.122651 g / cm^3
# Si number density = 21.274936 Si / 1000 Ang^3
#
#
#
# Elastic Constant Matrix: (Units=GPa)
#
#
# Indices 1 2 3 4 5 6 
#
# 1 108.0694 52.8771 47.2055 2.4724 7.8932 6.0963
# 2 52.8771 142.6740 64.3344 5.8535 2.8286 3.6727
# 3 47.2055 64.3344 150.0977 4.9062 -1.1132 -0.6075
# 4 2.4724 5.8535 4.9062 35.2377 11.9416 4.3129
# 5 7.8932 2.8286 -1.1132 11.9416 37.2403 -2.8063
# 6 6.0963 3.6727 -0.6075 4.3129 -2.8063 38.5135
#
#
#
# Elastic Compliance Matrix: (Units=1/GPa)
#
#
# Indices 1 2 3 4 5 6 
#
# 1 0.012298 -0.003375 -0.002494 0.001309 -0.002997 -0.002029
# 2 -0.003375 0.009683 -0.003057 -0.000966 0.000175 -0.000316
# 3 -0.002494 -0.003057 0.008811 -0.001176 0.001482 0.001065
# 4 0.001309 -0.000966 -0.001176 0.032960 -0.011158 -0.004638
# 5 -0.002997 0.000175 0.001482 -0.011158 0.031400 0.004019
# 6 -0.002029 -0.000316 0.001065 -0.004638 0.004019 0.027145
#
#
# Mechanical properties :
#
#
# Convention : Reuss Voigt Hill
#
# Bulk Modulus (GPa) = 77.28941 81.07502 79.18222
# Shear Modulus (GPa) = 34.61123 37.95989 36.28556
#
# Velocity S-wave (km/s) = 4.03780 4.22863 4.13432
# Velocity P-wave (km/s) = 7.62537 7.87608 7.75174
#
# Compressibility (1/GPa) = 0.01293838
#
# Stress axis : x y z
#
# Youngs Moduli (GPa) = 81.31657 103.27737 113.49663
#
# Poissons Ratio (x) = 0.34857 0.28309
# Poissons Ratio (y) = 0.27445 0.34697
# Poissons Ratio (z) = 0.20282 0.31573
#
# Static dielectric constant tensor:
#      x y z
#    x 3.959540 0.050160 0.032380 
#    y 0.050160 4.057100 -0.215410 
#    z 0.032380 -0.215410 4.059070 
# 
# 
# High freq. dielectric constant tensor:
#      x y z
#    x 1.837890 0.007810 0.007150 
#    y 0.007810 1.848120 -0.011540 
#    z 0.007150 -0.011540 1.844140 
# 
# From -- ./inp_files/157975.got.cif
#   From: 2010.06.25/outbox.cif.g09.slc.cpg/sg2_79_cif.got.tgz:157975.got - 2010.06.27 13:26:56.
