data_PCOD8019962
_publ_section_title
;
Structure prediction by ZEFSAII (Michael W. Deem and Ramdas Pophale) SiO2 
 PCOD8019962
Probable space group: P -1
;
_chemical_formula_sum "Si O2"
_cell_formula_units_Z 16
_cell_length_a 11.501329
_cell_length_b 6.515203
_cell_length_c 23.767451
_cell_angle_alpha 121.906745
_cell_angle_beta 29.780779
_cell_angle_gamma 114.132919
_cell_volume 745.656165
_symmetry_space_group_name_H-M "P -1"
_symmetry_group_IT_number 2
_symmetry_cell_setting 'triclinic'
loop_
_space_group_symop_operation_xyz
x,y,z
-x,-y,-z
loop_
_atom_site_type_symbol
_atom_site_label
_atom_site_fract_x
_atom_site_fract_y
_atom_site_fract_z
Si Si1 0.167200 0.252482 0.169474
Si Si2 0.815701 0.203938 0.737552
Si Si3 0.481366 0.934725 0.908375
Si Si4 0.527711 0.389654 0.315207
Si Si5 0.361761 0.722861 0.623133
Si Si6 0.734309 0.485540 0.126295
Si Si7 0.725776 0.099549 0.521571
Si Si8 0.657754 0.103403 0.673647
O O1 0.180463 0.538588 0.196512
O O2 0.309001 0.151546 0.149665
O O3 0.896289 0.208171 0.284618
O O4 0.272736 0.111904 0.050009
O O5 0.790295 0.238091 0.685844
O O6 0.589272 0.083871 0.835474
O O7 0.059034 0.034068 0.624519
O O8 0.372906 0.706557 0.895964
O O9 0.665112 0.344257 0.309640
O O10 0.713657 0.416248 0.190797
O O11 0.339481 0.629658 0.435268
O O12 0.377386 0.169215 0.332220
O O13 0.500000 0.500000 0.500000
O O14 0.497888 0.956837 0.592166
O O15 0.597250 0.750422 0.211267
O O16 0.000000 0.500000 0.000000
O O17 0.809884 0.105275 0.552543
#
# Coordination Sequence:
#
# PCOD8019962 Si02
#       8
#     2   2   2   2   2   2   2   2
#     4  11  26  46  63  96 138 177 225 273 323 402
#     4  12  22  43  68  95 136 175 222 268 329 404
#     4  11  26  44  68  96 131 182 222 272 334 393
#     4  10  24  43  65 103 130 168 227 270 341 392
#     4  11  24  45  70  98 138 177 223 274 334 397
#     4  11  24  44  70  98 132 172 225 283 333 388
#     4  10  24  40  68 103 132 173 216 276 336 391
#     4  10  22  42  64 100 132 168 218 273 339 392
#
# _framework density 21.457609999999999
#
# number of rings (size 3 to 8) (size 9 to 14) (size 15 to 20)
#    0.000    1.250    3.750    0.750    7.000    3.500 
#    2.250    0.000    0.000    0.000    0.000    0.000 
#    0.000    0.000    0.000    0.000    0.000    0.000 
#
# Total GULP energy -198475.566459 kJ/mol
# GULP energy per Si atom -12404.722904 kJ/mol
# Density = 2.140877 g / cm^3
# Si number density = 21.457610 Si / 1000 Ang^3
#
#
#
# Elastic Constant Matrix: (Units=GPa)
#
#
# Indices 1 2 3 4 5 6 
#
# 1 83.9578 21.4127 32.3482 -0.2209 4.4682 11.9157
# 2 21.4127 105.1228 31.9190 15.1905 4.5608 7.2396
# 3 32.3482 31.9190 132.1851 10.2905 -1.3897 4.6641
# 4 -0.2209 15.1905 10.2905 36.9751 6.8579 -0.9840
# 5 4.4682 4.5608 -1.3897 6.8579 27.4344 3.5441
# 6 11.9157 7.2396 4.6641 -0.9840 3.5441 26.0546
#
#
#
# Elastic Compliance Matrix: (Units=1/GPa)
#
#
# Indices 1 2 3 4 5 6 
#
# 1 0.014410 -0.001838 -0.003071 0.001931 -0.002010 -0.005184
# 2 -0.001838 0.011201 -0.001870 -0.004077 -0.000375 -0.002040
# 3 -0.003071 -0.001870 0.008948 -0.002071 0.001782 0.000002
# 4 0.001931 -0.004077 -0.002071 0.030834 -0.007817 0.002848
# 5 -0.002010 -0.000375 0.001782 -0.007817 0.039526 -0.004967
# 6 -0.005184 -0.002040 0.000002 0.002848 -0.004967 0.042101
#
#
# Mechanical properties :
#
#
# Convention : Reuss Voigt Hill
#
# Bulk Modulus (GPa) = 47.61362 54.73616 51.17489
# Shear Modulus (GPa) = 29.83683 33.79856 31.81770
#
# Velocity S-wave (km/s) = 3.73299 3.97310 3.85491
# Velocity P-wave (km/s) = 6.38890 6.82728 6.61172
#
# Compressibility (1/GPa) = 0.02100239
#
# Stress axis : x y z
#
# Youngs Moduli (GPa) = 69.39385 89.28154 111.75553
#
# Poissons Ratio (x) = 0.16406 0.34324
# Poissons Ratio (y) = 0.12751 0.20893
# Poissons Ratio (z) = 0.21313 0.16691
#
# Static dielectric constant tensor:
#      x y z
#    x 3.881790 0.063620 0.182730 
#    y 0.063620 3.828820 0.204430 
#    z 0.182730 0.204430 3.968590 
# 
# 
# High freq. dielectric constant tensor:
#      x y z
#    x 1.842700 0.005360 0.009470 
#    y 0.005360 1.844350 0.013520 
#    z 0.009470 0.013520 1.852720 
# 
# From -- ./inp_files/70650.got.cif
#   From: 2010.06.25/outbox.cif.g09.slc.cpg/sg2_36_cif.got.tgz:70650.got - 2010.06.27 13:26:56.
