data_PCOD8019820
_publ_section_title
;
Structure prediction by ZEFSAII (Michael W. Deem and Ramdas Pophale) SiO2 
 PCOD8019820
Probable space group: P -1
;
_chemical_formula_sum "Si O2"
_cell_formula_units_Z 14
_cell_length_a 15.800692
_cell_length_b 13.183637
_cell_length_c 22.005473
_cell_angle_alpha 26.399687
_cell_angle_beta 160.446433
_cell_angle_gamma 143.836522
_cell_volume 661.057830
_symmetry_space_group_name_H-M "P -1"
_symmetry_group_IT_number 2
_symmetry_cell_setting 'triclinic'
loop_
_space_group_symop_operation_xyz
x,y,z
-x,-y,-z
loop_
_atom_site_type_symbol
_atom_site_label
_atom_site_fract_x
_atom_site_fract_y
_atom_site_fract_z
Si Si1 0.469794 0.151076 0.513359
Si Si2 0.529171 0.464692 0.286003
Si Si3 0.868121 0.204810 0.071224
Si Si4 0.021857 0.228290 0.429170
Si Si5 0.971816 0.719354 0.456634
Si Si6 0.517862 0.547922 0.416097
Si Si7 0.460379 0.386511 0.143785
O O1 0.568450 0.210410 0.481722
O O2 0.590382 0.295498 0.567209
O O3 0.155603 0.244587 0.252053
O O4 0.569049 0.878325 0.742637
O O5 0.806368 0.528400 0.438709
O O6 0.426638 0.453223 0.155461
O O7 0.319214 0.656967 0.077706
O O8 0.877963 0.929178 0.232093
O O9 0.753085 0.290973 0.880678
O O10 0.064578 0.165143 0.562927
O O11 0.261056 0.314763 0.517866
O O12 0.762803 0.437049 0.138621
O O13 0.000000 0.000000 0.500000
O O14 0.268622 0.585107 0.715465
O O15 0.500000 0.500000 0.500000
#
# Coordination Sequence:
#
# PCOD8019820 Si02
#       7
#     2   2   2   2   2   2   2
#     4  10  23  45  66  98 133 176 215 276 327 386
#     4  11  20  41  66  98 129 171 229 262 325 389
#     4  10  22  41  74  93 132 171 222 276 318 389
#     4  12  27  45  68  96 134 178 218 272 330 394
#     4  11  23  45  64  98 132 175 222 272 325 381
#     4  11  25  43  68 104 129 171 222 270 328 388
#     4  11  26  40  66  95 137 174 216 272 331 390
#
# _framework density 21.178179
#
# number of rings (size 3 to 8) (size 9 to 14) (size 15 to 20)
#    0.000    1.143    2.857    4.286   10.000    0.571 
#    0.000    0.000    0.000    0.000    0.000    0.000 
#    0.000    0.000    0.000    0.000    0.000    0.000 
#
# Total GULP energy -173652.245597 kJ/mol
# GULP energy per Si atom -12403.731828 kJ/mol
# Density = 2.112998 g / cm^3
# Si number density = 21.178179 Si / 1000 Ang^3
#
#
#
# Elastic Constant Matrix: (Units=GPa)
#
#
# Indices 1 2 3 4 5 6 
#
# 1 104.9093 23.1191 11.9403 11.1460 -17.2554 2.0471
# 2 23.1191 128.9837 42.9984 6.5516 -1.2786 16.6175
# 3 11.9403 42.9984 91.3296 -9.5592 -12.5734 5.3293
# 4 11.1460 6.5516 -9.5592 20.3415 3.1049 -0.5751
# 5 -17.2554 -1.2786 -12.5734 3.1049 28.6068 7.5708
# 6 2.0471 16.6175 5.3293 -0.5751 7.5708 39.9064
#
#
#
# Elastic Compliance Matrix: (Units=1/GPa)
#
#
# Indices 1 2 3 4 5 6 
#
# 1 0.012104 -0.001290 -0.000549 -0.007789 0.008296 -0.001697
# 2 -0.001290 0.010407 -0.005215 -0.005017 -0.001154 -0.003424
# 3 -0.000549 -0.005215 0.015122 0.008246 0.005378 -0.000721
# 4 -0.007789 -0.005017 0.008246 0.060389 -0.008897 0.003945
# 5 0.008296 -0.001154 0.005378 -0.008897 0.045745 -0.009470
# 6 -0.001697 -0.003424 -0.000721 0.003945 -0.009470 0.028521
#
#
# Mechanical properties :
#
#
# Convention : Reuss Voigt Hill
#
# Bulk Modulus (GPa) = 42.50920 53.48202 47.99561
# Shear Modulus (GPa) = 25.74143 34.24861 29.99502
#
# Velocity S-wave (km/s) = 3.49014 4.02576 3.76748
# Velocity P-wave (km/s) = 6.02969 6.84961 6.45269
#
# Compressibility (1/GPa) = 0.02352432
#
# Stress axis : x y z
#
# Youngs Moduli (GPa) = 82.61661 96.08663 66.12839
#
# Poissons Ratio (x) = 0.12395 0.03632
# Poissons Ratio (y) = 0.10657 0.34488
# Poissons Ratio (z) = 0.04538 0.50112
#
# Static dielectric constant tensor:
#      x y z
#    x 4.018750 0.186310 -0.126680 
#    y 0.186310 3.940080 0.053120 
#    z -0.126680 0.053120 3.809570 
# 
# 
# High freq. dielectric constant tensor:
#      x y z
#    x 1.840330 0.013110 -0.004170 
#    y 0.013110 1.842550 0.002260 
#    z -0.004170 0.002260 1.824030 
# 
# From -- ./inp_files/174473.got.cif
#   From: 2010.06.25/outbox.cif.g09.slc.cpg/sg2_88_cif.got.tgz:174473.got - 2010.06.27 13:26:56.
