data_PCOD8019774
_publ_section_title
;
Structure prediction by ZEFSAII (Michael W. Deem and Ramdas Pophale) SiO2 
 PCOD8019774
Probable space group: P -1
;
_chemical_formula_sum "Si O2"
_cell_formula_units_Z 16
_cell_length_a 30.706411
_cell_length_b 5.113878
_cell_length_c 8.486500
_cell_angle_alpha 95.124772
_cell_angle_beta 150.373778
_cell_angle_gamma 78.857700
_cell_volume 637.795652
_symmetry_space_group_name_H-M "P -1"
_symmetry_group_IT_number 2
_symmetry_cell_setting 'triclinic'
loop_
_space_group_symop_operation_xyz
x,y,z
-x,-y,-z
loop_
_atom_site_type_symbol
_atom_site_label
_atom_site_fract_x
_atom_site_fract_y
_atom_site_fract_z
Si Si1 0.059078 0.934302 0.527564
Si Si2 0.009831 0.534707 0.849435
Si Si3 0.327315 0.194122 0.173084
Si Si4 0.305150 0.868017 0.795776
Si Si5 0.757859 0.385333 0.851826
Si Si6 0.505588 0.316942 0.757937
Si Si7 0.414928 0.812775 0.686126
Si Si8 0.786824 0.593866 0.625710
O O1 0.051369 0.639396 0.434839
O O2 0.166116 0.895527 0.900204
O O3 0.000000 0.000000 0.500000
O O4 0.026169 0.155432 0.300743
O O5 0.113310 0.418939 0.121641
O O6 0.000000 0.500000 0.000000
O O7 0.251138 0.458699 0.997908
O O8 0.417722 0.265093 0.386265
O O9 0.357964 0.072170 0.433806
O O10 0.287922 0.000198 0.923296
O O11 0.250741 0.635055 0.597888
O O12 0.273236 0.105837 0.581158
O O13 0.411779 0.732813 0.106349
O O14 0.660450 0.338702 0.492027
O O15 0.789662 0.551339 0.819008
O O16 0.483233 0.623301 0.768257
O O17 0.530428 0.123205 0.983277
#
# Coordination Sequence:
#
# PCOD8019774 Si02
#       8
#     2   2   2   2   2   2   2   2
#     4  12  27  49  82 114 149 198 256 310 372 454
#     4  12  29  52  79 114 155 197 241 316 389 455
#     4  11  26  42  71 106 150 192 249 308 369 433
#     4  12  28  45  76 107 152 194 246 308 372 445
#     4  11  26  45  74 107 146 196 253 307 361 447
#     4  10  22  43  66 109 140 202 242 304 364 441
#     4  10  22  41  72 102 146 194 250 298 367 435
#     4  12  28  50  75 106 148 197 246 302 379 446
#
# _framework density 25.086407000000001
#
# number of rings (size 3 to 8) (size 9 to 14) (size 15 to 20)
#    0.000    0.750    2.500    3.000    8.750    0.500 
#    0.000    0.000    0.000    0.000    0.000    0.000 
#    0.000    0.000    0.000    0.000    0.000    0.000 
#
# Total GULP energy -198435.341583 kJ/mol
# GULP energy per Si atom -12402.208849 kJ/mol
# Density = 2.502931 g / cm^3
# Si number density = 25.086407 Si / 1000 Ang^3
#
#
#
# Elastic Constant Matrix: (Units=GPa)
#
#
# Indices 1 2 3 4 5 6 
#
# 1 109.9858 6.4492 37.6892 -14.0668 10.1541 -5.5146
# 2 6.4492 77.3277 22.3271 -6.6703 10.1483 -0.1392
# 3 37.6892 22.3271 98.6629 -16.2364 16.4841 -10.1224
# 4 -14.0668 -6.6703 -16.2364 43.4097 -11.8734 -5.7915
# 5 10.1541 10.1483 16.4841 -11.8734 33.2613 -4.4888
# 6 -5.5146 -0.1392 -10.1224 -5.7915 -4.4888 39.1318
#
#
#
# Elastic Compliance Matrix: (Units=1/GPa)
#
#
# Indices 1 2 3 4 5 6 
#
# 1 0.010685 0.000436 -0.003634 0.002071 -0.000749 0.000788
# 2 0.000436 0.014158 -0.002916 0.000268 -0.003041 -0.000952
# 3 -0.003634 -0.002916 0.013522 0.002952 -0.003238 0.003041
# 4 0.002071 0.000268 0.002952 0.028053 0.008674 0.006203
# 5 -0.000749 -0.003041 -0.003238 0.008674 0.036533 0.004520
# 6 0.000788 -0.000952 0.003041 0.006203 0.004520 0.027886
#
#
# Mechanical properties :
#
#
# Convention : Reuss Voigt Hill
#
# Bulk Modulus (GPa) = 38.25804 46.54527 42.40166
# Shear Modulus (GPa) = 32.94315 37.79463 35.36889
#
# Velocity S-wave (km/s) = 3.62772 3.88568 3.75891
# Velocity P-wave (km/s) = 5.72982 6.22299 5.98149
#
# Compressibility (1/GPa) = 0.02613830
#
# Stress axis : x y z
#
# Youngs Moduli (GPa) = 93.58769 70.63146 73.95158
#
# Poissons Ratio (x) = -0.03082 0.26872
# Poissons Ratio (y) = -0.04084 0.21566
# Poissons Ratio (z) = 0.34008 0.20597
#
# Static dielectric constant tensor:
#      x y z
#    x 4.249930 0.278130 0.018150 
#    y 0.278130 3.775780 0.382640 
#    z 0.018150 0.382640 4.451630 
# 
# 
# High freq. dielectric constant tensor:
#      x y z
#    x 1.999570 -0.004780 0.010310 
#    y -0.004780 2.003140 -0.004620 
#    z 0.010310 -0.004620 2.009230 
# 
# From -- ./inp_files/358234.got.cif
#   From: 2010.06.25/outbox.cif.g09.slc.cpg/sg2_180_cif.got.tgz:358234.got - 2010.06.27 13:26:56.
