data_PCOD8019386
_publ_section_title
;
Structure prediction by ZEFSAII (Michael W. Deem and Ramdas Pophale) SiO2 
 PCOD8019386
Probable space group: P -1
;
_chemical_formula_sum "Si O2"
_cell_formula_units_Z 16
_cell_length_a 25.427407
_cell_length_b 13.980450
_cell_length_c 16.637796
_cell_angle_alpha 157.839527
_cell_angle_beta 22.321421
_cell_angle_gamma 157.023049
_cell_volume 758.286634
_symmetry_space_group_name_H-M "P -1"
_symmetry_group_IT_number 2
_symmetry_cell_setting 'triclinic'
loop_
_space_group_symop_operation_xyz
x,y,z
-x,-y,-z
loop_
_atom_site_type_symbol
_atom_site_label
_atom_site_fract_x
_atom_site_fract_y
_atom_site_fract_z
Si Si1 0.903653 0.652063 0.651497
Si Si2 0.617350 0.289136 0.468973
Si Si3 0.824543 0.911639 0.662172
Si Si4 0.393218 0.273017 0.908367
Si Si5 0.338745 0.732901 0.788246
Si Si6 0.907460 0.108240 0.271477
Si Si7 0.391198 0.179694 0.428116
Si Si8 0.192640 0.086443 0.496632
O O1 0.875152 0.328036 0.432952
O O2 0.969217 0.747054 0.720668
O O3 0.740153 0.646865 0.865212
O O4 0.017548 0.861501 0.586747
O O5 0.751512 0.587227 0.539855
O O6 0.471363 0.254955 0.700279
O O7 0.583729 0.292892 0.424890
O O8 0.672029 0.043981 0.211706
O O9 0.781637 0.949631 0.661001
O O10 0.000000 0.000000 0.500000
O O11 0.762572 0.095880 0.945907
O O12 0.500000 0.500000 0.000000
O O13 0.484341 0.914112 0.782618
O O14 0.225047 0.409295 0.724899
O O15 0.745587 0.870005 0.352394
O O16 0.000000 0.000000 0.000000
O O17 0.500000 0.500000 0.500000
O O18 0.308445 0.013612 0.333477
#
# Coordination Sequence:
#
# PCOD8019386 Si02
#       8
#     2   2   2   2   2   2   2   2
#     4  10  24  41  64  94 130 168 217 267 316 400
#     4  10  25  42  61 101 123 173 219 269 329 383
#     4  11  25  40  66  96 130 175 216 267 332 388
#     4  11  25  42  67  92 131 172 223 269 324 387
#     4  10  22  41  67  93 133 167 217 273 329 388
#     4  10  23  42  66  96 131 172 213 267 339 386
#     4   9  20  41  67  94 127 166 216 269 328 389
#     4   9  22  42  61  97 127 168 218 263 329 387
#
# _framework density 21.100200000000001
#
# number of rings (size 3 to 8) (size 9 to 14) (size 15 to 20)
#    0.000    2.000    0.000    0.750   10.500    5.500 
#    0.000    0.000    0.000    0.000    0.000    0.000 
#    0.000    0.000    0.000    0.000    0.000    0.000 
#
# Total GULP energy -198239.405714 kJ/mol
# GULP energy per Si atom -12389.962857 kJ/mol
# Density = 2.105217 g / cm^3
# Si number density = 21.100200 Si / 1000 Ang^3
#
#
#
# Elastic Constant Matrix: (Units=GPa)
#
#
# Indices 1 2 3 4 5 6 
#
# 1 71.4220 40.3914 42.4540 -9.3205 -9.9379 -4.0346
# 2 40.3914 131.2964 59.6451 1.9821 -11.8938 -14.0187
# 3 42.4540 59.6451 129.7254 -2.7872 -14.9241 -1.8390
# 4 -9.3205 1.9821 -2.7872 33.7578 2.3412 -5.6479
# 5 -9.9379 -11.8938 -14.9241 2.3412 36.1620 -8.0190
# 6 -4.0346 -14.0187 -1.8390 -5.6479 -8.0190 34.1436
#
#
#
# Elastic Compliance Matrix: (Units=1/GPa)
#
#
# Indices 1 2 3 4 5 6 
#
# 1 0.019913 -0.003789 -0.004334 0.005534 0.002540 0.002076
# 2 -0.003789 0.011066 -0.003574 -0.001442 0.002141 0.004168
# 3 -0.004334 -0.003574 0.010974 -0.000383 0.001968 -0.000989
# 4 0.005534 -0.001442 -0.000383 0.032099 -0.000003 0.005350
# 5 0.002540 0.002141 0.001968 -0.000003 0.031809 0.008755
# 6 0.002076 0.004168 -0.000989 0.005350 0.008755 0.034133
#
#
# Mechanical properties :
#
#
# Convention : Reuss Voigt Hill
#
# Bulk Modulus (GPa) = 53.87931 68.60277 61.24104
# Shear Modulus (GPa) = 29.48558 33.47624 31.48091
#
# Velocity S-wave (km/s) = 3.74225 3.98746 3.86680
# Velocity P-wave (km/s) = 6.65304 7.33370 7.00165
#
# Compressibility (1/GPa) = 0.01856000
#
# Stress axis : x y z
#
# Youngs Moduli (GPa) = 50.21820 90.36638 91.12260
#
# Poissons Ratio (x) = 0.34239 0.39495
# Poissons Ratio (y) = 0.19027 0.32563
# Poissons Ratio (z) = 0.21766 0.32293
#
# Static dielectric constant tensor:
#      x y z
#    x 4.332810 -0.137290 -0.088760 
#    y -0.137290 4.202950 0.085760 
#    z -0.088760 0.085760 3.659980 
# 
# 
# High freq. dielectric constant tensor:
#      x y z
#    x 1.838850 -0.009660 -0.004550 
#    y -0.009660 1.839540 -0.002070 
#    z -0.004550 -0.002070 1.807720 
# 
# From -- ./inp_files/579905.got.cif
#   From: 2010.06.25/outbox.cif.g09.slc.cpg/sg2_290_cif.got.tgz:579905.got - 2010.06.27 13:26:56.
