data_PCOD8019596
_publ_section_title
;
Structure prediction by ZEFSAII (Michael W. Deem and Ramdas Pophale) SiO2 
 PCOD8019596
Probable space group: P -1
;
_chemical_formula_sum "Si O2"
_cell_formula_units_Z 14
_cell_length_a 16.768877
_cell_length_b 11.786690
_cell_length_c 9.172054
_cell_angle_alpha 52.432431
_cell_angle_beta 149.435683
_cell_angle_gamma 140.174830
_cell_volume 582.935705
_symmetry_space_group_name_H-M "P -1"
_symmetry_group_IT_number 2
_symmetry_cell_setting 'triclinic'
loop_
_space_group_symop_operation_xyz
x,y,z
-x,-y,-z
loop_
_atom_site_type_symbol
_atom_site_label
_atom_site_fract_x
_atom_site_fract_y
_atom_site_fract_z
Si Si1 0.018469 0.564378 0.745778
Si Si2 0.155645 0.202320 0.028454
Si Si3 0.385842 0.719673 0.810853
Si Si4 0.460808 0.336338 0.161551
Si Si5 0.325622 0.229688 0.558604
Si Si6 0.198839 0.844703 0.585021
Si Si7 0.845212 0.600294 0.715646
O O1 0.194510 0.725431 0.800607
O O2 0.823475 0.458322 0.424120
O O3 0.993034 0.657536 0.769631
O O4 0.072722 0.435140 0.984709
O O5 0.253785 0.218851 0.013455
O O6 0.328949 0.306116 0.342906
O O7 0.019761 0.268021 0.743274
O O8 0.000000 0.000000 0.000000
O O9 0.531532 0.791189 0.843510
O O10 0.359716 0.870923 0.703214
O O11 0.465607 0.659334 0.114881
O O12 0.633408 0.414685 0.490083
O O13 0.500000 0.500000 0.000000
O O14 0.172586 0.240202 0.404583
O O15 0.256697 0.028135 0.599258
#
# Coordination Sequence:
#
# PCOD8019596 Si02
#       7
#     2   2   2   2   2   2   2
#     4  10  23  42  68 101 139 179 230 290 348 409
#     4  10  24  45  66  98 141 183 230 284 350 415
#     4  11  23  42  69 100 136 180 233 286 344 410
#     4  11  22  43  72 102 134 180 243 284 340 416
#     4  11  24  42  69  99 139 178 234 281 351 412
#     4  11  24  43  66  99 143 181 226 282 359 410
#     4  10  22  41  69 102 136 178 233 286 343 414
#
# _framework density 24.016372
#
# number of rings (size 3 to 8) (size 9 to 14) (size 15 to 20)
#    0.000    1.429    1.429    3.429    2.000    2.286 
#    2.571    2.857    0.000    0.000    0.000    0.000 
#    0.000    0.000    0.000    0.000    0.000    0.000 
#
# Total GULP energy -173475.047047 kJ/mol
# GULP energy per Si atom -12391.074789 kJ/mol
# Density = 2.396171 g / cm^3
# Si number density = 24.016372 Si / 1000 Ang^3
#
#
#
# Elastic Constant Matrix: (Units=GPa)
#
#
# Indices 1 2 3 4 5 6 
#
# 1 166.2708 58.3129 73.4864 -11.4735 19.8419 -13.0204
# 2 58.3129 60.5828 23.9001 -17.4973 1.2761 -11.0392
# 3 73.4864 23.9001 167.9588 -11.5282 -10.6432 -6.4145
# 4 -11.4735 -17.4973 -11.5282 23.9650 -7.6801 7.9460
# 5 19.8419 1.2761 -10.6432 -7.6801 47.8344 -5.6209
# 6 -13.0204 -11.0392 -6.4145 7.9460 -5.6209 44.2876
#
#
#
# Elastic Compliance Matrix: (Units=1/GPa)
#
#
# Indices 1 2 3 4 5 6 
#
# 1 0.012927 -0.012545 -0.004852 -0.007792 -0.007306 0.000442
# 2 -0.012545 0.034163 0.002805 0.022322 0.008776 0.002343
# 3 -0.004852 0.002805 0.008332 0.005173 0.004639 0.000140
# 4 -0.007792 0.022322 0.005173 0.062872 0.013227 -0.005579
# 5 -0.007306 0.008776 0.004639 0.013227 0.027066 0.001773
# 6 0.000442 0.002343 0.000140 -0.005579 0.001773 0.024540
#
#
# Mechanical properties :
#
#
# Convention : Reuss Voigt Hill
#
# Bulk Modulus (GPa) = 38.11067 78.46790 58.28929
# Shear Modulus (GPa) = 24.05822 39.15828 31.60825
#
# Velocity S-wave (km/s) = 3.16847 4.04230 3.63176
# Velocity P-wave (km/s) = 5.41190 7.38448 6.47376
#
# Compressibility (1/GPa) = 0.02623937
#
# Stress axis : x y z
#
# Youngs Moduli (GPa) = 77.35814 29.27104 120.02185
#
# Poissons Ratio (x) = 0.36719 0.58231
# Poissons Ratio (y) = 0.97043 -0.33665
# Poissons Ratio (z) = 0.37532 -0.08210
#
# Static dielectric constant tensor:
#      x y z
#    x 4.829010 -0.328160 -0.185360 
#    y -0.328160 3.648390 -0.105400 
#    z -0.185360 -0.105400 5.193670 
# 
# 
# High freq. dielectric constant tensor:
#      x y z
#    x 1.967320 -0.020770 -0.002940 
#    y -0.020770 1.897820 -0.014050 
#    z -0.002940 -0.014050 1.980700 
# 
# From -- ./inp_files/190120.got.cif
#   From: 2010.06.25/outbox.cif.g09.slc.cpg/sg2_96_cif.got.tgz:190120.got - 2010.06.27 13:26:56.
