data_PCOD8019176
_publ_section_title
;
Structure prediction by ZEFSAII (Michael W. Deem and Ramdas Pophale) SiO2 
 PCOD8019176
Probable space group: P -1
;
_chemical_formula_sum "Si O2"
_cell_formula_units_Z 16
_cell_length_a 13.922497
_cell_length_b 8.822261
_cell_length_c 20.806183
_cell_angle_alpha 112.987946
_cell_angle_beta 29.432348
_cell_angle_gamma 135.121872
_cell_volume 670.645036
_symmetry_space_group_name_H-M "P -1"
_symmetry_group_IT_number 2
_symmetry_cell_setting 'triclinic'
loop_
_space_group_symop_operation_xyz
x,y,z
-x,-y,-z
loop_
_atom_site_type_symbol
_atom_site_label
_atom_site_fract_x
_atom_site_fract_y
_atom_site_fract_z
Si Si1 0.015353 0.080913 0.733745
Si Si2 0.662152 0.549873 0.790850
Si Si3 0.169096 0.607843 0.530456
Si Si4 0.269522 0.574078 0.610272
Si Si5 0.871245 0.058455 0.955687
Si Si6 0.743728 0.183927 0.231055
Si Si7 0.379152 0.507447 0.832717
Si Si8 0.392202 0.008910 0.280714
O O1 0.076097 0.267397 0.677656
O O2 0.334450 0.182170 0.573349
O O3 0.927539 0.109578 0.855910
O O4 0.713916 0.759234 0.831420
O O5 0.628599 0.559519 0.735446
O O6 0.967098 0.635701 0.638279
O O7 0.313222 0.237863 0.969109
O O8 0.186144 0.598548 0.595219
O O9 0.539888 0.887350 0.330197
O O10 0.984484 0.324284 0.559020
O O11 0.152021 0.617594 0.741483
O O12 0.228752 0.308748 0.825818
O O13 0.652286 0.065048 0.103976
O O14 0.504433 0.110149 0.305865
O O15 0.080840 0.352851 0.029282
O O16 0.598029 0.811567 0.731581
#
# Coordination Sequence:
#
# PCOD8019176 Si02
#       8
#     2   2   2   2   2   2   2   2
#     4  11  23  42  63  95 129 164 214 261 314 377
#     4  11  24  41  63  97 132 163 211 266 311 379
#     4  11  24  44  64  95 134 165 214 257 324 376
#     4  11  24  41  66  91 128 172 208 259 320 379
#     4  10  22  41  65  94 127 165 209 263 317 374
#     4  11  22  42  70  93 126 170 214 260 318 378
#     4  11  23  42  70  95 126 167 216 261 318 372
#     4  10  22  43  68  95 126 167 215 264 312 378
#
# _framework density 23.857627000000001
#
# number of rings (size 3 to 8) (size 9 to 14) (size 15 to 20)
#    0.000    1.250    1.250    5.250    1.750    2.000 
#    2.250    5.000    0.000    0.000    0.000    0.000 
#    0.000    0.000    0.000    0.000    0.000    0.000 
#
# Total GULP energy -198484.287117 kJ/mol
# GULP energy per Si atom -12405.267945 kJ/mol
# Density = 2.380333 g / cm^3
# Si number density = 23.857627 Si / 1000 Ang^3
#
#
#
# Elastic Constant Matrix: (Units=GPa)
#
#
# Indices 1 2 3 4 5 6 
#
# 1 142.4957 38.6555 27.9017 -19.5985 15.2342 -11.5555
# 2 38.6555 115.9749 39.7968 -37.3094 1.2823 -2.8996
# 3 27.9017 39.7968 39.0047 -10.8780 16.8970 -7.5345
# 4 -19.5985 -37.3094 -10.8780 25.5233 1.8371 11.6361
# 5 15.2342 1.2823 16.8970 1.8371 26.5784 -2.3260
# 6 -11.5555 -2.8996 -7.5345 11.6361 -2.3260 34.1468
#
#
#
# Elastic Compliance Matrix: (Units=1/GPa)
#
#
# Indices 1 2 3 4 5 6 
#
# 1 0.008786 0.000049 -0.003325 0.005586 -0.003301 0.000116
# 2 0.000049 0.030394 -0.028979 0.038503 0.012864 -0.016041
# 3 -0.003325 -0.028979 0.073216 -0.018063 -0.040598 0.015959
# 4 0.005586 0.038503 -0.018063 0.108871 -0.004270 -0.036216
# 5 -0.003301 0.012864 -0.040598 -0.004270 0.064727 -0.003118
# 6 0.000116 -0.016041 0.015959 -0.036216 -0.003118 0.043613
#
#
# Mechanical properties :
#
#
# Convention : Reuss Voigt Hill
#
# Bulk Modulus (GPa) = 20.88322 56.68703 38.78512
# Shear Modulus (GPa) = 12.19278 29.99113 21.09195
#
# Velocity S-wave (km/s) = 2.26313 3.54939 2.97657
# Velocity P-wave (km/s) = 3.94984 6.37257 5.30146
#
# Compressibility (1/GPa) = 0.04788533
#
# Stress axis : x y z
#
# Youngs Moduli (GPa) = 113.81720 32.90169 13.65818
#
# Poissons Ratio (x) = -0.00160 0.04541
# Poissons Ratio (y) = -0.00555 0.39580
# Poissons Ratio (z) = 0.37843 0.95346
#
# Static dielectric constant tensor:
#      x y z
#    x 4.448590 0.115110 0.087460 
#    y 0.115110 4.362710 -0.290080 
#    z 0.087460 -0.290080 4.172260 
# 
# 
# High freq. dielectric constant tensor:
#      x y z
#    x 1.955270 0.001560 0.010730 
#    y 0.001560 1.956260 -0.013120 
#    z 0.010730 -0.013120 1.938570 
# 
# From -- ./inp_files/208409.got.cif
#   From: 2010.06.25/outbox.cif.g09.slc.cpg/sg2_105_cif.got.tgz:208409.got - 2010.06.27 13:26:56.
