data_PCOD8019462
_publ_section_title
;
Structure prediction by ZEFSAII (Michael W. Deem and Ramdas Pophale) SiO2 
 PCOD8019462
Probable space group: P -1
;
_chemical_formula_sum "Si O2"
_cell_formula_units_Z 16
_cell_length_a 12.904117
_cell_length_b 14.426845
_cell_length_c 5.415689
_cell_angle_alpha 93.180914
_cell_angle_beta 103.484127
_cell_angle_gamma 44.438870
_cell_volume 677.257756
_symmetry_space_group_name_H-M "P -1"
_symmetry_group_IT_number 2
_symmetry_cell_setting 'triclinic'
loop_
_space_group_symop_operation_xyz
x,y,z
-x,-y,-z
loop_
_atom_site_type_symbol
_atom_site_label
_atom_site_fract_x
_atom_site_fract_y
_atom_site_fract_z
Si Si1 0.385631 0.989706 0.875527
Si Si2 0.439603 0.286990 0.920733
Si Si3 0.798391 0.902625 0.699094
Si Si4 0.024541 0.635828 0.029279
Si Si5 0.909087 0.036225 0.701859
Si Si6 0.334603 0.523745 0.200137
Si Si7 0.603710 0.314851 0.689774
Si Si8 0.869962 0.597940 0.247467
O O1 0.307654 0.063885 0.582046
O O2 0.478301 0.833980 0.857543
O O3 0.500000 0.000000 0.000000
O O4 0.279190 0.041916 0.065252
O O5 0.573464 0.237837 0.806421
O O6 0.301382 0.312321 0.722945
O O7 0.370421 0.427875 0.993937
O O8 0.871802 0.952126 0.666427
O O9 0.935810 0.740820 0.770450
O O10 0.157304 0.620799 0.208375
O O11 0.894784 0.686928 0.167982
O O12 0.112658 0.486906 0.976613
O O13 0.756621 0.195061 0.603887
O O14 0.000000 0.000000 0.500000
O O15 0.000000 0.000000 0.000000
O O16 0.450369 0.431939 0.471522
O O17 0.357238 0.615053 0.125074
O O18 0.000000 0.500000 0.500000
#
# Coordination Sequence:
#
# PCOD8019462 Si02
#       8
#     2   2   2   2   2   2   2   2
#     4  12  27  46  73 107 144 196 246 304 370 434
#     4  11  23  42  70  99 143 184 239 301 360 437
#     4  12  26  48  71 105 148 189 246 305 362 445
#     4  10  23  42  66 100 141 182 243 295 357 435
#     4  12  27  48  75 108 147 197 244 307 374 442
#     4  10  23  43  68 104 136 191 236 300 369 429
#     4  11  23  44  71 101 144 181 245 298 366 446
#     4  10  22  41  67  98 136 184 235 294 358 419
#
# _framework density 23.624683000000001
#
# number of rings (size 3 to 8) (size 9 to 14) (size 15 to 20)
#    0.000    1.000    1.250    4.500    5.250    0.000 
#    9.000    0.000    0.000    0.000    0.000    0.000 
#    0.000    0.000    0.000    0.000    0.000    0.000 
#
# Total GULP energy -198253.586908 kJ/mol
# GULP energy per Si atom -12390.849182 kJ/mol
# Density = 2.357091 g / cm^3
# Si number density = 23.624683 Si / 1000 Ang^3
#
#
#
# Elastic Constant Matrix: (Units=GPa)
#
#
# Indices 1 2 3 4 5 6 
#
# 1 178.3773 55.4325 61.7956 -17.8072 9.1221 -6.3323
# 2 55.4325 95.0045 34.8472 -25.4985 -3.7808 0.7526
# 3 61.7956 34.8472 132.6339 -19.6684 11.3213 -1.6999
# 4 -17.8072 -25.4985 -19.6684 37.7348 -6.2829 -9.6490
# 5 9.1221 -3.7808 11.3213 -6.2829 39.0238 -4.4830
# 6 -6.3323 0.7526 -1.6999 -9.6490 -4.4830 33.3993
#
#
#
# Elastic Compliance Matrix: (Units=1/GPa)
#
#
# Indices 1 2 3 4 5 6 
#
# 1 0.007719 -0.003652 -0.002516 -0.000036 -0.001292 0.001234
# 2 -0.003652 0.015936 -0.001418 0.009661 0.004627 0.002289
# 3 -0.002516 -0.001418 0.009654 0.002729 -0.001843 0.000587
# 4 -0.000036 0.009661 0.002729 0.038851 0.007808 0.012186
# 5 -0.001292 0.004627 -0.001843 0.007808 0.028820 0.005681
# 6 0.001234 0.002289 0.000587 0.012186 0.005681 0.034436
#
#
# Mechanical properties :
#
#
# Convention : Reuss Voigt Hill
#
# Bulk Modulus (GPa) = 55.13818 78.90736 67.02277
# Shear Modulus (GPa) = 31.92156 38.96095 35.44125
#
# Velocity S-wave (km/s) = 3.67985 4.06539 3.87742
# Velocity P-wave (km/s) = 6.43777 7.45047 6.96256
#
# Compressibility (1/GPa) = 0.01813625
#
# Stress axis : x y z
#
# Youngs Moduli (GPa) = 129.55300 62.75145 103.58280
#
# Poissons Ratio (x) = 0.22915 0.26063
# Poissons Ratio (y) = 0.47310 0.14692
# Poissons Ratio (z) = 0.32597 0.08901
#
# Static dielectric constant tensor:
#      x y z
#    x 5.163480 0.236130 0.349210 
#    y 0.236130 4.610430 0.026660 
#    z 0.349210 0.026660 3.977290 
# 
# 
# High freq. dielectric constant tensor:
#      x y z
#    x 1.965430 0.008490 0.013910 
#    y 0.008490 1.943130 -0.018530 
#    z 0.013910 -0.018530 1.912160 
# 
# From -- ./inp_files/77910.got.cif
#   From: 2010.06.25/outbox.cif.g09.slc.cpg/sg2_39_cif.got.tgz:77910.got - 2010.06.27 13:26:56.
