data_PCOD8019607
_publ_section_title
;
Structure prediction by ZEFSAII (Michael W. Deem and Ramdas Pophale) SiO2 
 PCOD8019607
Probable space group: P -1
;
_chemical_formula_sum "Si O2"
_cell_formula_units_Z 14
_cell_length_a 9.304719
_cell_length_b 11.301151
_cell_length_c 7.993149
_cell_angle_alpha 106.956043
_cell_angle_beta 61.833457
_cell_angle_gamma 72.619438
_cell_volume 606.481848
_symmetry_space_group_name_H-M "P -1"
_symmetry_group_IT_number 2
_symmetry_cell_setting 'triclinic'
loop_
_space_group_symop_operation_xyz
x,y,z
-x,-y,-z
loop_
_atom_site_type_symbol
_atom_site_label
_atom_site_fract_x
_atom_site_fract_y
_atom_site_fract_z
Si Si1 0.990830 0.895460 0.260882
Si Si2 0.821055 0.215776 0.553904
Si Si3 0.223140 0.901180 0.881083
Si Si4 0.438502 0.388020 0.519539
Si Si5 0.391616 0.348349 0.892897
Si Si6 0.673938 0.902402 0.242002
Si Si7 0.187052 0.507123 0.398993
O O1 0.017090 0.846217 0.416594
O O2 0.872036 0.833325 0.209506
O O3 0.204553 0.838221 0.044522
O O4 0.862870 0.071402 0.372255
O O5 0.611529 0.293510 0.778554
O O6 0.850428 0.331328 0.478527
O O7 0.364359 0.765776 0.629447
O O8 0.315655 0.001869 0.876153
O O9 0.000000 0.000000 0.000000
O O10 0.500000 0.500000 0.500000
O O11 0.326720 0.417727 0.770032
O O12 0.313739 0.395875 0.431581
O O13 0.347172 0.220987 0.884146
O O14 0.279869 0.464659 0.146413
O O15 0.500000 0.000000 0.500000
O O16 0.000000 0.500000 0.500000
#
# Coordination Sequence:
#
# PCOD8019607 Si02
#       7
#     2   2   2   2   2   2   2
#     4  10  23  40  72 100 139 188 239 297 360 416
#     4  11  23  46  67 101 143 187 238 300 357 429
#     4  10  22  41  69 105 136 179 242 293 346 424
#     4  12  26  46  78 105 145 197 241 288 370 435
#     4  12  25  48  73 100 143 192 234 303 358 424
#     4  11  21  41  68 102 137 179 241 290 354 422
#     4  12  31  47  68 108 151 187 246 296 360 437
#
# _framework density 23.083955
#
# number of rings (size 3 to 8) (size 9 to 14) (size 15 to 20)
#    0.000    0.857    4.286    2.143    6.000    1.714 
#    0.000    1.429    0.000    0.000    0.000    0.000 
#    0.000    0.000    0.000    0.000    0.000    0.000 
#
# Total GULP energy -173487.224018 kJ/mol
# GULP energy per Si atom -12391.944573 kJ/mol
# Density = 2.303141 g / cm^3
# Si number density = 23.083955 Si / 1000 Ang^3
#
#
#
# Elastic Constant Matrix: (Units=GPa)
#
#
# Indices 1 2 3 4 5 6 
#
# 1 114.3088 43.9062 24.4981 -1.8356 -14.0682 6.9754
# 2 43.9062 108.8864 23.0813 -4.9820 -5.5586 3.3194
# 3 24.4981 23.0813 96.4997 -18.8305 -3.6915 -11.8433
# 4 -1.8356 -4.9820 -18.8305 38.1579 4.5023 2.3154
# 5 -14.0682 -5.5586 -3.6915 4.5023 34.7450 -8.1603
# 6 6.9754 3.3194 -11.8433 2.3154 -8.1603 50.8930
#
#
#
# Elastic Compliance Matrix: (Units=1/GPa)
#
#
# Indices 1 2 3 4 5 6 
#
# 1 0.011205 -0.003900 -0.002190 -0.001405 0.003592 -0.001151
# 2 -0.003900 0.011141 -0.001660 0.000508 -0.000187 -0.000632
# 3 -0.002190 -0.001660 0.012844 0.005800 0.000204 0.003166
# 4 -0.001405 0.000508 0.005800 0.029544 -0.003804 -0.000445
# 5 0.003592 -0.000187 0.000204 -0.003804 0.031859 0.004849
# 6 -0.001151 -0.000632 0.003166 -0.000445 0.004849 0.021383
#
#
# Mechanical properties :
#
#
# Convention : Reuss Voigt Hill
#
# Bulk Modulus (GPa) = 50.78607 55.85177 53.31892
# Shear Modulus (GPa) = 35.70418 39.97314 37.83866
#
# Velocity S-wave (km/s) = 3.93709 4.16581 4.05307
# Velocity P-wave (km/s) = 6.53574 6.88377 6.71201
#
# Compressibility (1/GPa) = 0.01969044
#
# Stress axis : x y z
#
# Youngs Moduli (GPa) = 89.24354 89.75582 77.85750
#
# Poissons Ratio (x) = 0.35004 0.17050
# Poissons Ratio (y) = 0.34804 0.12927
# Poissons Ratio (z) = 0.19543 0.14902
#
# Static dielectric constant tensor:
#      x y z
#    x 3.289130 0.822210 -0.640690 
#    y 0.822210 3.878610 0.314820 
#    z -0.640690 0.314820 4.228390 
# 
# 
# High freq. dielectric constant tensor:
#      x y z
#    x 1.910320 0.001260 -0.000540 
#    y 0.001260 1.923900 -0.011730 
#    z -0.000540 -0.011730 1.911390 
# 
# From -- ./inp_files/189008.got.cif
#   From: 2010.06.25/outbox.cif.g09.slc.cpg/sg2_95_cif.got.tgz:189008.got - 2010.06.27 13:26:56.
