data_PCOD8019202
_publ_section_title
;
Structure prediction by ZEFSAII (Michael W. Deem and Ramdas Pophale) SiO2 
 PCOD8019202
Probable space group: P -1
;
_chemical_formula_sum "Si O2"
_cell_formula_units_Z 14
_cell_length_a 4.903504
_cell_length_b 14.172502
_cell_length_c 16.889837
_cell_angle_alpha 151.035108
_cell_angle_beta 81.673565
_cell_angle_gamma 106.195922
_cell_volume 533.292855
_symmetry_space_group_name_H-M "P -1"
_symmetry_group_IT_number 2
_symmetry_cell_setting 'triclinic'
loop_
_space_group_symop_operation_xyz
x,y,z
-x,-y,-z
loop_
_atom_site_type_symbol
_atom_site_label
_atom_site_fract_x
_atom_site_fract_y
_atom_site_fract_z
Si Si1 0.156107 0.610374 0.151208
Si Si2 0.007682 0.111194 0.337438
Si Si3 0.810948 0.959584 0.556376
Si Si4 0.886378 0.253454 0.228464
Si Si5 0.371595 0.644758 0.539965
Si Si6 0.909812 0.842838 0.002134
Si Si7 0.564408 0.538586 0.201371
O O1 0.408426 0.528600 0.114828
O O2 0.904770 0.564243 0.195711
O O3 0.312455 0.848609 0.294909
O O4 0.000000 0.500000 0.000000
O O5 0.982678 0.034646 0.372351
O O6 0.292952 0.309102 0.460957
O O7 0.738349 0.186466 0.378724
O O8 0.036660 0.924079 0.143182
O O9 0.552247 0.741667 0.399598
O O10 0.000000 0.000000 0.500000
O O11 0.203748 0.411674 0.351927
O O12 0.654267 0.330969 0.344788
O O13 0.866930 0.237888 0.121207
O O14 0.847016 0.026684 0.094060
O O15 0.602545 0.662314 0.889805
#
# Coordination Sequence:
#
# PCOD8019202 Si02
#       7
#     2   2   2   2   2   2   2
#     4  11  24  43  67  95 127 163 211 267 320 377
#     4  11  24  42  66  94 128 168 215 264 318 377
#     4  10  24  44  67  94 128 170 215 262 318 381
#     4   9  21  41  66  95 130 168 213 262 318 379
#     4  10  23  43  66  95 129 170 212 261 317 380
#     4  10  22  41  65  96 130 168 212 265 319 376
#     4  11  24  42  64  93 128 168 211 257 319 381
#
# _framework density 26.251995000000001
#
# number of rings (size 3 to 8) (size 9 to 14) (size 15 to 20)
#    0.000    1.714    0.000    2.571    0.000   18.286 
#    0.000    5.714    0.000    0.000    0.000    0.000 
#    0.000    0.000    0.000    0.000    0.000    0.000 
#
# Total GULP energy -173495.503270 kJ/mol
# GULP energy per Si atom -12392.535948 kJ/mol
# Density = 2.619224 g / cm^3
# Si number density = 26.251995 Si / 1000 Ang^3
#
#
#
# Elastic Constant Matrix: (Units=GPa)
#
#
# Indices 1 2 3 4 5 6 
#
# 1 46.1985 4.1382 -11.0552 -2.1383 13.5070 -6.3163
# 2 4.1382 138.1107 56.4961 -11.8356 10.4744 -6.1560
# 3 -11.0552 56.4961 143.2598 9.9271 22.9732 4.9345
# 4 -2.1383 -11.8356 9.9271 57.3794 0.0979 16.2291
# 5 13.5070 10.4744 22.9732 0.0979 22.1786 3.3433
# 6 -6.3163 -6.1560 4.9345 16.2291 3.3433 29.8856
#
#
#
# Elastic Compliance Matrix: (Units=1/GPa)
#
#
# Indices 1 2 3 4 5 6 
#
# 1 0.033551 -0.001831 0.007886 -0.003426 -0.029311 0.010551
# 2 -0.001831 0.009125 -0.004068 0.002283 0.000885 0.000826
# 3 0.007886 -0.004068 0.011815 -0.003231 -0.015461 0.002362
# 4 -0.003426 0.002283 -0.003231 0.021779 0.006103 -0.012230
# 5 -0.029311 0.000885 -0.015461 0.006103 0.080895 -0.015823
# 6 0.010551 0.000826 0.002362 -0.012230 -0.015823 0.043882
#
#
# Mechanical properties :
#
#
# Convention : Reuss Voigt Hill
#
# Bulk Modulus (GPa) = 17.10503 47.41415 32.25959
# Shear Modulus (GPa) = 23.08802 40.42138 31.75470
#
# Velocity S-wave (km/s) = 2.96881 3.92822 3.48172
# Velocity P-wave (km/s) = 4.27571 6.21891 5.33650
#
# Compressibility (1/GPa) = 0.05846233
#
# Stress axis : x y z
#
# Youngs Moduli (GPa) = 29.80581 109.58933 84.63661
#
# Poissons Ratio (x) = 0.20069 -0.66741
# Poissons Ratio (y) = 0.05458 0.34434
# Poissons Ratio (z) = -0.23504 0.44586
#
# Static dielectric constant tensor:
#      x y z
#    x 4.212880 0.155050 -0.072010 
#    y 0.155050 5.113730 -0.046240 
#    z -0.072010 -0.046240 5.662600 
# 
# 
# High freq. dielectric constant tensor:
#      x y z
#    x 2.010010 0.003540 0.007390 
#    y 0.003540 2.066540 0.003900 
#    z 0.007390 0.003900 2.072850 
# 
# From -- ./inp_files/142187.got.cif
#   From: 2010.06.25/outbox.cif.g09.slc.cpg/sg2_72_cif.got.tgz:142187.got - 2010.06.27 13:26:56.
