data_PCOD8019024
_publ_section_title
;
Structure prediction by ZEFSAII (Michael W. Deem and Ramdas Pophale) SiO2 
 PCOD8019024
Probable space group: P -1
;
_chemical_formula_sum "Si O2"
_cell_formula_units_Z 12
_cell_length_a 14.752826
_cell_length_b 11.750386
_cell_length_c 7.140055
_cell_angle_alpha 47.270597
_cell_angle_beta 68.681443
_cell_angle_gamma 38.070691
_cell_volume 519.346018
_symmetry_space_group_name_H-M "P -1"
_symmetry_group_IT_number 2
_symmetry_cell_setting 'triclinic'
loop_
_space_group_symop_operation_xyz
x,y,z
-x,-y,-z
loop_
_atom_site_type_symbol
_atom_site_label
_atom_site_fract_x
_atom_site_fract_y
_atom_site_fract_z
Si Si1 0.776214 0.525587 0.864170
Si Si2 0.306912 0.668373 0.083603
Si Si3 0.851157 0.994257 0.857279
Si Si4 0.343356 0.821387 0.547553
Si Si5 0.178376 0.289207 0.664739
Si Si6 0.333394 0.180988 0.024112
O O1 0.699795 0.474426 0.880415
O O2 0.728717 0.735844 0.540216
O O3 0.701611 0.640684 0.997535
O O4 0.965006 0.266904 0.028125
O O5 0.475424 0.461289 0.293554
O O6 0.174519 0.835412 0.162293
O O7 0.281436 0.850585 0.767110
O O8 0.763392 0.138793 0.566780
O O9 0.760048 0.961378 0.058360
O O10 0.325466 0.027436 0.308225
O O11 0.000000 0.500000 0.500000
O O12 0.197197 0.360578 0.766247
O O13 0.500000 0.000000 0.000000
#
# Coordination Sequence:
#
# PCOD8019024 Si02
#       6
#     2   2   2   2   2   2
#     4  11  24  40  63  94 123 157 202 252 305 358
#     4  11  23  40  63  91 126 162 198 246 303 364
#     4  10  22  41  64  90 123 161 201 248 301 360
#     4  10  24  41  62  88 123 164 204 245 299 360
#     4   9  21  40  65  90 119 157 201 249 300 355
#     4  11  24  42  64  90 121 159 206 255 300 354
#
# _framework density 23.105981
#
# number of rings (size 3 to 8) (size 9 to 14) (size 15 to 20)
#    0.000    1.667    0.000    3.000    0.000   20.000 
#    0.000    0.000    0.000    0.000    0.000    0.000 
#    0.000    0.000    0.000    0.000    0.000    0.000 
#
# Total GULP energy -148759.143766 kJ/mol
# GULP energy per Si atom -12396.595314 kJ/mol
# Density = 2.305339 g / cm^3
# Si number density = 23.105981 Si / 1000 Ang^3
#
#
#
# Elastic Constant Matrix: (Units=GPa)
#
#
# Indices 1 2 3 4 5 6 
#
# 1 85.3997 36.1692 30.6421 5.7636 21.5688 3.2063
# 2 36.1692 142.2347 35.9535 23.1973 22.7178 15.4555
# 3 30.6421 35.9535 105.9371 -1.5705 33.7017 -8.6411
# 4 5.7636 23.1973 -1.5705 25.0475 -0.6643 7.6072
# 5 21.5688 22.7178 33.7017 -0.6643 39.5566 8.5181
# 6 3.2063 15.4555 -8.6411 7.6072 8.5181 32.1015
#
#
#
# Elastic Compliance Matrix: (Units=1/GPa)
#
#
# Indices 1 2 3 4 5 6 
#
# 1 0.014762 -0.002247 -0.001660 -0.001903 -0.005614 0.001101
# 2 -0.002247 0.010231 -0.002545 -0.008293 -0.001999 -0.002891
# 3 -0.001660 -0.002545 0.015584 0.000699 -0.012798 0.008816
# 4 -0.001903 -0.008293 0.000699 0.051333 0.008214 -0.009973
# 5 -0.005614 -0.001999 -0.012798 0.008214 0.043870 -0.015509
# 6 0.001101 -0.002891 0.008816 -0.009973 -0.015509 0.041285
#
#
# Mechanical properties :
#
#
# Convention : Reuss Voigt Hill
#
# Bulk Modulus (GPa) = 36.13573 59.90012 48.01792
# Shear Modulus (GPa) = 25.10114 34.72824 29.91469
#
# Velocity S-wave (km/s) = 3.29956 3.88106 3.60206
# Velocity P-wave (km/s) = 5.49447 6.78703 6.17467
#
# Compressibility (1/GPa) = 0.02767344
#
# Stress axis : x y z
#
# Youngs Moduli (GPa) = 67.74288 97.73883 64.16733
#
# Poissons Ratio (x) = 0.21961 0.10650
# Poissons Ratio (y) = 0.15221 0.16332
# Poissons Ratio (z) = 0.11244 0.24877
#
# Static dielectric constant tensor:
#      x y z
#    x 4.270050 0.025240 -0.017690 
#    y 0.025240 3.770100 0.149210 
#    z -0.017690 0.149210 4.722990 
# 
# 
# High freq. dielectric constant tensor:
#      x y z
#    x 1.916840 0.004230 0.013260 
#    y 0.004230 1.889730 0.008770 
#    z 0.013260 0.008770 1.932300 
# 
# From -- ./inp_files/23079.got.cif
#   From: 2010.06.25/outbox.cif.g09.slc.cpg/sg2_12_cif.got.tgz:23079.got - 2010.06.27 13:26:56.
