data_PCOD8019614
_publ_section_title
;
Structure prediction by ZEFSAII (Michael W. Deem and Ramdas Pophale) SiO2 
 PCOD8019614
Probable space group: P -1
;
_chemical_formula_sum "Si O2"
_cell_formula_units_Z 16
_cell_length_a 16.757068
_cell_length_b 12.906108
_cell_length_c 10.786103
_cell_angle_alpha 109.049920
_cell_angle_beta 134.002655
_cell_angle_gamma 34.448955
_cell_volume 755.204681
_symmetry_space_group_name_H-M "P -1"
_symmetry_group_IT_number 2
_symmetry_cell_setting 'triclinic'
loop_
_space_group_symop_operation_xyz
x,y,z
-x,-y,-z
loop_
_atom_site_type_symbol
_atom_site_label
_atom_site_fract_x
_atom_site_fract_y
_atom_site_fract_z
Si Si1 0.723671 0.730352 0.144369
Si Si2 0.864359 0.480722 0.436053
Si Si3 0.645773 0.321970 0.291155
Si Si4 0.746867 0.491609 0.946867
Si Si5 0.049003 0.135023 0.328394
Si Si6 0.908799 0.036681 0.229996
Si Si7 0.500178 0.369799 0.472634
Si Si8 0.472443 0.698198 0.236860
O O1 0.728126 0.666453 0.256644
O O2 0.957892 0.597624 0.326811
O O3 0.709716 0.653003 0.989960
O O4 0.500000 0.000000 0.000000
O O5 0.016769 0.250827 0.449534
O O6 0.667312 0.615057 0.373260
O O7 0.452342 0.408857 0.165990
O O8 0.791401 0.125973 0.272849
O O9 0.542420 0.518380 0.189150
O O10 0.814070 0.223488 0.547206
O O11 0.740598 0.469175 0.783691
O O12 0.988332 0.243459 0.172973
O O13 0.875703 0.185524 0.191701
O O14 0.307670 0.861631 0.493759
O O15 0.782461 0.059531 0.008381
O O16 0.500000 0.500000 0.500000
O O17 0.545568 0.293885 0.631638
#
# Coordination Sequence:
#
# PCOD8019614 Si02
#       8
#     2   2   2   2   2   2   2   2
#     4  10  22  41  69  91 119 156 214 272 312 357
#     4  10  23  41  65  97 117 160 215 260 314 365
#     4  11  21  34  57  93 123 158 203 251 306 381
#     4  11  22  39  60  89 123 169 209 253 313 368
#     4  11  20  37  63  82 128 165 204 254 307 369
#     4  11  20  32  57  86 121 164 195 245 314 360
#     4  12  24  39  57  93 134 171 207 242 303 385
#     4  12  23  39  59  90 136 161 200 257 307 374
#
# _framework density 21.186309000000001
#
# number of rings (size 3 to 8) (size 9 to 14) (size 15 to 20)
#    0.000    1.000    5.000    2.625    0.000    4.000 
#    0.000    0.625    0.000   10.500    0.000    0.000 
#    0.000    0.000    0.000    0.000    0.000    0.000 
#
# Total GULP energy -198252.017248 kJ/mol
# GULP energy per Si atom -12390.751078 kJ/mol
# Density = 2.113809 g / cm^3
# Si number density = 21.186309 Si / 1000 Ang^3
#
#
#
# Elastic Constant Matrix: (Units=GPa)
#
#
# Indices 1 2 3 4 5 6 
#
# 1 84.3707 10.8763 26.7293 7.1836 9.0667 6.6000
# 2 10.8763 76.3290 24.3641 -3.4865 5.7445 18.4185
# 3 26.7293 24.3641 108.1756 21.1752 -0.5050 10.5949
# 4 7.1836 -3.4865 21.1752 36.0950 3.3688 -0.5950
# 5 9.0667 5.7445 -0.5050 3.3688 34.6074 6.3411
# 6 6.6000 18.4185 10.5949 -0.5950 6.3411 22.8976
#
#
#
# Elastic Compliance Matrix: (Units=1/GPa)
#
#
# Indices 1 2 3 4 5 6 
#
# 1 0.013343 -0.000448 -0.002952 -0.000692 -0.003166 -0.001261
# 2 -0.000448 0.017345 -0.003343 0.003621 -0.000981 -0.011911
# 3 -0.002952 -0.003343 0.012500 -0.007385 0.002819 -0.003217
# 4 -0.000692 0.003621 -0.007385 0.032965 -0.004237 0.002734
# 5 -0.003166 -0.000981 0.002819 -0.004237 0.031908 -0.008550
# 6 -0.001261 -0.011911 -0.003217 0.002734 -0.008550 0.057544
#
#
# Mechanical properties :
#
#
# Convention : Reuss Voigt Hill
#
# Bulk Modulus (GPa) = 33.66611 43.64608 38.65610
# Shear Modulus (GPa) = 26.45610 32.51371 29.48491
#
# Velocity S-wave (km/s) = 3.53758 3.92172 3.73459
# Velocity P-wave (km/s) = 5.71060 6.41501 6.07302
#
# Compressibility (1/GPa) = 0.02970346
#
# Stress axis : x y z
#
# Youngs Moduli (GPa) = 74.94450 57.65241 79.99850
#
# Poissons Ratio (x) = 0.02584 0.23614
# Poissons Ratio (y) = 0.03359 0.26741
# Poissons Ratio (z) = 0.22122 0.19271
#
# Static dielectric constant tensor:
#      x y z
#    x 3.692670 0.121590 -0.125500 
#    y 0.121590 3.740460 -0.005000 
#    z -0.125500 -0.005000 4.214920 
# 
# 
# High freq. dielectric constant tensor:
#      x y z
#    x 1.807320 0.003990 -0.011030 
#    y 0.003990 1.808210 -0.011500 
#    z -0.011030 -0.011500 1.855590 
# 
# From -- ./inp_files/464700.got.cif
#   From: 2010.06.25/outbox.cif.g09.slc.cpg/sg2_233_cif.got.tgz:464700.got - 2010.06.27 13:26:56.
