data_PCOD8019666
_publ_section_title
;
Structure prediction by ZEFSAII (Michael W. Deem and Ramdas Pophale) SiO2 
 PCOD8019666
Probable space group: P -1
;
_chemical_formula_sum "Si O2"
_cell_formula_units_Z 16
_cell_length_a 13.085892
_cell_length_b 6.894848
_cell_length_c 29.040923
_cell_angle_alpha 127.743673
_cell_angle_beta 154.394982
_cell_angle_gamma 41.782587
_cell_volume 737.764438
_symmetry_space_group_name_H-M "P -1"
_symmetry_group_IT_number 2
_symmetry_cell_setting 'triclinic'
loop_
_space_group_symop_operation_xyz
x,y,z
-x,-y,-z
loop_
_atom_site_type_symbol
_atom_site_label
_atom_site_fract_x
_atom_site_fract_y
_atom_site_fract_z
Si Si1 0.973177 0.410064 0.244035
Si Si2 0.209239 0.653104 0.931619
Si Si3 0.941476 0.284021 0.491920
Si Si4 0.412641 0.883225 0.405888
Si Si5 0.726706 0.442190 0.329197
Si Si6 0.080949 0.047395 0.734493
Si Si7 0.469710 0.416791 0.091183
Si Si8 0.139363 0.686872 0.084263
O O1 0.006760 0.332252 0.191453
O O2 0.939361 0.723538 0.277560
O O3 0.702726 0.463225 0.169886
O O4 0.267987 0.144145 0.347013
O O5 0.500000 0.500000 0.000000
O O6 0.262836 0.451789 0.969918
O O7 0.111063 0.976194 0.956710
O O8 0.678415 0.589492 0.449758
O O9 0.866416 0.253705 0.404958
O O10 0.222261 0.293260 0.611949
O O11 0.000000 0.000000 0.500000
O O12 0.196083 0.800548 0.323475
O O13 0.500000 0.000000 0.500000
O O14 0.389525 0.570230 0.207522
O O15 0.893253 0.222873 0.322038
O O16 0.363252 0.905203 0.862124
O O17 0.275590 0.669092 0.087098
O O18 0.000000 0.500000 0.000000
#
# Coordination Sequence:
#
# PCOD8019666 Si02
#       8
#     2   2   2   2   2   2   2   2
#     4  10  23  42  68  95 140 174 222 284 341 389
#     4  10  22  42  64  95 135 170 222 283 322 399
#     4  11  25  45  70  98 133 180 222 283 347 387
#     4  11  23  42  65 101 132 167 228 276 332 416
#     4  10  24  44  66  97 141 169 233 280 326 419
#     4  10  22  41  69  99 130 181 215 279 344 402
#     4   9  22  41  65  96 135 170 231 268 327 408
#     4  11  24  44  69  99 137 183 225 275 344 403
#
# _framework density 21.687138999999998
#
# number of rings (size 3 to 8) (size 9 to 14) (size 15 to 20)
#    0.000    1.750    1.250    1.125    8.750    4.000 
#    9.000    0.000    0.000    0.000    0.000    0.000 
#    0.000    0.000    0.000    0.000    0.000    0.000 
#
# Total GULP energy -198296.917661 kJ/mol
# GULP energy per Si atom -12393.557354 kJ/mol
# Density = 2.163778 g / cm^3
# Si number density = 21.687139 Si / 1000 Ang^3
#
#
#
# Elastic Constant Matrix: (Units=GPa)
#
#
# Indices 1 2 3 4 5 6 
#
# 1 98.7898 48.8099 49.5469 -10.1556 -15.0415 4.6139
# 2 48.8099 113.9890 55.2003 -14.4143 -1.6561 16.6130
# 3 49.5469 55.2003 140.1648 -8.1822 -21.4564 9.9900
# 4 -10.1556 -14.4143 -8.1822 29.2065 1.3630 -1.2324
# 5 -15.0415 -1.6561 -21.4564 1.3630 41.5393 -6.0811
# 6 4.6139 16.6130 9.9900 -1.2324 -6.0811 45.8535
#
#
#
# Elastic Compliance Matrix: (Units=1/GPa)
#
#
# Indices 1 2 3 4 5 6 
#
# 1 0.014563 -0.004891 -0.002627 0.001794 0.003874 0.001441
# 2 -0.004891 0.013729 -0.003747 0.004035 -0.003888 -0.004073
# 3 -0.002627 -0.003747 0.010171 -0.000109 0.004150 -0.000047
# 4 0.001794 0.004035 -0.000109 0.036820 -0.000557 -0.000703
# 5 0.003874 -0.003888 0.004150 -0.000557 0.028042 0.003819
# 6 0.001441 -0.004073 -0.000047 -0.000703 0.003819 0.023637
#
#
# Mechanical properties :
#
#
# Convention : Reuss Voigt Hill
#
# Bulk Modulus (GPa) = 62.76090 73.33977 68.05033
# Shear Modulus (GPa) = 32.29907 36.61228 34.45568
#
# Velocity S-wave (km/s) = 3.86336 4.11323 3.99025
# Velocity P-wave (km/s) = 6.99305 7.51324 7.25781
#
# Compressibility (1/GPa) = 0.01593349
#
# Stress axis : x y z
#
# Youngs Moduli (GPa) = 68.66558 72.83885 98.31849
#
# Poissons Ratio (x) = 0.35623 0.25827
# Poissons Ratio (y) = 0.33582 0.36843
# Poissons Ratio (z) = 0.18038 0.27295
#
# Static dielectric constant tensor:
#      x y z
#    x 4.230850 -0.097330 -0.325800 
#    y -0.097330 3.804380 -0.167860 
#    z -0.325800 -0.167860 4.340880 
# 
# 
# High freq. dielectric constant tensor:
#      x y z
#    x 1.862110 -0.007800 -0.014390 
#    y -0.007800 1.838240 -0.014730 
#    z -0.014390 -0.014730 1.857690 
# 
# From -- ./inp_files/617934.got.cif
#   From: 2010.06.25/outbox.cif.g09.slc.cpg/sg2_309_cif.got.tgz:617934.got - 2010.06.27 13:26:56.
