data_PCOD8019393
_publ_section_title
;
Structure prediction by ZEFSAII (Michael W. Deem and Ramdas Pophale) SiO2 
 PCOD8019393
Probable space group: P -1
;
_chemical_formula_sum "Si O2"
_cell_formula_units_Z 16
_cell_length_a 8.832573
_cell_length_b 18.138311
_cell_length_c 19.732472
_cell_angle_alpha 20.155635
_cell_angle_beta 61.431791
_cell_angle_gamma 50.761623
_cell_volume 760.415032
_symmetry_space_group_name_H-M "P -1"
_symmetry_group_IT_number 2
_symmetry_cell_setting 'triclinic'
loop_
_space_group_symop_operation_xyz
x,y,z
-x,-y,-z
loop_
_atom_site_type_symbol
_atom_site_label
_atom_site_fract_x
_atom_site_fract_y
_atom_site_fract_z
Si Si1 0.935320 0.586563 0.515158
Si Si2 0.787976 0.938973 0.451495
Si Si3 0.502434 0.299491 0.458871
Si Si4 0.464013 0.291197 0.325947
Si Si5 0.628623 0.710633 0.254273
Si Si6 0.723594 0.524744 0.252773
Si Si7 0.844984 0.094524 0.163421
Si Si8 0.300178 0.960928 0.218185
O O1 0.747434 0.561092 0.594206
O O2 0.000000 0.500000 0.500000
O O3 0.139991 0.369895 0.703784
O O4 0.867552 0.883147 0.287724
O O5 0.697576 0.767330 0.616385
O O6 0.039513 0.738988 0.589833
O O7 0.665389 0.166263 0.339552
O O8 0.747690 0.084047 0.263702
O O9 0.559133 0.158989 0.494072
O O10 0.543626 0.523886 0.251697
O O11 0.657890 0.094620 0.662428
O O12 0.327266 0.611974 0.084345
O O13 0.680335 0.504320 0.360321
O O14 0.493693 0.712055 0.345066
O O15 0.500000 0.000000 0.000000
O O16 0.696306 0.789870 0.011519
O O17 0.074708 0.033950 0.179131
#
# Coordination Sequence:
#
# PCOD8019393 Si02
#       8
#     2   2   2   2   2   2   2   2
#     4  12  25  42  66 102 141 173 219 275 335 392
#     4  11  22  47  71  97 133 176 232 279 332 405
#     4  12  25  42  65  96 139 172 216 283 331 390
#     4  11  26  43  72 100 131 177 229 284 337 388
#     4  10  22  41  67  94 130 179 224 260 329 408
#     4  11  23  43  68  97 134 177 227 270 333 405
#     4  12  24  45  72  96 138 177 225 274 334 409
#     4  11  24  42  67  98 133 181 220 270 334 402
#
# _framework density 21.041142000000001
#
# number of rings (size 3 to 8) (size 9 to 14) (size 15 to 20)
#    0.000    0.750    6.250    0.375    5.250    1.500 
#    0.000    3.750    0.000    0.000    0.000    0.000 
#    0.000    0.000    0.000    0.000    0.000    0.000 
#
# Total GULP energy -198393.117119 kJ/mol
# GULP energy per Si atom -12399.569820 kJ/mol
# Density = 2.099325 g / cm^3
# Si number density = 21.041142 Si / 1000 Ang^3
#
#
#
# Elastic Constant Matrix: (Units=GPa)
#
#
# Indices 1 2 3 4 5 6 
#
# 1 125.0880 62.0853 43.9834 -21.6057 -5.3670 -1.6311
# 2 62.0853 163.1609 46.8857 -15.1979 -3.8931 6.2802
# 3 43.9834 46.8857 84.9353 -12.9617 1.4067 -3.9011
# 4 -21.6057 -15.1979 -12.9617 28.7134 -2.9056 1.4477
# 5 -5.3670 -3.8931 1.4067 -2.9056 30.9513 6.3146
# 6 -1.6311 6.2802 -3.9011 1.4477 6.3146 37.7614
#
#
#
# Elastic Compliance Matrix: (Units=1/GPa)
#
#
# Indices 1 2 3 4 5 6 
#
# 1 0.011834 -0.002823 -0.003698 0.005990 0.002435 -0.000038
# 2 -0.002823 0.008295 -0.003063 0.001111 0.001219 -0.002064
# 3 -0.003698 -0.003063 0.015889 0.002457 -0.001972 0.002227
# 4 0.005990 0.001111 0.002457 0.041690 0.005425 -0.002178
# 5 0.002435 0.001219 -0.001972 0.005425 0.034774 -0.006324
# 6 -0.000038 -0.002064 0.002227 -0.002178 -0.006324 0.028195
#
#
# Mechanical properties :
#
#
# Convention : Reuss Voigt Hill
#
# Bulk Modulus (GPa) = 59.34204 75.45478 67.39841
# Shear Modulus (GPa) = 30.21847 34.16721 32.19284
#
# Velocity S-wave (km/s) = 3.79378 4.03405 3.91576
# Velocity P-wave (km/s) = 6.88872 7.59187 7.24883
#
# Compressibility (1/GPa) = 0.01685146
#
# Stress axis : x y z
#
# Youngs Moduli (GPa) = 84.49959 120.55111 62.93572
#
# Poissons Ratio (x) = 0.34032 0.23274
# Poissons Ratio (y) = 0.23854 0.19275
# Poissons Ratio (z) = 0.31248 0.36920
#
# Static dielectric constant tensor:
#      x y z
#    x 3.935680 0.025000 -0.100490 
#    y 0.025000 4.257150 0.015910 
#    z -0.100490 0.015910 3.746150 
# 
# 
# High freq. dielectric constant tensor:
#      x y z
#    x 1.832830 -0.003410 -0.005040 
#    y -0.003410 1.837580 0.005490 
#    z -0.005040 0.005490 1.815950 
# 
# From -- ./inp_files/590884.got.cif
#   From: 2010.06.25/outbox.cif.g09.slc.cpg/sg2_296_cif.got.tgz:590884.got - 2010.06.27 13:26:56.
