data_PCOD8019210
_publ_section_title
;
Structure prediction by ZEFSAII (Michael W. Deem and Ramdas Pophale) SiO2 
 PCOD8019210
Probable space group: P -1
;
_chemical_formula_sum "Si O2"
_cell_formula_units_Z 16
_cell_length_a 7.522471
_cell_length_b 17.081545
_cell_length_c 10.672182
_cell_angle_alpha 34.834661
_cell_angle_beta 79.258854
_cell_angle_gamma 86.291440
_cell_volume 760.007084
_symmetry_space_group_name_H-M "P -1"
_symmetry_group_IT_number 2
_symmetry_cell_setting 'triclinic'
loop_
_space_group_symop_operation_xyz
x,y,z
-x,-y,-z
loop_
_atom_site_type_symbol
_atom_site_label
_atom_site_fract_x
_atom_site_fract_y
_atom_site_fract_z
Si Si1 0.327548 0.401536 0.708099
Si Si2 0.704156 0.000407 0.436981
Si Si3 0.255740 0.706736 0.871618
Si Si4 0.004363 0.695464 0.689061
Si Si5 0.128409 0.058717 0.747261
Si Si6 0.668295 0.709444 0.873522
Si Si7 0.857338 0.790204 0.211204
Si Si8 0.989770 0.533823 0.656493
O O1 0.500000 0.500000 0.500000
O O2 0.287538 0.260475 0.813779
O O3 0.155678 0.482674 0.628597
O O4 0.371449 0.364288 0.892554
O O5 0.711278 0.970854 0.326413
O O6 0.768261 0.869695 0.672647
O O7 0.500000 0.000000 0.500000
O O8 0.812220 0.150482 0.261462
O O9 0.474020 0.708396 0.830219
O O10 0.172045 0.685705 0.772276
O O11 0.175102 0.593360 0.134539
O O12 0.005207 0.848102 0.427771
O O13 0.808618 0.641678 0.855239
O O14 0.041720 0.590402 0.713835
O O15 0.226884 0.142256 0.744572
O O16 0.018170 0.908546 0.990221
O O17 0.931298 0.650964 0.422878
#
# Coordination Sequence:
#
# PCOD8019210 Si02
#       8
#     2   2   2   2   2   2   2   2
#     4  12  25  41  60  91 131 170 214 255 307 384
#     4   9  20  37  59  95 122 152 204 256 310 366
#     4  11  21  38  66  94 129 163 194 265 321 366
#     4  10  22  41  65  97 126 158 208 263 318 370
#     4   9  20  39  67  93 118 163 217 255 309 377
#     4  10  23  40  62  98 124 160 211 257 313 377
#     4  10  22  41  66  87 122 171 211 256 310 369
#     4  11  23  42  62  93 125 167 214 253 314 376
#
# _framework density 21.052436
#
# number of rings (size 3 to 8) (size 9 to 14) (size 15 to 20)
#    0.000    1.750    1.250    2.250    1.750    3.500 
#    9.000    0.000    0.000    5.250    0.000    0.000 
#    0.000    0.000    0.000    0.000    0.000    0.000 
#
# Total GULP energy -198260.784123 kJ/mol
# GULP energy per Si atom -12391.299008 kJ/mol
# Density = 2.100452 g / cm^3
# Si number density = 21.052436 Si / 1000 Ang^3
#
#
#
# Elastic Constant Matrix: (Units=GPa)
#
#
# Indices 1 2 3 4 5 6 
#
# 1 68.8330 32.9781 14.6777 3.7475 -5.3466 7.8723
# 2 32.9781 107.2692 29.3772 7.7395 -22.1716 -4.2236
# 3 14.6777 29.3772 129.7968 -3.7951 -16.3033 -1.0062
# 4 3.7475 7.7395 -3.7951 39.2573 2.4036 -2.1881
# 5 -5.3466 -22.1716 -16.3033 2.4036 22.1032 1.3462
# 6 7.8723 -4.2236 -1.0062 -2.1881 1.3462 21.1741
#
#
#
# Elastic Compliance Matrix: (Units=1/GPa)
#
#
# Indices 1 2 3 4 5 6 
#
# 1 0.018471 -0.005991 -0.001040 -0.001031 -0.001702 -0.008110
# 2 -0.005991 0.014352 -0.001090 -0.002890 0.012216 0.003963
# 3 -0.001040 -0.001090 0.008721 0.000873 0.004971 0.000358
# 4 -0.001031 -0.002890 0.000873 0.026733 -0.005592 0.002966
# 5 -0.001702 0.012216 0.004971 -0.005592 0.061431 -0.001178
# 6 -0.008110 0.003963 0.000358 0.002966 -0.001178 0.051432
#
#
# Mechanical properties :
#
#
# Convention : Reuss Voigt Hill
#
# Bulk Modulus (GPa) = 39.52022 51.10722 45.31372
# Shear Modulus (GPa) = 24.29349 31.76465 28.02907
#
# Velocity S-wave (km/s) = 3.40067 3.88859 3.65278
# Velocity P-wave (km/s) = 5.85085 6.67011 6.27387
#
# Compressibility (1/GPa) = 0.02530350
#
# Stress axis : x y z
#
# Youngs Moduli (GPa) = 54.13838 69.67569 114.66084
#
# Poissons Ratio (x) = 0.41741 0.11921
# Poissons Ratio (y) = 0.32433 0.12501
# Poissons Ratio (z) = 0.05629 0.07597
#
# Static dielectric constant tensor:
#      x y z
#    x 3.288700 -0.159740 0.063610 
#    y -0.159740 4.658810 -0.373280 
#    z 0.063610 -0.373280 4.337370 
# 
# 
# High freq. dielectric constant tensor:
#      x y z
#    x 1.790590 -0.008900 -0.000790 
#    y -0.008900 1.841180 -0.002190 
#    z -0.000790 -0.002190 1.849140 
# 
# From -- ./inp_files/205183.got.cif
#   From: 2010.06.25/outbox.cif.g09.slc.cpg/sg2_103_cif.got.tgz:205183.got - 2010.06.27 13:26:56.
