data_PCOD8019181
_publ_section_title
;
Structure prediction by ZEFSAII (Michael W. Deem and Ramdas Pophale) SiO2 
 PCOD8019181
Probable space group: P -1
;
_chemical_formula_sum "Si O2"
_cell_formula_units_Z 16
_cell_length_a 17.153079
_cell_length_b 19.872589
_cell_length_c 8.792232
_cell_angle_alpha 130.772974
_cell_angle_beta 119.900310
_cell_angle_gamma 21.711952
_cell_volume 774.450261
_symmetry_space_group_name_H-M "P -1"
_symmetry_group_IT_number 2
_symmetry_cell_setting 'triclinic'
loop_
_space_group_symop_operation_xyz
x,y,z
-x,-y,-z
loop_
_atom_site_type_symbol
_atom_site_label
_atom_site_fract_x
_atom_site_fract_y
_atom_site_fract_z
Si Si1 0.411502 0.671558 0.097868
Si Si2 0.839788 0.882911 0.098755
Si Si3 0.339813 0.381364 0.779461
Si Si4 0.042690 0.052366 0.533998
Si Si5 0.246799 0.295895 0.012344
Si Si6 0.458483 0.130615 0.283887
Si Si7 0.541411 0.548055 0.710689
Si Si8 0.521262 0.200434 0.007675
O O1 0.593448 0.585007 0.182086
O O2 0.169880 0.917454 0.299653
O O3 0.500000 0.500000 0.000000
O O4 0.383110 0.684454 0.908396
O O5 0.818712 0.004588 0.311246
O O6 0.676615 0.975182 0.184854
O O7 0.756675 0.951241 0.942948
O O8 0.090646 0.613628 0.954543
O O9 0.342302 0.301390 0.542153
O O10 0.521176 0.195519 0.816891
O O11 0.804798 0.316279 0.666040
O O12 0.000000 0.000000 0.500000
O O13 0.440023 0.046806 0.787650
O O14 0.260128 0.285940 0.196810
O O15 0.312358 0.332775 0.066009
O O16 0.000000 0.500000 0.000000
O O17 0.500000 0.500000 0.500000
O O18 0.494552 0.682822 0.778114
#
# Coordination Sequence:
#
# PCOD8019181 Si02
#       8
#     2   2   2   2   2   2   2   2
#     4  11  22  37  61  94 122 168 217 257 319 386
#     4  11  21  41  65  88 127 170 208 261 325 370
#     4  11  22  41  64  93 128 164 216 265 318 384
#     4  12  21  38  66  87 124 175 206 265 322 369
#     4  10  22  41  65  94 131 168 212 265 325 383
#     4  10  23  41  66  93 124 170 217 261 318 387
#     4  11  24  41  62  94 134 165 216 269 315 383
#     4  10  23  40  62  96 128 164 214 266 315 382
#
# _framework density 20.659818000000001
#
# number of rings (size 3 to 8) (size 9 to 14) (size 15 to 20)
#    0.000    1.250    5.000    1.500    0.000    2.000 
#    0.000   13.750    0.000    0.000    0.000    0.000 
#    0.000    0.000    0.000    0.000    0.000    0.000 
#
# Total GULP energy -198314.937552 kJ/mol
# GULP energy per Si atom -12394.683597 kJ/mol
# Density = 2.061280 g / cm^3
# Si number density = 20.659818 Si / 1000 Ang^3
#
#
#
# Elastic Constant Matrix: (Units=GPa)
#
#
# Indices 1 2 3 4 5 6 
#
# 1 108.1098 28.7744 36.4824 -5.0345 10.2291 2.7179
# 2 28.7744 95.6653 37.7669 -15.6183 -3.5979 2.5058
# 3 36.4824 37.7669 144.4802 -12.7238 2.0487 -4.9155
# 4 -5.0345 -15.6183 -12.7238 30.1612 -10.7815 4.6388
# 5 10.2291 -3.5979 2.0487 -10.7815 37.9856 1.7329
# 6 2.7179 2.5058 -4.9155 4.6388 1.7329 29.4681
#
#
#
# Elastic Compliance Matrix: (Units=1/GPa)
#
#
# Indices 1 2 3 4 5 6 
#
# 1 0.011014 -0.002862 -0.002157 -0.001735 -0.003584 -0.000648
# 2 -0.002862 0.013738 -0.002350 0.007681 0.004505 -0.002770
# 3 -0.002157 -0.002350 0.008286 0.001821 0.000361 0.001473
# 4 -0.001735 0.007681 0.001821 0.043790 0.013886 -0.007899
# 5 -0.003584 0.004505 0.000361 0.013886 0.031824 -0.004050
# 6 -0.000648 -0.002770 0.001473 -0.007899 -0.004050 0.035958
#
#
# Mechanical properties :
#
#
# Convention : Reuss Voigt Hill
#
# Bulk Modulus (GPa) = 54.64769 61.58919 58.11844
# Shear Modulus (GPa) = 30.22104 35.87175 33.04639
#
# Velocity S-wave (km/s) = 3.82880 4.17142 4.00378
# Velocity P-wave (km/s) = 6.78637 7.28538 7.04030
#
# Compressibility (1/GPa) = 0.01829904
#
# Stress axis : x y z
#
# Youngs Moduli (GPa) = 90.79213 72.79178 120.69050
#
# Poissons Ratio (x) = 0.20836 0.26033
# Poissons Ratio (y) = 0.25988 0.28362
# Poissons Ratio (z) = 0.19584 0.17106
#
# Static dielectric constant tensor:
#      x y z
#    x 3.936750 -0.063270 0.214400 
#    y -0.063270 3.593160 -0.159460 
#    z 0.214400 -0.159460 3.931240 
# 
# 
# High freq. dielectric constant tensor:
#      x y z
#    x 1.823330 -0.000570 0.019910 
#    y -0.000570 1.802980 -0.009950 
#    z 0.019910 -0.009950 1.800950 
# 
# From -- ./inp_files/337810.got.cif
#   From: 2010.06.25/outbox.cif.g09.slc.cpg/sg2_169_cif.got.tgz:337810.got - 2010.06.27 13:26:56.
