data_PCOD8019345
_publ_section_title
;
Structure prediction by ZEFSAII (Michael W. Deem and Ramdas Pophale) SiO2 
 PCOD8019345
Probable space group: P -1
;
_chemical_formula_sum "Si O2"
_cell_formula_units_Z 16
_cell_length_a 14.671572
_cell_length_b 11.764127
_cell_length_c 9.316992
_cell_angle_alpha 53.099720
_cell_angle_beta 132.257787
_cell_angle_gamma 139.841533
_cell_volume 754.857489
_symmetry_space_group_name_H-M "P -1"
_symmetry_group_IT_number 2
_symmetry_cell_setting 'triclinic'
loop_
_space_group_symop_operation_xyz
x,y,z
-x,-y,-z
loop_
_atom_site_type_symbol
_atom_site_label
_atom_site_fract_x
_atom_site_fract_y
_atom_site_fract_z
Si Si1 0.199087 0.485889 0.966431
Si Si2 0.483325 0.335066 0.681138
Si Si3 0.690655 0.802575 0.105944
Si Si4 0.948271 0.365551 0.415112
Si Si5 0.470507 0.144645 0.335897
Si Si6 0.263792 0.475362 0.715959
Si Si7 0.979711 0.924045 0.875395
Si Si8 0.725679 0.958493 0.530702
O O1 0.100529 0.563466 0.820113
O O2 0.261142 0.517103 0.847092
O O3 0.345475 0.592055 0.145908
O O4 0.079571 0.277365 0.030672
O O5 0.500000 0.500000 0.500000
O O6 0.357565 0.249393 0.740878
O O7 0.420573 0.170704 0.630434
O O8 0.666038 0.632768 0.133511
O O9 0.581085 0.846345 0.885804
O O10 0.868756 0.971973 0.142689
O O11 0.000000 0.500000 0.500000
O O12 0.095127 0.365190 0.541691
O O13 0.795283 0.165022 0.434984
O O14 0.627656 0.338135 0.395802
O O15 0.331289 0.100220 0.322497
O O16 0.500000 0.000000 0.500000
O O17 0.854327 0.930910 0.654407
O O18 0.000000 0.000000 0.000000
#
# Coordination Sequence:
#
# PCOD8019345 Si02
#       8
#     2   2   2   2   2   2   2   2
#     4  11  22  41  66  97 137 179 222 280 341 404
#     4  12  27  46  67 100 142 189 228 276 340 420
#     4  12  25  42  70  98 137 181 233 281 341 401
#     4  10  22  41  67 100 131 173 223 282 345 394
#     4  12  25  40  68 106 135 169 231 289 339 405
#     4  11  21  40  68  97 132 172 232 286 334 389
#     4  12  21  40  71 101 127 177 232 290 330 390
#     4  12  24  45  68  97 140 180 224 280 345 405
#
# _framework density 21.196054
#
# number of rings (size 3 to 8) (size 9 to 14) (size 15 to 20)
#    0.000    0.500    6.250    3.375    1.750    1.000 
#    0.000    0.000    0.000    3.750    0.000    0.000 
#    0.000    0.000    0.000    0.000    0.000    0.000 
#
# Total GULP energy -198376.165169 kJ/mol
# GULP energy per Si atom -12398.510323 kJ/mol
# Density = 2.114781 g / cm^3
# Si number density = 21.196054 Si / 1000 Ang^3
#
#
#
# Elastic Constant Matrix: (Units=GPa)
#
#
# Indices 1 2 3 4 5 6 
#
# 1 56.4233 26.7198 35.3029 -10.9381 -3.9618 17.9675
# 2 26.7198 174.1203 60.9732 -19.6739 -4.6736 16.7557
# 3 35.3029 60.9732 141.7531 -9.0383 15.9031 4.4311
# 4 -10.9381 -19.6739 -9.0383 43.4097 1.0686 -0.8967
# 5 -3.9618 -4.6736 15.9031 1.0686 27.7031 -6.3567
# 6 17.9675 16.7557 4.4311 -0.8967 -6.3567 35.3760
#
#
#
# Elastic Compliance Matrix: (Units=1/GPa)
#
#
# Indices 1 2 3 4 5 6 
#
# 1 0.026899 -0.000002 -0.006529 0.005057 0.004675 -0.011875
# 2 -0.000002 0.007494 -0.003246 0.002606 0.002421 -0.002641
# 3 -0.006529 -0.003246 0.010766 -0.000653 -0.007130 0.002207
# 4 0.005057 0.002606 -0.000653 0.025295 -0.000151 -0.003107
# 5 0.004675 0.002421 -0.007130 -0.000151 0.042418 0.004991
# 6 -0.011875 -0.002641 0.002207 -0.003107 0.004991 0.036092
#
#
# Mechanical properties :
#
#
# Convention : Reuss Voigt Hill
#
# Bulk Modulus (GPa) = 39.05397 68.69873 53.87635
# Shear Modulus (GPa) = 28.24030 37.91780 33.07905
#
# Velocity S-wave (km/s) = 3.65408 4.23414 3.95476
# Velocity P-wave (km/s) = 6.02231 7.50902 6.80638
#
# Compressibility (1/GPa) = 0.02560559
#
# Stress axis : x y z
#
# Youngs Moduli (GPa) = 37.17542 133.44855 92.88614
#
# Poissons Ratio (x) = 0.00024 0.60647
# Poissons Ratio (y) = 0.00007 0.30148
# Poissons Ratio (z) = 0.24272 0.43313
#
# Static dielectric constant tensor:
#      x y z
#    x 3.904120 0.315110 0.395800 
#    y 0.315110 4.019430 -0.058260 
#    z 0.395800 -0.058260 4.175710 
# 
# 
# High freq. dielectric constant tensor:
#      x y z
#    x 1.806220 0.025200 0.021540 
#    y 0.025200 1.848040 -0.013360 
#    z 0.021540 -0.013360 1.834600 
# 
# From -- ./inp_files/187532.got.cif
#   From: 2010.06.25/outbox.cif.g09.slc.cpg/sg2_94_cif.got.tgz:187532.got - 2010.06.27 13:26:56.
