data_PCOD8019234
_publ_section_title
;
Structure prediction by ZEFSAII (Michael W. Deem and Ramdas Pophale) SiO2 
 PCOD8019234
Probable space group: P -1
;
_chemical_formula_sum "Si O2"
_cell_formula_units_Z 16
_cell_length_a 17.115162
_cell_length_b 8.987033
_cell_length_c 6.429440
_cell_angle_alpha 107.534008
_cell_angle_beta 135.901454
_cell_angle_gamma 72.408611
_cell_volume 650.706085
_symmetry_space_group_name_H-M "P -1"
_symmetry_group_IT_number 2
_symmetry_cell_setting 'triclinic'
loop_
_space_group_symop_operation_xyz
x,y,z
-x,-y,-z
loop_
_atom_site_type_symbol
_atom_site_label
_atom_site_fract_x
_atom_site_fract_y
_atom_site_fract_z
Si Si1 0.086121 0.730949 0.250290
Si Si2 0.617755 0.778179 0.228771
Si Si3 0.170944 0.967342 0.775717
Si Si4 0.375289 0.467784 0.190729
Si Si5 0.996225 0.503069 0.737124
Si Si6 0.776331 0.706112 0.875582
Si Si7 0.623294 0.081813 0.137212
Si Si8 0.748351 0.222142 0.772945
O O1 0.070691 0.901392 0.414875
O O2 0.188976 0.720272 0.283959
O O3 0.099760 0.598819 0.406383
O O4 0.980930 0.681010 0.885285
O O5 0.720148 0.777432 0.585701
O O6 0.627760 0.895050 0.102435
O O7 0.622586 0.604353 0.066847
O O8 0.497873 0.832726 0.137113
O O9 0.287839 0.889059 0.858969
O O10 0.171656 0.903089 0.986436
O O11 0.163161 0.155724 0.836990
O O12 0.500000 0.500000 0.500000
O O13 0.323526 0.352706 0.205660
O O14 0.294903 0.632538 0.101322
O O15 0.000000 0.500000 0.500000
O O16 0.121210 0.430504 0.027253
O O17 0.645250 0.146558 0.439034
#
# Coordination Sequence:
#
# PCOD8019234 Si02
#       8
#     2   2   2   2   2   2   2   2
#     4  10  24  45  72 103 132 182 228 279 357 410
#     4  11  24  41  66  99 140 183 234 282 331 408
#     4  11  24  43  71 102 140 185 227 283 343 413
#     4  12  26  42  65 105 141 183 230 287 339 401
#     4  11  25  49  73 103 137 179 226 293 355 410
#     4  12  27  45  70 103 137 180 236 284 344 413
#     4  10  22  41  65  99 141 186 227 272 341 402
#     4  11  22  43  67 101 141 182 229 282 338 408
#
# _framework density 24.588674000000001
#
# number of rings (size 3 to 8) (size 9 to 14) (size 15 to 20)
#    0.000    1.000    5.000    0.750    3.500    2.500 
#    0.000    1.250    0.000    0.000    0.000    0.000 
#    0.000    0.000    0.000    0.000    0.000    0.000 
#
# Total GULP energy -198212.171279 kJ/mol
# GULP energy per Si atom -12388.260705 kJ/mol
# Density = 2.453271 g / cm^3
# Si number density = 24.588674 Si / 1000 Ang^3
#
#
#
# Elastic Constant Matrix: (Units=GPa)
#
#
# Indices 1 2 3 4 5 6 
#
# 1 67.7946 8.8126 13.0617 -7.3217 -6.0126 30.9742
# 2 8.8126 84.8649 29.3272 27.3254 1.3118 9.4423
# 3 13.0617 29.3272 107.8842 17.9751 -7.6901 1.0150
# 4 -7.3217 27.3254 17.9751 54.0667 -1.6452 3.4786
# 5 -6.0126 1.3118 -7.6901 -1.6452 36.2028 4.9071
# 6 30.9742 9.4423 1.0150 3.4786 4.9071 33.9830
#
#
#
# Elastic Compliance Matrix: (Units=1/GPa)
#
#
# Indices 1 2 3 4 5 6 
#
# 1 0.031030 -0.001395 -0.003865 0.008385 0.008818 -0.029911
# 2 -0.001395 0.015423 -0.002957 -0.006916 -0.001461 -0.002007
# 3 -0.003865 -0.002957 0.011072 -0.002943 0.001121 0.004153
# 4 0.008385 -0.006916 -0.002943 0.024762 0.003315 -0.008646
# 5 0.008818 -0.001461 0.001121 0.003315 0.031224 -0.012513
# 6 -0.029911 -0.002007 0.004153 -0.008646 -0.012513 0.059815
#
#
# Mechanical properties :
#
#
# Convention : Reuss Voigt Hill
#
# Bulk Modulus (GPa) = 24.33534 40.32742 32.33138
# Shear Modulus (GPa) = 24.57541 38.80664 31.69103
#
# Velocity S-wave (km/s) = 3.16485 3.97701 3.59395
# Velocity P-wave (km/s) = 4.82426 6.12578 5.51356
#
# Compressibility (1/GPa) = 0.04109250
#
# Stress axis : x y z
#
# Youngs Moduli (GPa) = 32.22707 64.83953 90.31794
#
# Poissons Ratio (x) = 0.09043 0.34905
# Poissons Ratio (y) = 0.04495 0.26703
# Poissons Ratio (z) = 0.12455 0.19170
#
# Static dielectric constant tensor:
#      x y z
#    x 4.511100 0.115050 0.002600 
#    y 0.115050 4.568680 0.621390 
#    z 0.002600 0.621390 4.519930 
# 
# 
# High freq. dielectric constant tensor:
#      x y z
#    x 1.983980 0.012310 -0.010650 
#    y 0.012310 1.975250 0.038200 
#    z -0.010650 0.038200 1.970370 
# 
# From -- ./inp_files/37627.got.cif
#   From: 2010.06.25/outbox.cif.g09.slc.cpg/sg2_19_cif.got.tgz:37627.got - 2010.06.27 13:26:56.
