data_PCOD8019659
_publ_section_title
;
Structure prediction by ZEFSAII (Michael W. Deem and Ramdas Pophale) SiO2 
 PCOD8019659
Probable space group: P -1
;
_chemical_formula_sum "Si O2"
_cell_formula_units_Z 12
_cell_length_a 9.092819
_cell_length_b 12.013967
_cell_length_c 14.371118
_cell_angle_alpha 27.531953
_cell_angle_beta 131.533972
_cell_angle_gamma 134.856034
_cell_volume 511.021906
_symmetry_space_group_name_H-M "P -1"
_symmetry_group_IT_number 2
_symmetry_cell_setting 'triclinic'
loop_
_space_group_symop_operation_xyz
x,y,z
-x,-y,-z
loop_
_atom_site_type_symbol
_atom_site_label
_atom_site_fract_x
_atom_site_fract_y
_atom_site_fract_z
Si Si1 0.236273 0.626357 0.419019
Si Si2 0.741000 0.564361 0.077111
Si Si3 0.462203 0.733982 0.627628
Si Si4 0.555242 0.007984 0.909071
Si Si5 0.049523 0.124230 0.805096
Si Si6 0.222321 0.568111 0.997942
O O1 0.390328 0.739447 0.487296
O O2 0.363348 0.707171 0.314741
O O3 0.122534 0.319774 0.602526
O O4 0.057062 0.756897 0.248561
O O5 0.739354 0.467940 0.253630
O O6 0.815496 0.403681 0.149400
O O7 0.500000 0.500000 0.000000
O O8 0.884992 0.856226 0.902898
O O9 0.500000 0.000000 0.500000
O O10 0.667104 0.646656 0.779383
O O11 0.355936 0.841268 0.892429
O O12 0.500000 0.000000 0.000000
O O13 0.736758 0.891164 0.052880
O O14 0.000000 0.500000 0.000000
#
# Coordination Sequence:
#
# PCOD8019659 Si02
#       6
#     2   2   2   2   2   2
#     4  11  24  41  72 104 134 176 239 286 343 408
#     4  10  22  41  69  97 142 178 226 283 351 405
#     4  11  22  42  70 107 137 177 237 291 341 417
#     4  12  26  46  69  98 144 185 225 283 353 421
#     4  11  24  43  70 103 135 180 230 289 346 412
#     4  11  23  46  67  98 141 187 225 285 352 413
#
# _framework density 23.482358999999999
#
# number of rings (size 3 to 8) (size 9 to 14) (size 15 to 20)
#    0.000    1.000    1.667    6.500    4.667    0.667 
#    0.000    3.333    0.000    0.000    0.000    0.000 
#    0.000    0.000    0.000    0.000    0.000    0.000 
#
# Total GULP energy -148658.247881 kJ/mol
# GULP energy per Si atom -12388.187323 kJ/mol
# Density = 2.342891 g / cm^3
# Si number density = 23.482359 Si / 1000 Ang^3
#
#
#
# Elastic Constant Matrix: (Units=GPa)
#
#
# Indices 1 2 3 4 5 6 
#
# 1 172.4794 56.8271 77.9562 -3.1029 -40.5954 12.0027
# 2 56.8271 117.1598 38.6042 -24.1159 -21.3299 17.2840
# 3 77.9562 38.6042 83.7787 -13.5711 -26.4120 1.0868
# 4 -3.1029 -24.1159 -13.5711 44.6935 9.6029 -6.1672
# 5 -40.5954 -21.3299 -26.4120 9.6029 55.5902 7.6689
# 6 12.0027 17.2840 1.0868 -6.1672 7.6689 41.2203
#
#
#
# Elastic Compliance Matrix: (Units=1/GPa)
#
#
# Indices 1 2 3 4 5 6 
#
# 1 0.012177 -0.002317 -0.009457 -0.004876 0.004900 -0.003966
# 2 -0.002317 0.012265 -0.002109 0.004895 0.001718 -0.004000
# 3 -0.009457 -0.002109 0.023111 0.005300 0.001870 0.003474
# 4 -0.004876 0.004895 0.005300 0.027853 -0.004561 0.004243
# 5 0.004900 0.001718 0.001870 -0.004561 0.024940 -0.007519
# 6 -0.003966 -0.004000 0.003474 0.004243 -0.007519 0.029034
#
#
# Mechanical properties :
#
#
# Convention : Reuss Voigt Hill
#
# Bulk Modulus (GPa) = 50.53848 80.02144 65.27996
# Shear Modulus (GPa) = 30.53636 41.63615 36.08626
#
# Velocity S-wave (km/s) = 3.61001 4.21537 3.92438
# Velocity P-wave (km/s) = 6.24058 7.60550 6.95660
#
# Compressibility (1/GPa) = 0.01978690
#
# Stress axis : x y z
#
# Youngs Moduli (GPa) = 82.12328 81.53605 43.26991
#
# Poissons Ratio (x) = 0.18891 0.40919
# Poissons Ratio (y) = 0.19027 0.09126
# Poissons Ratio (z) = 0.77662 0.17196
#
# Static dielectric constant tensor:
#      x y z
#    x 4.695540 0.022240 -0.530640 
#    y 0.022240 4.260670 0.015650 
#    z -0.530640 0.015650 4.708970 
# 
# 
# High freq. dielectric constant tensor:
#      x y z
#    x 1.928730 0.012580 -0.020310 
#    y 0.012580 1.943170 0.001430 
#    z -0.020310 0.001430 1.920440 
# 
# From -- ./inp_files/496079.got.cif
#   From: 2010.06.25/outbox.cif.g09.slc.cpg/sg2_249_cif.got.tgz:496079.got - 2010.06.27 13:26:56.
