data_PCOD8019776
_publ_section_title
;
Structure prediction by ZEFSAII (Michael W. Deem and Ramdas Pophale) SiO2 
 PCOD8019776
Probable space group: P -1
;
_chemical_formula_sum "Si O2"
_cell_formula_units_Z 16
_cell_length_a 18.517891
_cell_length_b 15.610550
_cell_length_c 11.651709
_cell_angle_alpha 146.544534
_cell_angle_beta 146.492911
_cell_angle_gamma 23.518717
_cell_volume 703.797162
_symmetry_space_group_name_H-M "P -1"
_symmetry_group_IT_number 2
_symmetry_cell_setting 'triclinic'
loop_
_space_group_symop_operation_xyz
x,y,z
-x,-y,-z
loop_
_atom_site_type_symbol
_atom_site_label
_atom_site_fract_x
_atom_site_fract_y
_atom_site_fract_z
Si Si1 0.044676 0.760407 0.487107
Si Si2 0.063212 0.012280 0.976801
Si Si3 0.480420 0.837539 0.070626
Si Si4 0.241565 0.593472 0.324790
Si Si5 0.351276 0.825602 0.646939
Si Si6 0.528897 0.303654 0.867247
Si Si7 0.240660 0.328429 0.392803
Si Si8 0.106988 0.561125 0.892387
O O1 0.097343 0.842476 0.743170
O O2 0.127405 0.739403 0.449917
O O3 0.141731 0.512841 0.367552
O O4 0.815143 0.935529 0.371898
O O5 0.264443 0.928145 0.164646
O O6 0.000000 0.000000 0.000000
O O7 0.909328 0.266955 0.011347
O O8 0.465926 0.711910 0.004915
O O9 0.699573 0.690265 0.170269
O O10 0.379839 0.080827 0.248871
O O11 0.373508 0.868623 0.852493
O O12 0.281774 0.708343 0.427924
O O13 0.448553 0.335280 0.337391
O O14 0.113619 0.593358 0.073868
O O15 0.362554 0.332589 0.641002
O O16 0.500000 0.500000 0.000000
O O17 0.072582 0.395575 0.320134
#
# Coordination Sequence:
#
# PCOD8019776 Si02
#       8
#     2   2   2   2   2   2   2   2
#     4  12  25  44  72 105 141 186 241 288 355 426
#     4  12  26  46  73 108 141 185 245 298 349 429
#     4  11  25  46  72 104 147 186 234 295 366 423
#     4  10  22  41  72 106 140 183 238 298 351 421
#     4  10  22  41  72 106 138 185 236 300 353 418
#     4  12  25  48  71 101 141 187 245 298 348 426
#     4  12  28  45  68 107 146 196 230 298 364 430
#     4  11  25  46  72 105 145 188 238 295 362 421
#
# _framework density 22.733822
#
# number of rings (size 3 to 8) (size 9 to 14) (size 15 to 20)
#    0.000    0.750    3.750    3.000    0.000    5.500 
#    0.000    2.500    0.000    0.000    0.000    0.000 
#    0.000    0.000    0.000    0.000    0.000    0.000 
#
# Total GULP energy -198422.757249 kJ/mol
# GULP energy per Si atom -12401.422328 kJ/mol
# Density = 2.268208 g / cm^3
# Si number density = 22.733822 Si / 1000 Ang^3
#
#
#
# Elastic Constant Matrix: (Units=GPa)
#
#
# Indices 1 2 3 4 5 6 
#
# 1 96.6892 41.1828 41.0139 -7.6724 -2.5965 -10.3297
# 2 41.1828 154.9458 45.7610 -9.0918 1.8032 -1.8752
# 3 41.0139 45.7610 94.9595 -16.0477 10.1998 -6.2035
# 4 -7.6724 -9.0918 -16.0477 35.7063 0.6229 8.2312
# 5 -2.5965 1.8032 10.1998 0.6229 30.2614 0.4370
# 6 -10.3297 -1.8752 -6.2035 8.2312 0.4370 41.6476
#
#
#
# Elastic Compliance Matrix: (Units=1/GPa)
#
#
# Indices 1 2 3 4 5 6 
#
# 1 0.013770 -0.002176 -0.005147 -0.000568 0.003020 0.002631
# 2 -0.002176 0.007893 -0.002874 0.000405 0.000313 -0.000696
# 3 -0.005147 -0.002874 0.015638 0.005304 -0.005649 -0.000066
# 4 -0.000568 0.000405 0.005304 0.031698 -0.002433 -0.005572
# 5 0.003020 0.000313 -0.005649 -0.002433 0.035240 0.000033
# 6 0.002631 -0.000696 -0.000066 -0.005572 0.000033 0.025723
#
#
# Mechanical properties :
#
#
# Convention : Reuss Voigt Hill
#
# Bulk Modulus (GPa) = 59.15269 66.94555 63.04912
# Shear Modulus (GPa) = 32.05301 36.09886 34.07594
#
# Velocity S-wave (km/s) = 3.75897 3.98916 3.87578
# Velocity P-wave (km/s) = 6.70194 7.12245 6.91539
#
# Compressibility (1/GPa) = 0.01690540
#
# Stress axis : x y z
#
# Youngs Moduli (GPa) = 72.62290 126.69607 63.94774
#
# Poissons Ratio (x) = 0.27574 0.32913
# Poissons Ratio (y) = 0.15806 0.18380
# Poissons Ratio (z) = 0.37378 0.36415
#
# Static dielectric constant tensor:
#      x y z
#    x 3.907280 -0.028600 0.027700 
#    y -0.028600 4.634850 -0.147510 
#    z 0.027700 -0.147510 4.108540 
# 
# 
# High freq. dielectric constant tensor:
#      x y z
#    x 1.883630 -0.004970 -0.001410 
#    y -0.004970 1.924860 -0.012060 
#    z -0.001410 -0.012060 1.890180 
# 
# From -- ./inp_files/472528.got.cif
#   From: 2010.06.25/outbox.cif.g09.slc.cpg/sg2_237_cif.got.tgz:472528.got - 2010.06.27 13:26:56.
