data_PCOD8019220
_publ_section_title
;
Structure prediction by ZEFSAII (Michael W. Deem and Ramdas Pophale) SiO2 
 PCOD8019220
Probable space group: P -1
;
_chemical_formula_sum "Si O2"
_cell_formula_units_Z 16
_cell_length_a 22.955122
_cell_length_b 22.938661
_cell_length_c 5.472164
_cell_angle_alpha 126.611960
_cell_angle_beta 120.777027
_cell_angle_gamma 18.379926
_cell_volume 712.332567
_symmetry_space_group_name_H-M "P -1"
_symmetry_group_IT_number 2
_symmetry_cell_setting 'triclinic'
loop_
_space_group_symop_operation_xyz
x,y,z
-x,-y,-z
loop_
_atom_site_type_symbol
_atom_site_label
_atom_site_fract_x
_atom_site_fract_y
_atom_site_fract_z
Si Si1 0.499925 0.200955 0.252424
Si Si2 0.209341 0.139859 0.331342
Si Si3 0.384057 0.697376 0.995207
Si Si4 0.500125 0.955026 0.637835
Si Si5 0.194410 0.028999 0.363268
Si Si6 0.615959 0.465492 0.412124
Si Si7 0.194327 0.582221 0.246430
Si Si8 0.790975 0.558292 0.414532
O O1 0.392210 0.359973 0.231286
O O2 0.338228 0.311048 0.294545
O O3 0.607686 0.144504 0.530050
O O4 0.661583 0.987713 0.952240
O O5 0.193542 0.070788 0.205914
O O6 0.000196 0.381442 0.454042
O O7 0.316173 0.087115 0.613907
O O8 0.500116 0.587189 0.718371
O O9 0.302372 0.697613 0.849597
O O10 0.499915 0.600975 0.252387
O O11 0.207236 0.928702 0.145526
O O12 0.684343 0.719107 0.402738
O O13 0.500000 0.000000 0.500000
O O14 0.500000 0.000000 0.000000
O O15 0.000052 0.249103 0.622680
O O16 0.792799 0.343181 0.534189
O O17 0.193412 0.542173 0.884471
#
# Coordination Sequence:
#
# PCOD8019220 Si02
#       8
#     2   2   2   2   2   2   2   2
#     4  12  21  44  67 102 143 180 234 305 344 412
#     4  12  26  45  75 106 141 185 241 290 353 426
#     4  10  22  41  65  97 143 193 237 292 359 416
#     4  12  29  50  76 106 146 190 227 289 364 428
#     4  12  24  39  72 104 138 188 244 297 355 417
#     4  10  22  41  65  97 143 193 237 292 359 416
#     4  12  24  39  72 104 138 188 244 297 355 417
#     4  12  26  45  75 106 141 185 241 290 353 426
#
# _framework density 22.461417000000001
#
# number of rings (size 3 to 8) (size 9 to 14) (size 15 to 20)
#    0.000    0.500    6.250    2.250    0.000    1.500 
#    0.000    0.000    0.000    5.250    0.000    0.000 
#    0.000    0.000    0.000    0.000    0.000    0.000 
#
# Total GULP energy -198213.289604 kJ/mol
# GULP energy per Si atom -12388.330600 kJ/mol
# Density = 2.241029 g / cm^3
# Si number density = 22.461417 Si / 1000 Ang^3
#
#
#
# Elastic Constant Matrix: (Units=GPa)
#
#
# Indices 1 2 3 4 5 6 
#
# 1 116.0390 51.2251 53.4662 9.1866 1.7567 4.6864
# 2 51.2251 142.6113 44.0581 14.8072 0.9451 -17.3010
# 3 53.4662 44.0581 118.7679 -1.0073 -4.2469 -6.7360
# 4 9.1866 14.8072 -1.0073 32.8087 -1.6583 -12.8901
# 5 1.7567 0.9451 -4.2469 -1.6583 45.6088 1.5049
# 6 4.6864 -17.3010 -6.7360 -12.8901 1.5049 30.8815
#
#
#
# Elastic Compliance Matrix: (Units=1/GPa)
#
#
# Indices 1 2 3 4 5 6 
#
# 1 0.013249 -0.003501 -0.005149 -0.005164 -0.000867 -0.007208
# 2 -0.003501 0.009552 -0.001717 -0.001475 -0.000439 0.004914
# 3 -0.005149 -0.001717 0.011690 0.004245 0.001342 0.004076
# 4 -0.005164 -0.001475 0.004245 0.039611 0.001493 0.017344
# 5 -0.000867 -0.000439 0.001342 0.001493 0.022157 -0.000278
# 6 -0.007208 0.004914 0.004076 0.017344 -0.000278 0.044371
#
#
# Mechanical properties :
#
#
# Convention : Reuss Voigt Hill
#
# Bulk Modulus (GPa) = 72.69067 74.99080 73.84074
# Shear Modulus (GPa) = 30.12972 37.10439 33.61705
#
# Velocity S-wave (km/s) = 3.66648 4.06879 3.87286
# Velocity P-wave (km/s) = 7.09626 7.45200 7.27630
#
# Compressibility (1/GPa) = 0.01375692
#
# Stress axis : x y z
#
# Youngs Moduli (GPa) = 75.47889 104.68857 85.54341
#
# Poissons Ratio (x) = 0.36648 0.44049
# Poissons Ratio (y) = 0.26422 0.14688
# Poissons Ratio (z) = 0.38866 0.17976
#
# Static dielectric constant tensor:
#      x y z
#    x 4.340640 -0.026000 0.170240 
#    y -0.026000 4.372790 0.046850 
#    z 0.170240 0.046850 4.235980 
# 
# 
# High freq. dielectric constant tensor:
#      x y z
#    x 1.887620 0.002350 0.002520 
#    y 0.002350 1.881400 -0.001800 
#    z 0.002520 -0.001800 1.886730 
# 
# From -- ./inp_files/125202.got.cif
#   From: 2010.06.25/outbox.cif.g09.slc.cpg/sg2_63_cif.got.tgz:125202.got - 2010.06.27 13:26:56.
