data_PCOD8019112
_publ_section_title
;
Structure prediction by ZEFSAII (Michael W. Deem and Ramdas Pophale) SiO2 
 PCOD8019112
Probable space group: P -1
;
_chemical_formula_sum "Si O2"
_cell_formula_units_Z 14
_cell_length_a 16.379093
_cell_length_b 14.093835
_cell_length_c 5.127409
_cell_angle_alpha 89.846428
_cell_angle_beta 83.178409
_cell_angle_gamma 42.774893
_cell_volume 791.845514
_symmetry_space_group_name_H-M "P -1"
_symmetry_group_IT_number 2
_symmetry_cell_setting 'triclinic'
loop_
_space_group_symop_operation_xyz
x,y,z
-x,-y,-z
loop_
_atom_site_type_symbol
_atom_site_label
_atom_site_fract_x
_atom_site_fract_y
_atom_site_fract_z
Si Si1 0.364201 0.603835 0.440888
Si Si2 0.140606 0.355494 0.439266
Si Si3 0.651311 0.499544 0.084139
Si Si4 0.617502 0.208750 0.679509
Si Si5 0.319728 0.332980 0.127857
Si Si6 0.404757 0.886173 0.820590
Si Si7 0.737551 0.803125 0.095155
O O1 0.500000 0.500000 0.500000
O O2 0.288787 0.613165 0.699789
O O3 0.308505 0.756230 0.404292
O O4 0.365558 0.547008 0.169832
O O5 0.219663 0.385461 0.379695
O O6 0.178417 0.267000 0.682464
O O7 0.000000 0.500000 0.500000
O O8 0.170775 0.260875 0.184078
O O9 0.523542 0.645511 0.240174
O O10 0.729223 0.527731 0.987886
O O11 0.638697 0.118455 0.436516
O O12 0.660389 0.120487 0.928656
O O13 0.448984 0.242448 0.216395
O O14 0.333505 0.237318 0.907263
O O15 0.363704 0.029655 0.855303
#
# Coordination Sequence:
#
# PCOD8019112 Si02
#       7
#     2   2   2   2   2   2   2
#     4  10  17  28  43  63  96 136 169 196 234 282
#     4  10  22  37  53  70  98 132 169 210 249 281
#     4  10  18  28  44  67  96 134 170 193 239 288
#     4  10  19  29  45  67 103 136 168 200 230 290
#     4   9  22  30  53  72 107 131 164 202 244 292
#     4  11  20  32  48  76 104 137 168 189 244 299
#     4  10  22  34  53  71 103 132 167 201 244 294
#
# _framework density 17.680215
#
# number of rings (size 3 to 8) (size 9 to 14) (size 15 to 20)
#    0.857    1.143    0.000    7.714    6.000    0.571 
#    0.000    0.000    0.000    0.000    0.000    0.000 
#    0.000   22.857    0.000    0.000    0.000    0.000 
#
# Total GULP energy -173460.010010 kJ/mol
# GULP energy per Si atom -12390.000715 kJ/mol
# Density = 1.763997 g / cm^3
# Si number density = 17.680215 Si / 1000 Ang^3
#
#
#
# Elastic Constant Matrix: (Units=GPa)
#
#
# Indices 1 2 3 4 5 6 
#
# 1 48.9854 45.8910 28.7047 1.5952 -4.6621 20.7923
# 2 45.8910 54.3062 29.2308 -0.6228 -1.5481 17.5456
# 3 28.7047 29.2308 136.0862 0.6029 6.8095 11.8024
# 4 1.5952 -0.6228 0.6029 29.7692 6.3524 2.9314
# 5 -4.6621 -1.5481 6.8095 6.3524 12.1711 4.3452
# 6 20.7923 17.5456 11.8024 2.9314 4.3452 30.2069
#
#
#
# Elastic Compliance Matrix: (Units=1/GPa)
#
#
# Indices 1 2 3 4 5 6 
#
# 1 0.166461 -0.115952 -0.009777 -0.024288 0.086246 -0.053459
# 2 -0.115952 0.106981 0.001897 0.016561 -0.048473 0.022298
# 3 -0.009777 0.001897 0.009257 0.002424 -0.011155 0.003381
# 4 -0.024288 0.016561 0.002424 0.041484 -0.032640 0.006821
# 5 0.086246 -0.048473 -0.011155 -0.032640 0.148385 -0.045029
# 6 -0.053459 0.022298 0.003381 0.006821 -0.045029 0.061445
#
#
# Mechanical properties :
#
#
# Convention : Reuss Voigt Hill
#
# Bulk Modulus (GPa) = 28.54274 49.67008 39.10641
# Shear Modulus (GPa) = 6.30233 23.46621 14.88427
#
# Velocity S-wave (km/s) = 1.89007 3.64711 2.90463
# Velocity P-wave (km/s) = 4.57625 6.77420 5.78065
#
# Compressibility (1/GPa) = 0.03503518
#
# Stress axis : x y z
#
# Youngs Moduli (GPa) = 6.00740 9.34743 108.02153
#
# Poissons Ratio (x) = 1.08385 1.05616
# Poissons Ratio (y) = 0.69657 -0.20491
# Poissons Ratio (z) = 0.05874 -0.01773
#
# Static dielectric constant tensor:
#      x y z
#    x 3.277810 0.717520 -0.379300 
#    y 0.717520 3.379130 -0.474840 
#    z -0.379300 -0.474840 3.818860 
# 
# 
# High freq. dielectric constant tensor:
#      x y z
#    x 1.642950 0.050920 -0.002240 
#    y 0.050920 1.651830 -0.009480 
#    z -0.002240 -0.009480 1.708210 
# 
# From -- ./inp_files/93642.got.cif
#   From: 2010.06.25/outbox.cif.g09.slc.cpg/sg2_47_cif.got.tgz:93642.got - 2010.06.27 13:26:56.
