data_PCOD8019199
_publ_section_title
;
Structure prediction by ZEFSAII (Michael W. Deem and Ramdas Pophale) SiO2 
 PCOD8019199
Probable space group: P -1
;
_chemical_formula_sum "Si O2"
_cell_formula_units_Z 14
_cell_length_a 25.347776
_cell_length_b 9.261784
_cell_length_c 9.619075
_cell_angle_alpha 135.089761
_cell_angle_beta 25.733727
_cell_angle_gamma 141.033553
_cell_volume 616.349135
_symmetry_space_group_name_H-M "P -1"
_symmetry_group_IT_number 2
_symmetry_cell_setting 'triclinic'
loop_
_space_group_symop_operation_xyz
x,y,z
-x,-y,-z
loop_
_atom_site_type_symbol
_atom_site_label
_atom_site_fract_x
_atom_site_fract_y
_atom_site_fract_z
Si Si1 0.813831 0.040859 0.833066
Si Si2 0.494852 0.819261 0.778108
Si Si3 0.725654 0.152523 0.862296
Si Si4 0.787218 0.149626 0.272953
Si Si5 0.269216 0.447271 0.209510
Si Si6 0.106564 0.351626 0.261887
Si Si7 0.134403 0.036845 0.788937
O O1 0.707054 0.092822 0.029962
O O2 0.949550 0.159334 0.497234
O O3 0.748994 0.764566 0.795845
O O4 0.850204 0.166384 0.981875
O O5 0.650996 0.899730 0.419098
O O6 0.406549 0.825594 0.859670
O O7 0.418567 0.568173 0.861386
O O8 0.500000 0.000000 0.000000
O O9 0.864269 0.389316 0.664364
O O10 0.748260 0.960300 0.589493
O O11 0.753743 0.362843 0.518292
O O12 0.886848 0.146000 0.157531
O O13 0.153298 0.332933 0.292322
O O14 0.188417 0.282867 0.904527
O O15 0.000000 0.000000 0.000000
#
# Coordination Sequence:
#
# PCOD8019199 Si02
#       7
#     2   2   2   2   2   2   2
#     4  12  25  38  64 100 134 159 214 269 319 372
#     4   9  19  44  70  85 127 175 217 250 317 383
#     4  11  24  44  65  95 132 169 211 271 305 379
#     4  11  24  43  67  94 128 173 210 264 320 376
#     4  10  22  41  65  96 125 173 212 262 316 374
#     4  11  23  41  63  94 131 172 213 252 326 385
#     4  12  23  39  68  96 122 170 217 251 322 382
#
# _framework density 22.714400999999999
#
# number of rings (size 3 to 8) (size 9 to 14) (size 15 to 20)
#    0.000    1.143    7.143    0.857    0.000    4.000 
#    0.000    2.857    0.000    0.000    0.000    0.000 
#    0.000    0.000    0.000    0.000    0.000    0.000 
#
# Total GULP energy -173472.157465 kJ/mol
# GULP energy per Si atom -12390.868390 kJ/mol
# Density = 2.266270 g / cm^3
# Si number density = 22.714401 Si / 1000 Ang^3
#
#
#
# Elastic Constant Matrix: (Units=GPa)
#
#
# Indices 1 2 3 4 5 6 
#
# 1 152.3545 47.3985 21.8395 -4.6978 6.1911 -25.2818
# 2 47.3985 111.0744 25.1100 -14.9876 -9.0138 -6.5317
# 3 21.8395 25.1100 60.5371 0.6993 0.6301 -1.0137
# 4 -4.6978 -14.9876 0.6993 27.8415 10.2206 7.1585
# 5 6.1911 -9.0138 0.6301 10.2206 31.0992 5.4096
# 6 -25.2818 -6.5317 -1.0137 7.1585 5.4096 33.3802
#
#
#
# Elastic Compliance Matrix: (Units=1/GPa)
#
#
# Indices 1 2 3 4 5 6 
#
# 1 0.009199 -0.003538 -0.001686 -0.000711 -0.003805 0.006993
# 2 -0.003538 0.012268 -0.003941 0.005585 0.002863 -0.002060
# 3 -0.001686 -0.003941 0.018779 -0.002580 -0.000183 -0.000895
# 4 -0.000711 0.005585 -0.002580 0.045046 -0.011724 -0.007284
# 5 -0.003805 0.002863 -0.000183 -0.011724 0.038657 -0.006078
# 6 0.006993 -0.002060 -0.000895 -0.007284 -0.006078 0.037371
#
#
# Mechanical properties :
#
#
# Convention : Reuss Voigt Hill
#
# Bulk Modulus (GPa) = 45.63009 56.96244 51.29626
# Shear Modulus (GPa) = 26.74428 33.77207 30.25818
#
# Velocity S-wave (km/s) = 3.43507 3.86011 3.65377
# Velocity P-wave (km/s) = 5.98875 6.70815 6.35864
#
# Compressibility (1/GPa) = 0.02191536
#
# Stress axis : x y z
#
# Youngs Moduli (GPa) = 108.70572 81.50998 53.25189
#
# Poissons Ratio (x) = 0.28837 0.08980
# Poissons Ratio (y) = 0.38458 0.20988
# Poissons Ratio (z) = 0.18331 0.32125
#
# Static dielectric constant tensor:
#      x y z
#    x 4.277610 0.190680 -0.345010 
#    y 0.190680 4.410480 -0.644300 
#    z -0.345010 -0.644300 6.052290 
# 
# 
# High freq. dielectric constant tensor:
#      x y z
#    x 1.907320 0.006270 0.005170 
#    y 0.006270 1.891290 0.016980 
#    z 0.005170 0.016980 1.870580 
# 
# From -- ./inp_files/241368.got.cif
#   From: 2010.06.25/outbox.cif.g09.slc.cpg/sg2_121_cif.got.tgz:241368.got - 2010.06.27 13:26:56.
