data_PCOD8019184
_publ_section_title
;
Structure prediction by ZEFSAII (Michael W. Deem and Ramdas Pophale) SiO2 
 PCOD8019184
Probable space group: P -1
;
_chemical_formula_sum "Si O2"
_cell_formula_units_Z 16
_cell_length_a 11.112668
_cell_length_b 8.756483
_cell_length_c 9.964068
_cell_angle_alpha 84.467070
_cell_angle_beta 60.229871
_cell_angle_gamma 61.165351
_cell_volume 724.109857
_symmetry_space_group_name_H-M "P -1"
_symmetry_group_IT_number 2
_symmetry_cell_setting 'triclinic'
loop_
_space_group_symop_operation_xyz
x,y,z
-x,-y,-z
loop_
_atom_site_type_symbol
_atom_site_label
_atom_site_fract_x
_atom_site_fract_y
_atom_site_fract_z
Si Si1 0.526395 0.271800 0.130452
Si Si2 0.387420 0.167722 0.454848
Si Si3 0.535496 0.342329 0.824653
Si Si4 0.029401 0.380283 0.619562
Si Si5 0.098971 0.869673 0.338992
Si Si6 0.976783 0.401075 0.142975
Si Si7 0.381247 0.441046 0.632868
Si Si8 0.105805 0.011747 0.056932
O O1 0.449912 0.176113 0.269367
O O2 0.486412 0.462399 0.191805
O O3 0.466411 0.305076 0.004373
O O4 0.715293 0.146869 0.048784
O O5 0.206762 0.203137 0.540632
O O6 0.367627 0.334565 0.528408
O O7 0.500000 0.000000 0.500000
O O8 0.718535 0.191187 0.725513
O O9 0.448936 0.323877 0.741499
O O10 0.984964 0.513321 0.757888
O O11 0.000000 0.500000 0.500000
O O12 0.908334 0.307609 0.670452
O O13 0.030638 0.988328 0.235721
O O14 0.000000 0.000000 0.500000
O O15 0.803558 0.410390 0.246179
O O16 0.104972 0.196071 0.058849
O O17 0.000000 0.500000 0.000000
O O18 0.500000 0.500000 0.500000
O O19 0.000000 0.000000 0.000000
#
# Coordination Sequence:
#
# PCOD8019184 Si02
#       8
#     2   2   2   2   2   2   2   2
#     4  10  22  41  65  94 133 176 223 280 339 410
#     4  11  26  41  67 100 138 176 223 289 354 410
#     4  10  22  43  69  97 130 176 235 284 340 405
#     4  11  25  45  68  97 141 187 224 284 358 426
#     4  11  25  41  70 101 131 175 234 287 335 414
#     4  11  26  45  67 102 141 184 226 284 363 414
#     4  11  24  42  72  97 130 183 230 283 339 420
#     4  11  24  39  68  99 131 174 231 283 330 413
#
# _framework density 22.096094000000001
#
# number of rings (size 3 to 8) (size 9 to 14) (size 15 to 20)
#    0.000    1.250    1.250    3.000   10.500    3.000 
#    0.000    0.625    0.000    0.000    0.000    0.000 
#    0.000    0.000    0.000    0.000    0.000    0.000 
#
# Total GULP energy -198258.059037 kJ/mol
# GULP energy per Si atom -12391.128690 kJ/mol
# Density = 2.204580 g / cm^3
# Si number density = 22.096094 Si / 1000 Ang^3
#
#
#
# Elastic Constant Matrix: (Units=GPa)
#
#
# Indices 1 2 3 4 5 6 
#
# 1 60.0286 0.9127 20.7348 5.3619 19.5530 -5.1417
# 2 0.9127 102.1640 34.5639 -6.8350 8.3867 -6.5901
# 3 20.7348 34.5639 135.1373 -10.2938 24.0152 -1.2964
# 4 5.3619 -6.8350 -10.2938 44.1298 -4.1232 0.6380
# 5 19.5530 8.3867 24.0152 -4.1232 39.5573 -3.4527
# 6 -5.1417 -6.5901 -1.2964 0.6380 -3.4527 37.2173
#
#
#
# Elastic Compliance Matrix: (Units=1/GPa)
#
#
# Indices 1 2 3 4 5 6 
#
# 1 0.021008 0.001197 -0.002096 -0.003782 -0.009566 0.002219
# 2 0.001197 0.010959 -0.002729 0.000794 -0.001010 0.001904
# 3 -0.002096 -0.002729 0.009227 0.001633 -0.003890 -0.000840
# 4 -0.003782 0.000794 0.001633 0.023926 0.003165 -0.000442
# 5 -0.009566 -0.001010 -0.003890 0.003165 0.033034 0.001374
# 6 0.002219 0.001904 -0.000840 -0.000442 0.001374 0.027619
#
#
# Mechanical properties :
#
#
# Convention : Reuss Voigt Hill
#
# Bulk Modulus (GPa) = 29.46473 45.52806 37.49640
# Shear Modulus (GPa) = 34.63986 40.25544 37.44765
#
# Velocity S-wave (km/s) = 3.96370 4.27293 4.12122
# Velocity P-wave (km/s) = 5.85762 6.70769 6.29702
#
# Compressibility (1/GPa) = 0.03393888
#
# Stress axis : x y z
#
# Youngs Moduli (GPa) = 47.59991 91.24589 108.37677
#
# Poissons Ratio (x) = -0.10922 0.22720
# Poissons Ratio (y) = -0.05697 0.29571
# Poissons Ratio (z) = 0.09979 0.24897
#
# Static dielectric constant tensor:
#      x y z
#    x 2.472050 -0.654400 0.832540 
#    y -0.654400 3.389480 -0.116940 
#    z 0.832540 -0.116940 3.899790 
# 
# 
# High freq. dielectric constant tensor:
#      x y z
#    x 1.865970 -0.014560 0.010740 
#    y -0.014560 1.870920 -0.001290 
#    z 0.010740 -0.001290 1.891770 
# 
# From -- ./inp_files/243417.got.cif
#   From: 2010.06.25/outbox.cif.g09.slc.cpg/sg2_122_cif.got.tgz:243417.got - 2010.06.27 13:26:56.
