data_PCOD8019114
_publ_section_title
;
Structure prediction by ZEFSAII (Michael W. Deem and Ramdas Pophale) SiO2 
 PCOD8019114
Probable space group: P -1
;
_chemical_formula_sum "Si O2"
_cell_formula_units_Z 10
_cell_length_a 8.143508
_cell_length_b 14.537373
_cell_length_c 14.785412
_cell_angle_alpha 159.992939
_cell_angle_beta 47.599951
_cell_angle_gamma 132.382262
_cell_volume 436.526641
_symmetry_space_group_name_H-M "P -1"
_symmetry_group_IT_number 2
_symmetry_cell_setting 'triclinic'
loop_
_space_group_symop_operation_xyz
x,y,z
-x,-y,-z
loop_
_atom_site_type_symbol
_atom_site_label
_atom_site_fract_x
_atom_site_fract_y
_atom_site_fract_z
Si Si1 0.283792 0.849293 0.330617
Si Si2 0.095108 0.568201 0.871884
Si Si3 0.355307 0.102962 0.355308
Si Si4 0.784688 0.908644 0.227245
Si Si5 0.132729 0.796821 0.712311
O O1 0.529324 0.759147 0.165920
O O2 0.102361 0.582055 0.126376
O O3 0.291477 0.081582 0.465876
O O4 0.196441 0.964037 0.562062
O O5 0.240578 0.341928 0.572989
O O6 0.958419 0.691201 0.955102
O O7 0.268775 0.806865 0.072910
O O8 0.621232 0.177136 0.310155
O O9 0.852050 0.141326 0.342971
O O10 0.000000 0.500000 0.500000
O O11 0.000000 0.000000 0.000000
#
# Coordination Sequence:
#
# PCOD8019114 Si02
#       5
#     2   2   2   2   2
#     4  10  22  41  65 100 138 169 204 255 325 396
#     4  12  22  41  63 105 135 163 204 266 326 383
#     4  11  25  40  68  99 130 170 209 260 328 380
#     4  10  24  41  68  98 129 173 215 259 318 383
#     4  11  26  50  69  87 124 176 225 266 313 380
#
# _framework density 22.908109
#
# number of rings (size 3 to 8) (size 9 to 14) (size 15 to 20)
#    0.000    1.200    2.000    3.000    5.600    0.000 
#    0.000    6.000    0.000    0.000    0.000    0.000 
#    0.000    0.000    0.000    0.000    0.000    0.000 
#
# Total GULP energy -123965.028938 kJ/mol
# GULP energy per Si atom -12396.502894 kJ/mol
# Density = 2.285597 g / cm^3
# Si number density = 22.908109 Si / 1000 Ang^3
#
#
#
# Elastic Constant Matrix: (Units=GPa)
#
#
# Indices 1 2 3 4 5 6 
#
# 1 90.3711 33.0728 42.1492 15.7179 -31.3744 41.2832
# 2 33.0728 115.8317 53.1248 22.5594 -9.0978 41.9425
# 3 42.1492 53.1248 120.9558 24.7928 -16.8841 24.2326
# 4 15.7179 22.5594 24.7928 34.9390 1.0452 9.1244
# 5 -31.3744 -9.0978 -16.8841 1.0452 45.4439 1.7992
# 6 41.2832 41.9425 24.2326 9.1244 1.7992 46.8161
#
#
#
# Elastic Compliance Matrix: (Units=1/GPa)
#
#
# Indices 1 2 3 4 5 6 
#
# 1 0.041526 0.010043 -0.003382 -0.012574 0.031400 -0.042621
# 2 0.010043 0.017676 -0.003952 -0.007809 0.010035 -0.021510
# 3 -0.003382 -0.003952 0.012164 -0.004896 0.001461 0.001125
# 4 -0.012574 -0.007809 -0.004896 0.039699 -0.013507 0.013401
# 5 0.031400 0.010035 0.001461 -0.013507 0.047997 -0.036648
# 6 -0.042621 -0.021510 0.001125 0.013401 -0.036648 0.076429
#
#
# Mechanical properties :
#
#
# Convention : Reuss Voigt Hill
#
# Bulk Modulus (GPa) = 13.02370 64.87246 38.94808
# Shear Modulus (GPa) = 19.55654 38.69392 29.12523
#
# Velocity S-wave (km/s) = 2.92498 4.11432 3.56953
# Velocity P-wave (km/s) = 4.13580 7.13794 5.83331
#
# Compressibility (1/GPa) = 0.07678312
#
# Stress axis : x y z
#
# Youngs Moduli (GPa) = 24.08138 56.57291 82.21001
#
# Poissons Ratio (x) = -0.56815 0.27803
# Poissons Ratio (y) = -0.24184 0.32492
# Poissons Ratio (z) = 0.08144 0.22359
#
# Static dielectric constant tensor:
#      x y z
#    x 4.469680 0.187540 -0.224320 
#    y 0.187540 4.151140 0.132610 
#    z -0.224320 0.132610 3.880660 
# 
# 
# High freq. dielectric constant tensor:
#      x y z
#    x 1.923380 0.023510 -0.017720 
#    y 0.023510 1.894450 0.019870 
#    z -0.017720 0.019870 1.891840 
# 
# From -- ./inp_files/17325.got.cif
#   From: 2010.06.25/outbox.cif.g09.slc.cpg/sg2_9_cif.got.tgz:17325.got - 2010.06.27 13:26:56.
