data_PCOD8019896
_publ_section_title
;
Structure prediction by ZEFSAII (Michael W. Deem and Ramdas Pophale) SiO2 
 PCOD8019896
Probable space group: P -1
;
_chemical_formula_sum "Si O2"
_cell_formula_units_Z 16
_cell_length_a 27.706956
_cell_length_b 8.551237
_cell_length_c 6.754153
_cell_angle_alpha 77.692434
_cell_angle_beta 96.907433
_cell_angle_gamma 151.378264
_cell_volume 741.264919
_symmetry_space_group_name_H-M "P -1"
_symmetry_group_IT_number 2
_symmetry_cell_setting 'triclinic'
loop_
_space_group_symop_operation_xyz
x,y,z
-x,-y,-z
loop_
_atom_site_type_symbol
_atom_site_label
_atom_site_fract_x
_atom_site_fract_y
_atom_site_fract_z
Si Si1 0.219158 0.258995 0.728688
Si Si2 0.269179 0.745441 0.721110
Si Si3 0.938662 0.701465 0.183125
Si Si4 0.152491 0.777245 0.054683
Si Si5 0.405176 0.607024 0.570177
Si Si6 0.586883 0.661635 0.618510
Si Si7 0.012841 0.705212 0.555785
Si Si8 0.640018 0.779841 0.032766
O O1 0.279197 0.583078 0.762834
O O2 0.297780 0.388954 0.593250
O O3 0.124345 0.044717 0.611012
O O4 0.177941 0.036433 0.953652
O O5 0.153153 0.459453 0.739894
O O6 0.310891 0.946390 0.487461
O O7 0.332984 0.991574 0.876481
O O8 0.004904 0.828101 0.364019
O O9 0.900927 0.439473 0.112776
O O10 0.000000 0.000000 0.000000
O O11 0.077373 0.538767 0.264422
O O12 0.257019 0.984827 0.086657
O O13 0.404107 0.498131 0.399350
O O14 0.500000 0.000000 0.500000
O O15 0.415411 0.518844 0.787754
O O16 0.500000 0.500000 0.500000
O O17 0.566648 0.615958 0.857347
O O18 0.000000 0.500000 0.500000
#
# Coordination Sequence:
#
# PCOD8019896 Si02
#       8
#     2   2   2   2   2   2   2   2
#     4  11  23  42  66  99 133 172 219 276 331 392
#     4  10  23  41  63  92 132 169 224 267 321 392
#     4  11  24  42  62  91 132 175 220 272 320 390
#     4  10  22  42  62  91 131 169 222 267 319 395
#     4  10  23  44  67  97 132 165 216 276 327 396
#     4  11  23  43  68  94 129 167 217 273 326 396
#     4  12  25  38  67  96 132 179 217 270 338 382
#     4   9  22  42  68  91 125 178 211 268 333 381
#
# _framework density 21.584726
#
# number of rings (size 3 to 8) (size 9 to 14) (size 15 to 20)
#    0.000    1.500    1.250    3.375    3.500    6.500 
#    0.000    3.750    0.000    0.000    0.000    0.000 
#    0.000    0.000    0.000    0.000    0.000    0.000 
#
# Total GULP energy -198426.912062 kJ/mol
# GULP energy per Si atom -12401.682004 kJ/mol
# Density = 2.153560 g / cm^3
# Si number density = 21.584726 Si / 1000 Ang^3
#
#
#
# Elastic Constant Matrix: (Units=GPa)
#
#
# Indices 1 2 3 4 5 6 
#
# 1 83.8985 34.5637 34.6618 3.0173 2.9723 -26.4343
# 2 34.5637 103.8217 45.6472 -13.6535 14.1407 -17.6331
# 3 34.6618 45.6472 122.9641 3.1986 11.6893 -6.2200
# 4 3.0173 -13.6535 3.1986 42.6118 3.6565 1.2434
# 5 2.9723 14.1407 11.6893 3.6565 34.2891 -1.7136
# 6 -26.4343 -17.6331 -6.2200 1.2434 -1.7136 42.8789
#
#
#
# Elastic Compliance Matrix: (Units=1/GPa)
#
#
# Indices 1 2 3 4 5 6 
#
# 1 0.017600 -0.003414 -0.003334 -0.002505 0.001741 0.009105
# 2 -0.003414 0.014334 -0.003906 0.005449 -0.004721 0.002877
# 3 -0.003334 -0.003906 0.010613 -0.001608 -0.001654 -0.002142
# 4 -0.002505 0.005449 -0.001608 0.025891 -0.004266 -0.000458
# 5 0.001741 -0.004721 -0.001654 -0.004266 0.031993 0.000294
# 6 0.009105 0.002877 -0.002142 -0.000458 0.000294 0.029832
#
#
# Mechanical properties :
#
#
# Convention : Reuss Voigt Hill
#
# Bulk Modulus (GPa) = 47.08179 60.04777 53.56478
# Shear Modulus (GPa) = 31.51584 37.01007 34.26296
#
# Velocity S-wave (km/s) = 3.82527 4.14532 3.98850
# Velocity P-wave (km/s) = 6.43196 7.12681 6.78829
#
# Compressibility (1/GPa) = 0.02123964
#
# Stress axis : x y z
#
# Youngs Moduli (GPa) = 56.81844 69.76404 94.22421
#
# Poissons Ratio (x) = 0.23815 0.31411
# Poissons Ratio (y) = 0.19396 0.36807
# Poissons Ratio (z) = 0.18942 0.27252
#
# Static dielectric constant tensor:
#      x y z
#    x 4.465490 0.447980 -0.280080 
#    y 0.447980 4.532110 -0.246390 
#    z -0.280080 -0.246390 3.886150 
# 
# 
# High freq. dielectric constant tensor:
#      x y z
#    x 1.860750 0.001380 -0.007810 
#    y 0.001380 1.849400 -0.011670 
#    z -0.007810 -0.011670 1.846310 
# 
# From -- ./inp_files/81325.got.cif
#   From: 2010.06.25/outbox.cif.g09.slc.cpg/sg2_41_cif.got.tgz:81325.got - 2010.06.27 13:26:56.
