data_PCOD8019449
_publ_section_title
;
Structure prediction by ZEFSAII (Michael W. Deem and Ramdas Pophale) SiO2 
 PCOD8019449
Probable space group: P -1
;
_chemical_formula_sum "Si O2"
_cell_formula_units_Z 14
_cell_length_a 15.804901
_cell_length_b 19.040653
_cell_length_c 8.895512
_cell_angle_alpha 142.271764
_cell_angle_beta 141.948311
_cell_angle_gamma 23.049970
_cell_volume 621.151717
_symmetry_space_group_name_H-M "P -1"
_symmetry_group_IT_number 2
_symmetry_cell_setting 'triclinic'
loop_
_space_group_symop_operation_xyz
x,y,z
-x,-y,-z
loop_
_atom_site_type_symbol
_atom_site_label
_atom_site_fract_x
_atom_site_fract_y
_atom_site_fract_z
Si Si1 0.582319 0.255902 0.590207
Si Si2 0.259286 0.258501 0.147721
Si Si3 0.058165 0.912440 0.768687
Si Si4 0.365104 0.515584 0.460544
Si Si5 0.618184 0.933089 0.291520
Si Si6 0.765946 0.620702 0.131337
Si Si7 0.563629 0.209713 0.807576
O O1 0.443034 0.233135 0.317632
O O2 0.513200 0.402045 0.626773
O O3 0.535545 0.313622 0.800064
O O4 0.851428 0.064109 0.622443
O O5 0.031272 0.465122 0.237277
O O6 0.362970 0.110153 0.172932
O O7 0.216679 0.210917 0.858333
O O8 0.137799 0.728329 0.555017
O O9 0.283672 0.838504 0.925172
O O10 0.000000 0.000000 0.000000
O O11 0.500000 0.500000 0.500000
O O12 0.297046 0.436892 0.170162
O O13 0.636866 0.823978 0.259441
O O14 0.686644 0.012784 0.586144
O O15 0.683227 0.646523 0.227725
#
# Coordination Sequence:
#
# PCOD8019449 Si02
#       7
#     2   2   2   2   2   2   2
#     4  10  24  45  73  95 136 178 226 270 337 397
#     4  10  23  40  70 103 128 176 226 270 335 398
#     4  10  24  45  67  96 134 176 223 270 328 399
#     4  12  26  45  69 100 135 178 228 276 329 396
#     4  10  22  41  67  97 135 178 217 271 335 395
#     4  12  24  42  67 103 138 168 225 282 328 392
#     4  10  23  45  66 100 139 175 221 273 340 396
#
# _framework density 22.538775999999999
#
# number of rings (size 3 to 8) (size 9 to 14) (size 15 to 20)
#    0.000    1.429    2.857    0.857    8.000    5.143 
#    2.571    2.857    0.000    0.000    0.000    0.000 
#    0.000    0.000    0.000    0.000    0.000    0.000 
#
# Total GULP energy -173452.737043 kJ/mol
# GULP energy per Si atom -12389.481217 kJ/mol
# Density = 2.248748 g / cm^3
# Si number density = 22.538776 Si / 1000 Ang^3
#
#
#
# Elastic Constant Matrix: (Units=GPa)
#
#
# Indices 1 2 3 4 5 6 
#
# 1 106.5942 66.8418 22.5299 -13.4020 -13.0551 11.2928
# 2 66.8418 141.0641 33.1552 -8.2096 -14.7027 8.3314
# 3 22.5299 33.1552 80.2887 -4.1477 6.6109 -1.7233
# 4 -13.4020 -8.2096 -4.1477 32.8766 -4.9533 -0.9848
# 5 -13.0551 -14.7027 6.6109 -4.9533 26.5842 -1.5398
# 6 11.2928 8.3314 -1.7233 -0.9848 -1.5398 35.9761
#
#
#
# Elastic Compliance Matrix: (Units=1/GPa)
#
#
# Indices 1 2 3 4 5 6 
#
# 1 0.014976 -0.005503 -0.002193 0.005210 0.005644 -0.003147
# 2 -0.005503 0.011019 -0.003341 0.000713 0.004310 -0.000780
# 3 -0.002193 -0.003341 0.015001 -0.000788 -0.006693 0.001872
# 4 0.005210 0.000713 -0.000788 0.034029 0.009460 -0.000502
# 5 0.005644 0.004310 -0.006693 0.009460 0.046149 -0.000856
# 6 -0.003147 -0.000780 0.001872 -0.000502 -0.000856 0.029004
#
#
# Mechanical properties :
#
#
# Convention : Reuss Voigt Hill
#
# Bulk Modulus (GPa) = 52.85114 63.66676 58.25895
# Shear Modulus (GPa) = 28.00213 32.78205 30.39209
#
# Velocity S-wave (km/s) = 3.52859 3.81789 3.67609
# Velocity P-wave (km/s) = 6.33255 6.90971 6.62741
#
# Compressibility (1/GPa) = 0.01892107
#
# Stress axis : x y z
#
# Youngs Moduli (GPa) = 66.77569 90.75621 66.66436
#
# Poissons Ratio (x) = 0.49945 0.14619
# Poissons Ratio (y) = 0.36748 0.22270
# Poissons Ratio (z) = 0.14643 0.30318
#
# Static dielectric constant tensor:
#      x y z
#    x 4.052050 -0.156380 0.100230 
#    y -0.156380 4.332760 -0.159100 
#    z 0.100230 -0.159100 4.251600 
# 
# 
# High freq. dielectric constant tensor:
#      x y z
#    x 1.868400 -0.007590 0.001430 
#    y -0.007590 1.888050 0.002750 
#    z 0.001430 0.002750 1.897030 
# 
# From -- ./inp_files/337975.got.cif
#   From: 2010.06.25/outbox.cif.g09.slc.cpg/sg2_169_cif.got.tgz:337975.got - 2010.06.27 13:26:56.
