data_PCOD8019099
_publ_section_title
;
Structure prediction by ZEFSAII (Michael W. Deem and Ramdas Pophale) SiO2 
 PCOD8019099
Probable space group: P -1
;
_chemical_formula_sum "Si O2"
_cell_formula_units_Z 14
_cell_length_a 11.689753
_cell_length_b 17.825639
_cell_length_c 17.232767
_cell_angle_alpha 146.987496
_cell_angle_beta 21.163665
_cell_angle_gamma 134.737080
_cell_volume 648.204918
_symmetry_space_group_name_H-M "P -1"
_symmetry_group_IT_number 2
_symmetry_cell_setting 'triclinic'
loop_
_space_group_symop_operation_xyz
x,y,z
-x,-y,-z
loop_
_atom_site_type_symbol
_atom_site_label
_atom_site_fract_x
_atom_site_fract_y
_atom_site_fract_z
Si Si1 0.687159 0.662275 0.338150
Si Si2 0.700535 0.344645 0.279729
Si Si3 0.605956 0.607163 0.863512
Si Si4 0.305230 0.675711 0.264518
Si Si5 0.530106 0.832530 0.841740
Si Si6 0.589980 0.662378 0.226448
Si Si7 0.132500 0.832475 0.241119
O O1 0.381451 0.647929 0.570112
O O2 0.530324 0.726191 0.407411
O O3 0.817553 0.779928 0.397477
O O4 0.000000 0.500000 0.000000
O O5 0.500000 0.500000 0.500000
O O6 0.582561 0.217560 0.210676
O O7 0.094379 0.312458 0.990024
O O8 0.373803 0.508794 0.933690
O O9 0.000000 0.500000 0.500000
O O10 0.535506 0.704373 0.073429
O O11 0.460564 0.726069 0.990531
O O12 0.303101 0.747249 0.414374
O O13 0.915236 0.723330 0.525788
O O14 0.500000 0.500000 0.000000
O O15 0.257228 0.821084 0.064851
O O16 0.500000 0.000000 0.000000
O O17 0.000000 0.000000 0.500000
#
# Coordination Sequence:
#
# PCOD8019099 Si02
#       7
#     2   2   2   2   2   2   2
#     4  12  22  39  65  99 133 172 227 278 332 393
#     4  12  22  39  68  96 133 176 225 280 330 394
#     4  11  23  40  67  98 135 178 223 276 335 403
#     4  10  22  41  64  97 134 172 222 273 335 394
#     4  12  25  45  68  97 138 182 225 275 338 409
#     4  11  23  40  64  98 132 171 223 277 332 388
#     4  12  23  41  68 101 132 175 230 278 328 405
#
# _framework density 21.598109000000001
#
# number of rings (size 3 to 8) (size 9 to 14) (size 15 to 20)
#    0.000    0.571    4.286    6.000    2.000    0.000 
#    0.000    0.714    0.000    2.571    0.000    0.000 
#    0.000    0.000    0.000    0.000    0.000    0.000 
#
# Total GULP energy -173435.768382 kJ/mol
# GULP energy per Si atom -12388.269170 kJ/mol
# Density = 2.154895 g / cm^3
# Si number density = 21.598109 Si / 1000 Ang^3
#
#
#
# Elastic Constant Matrix: (Units=GPa)
#
#
# Indices 1 2 3 4 5 6 
#
# 1 126.0159 33.5684 34.8881 -19.1983 15.9796 -11.3183
# 2 33.5684 113.4570 38.5468 -8.7692 5.9450 2.4499
# 3 34.8881 38.5468 86.6731 -16.2532 4.5680 0.5537
# 4 -19.1983 -8.7692 -16.2532 42.9369 -8.4920 13.9318
# 5 15.9796 5.9450 4.5680 -8.4920 37.3674 -11.2009
# 6 -11.3183 2.4499 0.5537 13.9318 -11.2009 38.1357
#
#
#
# Elastic Compliance Matrix: (Units=1/GPa)
#
#
# Indices 1 2 3 4 5 6 
#
# 1 0.009947 -0.001758 -0.002711 0.002016 -0.002713 0.001571
# 2 -0.001758 0.010785 -0.003993 0.000217 -0.000874 -0.001493
# 3 -0.002711 -0.003993 0.015263 0.004567 0.000259 -0.002362
# 4 0.002016 0.000217 0.004567 0.029543 0.002390 -0.009573
# 5 -0.002713 -0.000874 0.000259 0.002390 0.030796 0.007419
# 6 0.001571 -0.001493 -0.002362 -0.009573 0.007419 0.032495
#
#
# Mechanical properties :
#
#
# Convention : Reuss Voigt Hill
#
# Bulk Modulus (GPa) = 52.43497 60.01695 56.22596
# Shear Modulus (GPa) = 32.87111 38.29750 35.58431
#
# Velocity S-wave (km/s) = 3.90544 4.21549 4.06343
# Velocity P-wave (km/s) = 6.68333 7.17929 6.93575
#
# Compressibility (1/GPa) = 0.01907124
#
# Stress axis : x y z
#
# Youngs Moduli (GPa) = 100.53699 92.71861 65.51963
#
# Poissons Ratio (x) = 0.16298 0.17763
# Poissons Ratio (y) = 0.17672 0.26161
# Poissons Ratio (z) = 0.27256 0.37021
#
# Static dielectric constant tensor:
#      x y z
#    x 4.635130 -1.085430 0.963900 
#    y -1.085430 2.695580 0.843520 
#    z 0.963900 0.843520 2.768420 
# 
# 
# High freq. dielectric constant tensor:
#      x y z
#    x 1.874620 -0.011150 0.016020 
#    y -0.011150 1.841210 -0.025740 
#    z 0.016020 -0.025740 1.820950 
# 
# From -- ./inp_files/285227.got.cif
#   From: 2010.06.25/outbox.cif.g09.slc.cpg/sg2_143_cif.got.tgz:285227.got - 2010.06.27 13:26:56.
