data_PCOD8019421
_publ_section_title
;
Structure prediction by ZEFSAII (Michael W. Deem and Ramdas Pophale) SiO2 
 PCOD8019421
Probable space group: P -1
;
_chemical_formula_sum "Si O2"
_cell_formula_units_Z 14
_cell_length_a 12.968498
_cell_length_b 8.561183
_cell_length_c 18.868372
_cell_angle_alpha 111.564786
_cell_angle_beta 27.239659
_cell_angle_gamma 129.490486
_cell_volume 612.978144
_symmetry_space_group_name_H-M "P -1"
_symmetry_group_IT_number 2
_symmetry_cell_setting 'triclinic'
loop_
_space_group_symop_operation_xyz
x,y,z
-x,-y,-z
loop_
_atom_site_type_symbol
_atom_site_label
_atom_site_fract_x
_atom_site_fract_y
_atom_site_fract_z
Si Si1 0.000923 0.141471 0.725389
Si Si2 0.648312 0.337333 0.374385
Si Si3 0.307778 0.219404 0.272104
Si Si4 0.505647 0.756384 0.070535
Si Si5 0.351909 0.730758 0.792906
Si Si6 0.822143 0.621636 0.913229
Si Si7 0.825153 0.253702 0.604679
O O1 0.271487 0.160707 0.598842
O O2 0.127044 0.399467 0.681978
O O3 0.898598 0.018214 0.690646
O O4 0.702063 0.987649 0.937545
O O5 0.632424 0.366885 0.304808
O O6 0.798493 0.234007 0.283192
O O7 0.389874 0.177122 0.288889
O O8 0.098149 0.261704 0.431701
O O9 0.630404 0.450938 0.070784
O O10 0.293657 0.515272 0.113302
O O11 0.252475 0.730091 0.265414
O O12 0.758189 0.787153 0.972311
O O13 0.473364 0.989821 0.744620
O O14 0.000000 0.500000 0.000000
O O15 0.000000 0.500000 0.500000
#
# Coordination Sequence:
#
# PCOD8019421 Si02
#       7
#     2   2   2   2   2   2   2
#     4  10  24  43  69 100 134 186 233 284 341 424
#     4  11  23  42  68 101 140 173 236 295 342 401
#     4  11  23  44  71 101 138 185 233 282 346 422
#     4  10  23  42  66  96 133 184 231 270 349 416
#     4  12  25  43  71 105 143 178 230 292 349 401
#     4  10  22  41  67  95 135 177 230 284 338 412
#     4  12  25  44  71 103 140 185 231 282 347 421
#
# _framework density 22.839314000000002
#
# number of rings (size 3 to 8) (size 9 to 14) (size 15 to 20)
#    0.000    1.143    4.286    1.286    2.000    2.857 
#    0.000    4.286    0.000    0.000    0.000    0.000 
#    0.000    0.000    0.000    0.000    0.000    0.000 
#
# Total GULP energy -173439.986084 kJ/mol
# GULP energy per Si atom -12388.570435 kJ/mol
# Density = 2.278733 g / cm^3
# Si number density = 22.839314 Si / 1000 Ang^3
#
#
#
# Elastic Constant Matrix: (Units=GPa)
#
#
# Indices 1 2 3 4 5 6 
#
# 1 98.6296 39.1027 21.8127 13.6429 -6.3401 9.7005
# 2 39.1027 100.8616 43.6430 0.6324 7.3856 4.2980
# 3 21.8127 43.6430 106.8024 11.3949 7.1781 8.3583
# 4 13.6429 0.6324 11.3949 45.2213 8.3051 6.9470
# 5 -6.3401 7.3856 7.1781 8.3051 28.1138 5.0798
# 6 9.7005 4.2980 8.3583 6.9470 5.0798 24.9538
#
#
#
# Elastic Compliance Matrix: (Units=1/GPa)
#
#
# Indices 1 2 3 4 5 6 
#
# 1 0.013922 -0.005606 -0.000165 -0.004646 0.006838 -0.004490
# 2 -0.005606 0.014508 -0.004919 0.003447 -0.005092 0.001405
# 3 -0.000165 -0.004919 0.011885 -0.002407 -0.000659 -0.002265
# 4 -0.004646 0.003447 -0.002407 0.026167 -0.008427 -0.003550
# 5 0.006838 -0.005092 -0.000659 -0.008427 0.042530 -0.007872
# 6 -0.004490 0.001405 -0.002265 -0.003550 -0.007872 0.044927
#
#
# Mechanical properties :
#
#
# Convention : Reuss Voigt Hill
#
# Bulk Modulus (GPa) = 52.81298 57.26782 55.04040
# Shear Modulus (GPa) = 27.52847 33.10679 30.31763
#
# Velocity S-wave (km/s) = 3.47552 3.81143 3.64735
# Velocity P-wave (km/s) = 6.26734 6.67068 6.47216
#
# Compressibility (1/GPa) = 0.01893474
#
# Stress axis : x y z
#
# Youngs Moduli (GPa) = 71.82902 68.92825 84.13818
#
# Poissons Ratio (x) = 0.38643 0.01388
# Poissons Ratio (y) = 0.40269 0.41387
# Poissons Ratio (z) = 0.01185 0.33905
#
# Static dielectric constant tensor:
#      x y z
#    x 4.025190 0.098420 -0.002110 
#    y 0.098420 4.255410 0.055920 
#    z -0.002110 0.055920 4.504360 
# 
# 
# High freq. dielectric constant tensor:
#      x y z
#    x 1.889700 0.006550 0.006480 
#    y 0.006550 1.893550 0.011850 
#    z 0.006480 0.011850 1.919130 
# 
# From -- ./inp_files/156754.got.cif
#   From: 2010.06.25/outbox.cif.g09.slc.cpg/sg2_79_cif.got.tgz:156754.got - 2010.06.27 13:26:56.
