data_PCOD8019881
_publ_section_title
;
Structure prediction by ZEFSAII (Michael W. Deem and Ramdas Pophale) SiO2 
 PCOD8019881
Probable space group: P -1
;
_chemical_formula_sum "Si O2"
_cell_formula_units_Z 16
_cell_length_a 12.450007
_cell_length_b 10.260574
_cell_length_c 13.760351
_cell_angle_alpha 99.715535
_cell_angle_beta 34.499239
_cell_angle_gamma 76.277668
_cell_volume 724.910284
_symmetry_space_group_name_H-M "P -1"
_symmetry_group_IT_number 2
_symmetry_cell_setting 'triclinic'
loop_
_space_group_symop_operation_xyz
x,y,z
-x,-y,-z
loop_
_atom_site_type_symbol
_atom_site_label
_atom_site_fract_x
_atom_site_fract_y
_atom_site_fract_z
Si Si1 0.266510 0.571481 0.617653
Si Si2 0.586908 0.961413 0.542301
Si Si3 0.351375 0.790277 0.016838
Si Si4 0.222192 0.060330 0.997693
Si Si5 0.038388 0.545573 0.162846
Si Si6 0.793040 0.087488 0.526713
Si Si7 0.610956 0.766925 0.999324
Si Si8 0.510731 0.470501 0.747064
O O1 0.500000 0.500000 0.500000
O O2 0.107422 0.519758 0.771180
O O3 0.398739 0.480858 0.403644
O O4 0.080926 0.787092 0.779647
O O5 0.658214 0.076534 0.534371
O O6 0.500000 0.000000 0.500000
O O7 0.833140 0.756490 0.356174
O O8 0.360657 0.015340 0.786257
O O9 0.300475 0.883765 0.962811
O O10 0.567815 0.762848 0.916344
O O11 0.445335 0.597522 0.901730
O O12 0.090643 0.910091 0.288546
O O13 0.271724 0.145125 0.055998
O O14 0.193871 0.437792 0.132358
O O15 0.257511 0.496572 0.918119
O O16 0.752133 0.263454 0.566052
O O17 0.662955 0.105390 0.726260
#
# Coordination Sequence:
#
# PCOD8019881 Si02
#       8
#     2   2   2   2   2   2   2   2
#     4  11  25  43  68  97 135 180 224 282 343 395
#     4  11  24  43  69  95 133 185 220 280 347 394
#     4  12  21  42  71  96 138 178 222 279 344 398
#     4  10  23  44  65 100 140 168 235 282 326 420
#     4  10  23  44  63 100 139 164 236 271 327 417
#     4  10  22  42  62 101 135 167 234 275 322 419
#     4   9  22  42  67  97 135 182 216 281 347 388
#     4  11  24  43  67 102 137 177 227 282 333 408
#
# _framework density 22.071698000000001
#
# number of rings (size 3 to 8) (size 9 to 14) (size 15 to 20)
#    0.000    1.500    2.500    2.250    3.500    2.500 
#    4.500    5.000    0.000    0.000    0.000    0.000 
#    0.000    0.000    0.000    0.000    0.000    0.000 
#
# Total GULP energy -198319.317126 kJ/mol
# GULP energy per Si atom -12394.957320 kJ/mol
# Density = 2.202146 g / cm^3
# Si number density = 22.071698 Si / 1000 Ang^3
#
#
#
# Elastic Constant Matrix: (Units=GPa)
#
#
# Indices 1 2 3 4 5 6 
#
# 1 77.2177 13.4195 19.6067 3.0971 6.1707 -14.9957
# 2 13.4195 79.9805 23.0835 15.2348 9.8995 -0.3248
# 3 19.6067 23.0835 100.6793 12.9355 -2.4211 -10.2444
# 4 3.0971 15.2348 12.9355 44.0559 9.1457 -3.4958
# 5 6.1707 9.8995 -2.4211 9.1457 24.6206 4.6321
# 6 -14.9957 -0.3248 -10.2444 -3.4958 4.6321 27.3514
#
#
#
# Elastic Compliance Matrix: (Units=1/GPa)
#
#
# Indices 1 2 3 4 5 6 
#
# 1 0.015990 -0.001654 -0.002212 0.002088 -0.006069 0.009213
# 2 -0.001654 0.014781 -0.002890 -0.003381 -0.004271 -0.001522
# 3 -0.002212 -0.002890 0.011696 -0.002835 0.003510 0.002177
# 4 0.002088 -0.003381 -0.002835 0.027159 -0.010528 0.005297
# 5 -0.006069 -0.004271 0.003510 -0.010528 0.050357 -0.011937
# 6 0.009213 -0.001522 0.002177 0.005297 -0.011937 0.045109
#
#
# Mechanical properties :
#
#
# Convention : Reuss Voigt Hill
#
# Bulk Modulus (GPa) = 34.53501 41.12189 37.82845
# Shear Modulus (GPa) = 26.55987 32.65675 29.60831
#
# Velocity S-wave (km/s) = 3.47269 3.85070 3.66657
# Velocity P-wave (km/s) = 5.63561 6.20016 5.92462
#
# Compressibility (1/GPa) = 0.02895612
#
# Stress axis : x y z
#
# Youngs Moduli (GPa) = 62.53985 67.65419 85.49890
#
# Poissons Ratio (x) = 0.11188 0.18908
# Poissons Ratio (y) = 0.10342 0.24711
# Poissons Ratio (z) = 0.13831 0.19553
#
# Static dielectric constant tensor:
#      x y z
#    x 3.749620 0.091280 -0.057790 
#    y 0.091280 4.023010 -0.001020 
#    z -0.057790 -0.001020 4.398290 
# 
# 
# High freq. dielectric constant tensor:
#      x y z
#    x 1.844550 0.005480 -0.011510 
#    y 0.005480 1.868730 0.007510 
#    z -0.011510 0.007510 1.881330 
# 
# From -- ./inp_files/169610.got.cif
#   From: 2010.06.25/outbox.cif.g09.slc.cpg/sg2_85_cif.got.tgz:169610.got - 2010.06.27 13:26:56.
