data_PCOD8019405
_publ_section_title
;
Structure prediction by ZEFSAII (Michael W. Deem and Ramdas Pophale) SiO2 
 PCOD8019405
Probable space group: P -1
;
_chemical_formula_sum "Si O2"
_cell_formula_units_Z 16
_cell_length_a 15.496831
_cell_length_b 12.147288
_cell_length_c 14.492215
_cell_angle_alpha 148.657978
_cell_angle_beta 140.258077
_cell_angle_gamma 61.695685
_cell_volume 758.255356
_symmetry_space_group_name_H-M "P -1"
_symmetry_group_IT_number 2
_symmetry_cell_setting 'triclinic'
loop_
_space_group_symop_operation_xyz
x,y,z
-x,-y,-z
loop_
_atom_site_type_symbol
_atom_site_label
_atom_site_fract_x
_atom_site_fract_y
_atom_site_fract_z
Si Si1 0.383196 0.620232 0.174181
Si Si2 0.271249 0.934122 0.207979
Si Si3 0.258310 0.072239 0.099066
Si Si4 0.812157 0.016496 0.218895
Si Si5 0.136721 0.087023 0.531424
Si Si6 0.627868 0.420264 0.654711
Si Si7 0.987966 0.175483 0.942092
Si Si8 0.816606 0.280184 0.580676
O O1 0.306577 0.727625 0.121053
O O2 0.337052 0.633043 0.251201
O O3 0.577281 0.783154 0.440023
O O4 0.311553 0.331401 0.877931
O O5 0.111483 0.884366 0.088985
O O6 0.240980 0.901021 0.049400
O O7 0.440505 0.311930 0.409633
O O8 0.205079 0.900747 0.839270
O O9 0.148592 0.184142 0.104710
O O10 0.737849 0.109788 0.300930
O O11 0.725955 0.716182 0.927848
O O12 0.999112 0.135301 0.484216
O O13 0.107198 0.839479 0.380640
O O14 0.124870 0.043175 0.380592
O O15 0.678450 0.282543 0.525452
O O16 0.037451 0.442829 0.130894
#
# Coordination Sequence:
#
# PCOD8019405 Si02
#       8
#     2   2   2   2   2   2   2   2
#     4  10  22  41  67  95 125 171 206 271 319 369
#     4  10  22  42  67  88 129 175 215 254 318 376
#     4  10  23  44  61  88 132 175 208 266 309 372
#     4  11  23  38  64  95 131 167 203 264 320 382
#     4  11  22  39  63  99 133 157 213 267 325 374
#     4  11  22  42  65  92 134 161 211 267 323 368
#     4  11  23  39  64  94 127 173 213 258 316 381
#     4  12  23  37  66 102 127 168 205 264 329 381
#
# _framework density 21.101071000000001
#
# number of rings (size 3 to 8) (size 9 to 14) (size 15 to 20)
#    0.000    1.250    3.750    3.000    1.750    1.000 
#    0.000    6.875    0.000    0.000    0.000    0.000 
#    0.000    0.000    0.000    0.000    0.000    0.000 
#
# Total GULP energy -198429.786373 kJ/mol
# GULP energy per Si atom -12401.861648 kJ/mol
# Density = 2.105304 g / cm^3
# Si number density = 21.101071 Si / 1000 Ang^3
#
#
#
# Elastic Constant Matrix: (Units=GPa)
#
#
# Indices 1 2 3 4 5 6 
#
# 1 132.1175 61.5848 47.0386 -5.2263 -3.6181 13.7326
# 2 61.5848 106.8151 46.6267 -10.6825 -7.5240 18.1397
# 3 47.0386 46.6267 83.1670 -3.7961 -0.1660 -3.2076
# 4 -5.2263 -10.6825 -3.7961 27.4966 -0.1556 -2.4614
# 5 -3.6181 -7.5240 -0.1660 -0.1556 34.4469 0.7105
# 6 13.7326 18.1397 -3.2076 -2.4614 0.7105 26.2153
#
#
#
# Elastic Compliance Matrix: (Units=1/GPa)
#
#
# Indices 1 2 3 4 5 6 
#
# 1 0.011380 -0.004047 -0.004326 -0.000339 0.000366 -0.003732
# 2 -0.004047 0.017570 -0.007783 0.004044 0.003614 -0.010708
# 3 -0.004326 -0.007783 0.019203 -0.000310 -0.002270 0.010034
# 4 -0.000339 0.004044 -0.000310 0.037916 0.001000 0.000874
# 5 0.000366 0.003614 -0.002270 0.001000 0.029928 -0.003688
# 6 -0.003732 -0.010708 0.010034 0.000874 -0.003688 0.048920
#
#
# Mechanical properties :
#
#
# Convention : Reuss Voigt Hill
#
# Bulk Modulus (GPa) = 63.12824 70.28888 66.70856
# Shear Modulus (GPa) = 24.69021 28.75508 26.72264
#
# Velocity S-wave (km/s) = 3.42437 3.69552 3.56253
# Velocity P-wave (km/s) = 6.75405 7.18276 6.97170
#
# Compressibility (1/GPa) = 0.01584077
#
# Stress axis : x y z
#
# Youngs Moduli (GPa) = 87.86990 56.91443 52.07655
#
# Poissons Ratio (x) = 0.23035 0.22530
# Poissons Ratio (y) = 0.35563 0.40529
# Poissons Ratio (z) = 0.38015 0.44295
#
# Static dielectric constant tensor:
#      x y z
#    x 4.006260 0.262180 0.033340 
#    y 0.262180 3.850360 -0.108610 
#    z 0.033340 -0.108610 3.723420 
# 
# 
# High freq. dielectric constant tensor:
#      x y z
#    x 1.830860 0.018000 0.002840 
#    y 0.018000 1.826100 -0.009930 
#    z 0.002840 -0.009930 1.818770 
# 
# From -- ./inp_files/515747.got.cif
#   From: 2010.06.25/outbox.cif.g09.slc.cpg/sg2_258_cif.got.tgz:515747.got - 2010.06.27 13:26:56.
