data_PCOD8019731
_publ_section_title
;
Structure prediction by ZEFSAII (Michael W. Deem and Ramdas Pophale) SiO2 
 PCOD8019731
Probable space group: P -1
;
_chemical_formula_sum "Si O2"
_cell_formula_units_Z 14
_cell_length_a 10.145594
_cell_length_b 9.704874
_cell_length_c 9.275744
_cell_angle_alpha 45.078846
_cell_angle_beta 121.952571
_cell_angle_gamma 110.023470
_cell_volume 547.965206
_symmetry_space_group_name_H-M "P -1"
_symmetry_group_IT_number 2
_symmetry_cell_setting 'triclinic'
loop_
_space_group_symop_operation_xyz
x,y,z
-x,-y,-z
loop_
_atom_site_type_symbol
_atom_site_label
_atom_site_fract_x
_atom_site_fract_y
_atom_site_fract_z
Si Si1 0.388348 0.097555 0.661029
Si Si2 0.938058 0.374074 0.257255
Si Si3 0.680052 0.644164 0.044739
Si Si4 0.819423 0.056838 0.589746
Si Si5 0.706941 0.929049 0.072772
Si Si6 0.071436 0.745040 0.987446
Si Si7 0.455632 0.702660 0.634788
O O1 0.456041 0.280287 0.479478
O O2 0.274704 0.980994 0.581470
O O3 0.287282 0.165891 0.692850
O O4 0.527212 0.951639 0.903480
O O5 0.777753 0.492570 0.114056
O O6 0.957076 0.202660 0.515153
O O7 0.924532 0.277435 0.164997
O O8 0.073634 0.530871 0.221737
O O9 0.575968 0.520930 0.185794
O O10 0.782420 0.779600 0.107295
O O11 0.570276 0.776285 0.774261
O O12 0.703001 0.158103 0.564759
O O13 0.907408 0.862813 0.848079
O O14 0.785350 0.137213 0.959963
#
# Coordination Sequence:
#
# PCOD8019731 Si02
#       7
#     2   2   2   2   2   2   2
#     4  11  23  41  68  99 137 178 227 276 343 405
#     4  10  23  42  67  98 132 185 231 267 330 423
#     4  10  22  43  68 104 138 171 230 289 334 401
#     4  11  21  43  73  98 128 183 236 275 320 432
#     4  11  25  42  65 105 144 169 216 298 348 383
#     4  11  24  44  70  97 138 182 229 277 342 402
#     4  10  22  41  71 101 132 183 231 269 336 425
#
# _framework density 25.549067000000001
#
# number of rings (size 3 to 8) (size 9 to 14) (size 15 to 20)
#    0.000    1.429    2.857    1.714    2.000    1.143 
#    2.571    1.429    0.000    0.000    0.000    0.000 
#    0.000    0.000    0.000    0.000    0.000    0.000 
#
# Total GULP energy -173549.590605 kJ/mol
# GULP energy per Si atom -12396.399329 kJ/mol
# Density = 2.549092 g / cm^3
# Si number density = 25.549067 Si / 1000 Ang^3
#
#
#
# Elastic Constant Matrix: (Units=GPa)
#
#
# Indices 1 2 3 4 5 6 
#
# 1 80.8208 25.2272 5.2105 2.9518 -12.6360 -1.8316
# 2 25.2272 120.6924 14.7033 3.2189 -6.3183 4.6481
# 3 5.2105 14.7033 58.5614 -8.1617 -21.5238 1.1765
# 4 2.9518 3.2189 -8.1617 27.0442 2.4302 -1.5368
# 5 -12.6360 -6.3183 -21.5238 2.4302 38.8914 -8.6279
# 6 -1.8316 4.6481 1.1765 -1.5368 -8.6279 35.2158
#
#
#
# Elastic Compliance Matrix: (Units=1/GPa)
#
#
# Indices 1 2 3 4 5 6 
#
# 1 0.014134 -0.002881 0.001241 -0.001177 0.005405 0.002347
# 2 -0.002881 0.009259 -0.002693 -0.001587 -0.001188 -0.001642
# 3 0.001241 -0.002693 0.023280 0.006207 0.013158 0.003137
# 4 -0.001177 -0.001587 0.006207 0.039204 0.000752 0.001836
# 5 0.005405 -0.001188 0.013158 0.000752 0.036502 0.008974
# 6 0.002347 -0.001642 0.003137 0.001836 0.008974 0.030909
#
#
# Mechanical properties :
#
#
# Convention : Reuss Voigt Hill
#
# Bulk Modulus (GPa) = 26.31132 38.92850 32.61991
# Shear Modulus (GPa) = 28.63316 34.55918 31.59617
#
# Velocity S-wave (km/s) = 3.35134 3.68184 3.52047
# Velocity P-wave (km/s) = 5.02951 5.77446 5.41481
#
# Compressibility (1/GPa) = 0.03800645
#
# Stress axis : x y z
#
# Youngs Moduli (GPa) = 70.75277 107.99964 42.95566
#
# Poissons Ratio (x) = 0.31120 -0.05332
# Poissons Ratio (y) = 0.20387 0.11568
# Poissons Ratio (z) = -0.08783 0.29085
#
# Static dielectric constant tensor:
#      x y z
#    x 4.772130 0.019990 -0.328340 
#    y 0.019990 4.597150 -0.121780 
#    z -0.328340 -0.121780 4.389880 
# 
# 
# High freq. dielectric constant tensor:
#      x y z
#    x 2.031540 0.004560 -0.023220 
#    y 0.004560 2.008320 -0.011200 
#    z -0.023220 -0.011200 2.003490 
# 
# From -- ./inp_files/242276.got.cif
#   From: 2010.06.25/outbox.cif.g09.slc.cpg/sg2_122_cif.got.tgz:242276.got - 2010.06.27 13:26:56.
