data_PCOD8019014
_publ_section_title
;
Structure prediction by ZEFSAII (Michael W. Deem and Ramdas Pophale) SiO2 
 PCOD8019014
Probable space group: P -1
;
_chemical_formula_sum "Si O2"
_cell_formula_units_Z 16
_cell_length_a 19.302027
_cell_length_b 25.806235
_cell_length_c 8.085931
_cell_angle_alpha 145.740122
_cell_angle_beta 136.283953
_cell_angle_gamma 19.830033
_cell_volume 736.926884
_symmetry_space_group_name_H-M "P -1"
_symmetry_group_IT_number 2
_symmetry_cell_setting 'triclinic'
loop_
_space_group_symop_operation_xyz
x,y,z
-x,-y,-z
loop_
_atom_site_type_symbol
_atom_site_label
_atom_site_fract_x
_atom_site_fract_y
_atom_site_fract_z
Si Si1 0.939281 0.317943 0.566527
Si Si2 0.711262 0.234950 0.768051
Si Si3 0.240164 0.366729 0.728755
Si Si4 0.382393 0.053145 0.594894
Si Si5 0.158136 0.789505 0.744737
Si Si6 0.152281 0.770127 0.322184
Si Si7 0.274740 0.503427 0.660886
Si Si8 0.808739 0.623273 0.705941
O O1 0.979115 0.191730 0.404267
O O2 0.786840 0.410851 0.399881
O O3 0.157694 0.184623 0.519316
O O4 0.807034 0.493680 0.918422
O O5 0.702865 0.307745 0.783586
O O6 0.521730 0.316472 0.637111
O O7 0.684959 0.313454 0.102271
O O8 0.924460 0.002458 0.532253
O O9 0.248304 0.364987 0.542248
O O10 0.056950 0.446574 0.686715
O O11 0.467939 0.146130 0.597286
O O12 0.500000 0.000000 0.500000
O O13 0.341962 0.169014 0.958948
O O14 0.267835 0.689283 0.487821
O O15 0.000000 0.000000 0.000000
O O16 0.133563 0.675530 0.004399
O O17 0.227656 0.433027 0.385761
#
# Coordination Sequence:
#
# PCOD8019014 Si02
#       8
#     2   2   2   2   2   2   2   2
#     4  11  24  41  64  96 129 166 221 265 318 390
#     4  10  23  43  60  92 129 167 215 263 319 378
#     4  10  22  43  65  91 130 166 212 269 322 383
#     4  11  23  42  66  95 128 170 209 264 328 385
#     4  10  22  44  65  92 131 169 213 271 314 378
#     4  10  22  41  64  87 127 170 211 266 317 372
#     4  12  23  39  64  94 128 166 214 263 319 386
#     4  10  23  41  63  96 128 164 215 268 319 389
#
# _framework density 21.711786
#
# number of rings (size 3 to 8) (size 9 to 14) (size 15 to 20)
#    0.000    1.500    1.250    3.000    0.000    7.500 
#    2.250    0.000    0.000    0.000    0.000    0.000 
#    0.000    0.000    0.000    0.000    0.000    0.000 
#
# Total GULP energy -198334.420600 kJ/mol
# GULP energy per Si atom -12395.901288 kJ/mol
# Density = 2.166237 g / cm^3
# Si number density = 21.711786 Si / 1000 Ang^3
#
#
#
# Elastic Constant Matrix: (Units=GPa)
#
#
# Indices 1 2 3 4 5 6 
#
# 1 105.8759 43.8895 52.5075 -6.4183 -1.9940 10.1354
# 2 43.8895 93.3104 45.7484 -12.9069 -11.0088 6.6715
# 3 52.5075 45.7484 130.0235 -5.8596 -4.9714 8.2682
# 4 -6.4183 -12.9069 -5.8596 35.2037 8.4339 -7.4098
# 5 -1.9940 -11.0088 -4.9714 8.4339 44.9500 -1.8455
# 6 10.1354 6.6715 8.2682 -7.4098 -1.8455 25.1007
#
#
#
# Elastic Compliance Matrix: (Units=1/GPa)
#
#
# Indices 1 2 3 4 5 6 
#
# 1 0.013372 -0.004396 -0.003700 -0.000217 -0.000981 -0.003149
# 2 -0.004396 0.015203 -0.003320 0.003644 0.002481 0.000086
# 3 -0.003700 -0.003320 0.010416 -0.000456 0.000212 -0.001173
# 4 -0.000217 0.003644 -0.000456 0.032605 -0.004935 0.008532
# 5 -0.000981 0.002481 0.000212 -0.004935 0.023759 -0.000043
# 6 -0.003149 0.000086 -0.001173 0.008532 -0.000043 0.043990
#
#
# Mechanical properties :
#
#
# Convention : Reuss Voigt Hill
#
# Bulk Modulus (GPa) = 61.89181 68.16674 65.02927
# Shear Modulus (GPa) = 29.83931 33.52182 31.68057
#
# Velocity S-wave (km/s) = 3.71123 3.93357 3.82402
# Velocity P-wave (km/s) = 6.85071 7.21769 7.03659
#
# Compressibility (1/GPa) = 0.01615723
#
# Stress axis : x y z
#
# Youngs Moduli (GPa) = 74.78096 65.77574 96.00926
#
# Poissons Ratio (x) = 0.28917 0.35528
# Poissons Ratio (y) = 0.32876 0.31877
# Poissons Ratio (z) = 0.27672 0.21839
#
# Static dielectric constant tensor:
#      x y z
#    x 4.073320 0.337200 -0.197140 
#    y 0.337200 3.915040 -0.103760 
#    z -0.197140 -0.103760 4.235110 
# 
# 
# High freq. dielectric constant tensor:
#      x y z
#    x 1.851470 0.015930 -0.002480 
#    y 0.015930 1.847540 -0.000770 
#    z -0.002480 -0.000770 1.874770 
# 
# From -- ./inp_files/350207.got.cif
#   From: 2010.06.25/outbox.cif.g09.slc.cpg/sg2_176_cif.got.tgz:350207.got - 2010.06.27 13:26:56.
