data_PCOD8019487
_publ_section_title
;
Structure prediction by ZEFSAII (Michael W. Deem and Ramdas Pophale) SiO2 
 PCOD8019487
Probable space group: P -1
;
_chemical_formula_sum "Si O2"
_cell_formula_units_Z 16
_cell_length_a 15.495133
_cell_length_b 8.984841
_cell_length_c 9.284634
_cell_angle_alpha 68.236207
_cell_angle_beta 142.002736
_cell_angle_gamma 96.724752
_cell_volume 703.537010
_symmetry_space_group_name_H-M "P -1"
_symmetry_group_IT_number 2
_symmetry_cell_setting 'triclinic'
loop_
_space_group_symop_operation_xyz
x,y,z
-x,-y,-z
loop_
_atom_site_type_symbol
_atom_site_label
_atom_site_fract_x
_atom_site_fract_y
_atom_site_fract_z
Si Si1 0.190435 0.178359 0.573364
Si Si2 0.996400 0.682882 0.477628
Si Si3 0.492341 0.179264 0.995874
Si Si4 0.263343 0.786011 0.869760
Si Si5 0.148060 0.372522 0.179877
Si Si6 0.437071 0.819104 0.590444
Si Si7 0.348365 0.597430 0.336137
Si Si8 0.255926 0.181185 0.108790
O O1 0.041263 0.293581 0.410439
O O2 0.180238 0.202938 0.378980
O O3 0.212879 0.986851 0.715188
O O4 0.318327 0.258978 0.765202
O O5 0.000000 0.500000 0.500000
O O6 0.154333 0.713336 0.656178
O O7 0.862329 0.821230 0.169756
O O8 0.570191 0.280268 0.954121
O O9 0.578314 0.168290 0.262850
O O10 0.500000 0.000000 0.000000
O O11 0.260733 0.733251 0.051991
O O12 0.271248 0.462413 0.330340
O O13 0.155896 0.310431 0.047953
O O14 0.000000 0.500000 0.000000
O O15 0.366445 0.685779 0.477481
O O16 0.609457 0.757615 0.793807
O O17 0.336781 0.996708 0.336867
O O18 0.500000 0.500000 0.500000
#
# Coordination Sequence:
#
# PCOD8019487 Si02
#       8
#     2   2   2   2   2   2   2   2
#     4  11  23  45  68  96 135 188 236 282 345 426
#     4  12  25  43  66 101 144 184 227 290 362 424
#     4  10  22  41  68 104 134 174 236 295 346 400
#     4  11  25  44  72 101 138 186 238 287 352 431
#     4  12  26  46  69 104 149 190 230 298 372 423
#     4  11  24  42  74 104 139 185 246 298 346 424
#     4  12  25  45  71 107 145 189 239 295 363 432
#     4  11  23  43  69 102 140 188 240 290 355 428
#
# _framework density 22.742228000000001
#
# number of rings (size 3 to 8) (size 9 to 14) (size 15 to 20)
#    0.000    0.750    2.500    5.625    5.250    3.000 
#    0.000    3.750    0.000    0.000    0.000    0.000 
#    0.000    0.000    0.000    0.000    0.000    0.000 
#
# Total GULP energy -198285.364448 kJ/mol
# GULP energy per Si atom -12392.835278 kJ/mol
# Density = 2.269047 g / cm^3
# Si number density = 22.742228 Si / 1000 Ang^3
#
#
#
# Elastic Constant Matrix: (Units=GPa)
#
#
# Indices 1 2 3 4 5 6 
#
# 1 108.1435 42.1087 21.2966 7.9404 7.1377 -5.5521
# 2 42.1087 97.1465 23.6022 19.0710 3.6071 -2.1832
# 3 21.2966 23.6022 88.3668 16.7927 -0.8959 1.1781
# 4 7.9404 19.0710 16.7927 40.6199 1.0661 0.9544
# 5 7.1377 3.6071 -0.8959 1.0661 52.4561 4.5687
# 6 -5.5521 -2.1832 1.1781 0.9544 4.5687 35.8258
#
#
#
# Elastic Compliance Matrix: (Units=1/GPa)
#
#
# Indices 1 2 3 4 5 6 
#
# 1 0.011514 -0.004606 -0.001698 0.000611 -0.001442 0.001727
# 2 -0.004606 0.013652 -0.001624 -0.004839 -0.000271 0.000335
# 3 -0.001698 -0.001624 0.012990 -0.004276 0.000718 -0.000767
# 4 0.000611 -0.004839 -0.004276 0.028566 -0.000336 -0.000778
# 5 -0.001442 -0.000271 0.000718 -0.000336 0.019537 -0.002746
# 6 0.001727 0.000335 -0.000767 -0.000778 -0.002746 0.028597
#
#
# Mechanical properties :
#
#
# Convention : Reuss Voigt Hill
#
# Bulk Modulus (GPa) = 44.84472 51.96353 48.40412
# Shear Modulus (GPa) = 36.19395 39.55699 37.87547
#
# Velocity S-wave (km/s) = 3.99367 4.17509 4.08539
# Velocity P-wave (km/s) = 6.40526 6.79267 6.60181
#
# Compressibility (1/GPa) = 0.02229917
#
# Stress axis : x y z
#
# Youngs Moduli (GPa) = 86.85264 73.24864 76.98371
#
# Poissons Ratio (x) = 0.33736 0.13075
# Poissons Ratio (y) = 0.40001 0.12503
# Poissons Ratio (z) = 0.14752 0.11896
#
# Static dielectric constant tensor:
#      x y z
#    x 4.561580 0.047410 0.105150 
#    y 0.047410 3.955270 0.136270 
#    z 0.105150 0.136270 4.559710 
# 
# 
# High freq. dielectric constant tensor:
#      x y z
#    x 1.907610 -0.000460 0.001620 
#    y -0.000460 1.885340 0.000380 
#    z 0.001620 0.000380 1.907810 
# 
# From -- ./inp_files/298026.got.cif
#   From: 2010.06.25/outbox.cif.g09.slc.cpg/sg2_150_cif.got.tgz:298026.got - 2010.06.27 13:26:56.
