data_PCOD8019155
_publ_section_title
;
Structure prediction by ZEFSAII (Michael W. Deem and Ramdas Pophale) SiO2 
 PCOD8019155
Probable space group: P -1
;
_chemical_formula_sum "Si O2"
_cell_formula_units_Z 16
_cell_length_a 8.383485
_cell_length_b 17.170384
_cell_length_c 19.615378
_cell_angle_alpha 20.631194
_cell_angle_beta 55.824018
_cell_angle_gamma 65.433403
_cell_volume 762.286720
_symmetry_space_group_name_H-M "P -1"
_symmetry_group_IT_number 2
_symmetry_cell_setting 'triclinic'
loop_
_space_group_symop_operation_xyz
x,y,z
-x,-y,-z
loop_
_atom_site_type_symbol
_atom_site_label
_atom_site_fract_x
_atom_site_fract_y
_atom_site_fract_z
Si Si1 0.407058 0.062286 0.403763
Si Si2 0.628094 0.379684 0.283524
Si Si3 0.430329 0.951808 0.157387
Si Si4 0.762419 0.222762 0.077891
Si Si5 0.559936 0.766531 0.413314
Si Si6 0.113070 0.135899 0.142747
Si Si7 0.750376 0.378605 0.654430
Si Si8 0.768463 0.709667 0.638796
O O1 0.579171 0.197249 0.196110
O O2 0.284631 0.227870 0.322556
O O3 0.500000 0.000000 0.500000
O O4 0.263644 0.802742 0.618593
O O5 0.614270 0.369220 0.377603
O O6 0.397620 0.288060 0.380570
O O7 0.755734 0.653822 0.007933
O O8 0.455526 0.830217 0.320681
O O9 0.334767 0.735634 0.304618
O O10 0.264426 0.076632 0.102937
O O11 0.649643 0.160270 0.911401
O O12 0.971150 0.247681 0.045475
O O13 0.715554 0.011007 0.208780
O O14 0.798116 0.461667 0.831848
O O15 0.680918 0.598687 0.502137
O O16 0.988643 0.907706 0.404057
O O17 0.000000 0.500000 0.500000
#
# Coordination Sequence:
#
# PCOD8019155 Si02
#       8
#     2   2   2   2   2   2   2   2
#     4   9  18  42  62  88 132 172 211 270 316 366
#     4  10  22  41  65  91 133 167 213 266 313 375
#     4  11  26  42  68  97 131 165 208 262 317 383
#     4  11  23  38  69  93 127 177 216 259 320 375
#     4  11  22  45  67  94 132 169 206 260 320 375
#     4  12  23  41  64  97 126 167 215 266 312 379
#     4  11  25  46  68  95 131 165 207 261 318 380
#     4  11  23  42  64  91 129 175 215 263 323 371
#
# _framework density 20.989477999999998
#
# number of rings (size 3 to 8) (size 9 to 14) (size 15 to 20)
#    0.000    1.250    5.000    2.250    1.750    1.000 
#    0.000    0.625    0.000    0.000    0.000    0.000 
#    0.000    0.000    0.000    0.000    0.000    0.000 
#
# Total GULP energy -198319.541864 kJ/mol
# GULP energy per Si atom -12394.971367 kJ/mol
# Density = 2.094170 g / cm^3
# Si number density = 20.989478 Si / 1000 Ang^3
#
#
#
# Elastic Constant Matrix: (Units=GPa)
#
#
# Indices 1 2 3 4 5 6 
#
# 1 50.7192 45.3786 44.5618 4.4054 2.1288 4.4778
# 2 45.3786 131.9634 56.1445 -22.7842 -9.0457 8.9549
# 3 44.5618 56.1445 152.9378 -16.1297 -14.2134 8.0963
# 4 4.4054 -22.7842 -16.1297 39.8930 -0.2568 6.4792
# 5 2.1288 -9.0457 -14.2134 -0.2568 38.3274 -0.0131
# 6 4.4778 8.9549 8.0963 6.4792 -0.0131 23.5546
#
#
#
# Elastic Compliance Matrix: (Units=1/GPa)
#
#
# Indices 1 2 3 4 5 6 
#
# 1 0.043768 -0.014897 -0.010497 -0.018636 -0.009962 0.006072
# 2 -0.014897 0.015141 0.000798 0.011687 0.004773 -0.006411
# 3 -0.010497 0.000798 0.010637 0.006558 0.004759 -0.003765
# 4 -0.018636 0.011687 0.006558 0.038736 0.006480 -0.013806
# 5 -0.009962 0.004773 0.004759 0.006480 0.029578 -0.003322
# 6 0.006072 -0.006411 -0.003765 -0.013806 -0.003322 0.048828
#
#
# Mechanical properties :
#
#
# Convention : Reuss Voigt Hill
#
# Bulk Modulus (GPa) = 49.12943 69.75448 59.44195
# Shear Modulus (GPa) = 20.60454 32.99071 26.79762
#
# Velocity S-wave (km/s) = 3.13654 3.96886 3.57699
# Velocity P-wave (km/s) = 6.04770 7.36938 6.74101
#
# Compressibility (1/GPa) = 0.02035440
#
# Stress axis : x y z
#
# Youngs Moduli (GPa) = 22.84765 66.04455 94.00793
#
# Poissons Ratio (x) = 0.98389 0.98677
# Poissons Ratio (y) = 0.34037 -0.07499
# Poissons Ratio (z) = 0.23982 -0.05269
#
# Static dielectric constant tensor:
#      x y z
#    x 3.540760 0.068440 -0.027770 
#    y 0.068440 4.335030 -0.223220 
#    z -0.027770 -0.223220 3.941270 
# 
# 
# High freq. dielectric constant tensor:
#      x y z
#    x 1.800080 0.004880 0.002580 
#    y 0.004880 1.836120 -0.018580 
#    z 0.002580 -0.018580 1.838720 
# 
# From -- ./inp_files/337808.got.cif
#   From: 2010.06.25/outbox.cif.g09.slc.cpg/sg2_169_cif.got.tgz:337808.got - 2010.06.27 13:26:56.
