data_PCOD8019684
_publ_section_title
;
Structure prediction by ZEFSAII (Michael W. Deem and Ramdas Pophale) SiO2 
 PCOD8019684
Probable space group: P -1
;
_chemical_formula_sum "Si O2"
_cell_formula_units_Z 16
_cell_length_a 9.002644
_cell_length_b 15.122355
_cell_length_c 8.647688
_cell_angle_alpha 87.163508
_cell_angle_beta 54.432259
_cell_angle_gamma 121.262475
_cell_volume 706.405788
_symmetry_space_group_name_H-M "P -1"
_symmetry_group_IT_number 2
_symmetry_cell_setting 'triclinic'
loop_
_space_group_symop_operation_xyz
x,y,z
-x,-y,-z
loop_
_atom_site_type_symbol
_atom_site_label
_atom_site_fract_x
_atom_site_fract_y
_atom_site_fract_z
Si Si1 0.873212 0.186195 0.511380
Si Si2 0.774076 0.088244 0.265870
Si Si3 0.329461 0.088890 0.872674
Si Si4 0.777777 0.568408 0.864554
Si Si5 0.004242 0.067639 0.635322
Si Si6 0.072655 0.319588 0.899260
Si Si7 0.052391 0.499270 0.793615
Si Si8 0.611632 0.736958 0.387447
O O1 0.932257 0.149551 0.321178
O O2 0.594167 0.127596 0.704296
O O3 0.053980 0.329075 0.375495
O O4 0.936563 0.145404 0.620867
O O5 0.500000 0.000000 0.500000
O O6 0.840578 0.018589 0.143294
O O7 0.821646 0.184759 0.107863
O O8 0.350933 0.198147 0.801967
O O9 0.209816 0.039862 0.115998
O O10 0.850940 0.487466 0.813607
O O11 0.500000 0.500000 0.000000
O O12 0.814494 0.608376 0.015918
O O13 0.270548 0.165300 0.552021
O O14 0.000000 0.000000 0.500000
O O15 0.025943 0.384104 0.798553
O O16 0.260471 0.315963 0.699536
O O17 0.322663 0.627738 0.591261
O O18 0.000000 0.500000 0.000000
#
# Coordination Sequence:
#
# PCOD8019684 Si02
#       8
#     2   2   2   2   2   2   2   2
#     4  10  22  42  65  97 138 177 226 284 351 405
#     4   9  19  38  70  99 130 182 230 277 342 411
#     4  11  22  44  67  97 138 183 229 276 344 422
#     4  10  22  44  70  97 137 176 225 289 346 400
#     4  12  27  41  66 106 142 176 231 290 350 403
#     4  10  22  41  70 102 135 182 232 274 330 416
#     4  10  23  44  68 103 130 180 236 279 335 409
#     4  12  24  44  72  99 140 184 233 281 338 420
#
# _framework density 22.64987
#
# number of rings (size 3 to 8) (size 9 to 14) (size 15 to 20)
#    0.000    1.500    2.500    1.875    8.750    0.000 
#    0.000    1.875    0.000    0.000    0.000    0.000 
#    0.000    0.000    0.000    0.000    0.000    0.000 
#
# Total GULP energy -198284.957528 kJ/mol
# GULP energy per Si atom -12392.809846 kJ/mol
# Density = 2.259832 g / cm^3
# Si number density = 22.649870 Si / 1000 Ang^3
#
#
#
# Elastic Constant Matrix: (Units=GPa)
#
#
# Indices 1 2 3 4 5 6 
#
# 1 126.8453 47.0993 51.2708 -21.3937 -2.0635 -38.7792
# 2 47.0993 97.2885 49.4019 -12.1505 1.3311 -34.4569
# 3 51.2708 49.4019 139.3079 -19.5124 1.5825 -14.4878
# 4 -21.3937 -12.1505 -19.5124 45.6838 -3.3076 5.0123
# 5 -2.0635 1.3311 1.5825 -3.3076 34.8366 -7.4106
# 6 -38.7792 -34.4569 -14.4878 5.0123 -7.4106 37.5607
#
#
#
# Elastic Compliance Matrix: (Units=1/GPa)
#
#
# Indices 1 2 3 4 5 6 
#
# 1 0.014116 0.000162 -0.003305 0.004044 0.004290 0.013755
# 2 0.000162 0.018216 -0.004750 0.001412 0.002948 0.015439
# 3 -0.003305 -0.004750 0.009884 0.001809 -0.001236 -0.004442
# 4 0.004044 0.001412 0.001809 0.024780 0.003199 0.003492
# 5 0.004290 0.002948 -0.001236 0.003199 0.031870 0.012517
# 6 0.013755 0.015439 -0.004442 0.003492 0.012517 0.055279
#
#
# Mechanical properties :
#
#
# Convention : Reuss Voigt Hill
#
# Bulk Modulus (GPa) = 37.83250 73.22064 55.52657
# Shear Modulus (GPa) = 27.97365 37.99420 32.98393
#
# Velocity S-wave (km/s) = 3.51814 4.10012 3.82023
# Velocity P-wave (km/s) = 5.76563 7.40351 6.63530
#
# Compressibility (1/GPa) = 0.02643230
#
# Stress axis : x y z
#
# Youngs Moduli (GPa) = 70.84114 54.89608 101.16979
#
# Poissons Ratio (x) = -0.00890 0.33433
# Poissons Ratio (y) = -0.01148 0.48052
# Poissons Ratio (z) = 0.23410 0.26074
#
# Static dielectric constant tensor:
#      x y z
#    x 4.373260 -0.596990 0.196230 
#    y -0.596990 5.018040 0.006520 
#    z 0.196230 0.006520 4.113480 
# 
# 
# High freq. dielectric constant tensor:
#      x y z
#    x 1.883810 -0.025240 0.002330 
#    y -0.025240 1.890830 -0.011020 
#    z 0.002330 -0.011020 1.907340 
# 
# From -- ./inp_files/206712.got.cif
#   From: 2010.06.25/outbox.cif.g09.slc.cpg/sg2_104_cif.got.tgz:206712.got - 2010.06.27 13:26:56.
