data_PCOD8019450
_publ_section_title
;
Structure prediction by ZEFSAII (Michael W. Deem and Ramdas Pophale) SiO2 
 PCOD8019450
Probable space group: P -1
;
_chemical_formula_sum "Si O2"
_cell_formula_units_Z 14
_cell_length_a 12.935160
_cell_length_b 11.371818
_cell_length_c 21.032648
_cell_angle_alpha 151.419572
_cell_angle_beta 22.382542
_cell_angle_gamma 147.808748
_cell_volume 553.518074
_symmetry_space_group_name_H-M "P -1"
_symmetry_group_IT_number 2
_symmetry_cell_setting 'triclinic'
loop_
_space_group_symop_operation_xyz
x,y,z
-x,-y,-z
loop_
_atom_site_type_symbol
_atom_site_label
_atom_site_fract_x
_atom_site_fract_y
_atom_site_fract_z
Si Si1 0.962482 0.943706 0.843617
Si Si2 0.977784 0.880314 0.328493
Si Si3 0.800769 0.507166 0.058810
Si Si4 0.816253 0.695851 0.679842
Si Si5 0.662380 0.265947 0.390415
Si Si6 0.105687 0.659449 0.275198
Si Si7 0.337255 0.173379 0.911192
O O1 0.206313 0.781744 0.638491
O O2 0.819874 0.883916 0.827463
O O3 0.116875 0.228397 0.896825
O O4 0.736150 0.878930 0.997465
O O5 0.047216 0.871108 0.359320
O O6 0.662699 0.757447 0.432580
O O7 0.059418 0.155860 0.383530
O O8 0.175301 0.709058 0.106266
O O9 0.486097 0.454481 0.236574
O O10 0.000000 0.500000 0.000000
O O11 0.000000 0.500000 0.500000
O O12 0.802232 0.544494 0.421073
O O13 0.771997 0.063157 0.184610
O O14 0.323786 0.790818 0.267143
O O15 0.239887 0.425027 0.060665
#
# Coordination Sequence:
#
# PCOD8019450 Si02
#       7
#     2   2   2   2   2   2   2
#     4  11  24  46  74  97 144 186 236 285 351 420
#     4  12  25  44  70 103 146 178 235 293 351 413
#     4  12  26  45  71 102 140 182 233 287 349 410
#     4  12  29  48  71 105 141 189 238 285 354 418
#     4  11  24  42  68 104 138 184 231 288 345 420
#     4  10  22  41  67  97 138 180 233 283 347 409
#     4  10  22  43  70 100 134 187 232 282 350 420
#
# _framework density 25.292760000000001
#
# number of rings (size 3 to 8) (size 9 to 14) (size 15 to 20)
#    0.000    0.857    1.429    6.000    4.000    7.429 
#    0.000    0.000    0.000    0.000    0.000    0.000 
#    0.000    0.000    0.000    0.000    0.000    0.000 
#
# Total GULP energy -173621.412087 kJ/mol
# GULP energy per Si atom -12401.529435 kJ/mol
# Density = 2.523519 g / cm^3
# Si number density = 25.292760 Si / 1000 Ang^3
#
#
#
# Elastic Constant Matrix: (Units=GPa)
#
#
# Indices 1 2 3 4 5 6 
#
# 1 109.1670 47.0973 11.1038 -7.8618 -21.4206 -10.2650
# 2 47.0973 166.1583 32.2325 -14.8982 -21.1161 -27.8793
# 3 11.1038 32.2325 72.3581 -27.3230 -27.8900 -9.2157
# 4 -7.8618 -14.8982 -27.3230 38.2108 8.2257 -10.1845
# 5 -21.4206 -21.1161 -27.8900 8.2257 42.5159 1.5030
# 6 -10.2650 -27.8793 -9.2157 -10.1845 1.5030 51.2451
#
#
#
# Elastic Compliance Matrix: (Units=1/GPa)
#
#
# Indices 1 2 3 4 5 6 
#
# 1 0.011455 -0.002524 0.002811 0.002609 0.005794 0.001775
# 2 -0.002524 0.008058 -0.001196 0.002591 0.001298 0.004140
# 3 0.002811 -0.001196 0.028080 0.019125 0.015248 0.008316
# 4 0.002609 0.002591 0.019125 0.043762 0.006189 0.013887
# 5 0.005794 0.001298 0.015248 0.006189 0.035721 0.004791
# 6 0.001775 0.004140 0.008316 0.013887 0.004791 0.026237
#
#
# Mechanical properties :
#
#
# Convention : Reuss Voigt Hill
#
# Bulk Modulus (GPa) = 21.84624 58.72784 40.28704
# Shear Modulus (GPa) = 29.34477 43.54433 36.44455
#
# Velocity S-wave (km/s) = 3.40987 4.15373 3.80005
# Velocity P-wave (km/s) = 4.91519 6.80252 5.93437
#
# Compressibility (1/GPa) = 0.04577446
#
# Stress axis : x y z
#
# Youngs Moduli (GPa) = 87.29772 124.10446 35.61300
#
# Poissons Ratio (x) = 0.31325 -0.10011
# Poissons Ratio (y) = 0.22034 0.04259
# Poissons Ratio (z) = -0.24540 0.14843
#
# Static dielectric constant tensor:
#      x y z
#    x 4.497520 0.124150 -0.165460 
#    y 0.124150 4.799970 0.093750 
#    z -0.165460 0.093750 4.361560 
# 
# 
# High freq. dielectric constant tensor:
#      x y z
#    x 2.013170 0.005730 -0.016220 
#    y 0.005730 2.024080 -0.003200 
#    z -0.016220 -0.003200 2.006320 
# 
# From -- ./inp_files/611978.got.cif
#   From: 2010.06.25/outbox.cif.g09.slc.cpg/sg2_306_cif.got.tgz:611978.got - 2010.06.27 13:26:56.
