data_PCOD8019427
_publ_section_title
;
Structure prediction by ZEFSAII (Michael W. Deem and Ramdas Pophale) SiO2 
 PCOD8019427
Probable space group: P -1
;
_chemical_formula_sum "Si O2"
_cell_formula_units_Z 16
_cell_length_a 6.532107
_cell_length_b 14.171123
_cell_length_c 9.085467
_cell_angle_alpha 109.111990
_cell_angle_beta 77.782398
_cell_angle_gamma 107.706265
_cell_volume 751.128224
_symmetry_space_group_name_H-M "P -1"
_symmetry_group_IT_number 2
_symmetry_cell_setting 'triclinic'
loop_
_space_group_symop_operation_xyz
x,y,z
-x,-y,-z
loop_
_atom_site_type_symbol
_atom_site_label
_atom_site_fract_x
_atom_site_fract_y
_atom_site_fract_z
Si Si1 0.799067 0.043063 0.073127
Si Si2 0.722853 0.509248 0.386085
Si Si3 0.946136 0.601591 0.673363
Si Si4 0.533383 0.453131 0.814925
Si Si5 0.415381 0.775622 0.344073
Si Si6 0.368145 0.917236 0.166211
Si Si7 0.943073 0.197421 0.370154
Si Si8 0.211446 0.083272 0.453547
O O1 0.804295 0.098850 0.256503
O O2 0.600209 0.942692 0.065308
O O3 0.793290 0.112857 0.963861
O O4 0.000000 0.000000 0.000000
O O5 0.500000 0.500000 0.500000
O O6 0.915907 0.582363 0.489691
O O7 0.681714 0.547699 0.249457
O O8 0.816323 0.407247 0.310236
O O9 0.750358 0.529098 0.755551
O O10 0.951749 0.722256 0.736109
O O11 0.549883 0.335777 0.759986
O O12 0.500000 0.500000 0.000000
O O13 0.334741 0.821632 0.232946
O O14 0.224460 0.760076 0.483716
O O15 0.635338 0.856314 0.408261
O O16 0.341835 0.021387 0.302659
O O17 0.137143 0.171702 0.419821
O O18 0.000000 0.000000 0.500000
#
# Coordination Sequence:
#
# PCOD8019427 Si02
#       8
#     2   2   2   2   2   2   2   2
#     4  11  24  42  63  94 140 175 209 271 329 387
#     4   9  18  40  65  88 124 161 210 274 320 367
#     4  10  22  41  67  96 127 168 224 271 318 393
#     4  11  26  46  64  96 139 173 218 278 332 388
#     4  12  25  42  70  96 130 179 226 267 331 396
#     4  11  24  43  63  98 138 173 218 270 328 395
#     4  12  23  40  70  99 128 176 225 264 333 389
#     4  12  23  42  69 102 135 170 222 276 322 395
#
# _framework density 21.301290999999999
#
# number of rings (size 3 to 8) (size 9 to 14) (size 15 to 20)
#    0.000    1.000    3.750    4.125    0.000    3.500 
#    0.000    0.000    0.000    0.000    0.000    0.000 
#    0.000    0.000    0.000    0.000    0.000    0.000 
#
# Total GULP energy -198249.322078 kJ/mol
# GULP energy per Si atom -12390.582630 kJ/mol
# Density = 2.125281 g / cm^3
# Si number density = 21.301291 Si / 1000 Ang^3
#
#
#
# Elastic Constant Matrix: (Units=GPa)
#
#
# Indices 1 2 3 4 5 6 
#
# 1 133.4361 53.6474 44.8667 -8.6150 -0.5073 -24.5724
# 2 53.6474 111.7834 30.9683 -5.9585 -13.5648 -17.1438
# 3 44.8667 30.9683 119.1094 -2.4172 2.7633 -15.0582
# 4 -8.6150 -5.9585 -2.4172 26.8849 -5.4274 -2.2260
# 5 -0.5073 -13.5648 2.7633 -5.4274 32.8606 -4.1741
# 6 -24.5724 -17.1438 -15.0582 -2.2260 -4.1741 41.5928
#
#
#
# Elastic Compliance Matrix: (Units=1/GPa)
#
#
# Indices 1 2 3 4 5 6 
#
# 1 0.010752 -0.003728 -0.002512 0.002685 -0.000207 0.004029
# 2 -0.003728 0.012554 -0.001539 0.002954 0.006147 0.003190
# 3 -0.002512 -0.001539 0.009932 -0.000430 -0.001414 0.001312
# 4 0.002685 0.002954 -0.000430 0.040919 0.008782 0.005720
# 5 -0.000207 0.006147 -0.001414 0.008782 0.035286 0.005911
# 6 0.004029 0.003190 0.001312 0.005720 0.005911 0.029112
#
#
# Mechanical properties :
#
#
# Convention : Reuss Voigt Hill
#
# Bulk Modulus (GPa) = 56.56288 69.25486 62.90887
# Shear Modulus (GPa) = 31.24838 35.92412 33.58625
#
# Velocity S-wave (km/s) = 3.83426 4.11113 3.97511
# Velocity P-wave (km/s) = 6.79805 7.42414 7.11798
#
# Compressibility (1/GPa) = 0.01767944
#
# Stress axis : x y z
#
# Youngs Moduli (GPa) = 93.00205 79.65432 100.68350
#
# Poissons Ratio (x) = 0.29698 0.25294
# Poissons Ratio (y) = 0.34674 0.15496
# Poissons Ratio (z) = 0.23365 0.12259
#
# Static dielectric constant tensor:
#      x y z
#    x 4.197990 -0.278130 0.229490 
#    y -0.278130 3.821310 -0.114000 
#    z 0.229490 -0.114000 3.849950 
# 
# 
# High freq. dielectric constant tensor:
#      x y z
#    x 1.853680 -0.014750 0.004250 
#    y -0.014750 1.829060 -0.007440 
#    z 0.004250 -0.007440 1.827430 
# 
# From -- ./inp_files/135036.got.cif
#   From: 2010.06.25/outbox.cif.g09.slc.cpg/sg2_68_cif.got.tgz:135036.got - 2010.06.27 13:26:56.
