data_PCOD8019305
_publ_section_title
;
Structure prediction by ZEFSAII (Michael W. Deem and Ramdas Pophale) SiO2 
 PCOD8019305
Probable space group: P -1
;
_chemical_formula_sum "Si O2"
_cell_formula_units_Z 16
_cell_length_a 18.108405
_cell_length_b 10.107577
_cell_length_c 4.916166
_cell_angle_alpha 87.264586
_cell_angle_beta 84.235427
_cell_angle_gamma 46.648655
_cell_volume 650.719347
_symmetry_space_group_name_H-M "P -1"
_symmetry_group_IT_number 2
_symmetry_cell_setting 'triclinic'
loop_
_space_group_symop_operation_xyz
x,y,z
-x,-y,-z
loop_
_atom_site_type_symbol
_atom_site_label
_atom_site_fract_x
_atom_site_fract_y
_atom_site_fract_z
Si Si1 0.023170 0.116469 0.705400
Si Si2 0.121199 0.111796 0.187003
Si Si3 0.702663 0.298119 0.854053
Si Si4 0.557270 0.245346 0.954974
Si Si5 0.263178 0.169169 0.210520
Si Si6 0.727798 0.663517 0.311111
Si Si7 0.423488 0.364821 0.495394
Si Si8 0.850172 0.277020 0.145318
O O1 0.025861 0.195040 0.413668
O O2 0.074735 0.906121 0.678674
O O3 0.091005 0.118675 0.890126
O O4 0.908684 0.243118 0.846570
O O5 0.159272 0.216182 0.178443
O O6 0.210965 0.904664 0.275755
O O7 0.606700 0.328226 0.987767
O O8 0.668050 0.432035 0.603814
O O9 0.745545 0.332554 0.085988
O O10 0.466083 0.374026 0.759011
O O11 0.638823 0.044038 0.822944
O O12 0.513763 0.242013 0.253389
O O13 0.250429 0.239592 0.511858
O O14 0.276877 0.277273 0.999083
O O15 0.620079 0.728378 0.421649
O O16 0.819305 0.443988 0.311608
#
# Coordination Sequence:
#
# PCOD8019305 Si02
#       8
#     2   2   2   2   2   2   2   2
#     4  10  22  41  69  98 126 156 205 259 313 376
#     4  10  22  42  66  93 126 167 207 253 311 370
#     4  10  22  41  66  95 129 161 204 261 321 371
#     4  11  25  42  64  92 125 167 212 259 308 366
#     4  11  25  44  64  88 127 173 212 252 304 370
#     4  12  25  42  63  90 127 168 211 255 308 369
#     4  12  24  40  64  95 126 161 210 265 315 364
#     4  10  23  42  67  98 128 162 201 257 320 372
#
# _framework density 24.588173000000001
#
# number of rings (size 3 to 8) (size 9 to 14) (size 15 to 20)
#    0.000    1.250    0.000    5.250    0.000   17.500 
#    0.000    3.750    0.000    0.000    0.000    0.000 
#    0.000    0.000    0.000    0.000    0.000    0.000 
#
# Total GULP energy -198513.802566 kJ/mol
# GULP energy per Si atom -12407.112660 kJ/mol
# Density = 2.453221 g / cm^3
# Si number density = 24.588173 Si / 1000 Ang^3
#
#
#
# Elastic Constant Matrix: (Units=GPa)
#
#
# Indices 1 2 3 4 5 6 
#
# 1 91.3588 30.4931 -2.3809 4.4250 -10.5012 14.5991
# 2 30.4931 65.8239 3.7706 0.6281 8.4431 9.6296
# 3 -2.3809 3.7706 69.8326 -4.1401 -17.0591 14.1123
# 4 4.4250 0.6281 -4.1401 29.1374 9.8822 1.5685
# 5 -10.5012 8.4431 -17.0591 9.8822 39.8014 -0.5249
# 6 14.5991 9.6296 14.1123 1.5685 -0.5249 31.3454
#
#
#
# Elastic Compliance Matrix: (Units=1/GPa)
#
#
# Indices 1 2 3 4 5 6 
#
# 1 0.015837 -0.007671 0.004103 -0.004196 0.008520 -0.006514
# 2 -0.007671 0.020192 -0.002872 0.003247 -0.008366 -0.001640
# 3 0.004103 -0.002872 0.018857 -0.000714 0.009828 -0.009318
# 4 -0.004196 0.003247 -0.000714 0.038818 -0.011751 -0.000861
# 5 0.008520 -0.008366 0.009828 -0.011751 0.036216 -0.004628
# 6 -0.006514 -0.001640 -0.009318 -0.000861 -0.004628 0.039601
#
#
# Mechanical properties :
#
#
# Convention : Reuss Voigt Hill
#
# Bulk Modulus (GPa) = 23.80609 32.30899 28.05754
# Shear Modulus (GPa) = 25.45792 33.06567 29.26179
#
# Velocity S-wave (km/s) = 3.22121 3.67110 3.45349
# Velocity P-wave (km/s) = 4.85159 5.58013 5.22856
#
# Compressibility (1/GPa) = 0.04200605
#
# Stress axis : x y z
#
# Youngs Moduli (GPa) = 63.14428 49.52361 53.03209
#
# Poissons Ratio (x) = 0.37991 -0.21760
# Poissons Ratio (y) = 0.48440 0.15229
# Poissons Ratio (z) = -0.25909 0.14221
#
# Static dielectric constant tensor:
#      x y z
#    x 4.649920 -0.009810 -0.157760 
#    y -0.009810 4.164530 0.066840 
#    z -0.157760 0.066840 4.207530 
# 
# 
# High freq. dielectric constant tensor:
#      x y z
#    x 1.997040 -0.002240 -0.005090 
#    y -0.002240 1.958080 0.008350 
#    z -0.005090 0.008350 1.986760 
# 
# From -- ./inp_files/106884.got.cif
#   From: 2010.06.25/outbox.cif.g09.slc.cpg/sg2_54_cif.got.tgz:106884.got - 2010.06.27 13:26:56.
