data_PCOD8019834
_publ_section_title
;
Structure prediction by ZEFSAII (Michael W. Deem and Ramdas Pophale) SiO2 
 PCOD8019834
Probable space group: P -1
;
_chemical_formula_sum "Si O2"
_cell_formula_units_Z 14
_cell_length_a 15.672229
_cell_length_b 9.887088
_cell_length_c 9.312488
_cell_angle_alpha 105.100041
_cell_angle_beta 55.885244
_cell_angle_gamma 146.513136
_cell_volume 587.410454
_symmetry_space_group_name_H-M "P -1"
_symmetry_group_IT_number 2
_symmetry_cell_setting 'triclinic'
loop_
_space_group_symop_operation_xyz
x,y,z
-x,-y,-z
loop_
_atom_site_type_symbol
_atom_site_label
_atom_site_fract_x
_atom_site_fract_y
_atom_site_fract_z
Si Si1 0.940430 0.744429 0.274713
Si Si2 0.828052 0.255931 0.982890
Si Si3 0.330955 0.149096 0.605503
Si Si4 0.822092 0.704571 0.801387
Si Si5 0.437931 0.686853 0.304482
Si Si6 0.722200 0.620418 0.201209
Si Si7 0.022982 0.417239 0.328753
O O1 0.764090 0.485945 0.478220
O O2 0.846699 0.644867 0.173741
O O3 0.122177 0.846257 0.135501
O O4 0.025155 0.995214 0.312136
O O5 0.820114 0.343370 0.872653
O O6 0.000000 0.500000 0.000000
O O7 0.601197 0.997866 0.191830
O O8 0.454037 0.286818 0.675643
O O9 0.483372 0.334504 0.378920
O O10 0.197095 0.135247 0.743389
O O11 0.189124 0.849783 0.629601
O O12 0.625813 0.477672 0.820156
O O13 0.916287 0.659995 0.681903
O O14 0.751289 0.646877 0.013295
O O15 0.000000 0.500000 0.500000
#
# Coordination Sequence:
#
# PCOD8019834 Si02
#       7
#     2   2   2   2   2   2   2
#     4  11  24  47  74 103 142 186 235 298 350 418
#     4  12  26  47  71 102 147 190 232 285 360 427
#     4  10  22  46  69 105 141 184 232 289 362 411
#     4  12  25  46  75 107 138 181 247 294 348 415
#     4  11  26  45  70 109 141 186 234 293 355 418
#     4  10  22  41  77 103 138 181 237 297 345 419
#     4  12  27  47  70 102 147 186 231 295 353 420
#
# _framework density 23.833423
#
# number of rings (size 3 to 8) (size 9 to 14) (size 15 to 20)
#    0.000    0.857    2.857    3.429    2.000    3.429 
#    7.714    0.000    0.000    0.000    0.000    0.000 
#    0.000    0.000    0.000    0.000    0.000    0.000 
#
# Total GULP energy -173602.499813 kJ/mol
# GULP energy per Si atom -12400.178558 kJ/mol
# Density = 2.377918 g / cm^3
# Si number density = 23.833423 Si / 1000 Ang^3
#
#
#
# Elastic Constant Matrix: (Units=GPa)
#
#
# Indices 1 2 3 4 5 6 
#
# 1 74.5466 42.3347 20.8301 0.4219 -1.1815 -3.7882
# 2 42.3347 147.6006 73.5521 -6.5240 10.1991 5.0246
# 3 20.8301 73.5521 134.1529 -18.5694 14.2144 4.6913
# 4 0.4219 -6.5240 -18.5694 37.9383 -9.6276 2.4538
# 5 -1.1815 10.1991 14.2144 -9.6276 28.2003 6.8925
# 6 -3.7882 5.0246 4.6913 2.4538 6.8925 42.3800
#
#
#
# Elastic Compliance Matrix: (Units=1/GPa)
#
#
# Indices 1 2 3 4 5 6 
#
# 1 0.016325 -0.004760 -0.000293 -0.000793 0.001842 0.001802
# 2 -0.004760 0.010782 -0.005101 -0.000957 -0.001655 -0.000814
# 3 -0.000293 -0.005101 0.011112 0.004022 -0.002269 -0.000515
# 4 -0.000793 -0.000957 0.004022 0.030891 0.009755 -0.003778
# 5 0.001842 -0.001655 -0.002269 0.009755 0.042280 -0.006829
# 6 0.001802 -0.000814 -0.000515 -0.003778 -0.006829 0.025240
#
#
# Mechanical properties :
#
#
# Convention : Reuss Voigt Hill
#
# Bulk Modulus (GPa) = 55.83283 69.97042 62.90163
# Shear Modulus (GPa) = 30.69228 36.34261 33.51745
#
# Velocity S-wave (km/s) = 3.59246 3.90918 3.75416
# Velocity P-wave (km/s) = 6.37847 7.05673 6.72615
#
# Compressibility (1/GPa) = 0.01791061
#
# Stress axis : x y z
#
# Youngs Moduli (GPa) = 61.25687 92.74712 89.99618
#
# Poissons Ratio (x) = 0.44147 0.02636
# Poissons Ratio (y) = 0.29158 0.45907
# Poissons Ratio (z) = 0.01794 0.47310
#
# Static dielectric constant tensor:
#      x y z
#    x 4.305320 0.022370 0.127460 
#    y 0.022370 4.433750 -0.197860 
#    z 0.127460 -0.197860 4.350020 
# 
# 
# High freq. dielectric constant tensor:
#      x y z
#    x 1.939240 0.003250 0.015510 
#    y 0.003250 1.944420 -0.009320 
#    z 0.015510 -0.009320 1.951900 
# 
# From -- ./inp_files/298747.got.cif
#   From: 2010.06.25/outbox.cif.g09.slc.cpg/sg2_150_cif.got.tgz:298747.got - 2010.06.27 13:26:56.
