data_PCOD8019987
_publ_section_title
;
Structure prediction by ZEFSAII (Michael W. Deem and Ramdas Pophale) SiO2 
 PCOD8019987
Probable space group: P -1
;
_chemical_formula_sum "Si O2"
_cell_formula_units_Z 16
_cell_length_a 6.748946
_cell_length_b 9.274960
_cell_length_c 18.821671
_cell_angle_alpha 55.827529
_cell_angle_beta 60.216131
_cell_angle_gamma 56.936310
_cell_volume 785.542104
_symmetry_space_group_name_H-M "P -1"
_symmetry_group_IT_number 2
_symmetry_cell_setting 'triclinic'
loop_
_space_group_symop_operation_xyz
x,y,z
-x,-y,-z
loop_
_atom_site_type_symbol
_atom_site_label
_atom_site_fract_x
_atom_site_fract_y
_atom_site_fract_z
Si Si1 0.402385 0.608683 0.413552
Si Si2 0.526937 0.735317 0.606841
Si Si3 0.422419 0.935744 0.957414
Si Si4 0.780911 0.356101 0.891489
Si Si5 0.618400 0.453499 0.199280
Si Si6 0.088366 0.075751 0.532235
Si Si7 0.702032 0.723376 0.218428
Si Si8 0.117650 0.401237 0.077290
O O1 0.500000 0.500000 0.500000
O O2 0.391222 0.445601 0.408964
O O3 0.580051 0.710874 0.320301
O O4 0.140288 0.780348 0.422279
O O5 0.502498 0.681552 0.707223
O O6 0.742074 0.812226 0.550153
O O7 0.257888 0.890109 0.595034
O O8 0.656676 0.784271 0.922988
O O9 0.339493 0.081515 0.867284
O O10 0.210876 0.852418 0.034434
O O11 0.500000 0.000000 0.000000
O O12 0.517753 0.468605 0.871667
O O13 0.800391 0.452458 0.934728
O O14 0.002327 0.360385 0.799725
O O15 0.584447 0.622347 0.212423
O O16 0.909454 0.343846 0.168532
O O17 0.000000 0.000000 0.500000
O O18 0.000000 0.500000 0.000000
#
# Coordination Sequence:
#
# PCOD8019987 Si02
#       8
#     2   2   2   2   2   2   2   2
#     4  11  23  44  68  95 134 172 213 271 329 386
#     4  10  24  43  67  95 130 172 214 267 326 388
#     4  12  22  42  63  91 131 164 209 271 308 376
#     4  11  22  43  65  88 129 171 208 256 326 377
#     4  10  22  42  64  91 125 169 210 259 317 385
#     4  11  23  43  67  97 128 169 219 267 328 384
#     4  10  24  41  63  96 124 166 218 258 322 383
#     4  11  23  40  64  92 125 167 213 253 318 383
#
# _framework density 20.368099000000001
#
# number of rings (size 3 to 8) (size 9 to 14) (size 15 to 20)
#    0.000    1.250    3.750    1.875    3.500    1.000 
#    0.000    0.000    0.000    0.000    0.000    0.000 
#    0.000    0.000    0.000    0.000    0.000    0.000 
#
# Total GULP energy -198244.405626 kJ/mol
# GULP energy per Si atom -12390.275352 kJ/mol
# Density = 2.032174 g / cm^3
# Si number density = 20.368099 Si / 1000 Ang^3
#
#
#
# Elastic Constant Matrix: (Units=GPa)
#
#
# Indices 1 2 3 4 5 6 
#
# 1 116.0751 41.0986 48.8471 2.9619 -13.2140 4.3143
# 2 41.0986 104.8872 38.6608 4.4395 -18.3050 -5.1879
# 3 48.8471 38.6608 134.9722 -2.2538 -11.4127 5.2875
# 4 2.9619 4.4395 -2.2538 26.3614 -1.5931 -0.9903
# 5 -13.2140 -18.3050 -11.4127 -1.5931 23.5374 3.5164
# 6 4.3143 -5.1879 5.2875 -0.9903 3.5164 31.1363
#
#
#
# Elastic Compliance Matrix: (Units=1/GPa)
#
#
# Indices 1 2 3 4 5 6 
#
# 1 0.011308 -0.002890 -0.002962 -0.000934 0.002885 -0.001901
# 2 -0.002890 0.012831 -0.002153 -0.001525 0.006899 0.002076
# 3 -0.002962 -0.002153 0.009317 0.001522 0.001531 -0.001655
# 4 -0.000934 -0.001525 0.001522 0.038544 0.001536 0.000669
# 5 0.002885 0.006899 0.001531 0.001536 0.051099 -0.005232
# 6 -0.001901 0.002076 -0.001655 0.000669 -0.005232 0.033619
#
#
# Mechanical properties :
#
#
# Convention : Reuss Voigt Hill
#
# Bulk Modulus (GPa) = 57.31648 68.12751 62.72199
# Shear Modulus (GPa) = 28.00442 31.36223 29.68333
#
# Velocity S-wave (km/s) = 3.71201 3.92825 3.82166
# Velocity P-wave (km/s) = 6.82447 7.35497 7.09468
#
# Compressibility (1/GPa) = 0.01744699
#
# Stress axis : x y z
#
# Youngs Moduli (GPa) = 88.43544 77.93442 107.32923
#
# Poissons Ratio (x) = 0.22523 0.31787
# Poissons Ratio (y) = 0.25558 0.23107
# Poissons Ratio (z) = 0.26191 0.16778
#
# Static dielectric constant tensor:
#      x y z
#    x 3.832120 -0.248860 -0.240190 
#    y -0.248860 4.209010 -0.012160 
#    z -0.240190 -0.012160 4.090290 
# 
# 
# High freq. dielectric constant tensor:
#      x y z
#    x 1.806330 -0.006530 -0.012240 
#    y -0.006530 1.795230 -0.001580 
#    z -0.012240 -0.001580 1.806550 
# 
# From -- ./inp_files/52171.got.cif
#   From: 2010.06.25/outbox.cif.g09.slc.cpg/sg2_27_cif.got.tgz:52171.got - 2010.06.27 13:26:56.
