data_PCOD8019738
_publ_section_title
;
Structure prediction by ZEFSAII (Michael W. Deem and Ramdas Pophale) SiO2 
 PCOD8019738
Probable space group: P -1
;
_chemical_formula_sum "Si O2"
_cell_formula_units_Z 16
_cell_length_a 8.726276
_cell_length_b 11.440995
_cell_length_c 21.465228
_cell_angle_alpha 30.023255
_cell_angle_beta 48.509678
_cell_angle_gamma 40.718543
_cell_volume 699.358491
_symmetry_space_group_name_H-M "P -1"
_symmetry_group_IT_number 2
_symmetry_cell_setting 'triclinic'
loop_
_space_group_symop_operation_xyz
x,y,z
-x,-y,-z
loop_
_atom_site_type_symbol
_atom_site_label
_atom_site_fract_x
_atom_site_fract_y
_atom_site_fract_z
Si Si1 0.258559 0.715054 0.649512
Si Si2 0.029240 0.694103 0.949409
Si Si3 0.915725 0.704266 0.522659
Si Si4 0.044257 0.714597 0.198716
Si Si5 0.654284 0.675473 0.488661
Si Si6 0.092301 0.475472 0.167392
Si Si7 0.628787 0.127484 0.201430
Si Si8 0.386929 0.817309 0.130485
O O1 0.398240 0.700797 0.554665
O O2 0.421667 0.457580 0.765165
O O3 0.019749 0.713044 0.697939
O O4 0.194207 0.980972 0.583060
O O5 0.282882 0.676446 0.882956
O O6 0.983535 0.628842 0.061876
O O7 0.828427 0.002477 0.846800
O O8 0.000000 0.500000 0.000000
O O9 0.916108 0.560480 0.653127
O O10 0.760401 0.643269 0.544128
O O11 0.179797 0.580453 0.480784
O O12 0.026840 0.693100 0.139209
O O13 0.268455 0.754338 0.132444
O O14 0.802509 0.963500 0.173748
O O15 0.627896 0.942687 0.342160
O O16 0.370552 0.297417 0.164849
O O17 0.500000 0.000000 0.000000
#
# Coordination Sequence:
#
# PCOD8019738 Si02
#       8
#     2   2   2   2   2   2   2   2
#     4  12  25  42  69 108 139 182 239 284 351 416
#     4  11  27  48  72 100 137 186 244 294 345 420
#     4  10  22  41  71 105 138 186 228 295 347 409
#     4  10  24  46  71 101 144 182 235 289 352 418
#     4  10  22  41  72 105 140 179 236 290 347 417
#     4  12  27  44  70 104 143 193 224 293 360 421
#     4  10  25  45  70 105 140 186 231 284 359 417
#     4  11  24  45  68 105 133 181 241 292 340 409
#
# _framework density 22.878108999999998
#
# number of rings (size 3 to 8) (size 9 to 14) (size 15 to 20)
#    0.000    1.250    2.500    1.500    7.000    6.000 
#    0.000    2.500    0.000    0.000    0.000    0.000 
#    0.000    0.000    0.000    0.000    0.000    0.000 
#
# Total GULP energy -198407.083859 kJ/mol
# GULP energy per Si atom -12400.442741 kJ/mol
# Density = 2.282604 g / cm^3
# Si number density = 22.878109 Si / 1000 Ang^3
#
#
#
# Elastic Constant Matrix: (Units=GPa)
#
#
# Indices 1 2 3 4 5 6 
#
# 1 127.8436 71.1610 54.3967 3.4160 -19.3430 1.1587
# 2 71.1610 134.7809 62.4188 -7.4089 -12.3934 -4.3530
# 3 54.3967 62.4188 104.2082 2.9399 -21.8331 4.8357
# 4 3.4160 -7.4089 2.9399 44.9573 -3.2572 -4.7735
# 5 -19.3430 -12.3934 -21.8331 -3.2572 41.3432 11.8100
# 6 1.1587 -4.3530 4.8357 -4.7735 11.8100 43.9436
#
#
#
# Elastic Compliance Matrix: (Units=1/GPa)
#
#
# Indices 1 2 3 4 5 6 
#
# 1 0.012324 -0.005169 -0.002549 -0.001558 0.003201 -0.001586
# 2 -0.005169 0.012835 -0.005665 0.003034 -0.002164 0.002942
# 3 -0.002549 -0.005665 0.015947 -0.001752 0.006596 -0.004212
# 4 -0.001558 0.003034 -0.001752 0.023312 0.000234 0.003004
# 5 0.003201 -0.002164 0.006596 0.000234 0.031220 -0.009390
# 6 -0.001586 0.002942 -0.004212 0.003004 -0.009390 0.026403
#
#
# Mechanical properties :
#
#
# Convention : Reuss Voigt Hill
#
# Bulk Modulus (GPa) = 69.73659 82.53172 76.13415
# Shear Modulus (GPa) = 32.55470 37.97257 35.26364
#
# Velocity S-wave (km/s) = 3.77631 4.07846 3.93029
# Velocity P-wave (km/s) = 7.04003 7.63749 7.34484
#
# Compressibility (1/GPa) = 0.01433968
#
# Stress axis : x y z
#
# Youngs Moduli (GPa) = 81.14225 77.91200 62.70821
#
# Poissons Ratio (x) = 0.40272 0.15984
# Poissons Ratio (y) = 0.41942 0.35526
# Poissons Ratio (z) = 0.20683 0.44139
#
# Static dielectric constant tensor:
#      x y z
#    x 4.089760 -0.353470 -0.232370 
#    y -0.353470 4.385990 0.011580 
#    z -0.232370 0.011580 4.270540 
# 
# 
# High freq. dielectric constant tensor:
#      x y z
#    x 1.892720 -0.016210 -0.013280 
#    y -0.016210 1.911870 -0.002550 
#    z -0.013280 -0.002550 1.911980 
# 
# From -- ./inp_files/589350.got.cif
#   From: 2010.06.25/outbox.cif.g09.slc.cpg/sg2_295_cif.got.tgz:589350.got - 2010.06.27 13:26:56.
