data_PCOD8019370
_publ_section_title
;
Structure prediction by ZEFSAII (Michael W. Deem and Ramdas Pophale) SiO2 
 PCOD8019370
Probable space group: P -1
;
_chemical_formula_sum "Si O2"
_cell_formula_units_Z 16
_cell_length_a 20.329434
_cell_length_b 16.976283
_cell_length_c 8.536651
_cell_angle_alpha 141.952654
_cell_angle_beta 149.694597
_cell_angle_gamma 29.314199
_cell_volume 720.646356
_symmetry_space_group_name_H-M "P -1"
_symmetry_group_IT_number 2
_symmetry_cell_setting 'triclinic'
loop_
_space_group_symop_operation_xyz
x,y,z
-x,-y,-z
loop_
_atom_site_type_symbol
_atom_site_label
_atom_site_fract_x
_atom_site_fract_y
_atom_site_fract_z
Si Si1 0.308763 0.359387 0.260223
Si Si2 0.184472 0.164271 0.717107
Si Si3 0.901013 0.165474 0.156464
Si Si4 0.630397 0.191298 0.491802
Si Si5 0.243820 0.125008 0.143089
Si Si6 0.544634 0.776090 0.316597
Si Si7 0.396471 0.663499 0.640476
Si Si8 0.884088 0.276271 0.623164
O O1 0.433995 0.316462 0.309907
O O2 0.417998 0.267962 0.494176
O O3 0.184561 0.552339 0.330301
O O4 0.208663 0.291866 0.900554
O O5 0.989399 0.247286 0.423970
O O6 0.297237 0.989823 0.586582
O O7 0.242140 0.116960 0.940109
O O8 0.906990 0.154874 0.343346
O O9 0.710933 0.262050 0.864992
O O10 0.000000 0.000000 0.000000
O O11 0.670110 0.188326 0.384931
O O12 0.311001 0.228278 0.479119
O O13 0.366666 0.952296 0.209308
O O14 0.059224 0.207206 0.956632
O O15 0.527495 0.647096 0.003261
O O16 0.500000 0.500000 0.500000
O O17 0.237451 0.700991 0.457847
#
# Coordination Sequence:
#
# PCOD8019370 Si02
#       8
#     2   2   2   2   2   2   2   2
#     4  11  23  39  67  96 126 168 220 267 324 377
#     4   9  19  40  64  92 124 166 214 272 318 383
#     4   9  21  40  64  94 127 162 214 269 323 384
#     4  11  21  41  62  91 131 170 218 267 317 382
#     4   9  20  43  66  92 124 164 222 263 326 383
#     4  10  22  41  67  92 123 170 214 270 320 389
#     4  12  25  42  63  90 137 175 214 266 326 382
#     4  11  24  43  65  97 131 173 215 266 325 389
#
# _framework density 22.202290999999999
#
# number of rings (size 3 to 8) (size 9 to 14) (size 15 to 20)
#    0.000    1.750    2.500    1.125    1.750    6.000 
#    6.750    0.625    0.000    0.000    0.000    0.000 
#    0.000    0.000    0.000    0.000    0.000    0.000 
#
# Total GULP energy -198273.586473 kJ/mol
# GULP energy per Si atom -12392.099155 kJ/mol
# Density = 2.215176 g / cm^3
# Si number density = 22.202291 Si / 1000 Ang^3
#
#
#
# Elastic Constant Matrix: (Units=GPa)
#
#
# Indices 1 2 3 4 5 6 
#
# 1 117.1946 39.5802 61.1344 2.3972 23.7536 -15.2960
# 2 39.5802 81.7314 39.8665 14.7242 10.2358 -4.7240
# 3 61.1344 39.8665 158.0859 2.5604 36.5677 -8.7418
# 4 2.3972 14.7242 2.5604 24.4999 -0.9856 0.8619
# 5 23.7536 10.2358 36.5677 -0.9856 30.1715 -5.9918
# 6 -15.2960 -4.7240 -8.7418 0.8619 -5.9918 34.8996
#
#
#
# Elastic Compliance Matrix: (Units=1/GPa)
#
#
# Indices 1 2 3 4 5 6 
#
# 1 0.012724 -0.004361 -0.002563 0.001332 -0.004691 0.003506
# 2 -0.004361 0.017323 -0.002620 -0.009696 0.000434 0.000091
# 3 -0.002563 -0.002620 0.010130 0.000406 -0.009472 -0.000577
# 4 0.001332 -0.009696 0.000406 0.046637 0.003022 -0.001260
# 5 -0.004691 0.000434 -0.009472 0.003022 0.049059 0.003978
# 6 0.003506 0.000091 -0.000577 -0.001260 0.003978 0.030772
#
#
# Mechanical properties :
#
#
# Convention : Reuss Voigt Hill
#
# Bulk Modulus (GPa) = 47.42083 70.90824 59.16453
# Shear Modulus (GPa) = 25.93833 32.34294 29.14063
#
# Velocity S-wave (km/s) = 3.42171 3.82087 3.62678
# Velocity P-wave (km/s) = 6.08405 7.17440 6.65161
#
# Compressibility (1/GPa) = 0.02108778
#
# Stress axis : x y z
#
# Youngs Moduli (GPa) = 78.59057 57.72628 98.71388
#
# Poissons Ratio (x) = 0.25177 0.25303
# Poissons Ratio (y) = 0.34277 0.25865
# Poissons Ratio (z) = 0.20145 0.15126
#
# Static dielectric constant tensor:
#      x y z
#    x 3.879810 0.037960 0.219170 
#    y 0.037960 3.797700 0.037330 
#    z 0.219170 0.037330 4.736780 
# 
# 
# High freq. dielectric constant tensor:
#      x y z
#    x 1.857260 -0.004550 0.018200 
#    y -0.004550 1.856240 0.004350 
#    z 0.018200 0.004350 1.894120 
# 
# From -- ./inp_files/348743.got.cif
#   From: 2010.06.25/outbox.cif.g09.slc.cpg/sg2_175_cif.got.tgz:348743.got - 2010.06.27 13:26:56.
