data_PCOD8019945
_publ_section_title
;
Structure prediction by ZEFSAII (Michael W. Deem and Ramdas Pophale) SiO2 
 PCOD8019945
Probable space group: P -1
;
_chemical_formula_sum "Si O2"
_cell_formula_units_Z 12
_cell_length_a 8.463970
_cell_length_b 13.102270
_cell_length_c 7.267138
_cell_angle_alpha 113.594349
_cell_angle_beta 124.958595
_cell_angle_gamma 91.023243
_cell_volume 571.552230
_symmetry_space_group_name_H-M "P -1"
_symmetry_group_IT_number 2
_symmetry_cell_setting 'triclinic'
loop_
_space_group_symop_operation_xyz
x,y,z
-x,-y,-z
loop_
_atom_site_type_symbol
_atom_site_label
_atom_site_fract_x
_atom_site_fract_y
_atom_site_fract_z
Si Si1 0.604397 0.129882 0.743340
Si Si2 0.828369 0.582740 0.052716
Si Si3 0.992175 0.117828 0.169301
Si Si4 0.277114 0.666614 0.306381
Si Si5 0.711551 0.726290 0.803656
Si Si6 0.752984 0.796417 0.271562
O O1 0.717558 0.216958 0.718253
O O2 0.445621 0.182296 0.767681
O O3 0.500000 0.000000 0.500000
O O4 0.768783 0.127465 0.005215
O O5 0.738730 0.657919 0.189986
O O6 0.074622 0.626952 0.268342
O O7 0.733074 0.442208 0.917826
O O8 0.767320 0.611627 0.824352
O O9 0.166391 0.224452 0.264309
O O10 0.048201 0.122032 0.426120
O O11 0.000000 0.000000 0.000000
O O12 0.471524 0.694339 0.587603
O O13 0.774847 0.822785 0.085049
#
# Coordination Sequence:
#
# PCOD8019945 Si02
#       6
#     2   2   2   2   2   2
#     4  12  23  42  64  94 127 168 210 260 318 369
#     4   9  23  40  64  97 126 165 213 255 312 380
#     4  12  23  44  63  89 133 167 209 265 312 369
#     4  11  20  43  67  91 131 168 205 261 321 361
#     4  10  22  42  63  93 127 166 207 262 310 371
#     4  10  24  40  63  98 121 167 217 248 321 370
#
# _framework density 20.995457999999999
#
# number of rings (size 3 to 8) (size 9 to 14) (size 15 to 20)
#    1.000    0.333    5.000    0.500    2.333    1.333 
#    3.000    2.500    0.000    0.000    0.000    0.000 
#    0.000    0.000    0.000    0.000    0.000    0.000 
#
# Total GULP energy -148705.874400 kJ/mol
# GULP energy per Si atom -12392.156200 kJ/mol
# Density = 2.094767 g / cm^3
# Si number density = 20.995458 Si / 1000 Ang^3
#
#
#
# Elastic Constant Matrix: (Units=GPa)
#
#
# Indices 1 2 3 4 5 6 
#
# 1 72.9552 21.9923 38.9482 1.0942 3.3906 -32.6973
# 2 21.9923 81.7565 39.2828 15.0780 13.2416 -27.8098
# 3 38.9482 39.2828 131.0196 -11.6488 11.1307 -27.5150
# 4 1.0942 15.0780 -11.6488 48.9310 -16.4108 5.0946
# 5 3.3906 13.2416 11.1307 -16.4108 35.5048 0.0072
# 6 -32.6973 -27.8098 -27.5150 5.0946 0.0072 39.5965
#
#
#
# Elastic Compliance Matrix: (Units=1/GPa)
#
#
# Indices 1 2 3 4 5 6 
#
# 1 0.024903 0.005682 -0.004530 -0.007995 -0.006777 0.022437
# 2 0.005682 0.026724 -0.005172 -0.017610 -0.017032 0.022136
# 3 -0.004530 -0.005172 0.010740 0.004696 0.001165 -0.000514
# 4 -0.007995 -0.017610 0.004696 0.036993 0.022962 -0.020471
# 5 -0.006777 -0.017032 0.001165 0.022962 0.045417 -0.019712
# 6 0.022437 0.022136 -0.000514 -0.020471 -0.019712 0.061610
#
#
# Mechanical properties :
#
#
# Convention : Reuss Voigt Hill
#
# Bulk Modulus (GPa) = 18.40653 54.01977 36.21315
# Shear Modulus (GPa) = 21.50210 37.17366 29.33788
#
# Velocity S-wave (km/s) = 3.20368 4.21236 3.74216
# Velocity P-wave (km/s) = 4.74032 7.03163 5.99644
#
# Compressibility (1/GPa) = 0.05432856
#
# Stress axis : x y z
#
# Youngs Moduli (GPa) = 40.15530 37.41948 93.10834
#
# Poissons Ratio (x) = -0.21261 0.42175
# Poissons Ratio (y) = -0.22815 0.48151
# Poissons Ratio (z) = 0.18189 0.19352
#
# Static dielectric constant tensor:
#      x y z
#    x 3.505540 -0.230390 0.103650 
#    y -0.230390 3.981160 -0.086020 
#    z 0.103650 -0.086020 3.932610 
# 
# 
# High freq. dielectric constant tensor:
#      x y z
#    x 1.799580 -0.027900 0.013630 
#    y -0.027900 1.824080 -0.005260 
#    z 0.013630 -0.005260 1.828620 
# 
# From -- ./inp_files/198615.got.cif
#   From: 2010.06.25/outbox.cif.g09.slc.cpg/sg2_100_cif.got.tgz:198615.got - 2010.06.27 13:26:56.
