data_PCOD8019277
_publ_section_title
;
Structure prediction by ZEFSAII (Michael W. Deem and Ramdas Pophale) SiO2 
 PCOD8019277
Probable space group: P -1
;
_chemical_formula_sum "Si O2"
_cell_formula_units_Z 14
_cell_length_a 8.414379
_cell_length_b 15.347489
_cell_length_c 14.926423
_cell_angle_alpha 148.808006
_cell_angle_beta 104.711072
_cell_angle_gamma 53.999878
_cell_volume 649.747140
_symmetry_space_group_name_H-M "P -1"
_symmetry_group_IT_number 2
_symmetry_cell_setting 'triclinic'
loop_
_space_group_symop_operation_xyz
x,y,z
-x,-y,-z
loop_
_atom_site_type_symbol
_atom_site_label
_atom_site_fract_x
_atom_site_fract_y
_atom_site_fract_z
Si Si1 0.316780 0.040536 0.312682
Si Si2 0.242404 0.275728 0.787812
Si Si3 0.769849 0.100161 0.504023
Si Si4 0.256864 0.425260 0.728910
Si Si5 0.183103 0.756429 0.540262
Si Si6 0.081678 0.063029 0.949793
Si Si7 0.640439 0.182098 0.057261
O O1 0.297847 0.258207 0.507518
O O2 0.073885 0.141724 0.404800
O O3 0.532538 0.806283 0.201231
O O4 0.378267 0.942816 0.133310
O O5 0.224764 0.345992 0.745470
O O6 0.271942 0.055173 0.604131
O O7 0.000000 0.500000 0.000000
O O8 0.490538 0.379497 0.727751
O O9 0.826922 0.086485 0.396080
O O10 0.000000 0.000000 0.500000
O O11 0.005624 0.714631 0.928228
O O12 0.382530 0.465309 0.288953
O O13 0.226159 0.814988 0.693093
O O14 0.266278 0.981981 0.983138
O O15 0.833988 0.179226 0.059222
#
# Coordination Sequence:
#
# PCOD8019277 Si02
#       7
#     2   2   2   2   2   2   2
#     4  10  24  40  65  95 132 163 210 260 318 375
#     4  11  24  40  64  92 131 168 203 264 318 375
#     4  11  22  37  64  93 125 166 210 255 310 379
#     4  11  22  43  62  95 132 164 208 263 315 378
#     4  11  21  41  65  96 126 166 213 259 312 377
#     4  10  22  41  66  93 126 167 216 260 312 370
#     4  10  22  42  65  93 126 169 213 262 310 373
#
# _framework density 21.546842999999999
#
# number of rings (size 3 to 8) (size 9 to 14) (size 15 to 20)
#    0.000    1.429    1.429    4.714    4.000    0.571 
#    0.000    4.286    0.000    0.000    0.000    0.000 
#    0.000    0.000    0.000    0.000    0.000    0.000 
#
# Total GULP energy -173508.920609 kJ/mol
# GULP energy per Si atom -12393.494329 kJ/mol
# Density = 2.149780 g / cm^3
# Si number density = 21.546843 Si / 1000 Ang^3
#
#
#
# Elastic Constant Matrix: (Units=GPa)
#
#
# Indices 1 2 3 4 5 6 
#
# 1 95.3398 60.6890 42.6056 -4.9098 -13.9890 0.7597
# 2 60.6890 172.3401 69.3781 0.1406 -3.1660 -9.0405
# 3 42.6056 69.3781 129.7059 -6.9576 -24.5378 -13.7828
# 4 -4.9098 0.1406 -6.9576 32.7371 3.0687 6.1942
# 5 -13.9890 -3.1660 -24.5378 3.0687 32.1391 -4.1220
# 6 0.7597 -9.0405 -13.7828 6.1942 -4.1220 16.5471
#
#
#
# Elastic Compliance Matrix: (Units=1/GPa)
#
#
# Indices 1 2 3 4 5 6 
#
# 1 0.015120 -0.004631 -0.002236 0.002452 0.003527 -0.005126
# 2 -0.004631 0.009034 -0.003959 -0.001493 -0.003818 0.001459
# 3 -0.002236 -0.003959 0.013927 -0.000760 0.010952 0.012553
# 4 0.002452 -0.001493 -0.000760 0.034168 -0.004921 -0.015577
# 5 0.003527 -0.003818 0.010952 -0.004921 0.043617 0.019582
# 6 -0.005126 0.001459 0.012553 -0.015577 0.019582 0.082631
#
#
# Mechanical properties :
#
#
# Convention : Reuss Voigt Hill
#
# Bulk Modulus (GPa) = 60.86071 82.52570 71.69321
# Shear Modulus (GPa) = 22.16084 31.26552 26.71318
#
# Velocity S-wave (km/s) = 3.21050 3.81340 3.52486
# Velocity P-wave (km/s) = 6.48461 7.60086 7.06481
#
# Compressibility (1/GPa) = 0.01643096
#
# Stress axis : x y z
#
# Youngs Moduli (GPa) = 66.13732 110.68863 71.80440
#
# Poissons Ratio (x) = 0.51254 0.16054
# Poissons Ratio (y) = 0.30625 0.28426
# Poissons Ratio (z) = 0.14787 0.43819
#
# Static dielectric constant tensor:
#      x y z
#    x 3.680820 -0.174810 0.126180 
#    y -0.174810 4.181260 0.016160 
#    z 0.126180 0.016160 3.484430 
# 
# 
# High freq. dielectric constant tensor:
#      x y z
#    x 1.843230 -0.002370 -0.020730 
#    y -0.002370 1.856650 0.004520 
#    z -0.020730 0.004520 1.842380 
# 
# From -- ./inp_files/188190.got.cif
#   From: 2010.06.25/outbox.cif.g09.slc.cpg/sg2_95_cif.got.tgz:188190.got - 2010.06.27 13:26:56.
