data_PCOD8019694
_publ_section_title
;
Structure prediction by ZEFSAII (Michael W. Deem and Ramdas Pophale) SiO2 
 PCOD8019694
Probable space group: P -1
;
_chemical_formula_sum "Si O2"
_cell_formula_units_Z 12
_cell_length_a 10.225312
_cell_length_b 9.176666
_cell_length_c 9.976113
_cell_angle_alpha 93.133331
_cell_angle_beta 75.014779
_cell_angle_gamma 150.096567
_cell_volume 421.972222
_symmetry_space_group_name_H-M "P -1"
_symmetry_group_IT_number 2
_symmetry_cell_setting 'triclinic'
loop_
_space_group_symop_operation_xyz
x,y,z
-x,-y,-z
loop_
_atom_site_type_symbol
_atom_site_label
_atom_site_fract_x
_atom_site_fract_y
_atom_site_fract_z
Si Si1 0.927668 0.101581 0.022327
Si Si2 0.934430 0.382272 0.658470
Si Si3 0.703205 0.661790 0.624098
Si Si4 0.528990 0.294215 0.413363
Si Si5 0.498363 0.838770 0.924876
Si Si6 0.045109 0.789576 0.701871
O O1 0.198025 0.471888 0.961848
O O2 0.710258 0.931672 0.952326
O O3 0.777955 0.989013 0.202122
O O4 0.000000 0.000000 0.000000
O O5 0.000000 0.500000 0.500000
O O6 0.201297 0.554439 0.667125
O O7 0.892252 0.489489 0.763371
O O8 0.641853 0.004222 0.742373
O O9 0.553210 0.409012 0.550245
O O10 0.498820 0.612113 0.696116
O O11 0.785292 0.659356 0.740878
O O12 0.000000 0.000000 0.500000
O O13 0.225900 0.928228 0.521574
O O14 0.500000 0.000000 0.000000
#
# Coordination Sequence:
#
# PCOD8019694 Si02
#       6
#     2   2   2   2   2   2
#     4  12  30  57  85 121 162 230 284 344 410 504
#     4  12  26  47  79 123 158 212 273 340 415 500
#     4   9  20  41  63 107 152 205 253 330 404 477
#     4  10  22  41  70 109 157 202 260 338 412 479
#     4  12  29  57  87 118 170 223 280 345 416 495
#     4  11  24  45  78 108 162 205 277 338 410 485
#
# _framework density 28.437889999999999
#
# number of rings (size 3 to 8) (size 9 to 14) (size 15 to 20)
#    0.000    1.000    3.333    1.500    4.667    5.333 
#    6.000    0.000    0.000    0.000    0.000    0.000 
#    0.000    0.000    0.000    0.000    0.000    0.000 
#
# Total GULP energy -148683.045332 kJ/mol
# GULP energy per Si atom -12390.253778 kJ/mol
# Density = 2.837316 g / cm^3
# Si number density = 28.437890 Si / 1000 Ang^3
#
#
#
# Elastic Constant Matrix: (Units=GPa)
#
#
# Indices 1 2 3 4 5 6 
#
# 1 204.9518 34.2402 25.0133 -11.4731 12.9791 2.8057
# 2 34.2402 79.3479 -4.7756 -21.3290 5.5908 -8.2514
# 3 25.0133 -4.7756 114.6118 -11.4704 23.3824 -5.5345
# 4 -11.4731 -21.3290 -11.4704 30.9925 0.0483 2.2308
# 5 12.9791 5.5908 23.3824 0.0483 24.2788 8.5145
# 6 2.8057 -8.2514 -5.5345 2.2308 8.5145 59.6541
#
#
#
# Elastic Compliance Matrix: (Units=1/GPa)
#
#
# Indices 1 2 3 4 5 6 
#
# 1 0.005495 -0.002407 -0.001089 0.000014 -0.001149 -0.000529
# 2 -0.002407 0.018512 0.004607 0.013290 -0.008793 0.003859
# 3 -0.001089 0.004607 0.012977 0.007329 -0.014273 0.003655
# 4 0.000014 0.013290 0.007329 0.043970 -0.011075 0.002454
# 5 -0.001149 -0.008793 -0.014273 -0.011075 0.061395 -0.010835
# 6 -0.000529 0.003859 0.003655 0.002454 -0.010835 0.019116
#
#
# Mechanical properties :
#
#
# Convention : Reuss Voigt Hill
#
# Bulk Modulus (GPa) = 25.50708 56.42970 40.96839
# Shear Modulus (GPa) = 29.01724 45.94731 37.48228
#
# Velocity S-wave (km/s) = 3.19779 4.02395 3.63442
# Velocity P-wave (km/s) = 4.75640 6.44017 5.66123
#
# Compressibility (1/GPa) = 0.03920479
#
# Stress axis : x y z
#
# Youngs Moduli (GPa) = 181.98169 54.01942 77.06176
#
# Poissons Ratio (x) = 0.13002 0.08394
# Poissons Ratio (y) = 0.43803 -0.35502
# Poissons Ratio (z) = 0.19823 -0.24886
#
# Static dielectric constant tensor:
#      x y z
#    x 7.035280 -2.260900 0.145910 
#    y -2.260900 8.625460 0.559010 
#    z 0.145910 0.559010 5.421980 
# 
# 
# High freq. dielectric constant tensor:
#      x y z
#    x 2.164730 -0.027200 0.014670 
#    y -0.027200 2.185140 0.002120 
#    z 0.014670 0.002120 2.157030 
# 
# From -- ./inp_files/376111.got.cif
#   From: 2010.06.25/outbox.cif.g09.slc.cpg/sg2_189_cif.got.tgz:376111.got - 2010.06.27 13:26:56.
