data_PCOD8019276
_publ_section_title
;
Structure prediction by ZEFSAII (Michael W. Deem and Ramdas Pophale) SiO2 
 PCOD8019276
Probable space group: P -1
;
_chemical_formula_sum "Si O2"
_cell_formula_units_Z 16
_cell_length_a 12.156630
_cell_length_b 22.576657
_cell_length_c 19.673593
_cell_angle_alpha 162.032740
_cell_angle_beta 29.280053
_cell_angle_gamma 151.512756
_cell_volume 770.044229
_symmetry_space_group_name_H-M "P -1"
_symmetry_group_IT_number 2
_symmetry_cell_setting 'triclinic'
loop_
_space_group_symop_operation_xyz
x,y,z
-x,-y,-z
loop_
_atom_site_type_symbol
_atom_site_label
_atom_site_fract_x
_atom_site_fract_y
_atom_site_fract_z
Si Si1 0.075753 0.856842 0.678741
Si Si2 0.026630 0.602283 0.299040
Si Si3 0.954221 0.724868 0.845598
Si Si4 0.358501 0.965251 0.440695
Si Si5 0.782955 0.570979 0.630177
Si Si6 0.726969 0.480799 0.200721
Si Si7 0.081594 0.833288 0.312392
Si Si8 0.247239 0.335931 0.964825
O O1 0.962980 0.713953 0.520046
O O2 0.014310 0.729214 0.642055
O O3 0.358268 0.954759 0.623480
O O4 0.954077 0.031574 0.938526
O O5 0.263008 0.746455 0.290137
O O6 0.801170 0.545815 0.308972
O O7 0.070557 0.395939 0.073788
O O8 0.767296 0.640294 0.791999
O O9 0.181652 0.649567 0.630233
O O10 0.827411 0.643751 0.895962
O O11 0.271491 0.949213 0.392990
O O12 0.249313 0.112303 0.702266
O O13 0.553093 0.567233 0.707768
O O14 0.852260 0.665225 0.283930
O O15 0.792473 0.279147 0.929419
O O16 0.000000 0.000000 0.500000
O O17 0.500000 0.500000 0.000000
#
# Coordination Sequence:
#
# PCOD8019276 Si02
#       8
#     2   2   2   2   2   2   2   2
#     4  12  22  40  63  95 123 164 207 257 319 364
#     4  11  22  39  63  92 127 161 207 259 309 369
#     4  11  24  40  62  91 124 159 217 257 306 371
#     4  11  22  38  66  96 127 156 209 267 312 366
#     4  11  25  44  61  89 128 170 205 255 309 376
#     4  10  24  43  62  91 129 167 208 249 309 376
#     4  10  22  41  66  93 124 165 207 256 309 372
#     4  12  21  37  63  97 125 160 201 263 319 358
#
# _framework density 20.778026000000001
#
# number of rings (size 3 to 8) (size 9 to 14) (size 15 to 20)
#    0.000    1.000    3.750    3.000    0.000    6.500 
#    0.000    0.625    0.000    0.000    0.000    0.000 
#    0.000    0.000    0.000    0.000    0.000    0.000 
#
# Total GULP energy -198466.302386 kJ/mol
# GULP energy per Si atom -12404.143899 kJ/mol
# Density = 2.073073 g / cm^3
# Si number density = 20.778026 Si / 1000 Ang^3
#
#
#
# Elastic Constant Matrix: (Units=GPa)
#
#
# Indices 1 2 3 4 5 6 
#
# 1 146.1265 46.9790 58.1002 -2.3802 4.8037 -8.7305
# 2 46.9790 56.2587 28.7674 -2.0930 -2.6385 -4.6577
# 3 58.1002 28.7674 128.0865 2.3998 -5.4320 -5.2017
# 4 -2.3802 -2.0930 2.3998 19.6974 -7.1621 -2.4124
# 5 4.8037 -2.6385 -5.4320 -7.1621 40.8074 1.5755
# 6 -8.7305 -4.6577 -5.2017 -2.4124 1.5755 32.0560
#
#
#
# Elastic Compliance Matrix: (Units=1/GPa)
#
#
# Indices 1 2 3 4 5 6 
#
# 1 0.010594 -0.007161 -0.003235 0.000312 -0.002142 0.001449
# 2 -0.007161 0.025312 -0.002324 0.003264 0.002686 0.001464
# 3 -0.003235 -0.002324 0.009886 -0.001342 0.001302 0.000220
# 4 0.000312 0.003264 -0.001342 0.055279 0.009542 0.004033
# 5 -0.002142 0.002686 0.001302 0.009542 0.026802 -0.000581
# 6 0.001449 0.001464 0.000220 0.004033 -0.000581 0.032170
#
#
# Mechanical properties :
#
#
# Convention : Reuss Voigt Hill
#
# Bulk Modulus (GPa) = 49.13756 66.46276 57.80016
# Shear Modulus (GPa) = 26.00529 31.62050 28.81290
#
# Velocity S-wave (km/s) = 3.54160 3.90529 3.72788
# Velocity P-wave (km/s) = 6.35799 7.23820 6.81233
#
# Compressibility (1/GPa) = 0.02035103
#
# Stress axis : x y z
#
# Youngs Moduli (GPa) = 94.39351 39.50659 101.15369
#
# Poissons Ratio (x) = 0.28292 0.32722
# Poissons Ratio (y) = 0.67598 0.23512
# Poissons Ratio (z) = 0.30535 0.09183
#
# Static dielectric constant tensor:
#      x y z
#    x 3.910170 -0.227010 0.096710 
#    y -0.227010 3.545980 0.159540 
#    z 0.096710 0.159540 4.320580 
# 
# 
# High freq. dielectric constant tensor:
#      x y z
#    x 1.823090 -0.020490 0.003040 
#    y -0.020490 1.792430 0.007070 
#    z 0.003040 0.007070 1.830140 
# 
# From -- ./inp_files/438729.got.cif
#   From: 2010.06.25/outbox.cif.g09.slc.cpg/sg2_220_cif.got.tgz:438729.got - 2010.06.27 13:26:56.
