data_PCOD8019608
_publ_section_title
;
Structure prediction by ZEFSAII (Michael W. Deem and Ramdas Pophale) SiO2 
 PCOD8019608
Probable space group: P -1
;
_chemical_formula_sum "Si O2"
_cell_formula_units_Z 16
_cell_length_a 9.381562
_cell_length_b 24.198775
_cell_length_c 8.896232
_cell_angle_alpha 48.002493
_cell_angle_beta 47.168488
_cell_angle_gamma 29.385603
_cell_volume 710.050413
_symmetry_space_group_name_H-M "P -1"
_symmetry_group_IT_number 2
_symmetry_cell_setting 'triclinic'
loop_
_space_group_symop_operation_xyz
x,y,z
-x,-y,-z
loop_
_atom_site_type_symbol
_atom_site_label
_atom_site_fract_x
_atom_site_fract_y
_atom_site_fract_z
Si Si1 0.227933 0.699660 0.916734
Si Si2 0.253331 0.389389 0.618652
Si Si3 0.776387 0.348659 0.304672
Si Si4 0.351680 0.115488 0.463111
Si Si5 0.301204 0.829841 0.485108
Si Si6 0.174224 0.920324 0.726841
Si Si7 0.857162 0.488606 0.998665
Si Si8 0.215064 0.109103 0.907274
O O1 0.219149 0.639007 0.904097
O O2 0.151492 0.795751 0.700421
O O3 0.553878 0.612631 0.920445
O O4 0.959583 0.771769 0.099685
O O5 0.483967 0.388545 0.491753
O O6 0.396364 0.277205 0.630933
O O7 0.000000 0.500000 0.500000
O O8 0.116238 0.399734 0.852173
O O9 0.047661 0.219988 0.404274
O O10 0.773780 0.431645 0.229447
O O11 0.564173 0.126068 0.266327
O O12 0.311927 0.112129 0.673947
O O13 0.500000 0.000000 0.500000
O O14 0.341798 0.865034 0.545097
O O15 0.078687 0.941787 0.336680
O O16 0.027656 0.886413 0.948871
O O17 0.000000 0.500000 0.000000
O O18 0.500000 0.000000 0.000000
#
# Coordination Sequence:
#
# PCOD8019608 Si02
#       8
#     2   2   2   2   2   2   2   2
#     4  10  22  46  69  96 141 179 235 283 340 419
#     4  11  23  44  72  98 136 186 233 283 342 409
#     4  11  26  45  70 103 135 186 232 282 350 415
#     4  12  26  43  68 103 145 175 229 290 347 418
#     4   9  18  39  71 100 131 177 233 274 338 421
#     4  10  22  41  69 105 138 180 223 286 357 404
#     4  12  28  46  69 101 145 183 235 293 341 410
#     4  11  24  44  71 104 135 180 232 286 351 419
#
# _framework density 22.533612000000002
#
# number of rings (size 3 to 8) (size 9 to 14) (size 15 to 20)
#    0.000    1.250    2.500    4.875    5.250    4.000 
#    0.000    0.000    0.000    0.000    0.000    0.000 
#    0.000    0.000    0.000    0.000    0.000    0.000 
#
# Total GULP energy -198322.128981 kJ/mol
# GULP energy per Si atom -12395.133061 kJ/mol
# Density = 2.248232 g / cm^3
# Si number density = 22.533612 Si / 1000 Ang^3
#
#
#
# Elastic Constant Matrix: (Units=GPa)
#
#
# Indices 1 2 3 4 5 6 
#
# 1 132.0801 43.1579 26.5936 -2.2836 -14.3173 -19.5438
# 2 43.1579 135.1579 24.7133 8.2532 2.8207 -1.5367
# 3 26.5936 24.7133 61.3469 3.4619 -4.7087 -3.3669
# 4 -2.2836 8.2532 3.4619 37.8968 2.9029 4.4243
# 5 -14.3173 2.8207 -4.7087 2.9029 39.7444 2.3382
# 6 -19.5438 -1.5367 -3.3669 4.4243 2.3382 40.2261
#
#
#
# Elastic Compliance Matrix: (Units=1/GPa)
#
#
# Indices 1 2 3 4 5 6 
#
# 1 0.010020 -0.002749 -0.002799 0.000717 0.003170 0.004266
# 2 -0.002749 0.008853 -0.002467 -0.001627 -0.001738 -0.000924
# 3 -0.002799 -0.002467 0.018715 -0.001477 0.001481 0.000188
# 4 0.000717 -0.001627 -0.001477 0.027367 -0.001638 -0.002752
# 5 0.003170 -0.001738 0.001481 -0.001638 0.026708 0.000225
# 6 0.004266 -0.000924 0.000188 -0.002752 0.000225 0.027202
#
#
# Mechanical properties :
#
#
# Convention : Reuss Voigt Hill
#
# Bulk Modulus (GPa) = 46.38705 57.50161 51.94433
# Shear Modulus (GPa) = 35.19102 39.18146 37.18624
#
# Velocity S-wave (km/s) = 3.95614 4.17442 4.06674
# Velocity P-wave (km/s) = 6.44193 6.98626 6.71961
#
# Compressibility (1/GPa) = 0.02155774
#
# Stress axis : x y z
#
# Youngs Moduli (GPa) = 99.79683 112.95857 53.43222
#
# Poissons Ratio (x) = 0.31055 0.14957
# Poissons Ratio (y) = 0.27437 0.13181
# Poissons Ratio (z) = 0.27936 0.27864
#
# Static dielectric constant tensor:
#      x y z
#    x 4.319870 0.304690 0.079260 
#    y 0.304690 4.394970 0.212960 
#    z 0.079260 0.212960 3.923060 
# 
# 
# High freq. dielectric constant tensor:
#      x y z
#    x 1.895110 0.003390 -0.009670 
#    y 0.003390 1.902100 0.002620 
#    z -0.009670 0.002620 1.870490 
# 
# From -- ./inp_files/226074.got.cif
#   From: 2010.06.25/outbox.cif.g09.slc.cpg/sg2_114_cif.got.tgz:226074.got - 2010.06.27 13:26:56.
