data_PCOD8019812
_publ_section_title
;
Structure prediction by ZEFSAII (Michael W. Deem and Ramdas Pophale) SiO2 
 PCOD8019812
Probable space group: P -1
;
_chemical_formula_sum "Si O2"
_cell_formula_units_Z 14
_cell_length_a 14.741055
_cell_length_b 12.878313
_cell_length_c 8.951792
_cell_angle_alpha 51.332196
_cell_angle_beta 133.036828
_cell_angle_gamma 154.996145
_cell_volume 524.910418
_symmetry_space_group_name_H-M "P -1"
_symmetry_group_IT_number 2
_symmetry_cell_setting 'triclinic'
loop_
_space_group_symop_operation_xyz
x,y,z
-x,-y,-z
loop_
_atom_site_type_symbol
_atom_site_label
_atom_site_fract_x
_atom_site_fract_y
_atom_site_fract_z
Si Si1 0.820395 0.989277 0.412743
Si Si2 0.624191 0.836045 0.635066
Si Si3 0.656154 0.270052 0.364731
Si Si4 0.061056 0.728315 0.231733
Si Si5 0.344810 0.947013 0.044255
Si Si6 0.227333 0.589486 0.079103
Si Si7 0.684251 0.601728 0.483060
O O1 0.741188 0.995384 0.468416
O O2 0.813045 0.080451 0.181373
O O3 0.657382 0.710983 0.454878
O O4 0.081376 0.174239 0.549639
O O5 0.404647 0.725876 0.543627
O O6 0.521746 0.597568 0.693410
O O7 0.819149 0.020577 0.817896
O O8 0.781568 0.242023 0.539885
O O9 0.813856 0.511994 0.229594
O O10 0.405158 0.023224 0.220513
O O11 0.011573 0.658248 0.060381
O O12 0.597335 0.183834 0.042774
O O13 0.208114 0.684268 0.100903
O O14 0.326737 0.543295 0.299537
#
# Coordination Sequence:
#
# PCOD8019812 Si02
#       7
#     2   2   2   2   2   2   2
#     4  11  26  45  73  96 137 173 242 271 332 402
#     4  12  23  42  68  99 130 187 215 286 330 409
#     4  10  23  41  65  99 143 173 219 273 352 385
#     4  10  23  40  66 101 142 173 219 282 329 415
#     4  10  22  43  72 105 131 176 226 284 324 415
#     4  10  22  41  74 102 133 175 232 272 341 390
#     4  11  25  46  72  97 129 189 226 278 332 406
#
# _framework density 26.671218
#
# number of rings (size 3 to 8) (size 9 to 14) (size 15 to 20)
#    0.000    1.429    1.429    2.571   10.000    0.571 
#    0.000    1.429    0.000    0.000    0.000    0.000 
#    0.000    0.000    0.000    0.000    0.000    0.000 
#
# Total GULP energy -173514.857323 kJ/mol
# GULP energy per Si atom -12393.918380 kJ/mol
# Density = 2.661051 g / cm^3
# Si number density = 26.671218 Si / 1000 Ang^3
#
#
#
# Elastic Constant Matrix: (Units=GPa)
#
#
# Indices 1 2 3 4 5 6 
#
# 1 171.5531 69.9080 51.6431 13.0982 -35.1711 -19.0944
# 2 69.9080 177.9511 51.9493 35.9410 -15.6217 -34.8360
# 3 51.6431 51.9493 77.7953 13.4048 -13.4037 -16.3324
# 4 13.0982 35.9410 13.4048 54.7184 -4.2036 -3.3461
# 5 -35.1711 -15.6217 -13.4037 -4.2036 40.2945 -0.2893
# 6 -19.0944 -34.8360 -16.3324 -3.3461 -0.2893 44.5840
#
#
#
# Elastic Compliance Matrix: (Units=1/GPa)
#
#
# Indices 1 2 3 4 5 6 
#
# 1 0.008961 -0.001821 -0.003525 0.000449 0.005998 0.001196
# 2 -0.001821 0.009121 -0.002987 -0.004483 0.000521 0.004920
# 3 -0.003525 -0.002987 0.018306 -0.001376 0.001731 0.002770
# 4 0.000449 -0.004483 -0.001376 0.021346 0.000407 -0.002210
# 5 0.005998 0.000521 0.001731 0.000407 0.030901 0.003841
# 6 0.001196 0.004920 0.002770 -0.002210 0.003841 0.027660
#
#
# Mechanical properties :
#
#
# Convention : Reuss Voigt Hill
#
# Bulk Modulus (GPa) = 50.70627 86.03335 68.36981
# Shear Modulus (GPa) = 35.83348 44.83932 40.33640
#
# Velocity S-wave (km/s) = 3.66939 4.10468 3.89312
# Velocity P-wave (km/s) = 6.08321 7.40213 6.77484
#
# Compressibility (1/GPa) = 0.01972143
#
# Stress axis : x y z
#
# Youngs Moduli (GPa) = 111.59396 109.63663 54.62706
#
# Poissons Ratio (x) = 0.19966 0.19258
# Poissons Ratio (y) = 0.20322 0.16317
# Poissons Ratio (z) = 0.39340 0.32748
#
# Static dielectric constant tensor:
#      x y z
#    x 4.997640 0.390900 -0.347940 
#    y 0.390900 5.696480 0.419720 
#    z -0.347940 0.419720 4.247550 
# 
# 
# High freq. dielectric constant tensor:
#      x y z
#    x 2.104090 0.038460 -0.031070 
#    y 0.038460 2.121510 0.028700 
#    z -0.031070 0.028700 2.015750 
# 
# From -- ./inp_files/306821.got.cif
#   From: 2010.06.25/outbox.cif.g09.slc.cpg/sg2_154_cif.got.tgz:306821.got - 2010.06.27 13:26:56.
