data_PCOD8019829
_publ_section_title
;
Structure prediction by ZEFSAII (Michael W. Deem and Ramdas Pophale) SiO2 
 PCOD8019829
Probable space group: P -1
;
_chemical_formula_sum "Si O2"
_cell_formula_units_Z 14
_cell_length_a 17.728231
_cell_length_b 9.425251
_cell_length_c 20.393022
_cell_angle_alpha 34.852649
_cell_angle_beta 18.995036
_cell_angle_gamma 44.435331
_cell_volume 597.694182
_symmetry_space_group_name_H-M "P -1"
_symmetry_group_IT_number 2
_symmetry_cell_setting 'triclinic'
loop_
_space_group_symop_operation_xyz
x,y,z
-x,-y,-z
loop_
_atom_site_type_symbol
_atom_site_label
_atom_site_fract_x
_atom_site_fract_y
_atom_site_fract_z
Si Si1 0.473062 0.219363 0.168888
Si Si2 0.674655 0.541507 0.110067
Si Si3 0.583473 0.715236 0.256164
Si Si4 0.312149 0.160470 0.461262
Si Si5 0.170908 0.567516 0.753017
Si Si6 0.031122 0.536021 0.385471
Si Si7 0.046478 0.994462 0.387919
O O1 0.451131 0.317988 0.222911
O O2 0.209730 0.048474 0.422158
O O3 0.633571 0.021847 0.110928
O O4 0.680546 0.452495 0.869657
O O5 0.899855 0.473065 0.982219
O O6 0.548415 0.651749 0.231100
O O7 0.487178 0.268474 0.338992
O O8 0.755989 0.751642 0.903735
O O9 0.341893 0.548626 0.558538
O O10 0.813743 0.636876 0.125298
O O11 0.059676 0.227259 0.654226
O O12 0.251152 0.853779 0.613118
O O13 0.000000 0.500000 0.500000
O O14 0.862212 0.258220 0.599236
O O15 0.000000 0.000000 0.500000
#
# Coordination Sequence:
#
# PCOD8019829 Si02
#       7
#     2   2   2   2   2   2   2
#     4  11  23  46  64  93 138 174 216 280 327 388
#     4  12  24  43  68 100 135 171 227 272 323 401
#     4  10  22  41  75  93 134 179 214 273 336 394
#     4  11  25  42  67  98 134 172 220 274 325 396
#     4  10  22  48  66 100 137 172 216 273 342 386
#     4  12  24  41  64  93 126 179 224 265 329 388
#     4  12  26  42  66  96 138 178 220 274 328 389
#
# _framework density 23.423349999999999
#
# number of rings (size 3 to 8) (size 9 to 14) (size 15 to 20)
#    0.000    0.857    4.286    3.429    4.000    2.286 
#    0.000    6.429    0.000    0.000    0.000    0.000 
#    0.000    0.000    0.000    0.000    0.000    0.000 
#
# Total GULP energy -173514.395444 kJ/mol
# GULP energy per Si atom -12393.885389 kJ/mol
# Density = 2.337004 g / cm^3
# Si number density = 23.423350 Si / 1000 Ang^3
#
#
#
# Elastic Constant Matrix: (Units=GPa)
#
#
# Indices 1 2 3 4 5 6 
#
# 1 104.9224 24.7719 23.1823 10.3058 0.7738 37.3040
# 2 24.7719 104.5296 7.7546 13.1303 -13.3615 13.5362
# 3 23.1823 7.7546 74.7260 19.5766 -10.8036 12.6550
# 4 10.3058 13.1303 19.5766 24.5582 2.8917 2.5729
# 5 0.7738 -13.3615 -10.8036 2.8917 42.1453 3.5381
# 6 37.3040 13.5362 12.6550 2.5729 3.5381 40.8577
#
#
#
# Elastic Compliance Matrix: (Units=1/GPa)
#
#
# Indices 1 2 3 4 5 6 
#
# 1 0.014956 -0.001417 -0.001577 -0.002964 0.000126 -0.012521
# 2 -0.001417 0.011849 0.002694 -0.008157 0.005319 -0.003413
# 3 -0.001577 0.002694 0.020075 -0.017131 0.007646 -0.005254
# 4 -0.002964 -0.008157 -0.017131 0.060534 -0.011741 0.007920
# 5 0.000126 0.005319 0.007646 -0.011741 0.028680 -0.005990
# 6 -0.012521 -0.003413 -0.005254 0.007920 -0.005990 0.038685
#
#
# Mechanical properties :
#
#
# Convention : Reuss Voigt Hill
#
# Bulk Modulus (GPa) = 21.60811 43.95504 32.78158
# Shear Modulus (GPa) = 26.20444 36.74351 31.47398
#
# Velocity S-wave (km/s) = 3.34837 3.96494 3.66963
# Velocity P-wave (km/s) = 4.91873 6.30613 5.65513
#
# Compressibility (1/GPa) = 0.04627891
#
# Stress axis : x y z
#
# Youngs Moduli (GPa) = 66.86254 84.39350 49.81288
#
# Poissons Ratio (x) = 0.11962 0.07858
# Poissons Ratio (y) = 0.09477 -0.13420
# Poissons Ratio (z) = 0.10547 -0.22736
#
# Static dielectric constant tensor:
#      x y z
#    x 4.353890 -0.082520 0.180300 
#    y -0.082520 4.803110 0.318950 
#    z 0.180300 0.318950 4.339930 
# 
# 
# High freq. dielectric constant tensor:
#      x y z
#    x 1.923810 -0.002490 0.017500 
#    y -0.002490 1.949750 0.018230 
#    z 0.017500 0.018230 1.925640 
# 
# From -- ./inp_files/313607.got.cif
#   From: 2010.06.25/outbox.cif.g09.slc.cpg/sg2_157_cif.got.tgz:313607.got - 2010.06.27 13:26:56.
