data_PCOD8019382
_publ_section_title
;
Structure prediction by ZEFSAII (Michael W. Deem and Ramdas Pophale) SiO2 
 PCOD8019382
Probable space group: P -1
;
_chemical_formula_sum "Si O2"
_cell_formula_units_Z 16
_cell_length_a 8.614987
_cell_length_b 14.895822
_cell_length_c 12.918766
_cell_angle_alpha 40.067807
_cell_angle_beta 129.291951
_cell_angle_gamma 132.701167
_cell_volume 761.011317
_symmetry_space_group_name_H-M "P -1"
_symmetry_group_IT_number 2
_symmetry_cell_setting 'triclinic'
loop_
_space_group_symop_operation_xyz
x,y,z
-x,-y,-z
loop_
_atom_site_type_symbol
_atom_site_label
_atom_site_fract_x
_atom_site_fract_y
_atom_site_fract_z
Si Si1 0.464765 0.534109 0.236905
Si Si2 0.976532 0.921780 0.205441
Si Si3 0.906089 0.583169 0.469502
Si Si4 0.103021 0.076412 0.322495
Si Si5 0.640946 0.866337 0.949910
Si Si6 0.206122 0.869001 0.693210
Si Si7 0.015656 0.451211 0.229648
Si Si8 0.312980 0.398144 0.085976
O O1 0.643877 0.515224 0.405605
O O2 0.261448 0.527246 0.225720
O O3 0.390497 0.406067 0.230951
O O4 0.563956 0.686090 0.076353
O O5 0.998841 0.763427 0.329765
O O6 0.951880 0.945263 0.296517
O O7 0.191655 0.059387 0.137140
O O8 0.762916 0.929759 0.054154
O O9 0.976158 0.553994 0.638487
O O10 0.000000 0.500000 0.500000
O O11 0.252386 0.221769 0.189630
O O12 0.963533 0.134547 0.288077
O O13 0.246925 0.006281 0.509669
O O14 0.432870 0.907384 0.812687
O O15 0.118141 0.712300 0.731655
O O16 0.897597 0.560666 0.049212
O O17 0.500000 0.500000 0.000000
#
# Coordination Sequence:
#
# PCOD8019382 Si02
#       8
#     2   2   2   2   2   2   2   2
#     4  11  22  42  67  95 133 173 217 272 322 385
#     4  10  23  44  65  92 136 169 215 269 328 385
#     4  11  25  45  67  96 130 173 223 271 329 392
#     4  11  24  42  64  98 135 166 217 272 320 388
#     4  10  22  41  67  93 128 176 212 265 325 382
#     4  11  23  42  67  97 130 172 219 265 324 386
#     4  12  23  44  68  97 132 175 222 268 325 392
#     4  12  24  39  67 101 133 172 220 268 324 386
#
# _framework density 21.024654999999999
#
# number of rings (size 3 to 8) (size 9 to 14) (size 15 to 20)
#    0.000    1.000    3.750    3.000    0.000    5.000 
#    0.000    0.000    0.000    0.000    0.000    0.000 
#    0.000    0.000    0.000    0.000    0.000    0.000 
#
# Total GULP energy -198397.888215 kJ/mol
# GULP energy per Si atom -12399.868013 kJ/mol
# Density = 2.097680 g / cm^3
# Si number density = 21.024655 Si / 1000 Ang^3
#
#
#
# Elastic Constant Matrix: (Units=GPa)
#
#
# Indices 1 2 3 4 5 6 
#
# 1 57.8490 44.8753 22.6786 -7.6373 -2.1658 1.0236
# 2 44.8753 107.9838 58.9625 -3.4399 2.3248 -6.5722
# 3 22.6786 58.9625 114.8908 -3.4944 6.3274 -1.6396
# 4 -7.6373 -3.4399 -3.4944 37.1855 -1.0630 -4.8364
# 5 -2.1658 2.3248 6.3274 -1.0630 34.6495 7.2296
# 6 1.0236 -6.5722 -1.6396 -4.8364 7.2296 40.7113
#
#
#
# Elastic Compliance Matrix: (Units=1/GPa)
#
#
# Indices 1 2 3 4 5 6 
#
# 1 0.026687 -0.011473 0.000548 0.004228 0.002996 -0.002531
# 2 -0.011473 0.017959 -0.006865 -0.000984 -0.001331 0.003031
# 3 0.000548 -0.006865 0.012223 0.000543 -0.001664 -0.000270
# 4 0.004228 -0.000984 0.000543 0.028126 0.000465 0.003016
# 5 0.002996 -0.001331 -0.001664 0.000465 0.030654 -0.005746
# 6 -0.002531 0.003031 -0.000270 0.003016 -0.005746 0.026484
#
#
# Mechanical properties :
#
#
# Convention : Reuss Voigt Hill
#
# Bulk Modulus (GPa) = 46.97523 59.30626 53.14075
# Shear Modulus (GPa) = 27.05466 32.78974 29.92220
#
# Velocity S-wave (km/s) = 3.59110 3.95344 3.77662
# Velocity P-wave (km/s) = 6.29175 7.00777 6.65939
#
# Compressibility (1/GPa) = 0.02128781
#
# Stress axis : x y z
#
# Youngs Moduli (GPa) = 37.47146 55.68191 81.81015
#
# Poissons Ratio (x) = 0.63886 -0.04482
# Poissons Ratio (y) = 0.42993 0.56165
# Poissons Ratio (z) = -0.02053 0.38227
#
# Static dielectric constant tensor:
#      x y z
#    x 3.640560 0.063210 0.005650 
#    y 0.063210 3.990070 0.111360 
#    z 0.005650 0.111360 4.045800 
# 
# 
# High freq. dielectric constant tensor:
#      x y z
#    x 1.811400 0.000870 -0.004030 
#    y 0.000870 1.836470 0.007510 
#    z -0.004030 0.007510 1.839100 
# 
# From -- ./inp_files/180312.got.cif
#   From: 2010.06.25/outbox.cif.g09.slc.cpg/sg2_91_cif.got.tgz:180312.got - 2010.06.27 13:26:56.
