data_PCOD8019953
_publ_section_title
;
Structure prediction by ZEFSAII (Michael W. Deem and Ramdas Pophale) SiO2 
 PCOD8019953
Probable space group: P -1
;
_chemical_formula_sum "Si O2"
_cell_formula_units_Z 16
_cell_length_a 13.251799
_cell_length_b 9.503315
_cell_length_c 7.435060
_cell_angle_alpha 121.183385
_cell_angle_beta 72.873822
_cell_angle_gamma 96.111880
_cell_volume 764.321269
_symmetry_space_group_name_H-M "P -1"
_symmetry_group_IT_number 2
_symmetry_cell_setting 'triclinic'
loop_
_space_group_symop_operation_xyz
x,y,z
-x,-y,-z
loop_
_atom_site_type_symbol
_atom_site_label
_atom_site_fract_x
_atom_site_fract_y
_atom_site_fract_z
Si Si1 0.321582 0.958067 0.118436
Si Si2 0.923835 0.029139 0.726022
Si Si3 0.955365 0.382576 0.093447
Si Si4 0.699699 0.925832 0.168897
Si Si5 0.608707 0.809625 0.492315
Si Si6 0.622720 0.265785 0.356782
Si Si7 0.114019 0.256784 0.193700
Si Si8 0.753802 0.561140 0.468416
O O1 0.200503 0.954736 0.248903
O O2 0.393624 0.014390 0.283883
O O3 0.363390 0.780586 0.895791
O O4 0.332952 0.092866 0.038423
O O5 0.946471 0.872393 0.739586
O O6 0.956610 0.193965 0.911399
O O7 0.000000 0.000000 0.500000
O O8 0.029643 0.386173 0.232843
O O9 0.837300 0.446749 0.239097
O O10 0.000000 0.500000 0.000000
O O11 0.625363 0.836304 0.288525
O O12 0.690085 0.123996 0.342700
O O13 0.819286 0.846098 0.065251
O O14 0.499566 0.724894 0.517704
O O15 0.706497 0.700724 0.451291
O O16 0.662549 0.443580 0.501606
O O17 0.193023 0.362113 0.336816
#
# Coordination Sequence:
#
# PCOD8019953 Si02
#       8
#     2   2   2   2   2   2   2   2
#     4   9  21  42  63  93 127 159 215 265 308 376
#     4  11  22  42  66  92 123 166 218 256 319 387
#     4  12  25  41  64  94 130 167 213 262 325 384
#     4   9  21  41  63  92 122 162 221 262 306 375
#     4  12  21  40  73  88 126 177 213 258 322 380
#     4  10  22  42  63  96 128 165 212 272 317 364
#     4  11  23  44  63  90 130 175 206 268 316 387
#     4  12  22  42  60  95 133 165 209 263 323 375
#
# _framework density 20.933606000000001
#
# number of rings (size 3 to 8) (size 9 to 14) (size 15 to 20)
#    0.750    0.500    3.750    3.375    1.750    0.000 
#    2.250    0.625    0.000    0.000    0.000    0.000 
#    0.000    0.000    0.000    0.000    0.000    0.000 
#
# Total GULP energy -198292.799555 kJ/mol
# GULP energy per Si atom -12393.299972 kJ/mol
# Density = 2.088596 g / cm^3
# Si number density = 20.933606 Si / 1000 Ang^3
#
#
#
# Elastic Constant Matrix: (Units=GPa)
#
#
# Indices 1 2 3 4 5 6 
#
# 1 70.4120 41.9870 40.4792 -6.9652 2.8629 12.8041
# 2 41.9870 119.5543 47.6726 -8.1942 13.6354 20.3740
# 3 40.4792 47.6726 105.2171 -16.4007 -6.3102 10.9393
# 4 -6.9652 -8.1942 -16.4007 38.9831 6.1822 -4.8065
# 5 2.8629 13.6354 -6.3102 6.1822 25.0841 3.2315
# 6 12.8041 20.3740 10.9393 -4.8065 3.2315 31.5312
#
#
#
# Elastic Compliance Matrix: (Units=1/GPa)
#
#
# Indices 1 2 3 4 5 6 
#
# 1 0.020736 -0.004267 -0.005718 0.000133 -0.001061 -0.003550
# 2 -0.004267 0.013188 -0.004177 0.000873 -0.007374 -0.004451
# 3 -0.005718 -0.004177 0.014460 0.003258 0.005769 -0.000090
# 4 0.000133 0.000873 0.003258 0.028788 -0.007201 0.003378
# 5 -0.001061 -0.007374 0.005769 -0.007201 0.047580 -0.002780
# 6 -0.003550 -0.004451 -0.000090 0.003378 -0.002780 0.036863
#
#
# Mechanical properties :
#
#
# Convention : Reuss Voigt Hill
#
# Bulk Modulus (GPa) = 49.85244 61.71789 55.78516
# Shear Modulus (GPa) = 25.42907 30.12265 27.77586
#
# Velocity S-wave (km/s) = 3.48911 3.79748 3.64655
# Velocity P-wave (km/s) = 6.33230 6.98387 6.66605
#
# Compressibility (1/GPa) = 0.02005920
#
# Stress axis : x y z
#
# Youngs Moduli (GPa) = 48.22612 75.82649 69.15773
#
# Poissons Ratio (x) = 0.32356 0.39543
# Poissons Ratio (y) = 0.20579 0.28888
# Poissons Ratio (z) = 0.27575 0.31674
#
# Static dielectric constant tensor:
#      x y z
#    x 3.733170 -0.028700 -0.237630 
#    y -0.028700 3.737290 0.060500 
#    z -0.237630 0.060500 3.786020 
# 
# 
# High freq. dielectric constant tensor:
#      x y z
#    x 1.809670 0.003700 -0.019130 
#    y 0.003700 1.812570 0.001590 
#    z -0.019130 0.001590 1.820380 
# 
# From -- ./inp_files/330399.got.cif
#   From: 2010.06.25/outbox.cif.g09.slc.cpg/sg2_166_cif.got.tgz:330399.got - 2010.06.27 13:26:56.
