data_PCOD8019582
_publ_section_title
;
Structure prediction by ZEFSAII (Michael W. Deem and Ramdas Pophale) SiO2 
 PCOD8019582
Probable space group: P -1
;
_chemical_formula_sum "Si O2"
_cell_formula_units_Z 14
_cell_length_a 8.974203
_cell_length_b 9.205207
_cell_length_c 13.220370
_cell_angle_alpha 144.937558
_cell_angle_beta 82.548701
_cell_angle_gamma 91.678329
_cell_volume 616.405374
_symmetry_space_group_name_H-M "P -1"
_symmetry_group_IT_number 2
_symmetry_cell_setting 'triclinic'
loop_
_space_group_symop_operation_xyz
x,y,z
-x,-y,-z
loop_
_atom_site_type_symbol
_atom_site_label
_atom_site_fract_x
_atom_site_fract_y
_atom_site_fract_z
Si Si1 0.876099 0.975484 0.700985
Si Si2 0.675364 0.466817 0.940273
Si Si3 0.758070 0.675385 0.377179
Si Si4 0.385040 0.277296 0.105949
Si Si5 0.273132 0.866673 0.997272
Si Si6 0.554224 0.369968 0.527303
Si Si7 0.791236 0.902621 0.294223
O O1 0.748171 0.177083 0.775877
O O2 0.041420 0.051204 0.721616
O O3 0.863771 0.719266 0.490483
O O4 0.833145 0.960464 0.814801
O O5 0.706941 0.549111 0.870372
O O6 0.500000 0.500000 0.000000
O O7 0.763303 0.626810 0.100778
O O8 0.803378 0.382660 0.169140
O O9 0.584290 0.718492 0.450340
O O10 0.774769 0.884237 0.406809
O O11 0.558743 0.210856 0.013804
O O12 0.374476 0.416861 0.294420
O O13 0.300448 0.027320 0.985426
O O14 0.500000 0.500000 0.500000
O O15 0.677466 0.117886 0.367866
#
# Coordination Sequence:
#
# PCOD8019582 Si02
#       7
#     2   2   2   2   2   2   2
#     4  12  24  45  69  99 141 175 221 285 341 397
#     4  12  22  41  72  99 132 178 226 274 328 402
#     4  11  23  43  72  96 136 179 227 274 335 402
#     4  10  22  41  69 100 133 173 233 277 330 388
#     4  10  22  42  67 101 134 175 226 278 328 405
#     4  11  24  44  71  99 130 176 233 280 329 407
#     4  12  26  43  67 104 137 174 225 284 342 396
#
# _framework density 22.712326999999998
#
# number of rings (size 3 to 8) (size 9 to 14) (size 15 to 20)
#    0.000    0.857    2.857    4.714    6.000    0.000 
#    0.000    5.000    0.000    0.000    0.000    0.000 
#    0.000    0.000    0.000    0.000    0.000    0.000 
#
# Total GULP energy -173587.864765 kJ/mol
# GULP energy per Si atom -12399.133197 kJ/mol
# Density = 2.266063 g / cm^3
# Si number density = 22.712327 Si / 1000 Ang^3
#
#
#
# Elastic Constant Matrix: (Units=GPa)
#
#
# Indices 1 2 3 4 5 6 
#
# 1 97.4535 26.4337 32.8340 -6.5274 8.4738 26.3612
# 2 26.4337 78.1992 32.5723 -7.1692 -5.2780 9.7752
# 3 32.8340 32.5723 109.0356 -16.7044 18.9718 11.3452
# 4 -6.5274 -7.1692 -16.7044 33.3213 5.4145 0.8142
# 5 8.4738 -5.2780 18.9718 5.4145 29.8673 0.7471
# 6 26.3612 9.7752 11.3452 0.8142 0.7471 30.3653
#
#
#
# Elastic Compliance Matrix: (Units=1/GPa)
#
#
# Indices 1 2 3 4 5 6 
#
# 1 0.015283 -0.003218 -0.001270 0.002648 -0.004285 -0.011723
# 2 -0.003218 0.016612 -0.005357 -0.000933 0.007438 -0.000711
# 3 -0.001270 -0.005357 0.014554 0.007773 -0.011177 -0.002544
# 4 0.002648 -0.000933 0.007773 0.036361 -0.012306 -0.005575
# 5 -0.004285 0.007438 -0.011177 -0.012306 0.045224 0.004719
# 6 -0.011723 -0.000711 -0.002544 -0.005575 0.004719 0.044322
#
#
# Mechanical properties :
#
#
# Convention : Reuss Voigt Hill
#
# Bulk Modulus (GPa) = 37.36937 52.04090 44.70513
# Shear Modulus (GPa) = 24.87978 31.56734 28.22356
#
# Velocity S-wave (km/s) = 3.31332 3.73215 3.52895
# Velocity P-wave (km/s) = 5.57911 6.44474 6.02749
#
# Compressibility (1/GPa) = 0.02675989
#
# Stress axis : x y z
#
# Youngs Moduli (GPa) = 65.43213 60.19653 68.70848
#
# Poissons Ratio (x) = 0.19373 0.08725
# Poissons Ratio (y) = 0.21058 0.36805
# Poissons Ratio (z) = 0.08309 0.32245
#
# Static dielectric constant tensor:
#      x y z
#    x 3.818910 0.124770 0.126410 
#    y 0.124770 4.152730 0.064590 
#    z 0.126410 0.064590 4.608750 
# 
# 
# High freq. dielectric constant tensor:
#      x y z
#    x 1.874130 0.017030 0.008860 
#    y 0.017030 1.904270 -0.004690 
#    z 0.008860 -0.004690 1.903670 
# 
# From -- ./inp_files/155478.got.cif
#   From: 2010.06.25/outbox.cif.g09.slc.cpg/sg2_78_cif.got.tgz:155478.got - 2010.06.27 13:26:56.
