data_PCOD8019285
_publ_section_title
;
Structure prediction by ZEFSAII (Michael W. Deem and Ramdas Pophale) SiO2 
 PCOD8019285
Probable space group: P -1
;
_chemical_formula_sum "Si O2"
_cell_formula_units_Z 16
_cell_length_a 8.924961
_cell_length_b 11.995131
_cell_length_c 16.099841
_cell_angle_alpha 68.650662
_cell_angle_beta 132.409836
_cell_angle_gamma 139.880050
_cell_volume 777.255515
_symmetry_space_group_name_H-M "P -1"
_symmetry_group_IT_number 2
_symmetry_cell_setting 'triclinic'
loop_
_space_group_symop_operation_xyz
x,y,z
-x,-y,-z
loop_
_atom_site_type_symbol
_atom_site_label
_atom_site_fract_x
_atom_site_fract_y
_atom_site_fract_z
Si Si1 0.914856 0.469583 0.172430
Si Si2 0.841270 0.639132 0.798550
Si Si3 0.268884 0.988543 0.459605
Si Si4 0.800158 0.235562 0.932423
Si Si5 0.830718 0.600222 0.423974
Si Si6 0.811272 0.379664 0.590490
Si Si7 0.250632 0.063639 0.013370
Si Si8 0.855717 0.980188 0.204536
O O1 0.558166 0.276821 0.083804
O O2 0.124436 0.450638 0.231078
O O3 0.997599 0.620845 0.105678
O O4 0.977695 0.532029 0.273860
O O5 0.479437 0.501005 0.712481
O O6 0.006591 0.829641 0.772218
O O7 0.991623 0.666015 0.934131
O O8 0.474333 0.171545 0.541683
O O9 0.500000 0.000000 0.500000
O O10 0.024209 0.802817 0.472704
O O11 0.069019 0.971269 0.322281
O O12 0.495540 0.181091 0.848775
O O13 0.695412 0.053958 0.920894
O O14 0.760967 0.492883 0.509527
O O15 0.029981 0.619479 0.425311
O O16 0.129427 0.032733 0.884487
O O17 0.000000 0.000000 0.000000
#
# Coordination Sequence:
#
# PCOD8019285 Si02
#       8
#     2   2   2   2   2   2   2   2
#     4  12  25  41  67  98 136 168 220 275 325 385
#     4  11  21  42  68  95 131 176 222 264 329 393
#     4  10  22  41  66  94 123 173 223 263 321 387
#     4  11  24  44  67  98 134 176 223 262 327 403
#     4  10  22  41  68  88 126 180 215 265 328 390
#     4  10  24  42  61  97 130 168 221 270 324 387
#     4  11  26  41  64 103 135 172 212 277 334 381
#     4  11  21  45  70  92 135 175 222 268 324 399
#
# _framework density 20.585252000000001
#
# number of rings (size 3 to 8) (size 9 to 14) (size 15 to 20)
#    0.000    1.250    3.750    1.875    5.250    4.000 
#    0.000    1.250    0.000    0.000    0.000    0.000 
#    0.000    0.000    0.000    0.000    0.000    0.000 
#
# Total GULP energy -198400.728634 kJ/mol
# GULP energy per Si atom -12400.045540 kJ/mol
# Density = 2.053840 g / cm^3
# Si number density = 20.585252 Si / 1000 Ang^3
#
#
#
# Elastic Constant Matrix: (Units=GPa)
#
#
# Indices 1 2 3 4 5 6 
#
# 1 61.6712 21.4697 24.3206 -7.5687 7.6431 6.0974
# 2 21.4697 148.8944 40.5348 5.9991 3.1727 4.1944
# 3 24.3206 40.5348 64.1725 -4.3724 26.7175 -0.9221
# 4 -7.5687 5.9991 -4.3724 32.7275 1.6543 6.1425
# 5 7.6431 3.1727 26.7175 1.6543 35.8307 3.3902
# 6 6.0974 4.1944 -0.9221 6.1425 3.3902 24.6194
#
#
#
# Elastic Compliance Matrix: (Units=1/GPa)
#
#
# Indices 1 2 3 4 5 6 
#
# 1 0.020667 -0.000912 -0.007795 0.005083 0.001892 -0.006784
# 2 -0.000912 0.009047 -0.007917 -0.002898 0.005587 -0.001658
# 3 -0.007795 -0.007917 0.033753 0.004080 -0.023634 0.006780
# 4 0.005083 -0.002898 0.004080 0.034660 -0.004655 -0.008619
# 5 0.001892 0.005587 -0.023634 -0.004655 0.045551 -0.007417
# 6 -0.006784 -0.001658 0.006780 -0.008619 -0.007417 0.046007
#
#
# Mechanical properties :
#
#
# Convention : Reuss Voigt Hill
#
# Bulk Modulus (GPa) = 33.09129 49.70980 41.40055
# Shear Modulus (GPa) = 21.45874 31.19639 26.32757
#
# Velocity S-wave (km/s) = 3.23218 3.89713 3.58012
# Velocity P-wave (km/s) = 5.48082 6.66715 6.10288
#
# Compressibility (1/GPa) = 0.03021943
#
# Stress axis : x y z
#
# Youngs Moduli (GPa) = 48.38720 110.53027 29.62674
#
# Poissons Ratio (x) = 0.10078 0.23095
# Poissons Ratio (y) = 0.04412 0.23455
# Poissons Ratio (z) = 0.37720 0.87503
#
# Static dielectric constant tensor:
#      x y z
#    x 3.567370 -0.067020 0.183560 
#    y -0.067020 4.402520 0.088030 
#    z 0.183560 0.088030 3.653960 
# 
# 
# High freq. dielectric constant tensor:
#      x y z
#    x 1.787300 -0.003160 0.018040 
#    y -0.003160 1.832910 0.007430 
#    z 0.018040 0.007430 1.802580 
# 
# From -- ./inp_files/258026.got.cif
#   From: 2010.06.25/outbox.cif.g09.slc.cpg/sg2_130_cif.got.tgz:258026.got - 2010.06.27 13:26:56.
