data_PCOD8019695
_publ_section_title
;
Structure prediction by ZEFSAII (Michael W. Deem and Ramdas Pophale) SiO2 
 PCOD8019695
Probable space group: P -1
;
_chemical_formula_sum "Si O2"
_cell_formula_units_Z 14
_cell_length_a 8.675720
_cell_length_b 9.118482
_cell_length_c 11.817574
_cell_angle_alpha 51.897506
_cell_angle_beta 73.977470
_cell_angle_gamma 65.076208
_cell_volume 666.985239
_symmetry_space_group_name_H-M "P -1"
_symmetry_group_IT_number 2
_symmetry_cell_setting 'triclinic'
loop_
_space_group_symop_operation_xyz
x,y,z
-x,-y,-z
loop_
_atom_site_type_symbol
_atom_site_label
_atom_site_fract_x
_atom_site_fract_y
_atom_site_fract_z
Si Si1 0.726477 0.683060 0.154482
Si Si2 0.305689 0.066791 0.178786
Si Si3 0.909762 0.603864 0.788655
Si Si4 0.678466 0.356660 0.987179
Si Si5 0.628413 0.336320 0.745080
Si Si6 0.173991 0.379087 0.462513
Si Si7 0.321412 0.046845 0.759750
O O1 0.573662 0.606596 0.260849
O O2 0.768213 0.814423 0.182529
O O3 0.889220 0.492319 0.190715
O O4 0.667037 0.814231 0.992707
O O5 0.146929 0.192615 0.226694
O O6 0.272088 0.868434 0.241381
O O7 0.475200 0.018401 0.242393
O O8 0.820972 0.457299 0.932218
O O9 0.856043 0.650559 0.648210
O O10 0.671126 0.307336 0.881439
O O11 0.500000 0.500000 0.000000
O O12 0.733381 0.148418 0.141039
O O13 0.691472 0.506254 0.599832
O O14 0.255785 0.162936 0.602031
O O15 0.000000 0.500000 0.500000
#
# Coordination Sequence:
#
# PCOD8019695 Si02
#       7
#     2   2   2   2   2   2   2
#     4  11  20  39  67  99 126 164 214 268 316 371
#     4  11  21  40  66 101 124 167 215 263 318 376
#     4  11  24  39  68  95 135 160 216 269 311 376
#     4  11  20  40  67 100 121 168 217 263 313 374
#     4  10  22  41  70  87 128 171 211 253 327 380
#     4  11  25  45  63  95 128 172 216 260 315 384
#     4  11  21  40  69  89 134 165 214 261 316 378
#
# _framework density 20.989971000000001
#
# number of rings (size 3 to 8) (size 9 to 14) (size 15 to 20)
#    0.000    1.143    5.714    1.286    0.000    4.571 
#    0.000    0.714    3.143    0.000    0.000    0.000 
#    0.000    0.000    0.000    0.000    0.000    0.000 
#
# Total GULP energy -173666.937046 kJ/mol
# GULP energy per Si atom -12404.781218 kJ/mol
# Density = 2.094220 g / cm^3
# Si number density = 20.989971 Si / 1000 Ang^3
#
#
#
# Elastic Constant Matrix: (Units=GPa)
#
#
# Indices 1 2 3 4 5 6 
#
# 1 85.3332 47.2171 44.1784 -10.7759 -6.4691 -15.2912
# 2 47.2171 148.3231 41.3405 -8.2909 -14.2695 -15.4236
# 3 44.1784 41.3405 135.8792 -21.2864 -1.9412 -4.4056
# 4 -10.7759 -8.2909 -21.2864 26.5663 -6.7300 2.2904
# 5 -6.4691 -14.2695 -1.9412 -6.7300 28.4063 -1.8285
# 6 -15.2912 -15.4236 -4.4056 2.2904 -1.8285 35.5773
#
#
#
# Elastic Compliance Matrix: (Units=1/GPa)
#
#
# Indices 1 2 3 4 5 6 
#
# 1 0.017166 -0.003362 -0.003848 0.003137 0.003048 0.005399
# 2 -0.003362 0.008872 -0.001284 0.001195 0.004039 0.002373
# 3 -0.003848 -0.001284 0.009947 0.006266 0.000555 -0.001354
# 4 0.003137 0.001195 0.006266 0.047588 0.013033 0.000248
# 5 0.003048 0.004039 0.000555 0.013033 0.041337 0.004415
# 6 0.005399 0.002373 -0.001354 0.000248 0.004415 0.031500
#
#
# Mechanical properties :
#
#
# Convention : Reuss Voigt Hill
#
# Bulk Modulus (GPa) = 52.64291 70.55639 61.59965
# Shear Modulus (GPa) = 27.81925 33.89663 30.85794
#
# Velocity S-wave (km/s) = 3.64450 4.02294 3.83838
# Velocity P-wave (km/s) = 6.54556 7.43411 7.00394
#
# Compressibility (1/GPa) = 0.01899591
#
# Stress axis : x y z
#
# Youngs Moduli (GPa) = 58.25464 112.70817 100.53200
#
# Poissons Ratio (x) = 0.37893 0.38688
# Poissons Ratio (y) = 0.19585 0.12913
# Poissons Ratio (z) = 0.22418 0.14477
#
# Static dielectric constant tensor:
#      x y z
#    x 3.738030 0.049720 -0.075480 
#    y 0.049720 4.001620 -0.011870 
#    z -0.075480 -0.011870 3.887330 
# 
# 
# High freq. dielectric constant tensor:
#      x y z
#    x 1.814220 -0.002330 0.002580 
#    y -0.002330 1.833970 0.002700 
#    z 0.002580 0.002700 1.812920 
# 
# From -- ./inp_files/150859.got.cif
#   From: 2010.06.25/outbox.cif.g09.slc.cpg/sg2_76_cif.got.tgz:150859.got - 2010.06.27 13:26:56.
