data_PCOD8019259
_publ_section_title
;
Structure prediction by ZEFSAII (Michael W. Deem and Ramdas Pophale) SiO2 
 PCOD8019259
Probable space group: P -1
;
_chemical_formula_sum "Si O2"
_cell_formula_units_Z 16
_cell_length_a 10.069159
_cell_length_b 21.149733
_cell_length_c 14.581631
_cell_angle_alpha 29.455317
_cell_angle_beta 125.786454
_cell_angle_gamma 144.540275
_cell_volume 797.097284
_symmetry_space_group_name_H-M "P -1"
_symmetry_group_IT_number 2
_symmetry_cell_setting 'triclinic'
loop_
_space_group_symop_operation_xyz
x,y,z
-x,-y,-z
loop_
_atom_site_type_symbol
_atom_site_label
_atom_site_fract_x
_atom_site_fract_y
_atom_site_fract_z
Si Si1 0.734187 0.664482 0.818766
Si Si2 0.753103 0.439131 0.975032
Si Si3 0.861494 0.964424 0.368614
Si Si4 0.692814 0.494610 0.496692
Si Si5 0.002645 0.907940 0.030924
Si Si6 0.444866 0.114698 0.820802
Si Si7 0.204635 0.044895 0.260116
Si Si8 0.223105 0.393450 0.409169
O O1 0.777866 0.566349 0.898422
O O2 0.994645 0.844823 0.751728
O O3 0.684541 0.761304 0.613371
O O4 0.500000 0.500000 0.000000
O O5 0.717468 0.474042 0.815443
O O6 0.505584 0.202222 0.197878
O O7 0.000000 0.500000 0.000000
O O8 0.072486 0.003071 0.355107
O O9 0.690152 0.943553 0.256960
O O10 0.696866 0.355795 0.626186
O O11 0.417788 0.390946 0.492531
O O12 0.743416 0.508183 0.607856
O O13 0.916541 0.713750 0.267962
O O14 0.812872 0.846561 0.954458
O O15 0.283040 0.066431 0.903402
O O16 0.000000 0.000000 0.000000
O O17 0.500000 0.000000 0.000000
O O18 0.063419 0.834893 0.427133
#
# Coordination Sequence:
#
# PCOD8019259 Si02
#       8
#     2   2   2   2   2   2   2   2
#     4  11  22  42  68  87 117 168 224 262 304 376
#     4  12  26  40  61  95 130 163 206 269 326 370
#     4  10  22  41  66  90 118 169 223 256 306 382
#     4  11  20  36  67  95 125 166 214 255 307 388
#     4  11  20  37  67  96 118 166 215 251 310 380
#     4  11  25  41  60  94 138 166 200 266 322 373
#     4  11  20  38  65  93 124 163 209 261 310 379
#     4  11  21  38  63  96 126 161 212 261 312 378
#
# _framework density 20.072832999999999
#
# number of rings (size 3 to 8) (size 9 to 14) (size 15 to 20)
#    0.000    1.000    7.500    0.750    0.000    2.000 
#    0.000    1.250    0.000    0.000    0.000    0.000 
#    0.000    0.000    0.000    0.000    0.000    0.000 
#
# Total GULP energy -198394.361937 kJ/mol
# GULP energy per Si atom -12399.647621 kJ/mol
# Density = 2.002715 g / cm^3
# Si number density = 20.072833 Si / 1000 Ang^3
#
#
#
# Elastic Constant Matrix: (Units=GPa)
#
#
# Indices 1 2 3 4 5 6 
#
# 1 53.7866 38.9425 42.4135 11.4491 1.4679 -0.7727
# 2 38.9425 105.0615 55.6580 -6.3287 2.5211 -10.5278
# 3 42.4135 55.6580 139.5243 -4.9813 -2.1059 -5.9515
# 4 11.4491 -6.3287 -4.9813 35.9216 -9.8681 -4.0255
# 5 1.4679 2.5211 -2.1059 -9.8681 32.5478 -3.2289
# 6 -0.7727 -10.5278 -5.9515 -4.0255 -3.2289 27.5582
#
#
#
# Elastic Compliance Matrix: (Units=1/GPa)
#
#
# Indices 1 2 3 4 5 6 
#
# 1 0.036729 -0.011217 -0.007797 -0.017771 -0.007515 -0.008416
# 2 -0.011217 0.016002 -0.002400 0.007347 0.001992 0.006587
# 3 -0.007797 -0.002400 0.010796 0.004587 0.002845 0.002199
# 4 -0.017771 0.007347 0.004587 0.040457 0.013870 0.010834
# 5 -0.007515 0.001992 0.002845 0.013870 0.036033 0.007413
# 6 -0.008416 0.006587 0.002199 0.010834 0.007413 0.041493
#
#
# Mechanical properties :
#
#
# Convention : Reuss Voigt Hill
#
# Bulk Modulus (GPa) = 48.31490 63.60006 55.95748
# Shear Modulus (GPa) = 21.62259 29.96274 25.79267
#
# Velocity S-wave (km/s) = 3.28564 3.86774 3.58851
# Velocity P-wave (km/s) = 6.20612 7.19022 6.71622
#
# Compressibility (1/GPa) = 0.02069755
#
# Stress axis : x y z
#
# Youngs Moduli (GPa) = 27.22654 62.49063 92.62990
#
# Poissons Ratio (x) = 0.70094 0.72228
# Poissons Ratio (y) = 0.30539 0.22236
# Poissons Ratio (z) = 0.21230 0.15001
#
# Static dielectric constant tensor:
#      x y z
#    x 2.696270 -0.574640 -0.212350 
#    y -0.574640 3.581400 -0.105120 
#    z -0.212350 -0.105120 3.964790 
# 
# 
# High freq. dielectric constant tensor:
#      x y z
#    x 1.749880 -0.029850 -0.011250 
#    y -0.029850 1.786820 -0.010000 
#    z -0.011250 -0.010000 1.804460 
# 
# From -- ./inp_files/524386.got.cif
#   From: 2010.06.25/outbox.cif.g09.slc.cpg/sg2_263_cif.got.tgz:524386.got - 2010.06.27 13:26:56.
