data_PCOD8019273
_publ_section_title
;
Structure prediction by ZEFSAII (Michael W. Deem and Ramdas Pophale) SiO2 
 PCOD8019273
Probable space group: P -1
;
_chemical_formula_sum "Si O2"
_cell_formula_units_Z 12
_cell_length_a 16.767764
_cell_length_b 5.279404
_cell_length_c 18.732288
_cell_angle_alpha 127.347716
_cell_angle_beta 22.238625
_cell_angle_gamma 127.043471
_cell_volume 494.284430
_symmetry_space_group_name_H-M "P -1"
_symmetry_group_IT_number 2
_symmetry_cell_setting 'triclinic'
loop_
_space_group_symop_operation_xyz
x,y,z
-x,-y,-z
loop_
_atom_site_type_symbol
_atom_site_label
_atom_site_fract_x
_atom_site_fract_y
_atom_site_fract_z
Si Si1 0.152025 0.503330 0.307422
Si Si2 0.752682 0.562211 0.305214
Si Si3 0.054334 0.902854 0.846749
Si Si4 0.395554 0.308115 0.869709
Si Si5 0.181818 0.791731 0.575976
Si Si6 0.451559 0.048781 0.936829
O O1 0.294184 0.854339 0.243605
O O2 0.000000 0.500000 0.500000
O O3 0.016327 0.409937 0.333601
O O4 0.321034 0.250191 0.133504
O O5 0.500000 0.500000 0.500000
O O6 0.864528 0.239617 0.170701
O O7 0.844068 0.721808 0.181918
O O8 0.822803 0.820273 0.355384
O O9 0.154123 0.695041 0.665922
O O10 0.800582 0.866308 0.043482
O O11 0.601303 0.289349 0.649050
O O12 0.401510 0.127219 0.909237
O O13 0.378789 0.683378 0.956444
#
# Coordination Sequence:
#
# PCOD8019273 Si02
#       6
#     2   2   2   2   2   2
#     4  11  22  45  62  96 131 177 218 262 309 374
#     4  10  22  45  72  93 126 166 210 265 327 384
#     4  10  22  41  66  92 132 159 211 262 324 371
#     4  12  23  43  63  95 131 171 212 263 317 373
#     4  10  24  39  67  94 129 171 217 259 320 376
#     4  11  26  40  62  92 133 173 219 260 310 370
#
# _framework density 24.277521
#
# number of rings (size 3 to 8) (size 9 to 14) (size 15 to 20)
#    1.000    0.333    3.333    2.500    2.333    4.667 
#    3.000    1.667    0.000    0.000    0.000    0.000 
#    0.000    0.000    0.000    0.000    0.000    0.000 
#
# Total GULP energy -148710.370304 kJ/mol
# GULP energy per Si atom -12392.530859 kJ/mol
# Density = 2.422226 g / cm^3
# Si number density = 24.277521 Si / 1000 Ang^3
#
#
#
# Elastic Constant Matrix: (Units=GPa)
#
#
# Indices 1 2 3 4 5 6 
#
# 1 94.9264 27.4016 5.6923 -17.6935 -12.3591 -12.7685
# 2 27.4016 103.9248 6.5255 -31.2447 -24.7732 -23.0336
# 3 5.6923 6.5255 112.8290 -34.1323 -12.3549 -4.1871
# 4 -17.6935 -31.2447 -34.1323 41.3862 12.6536 -7.0601
# 5 -12.3591 -24.7732 -12.3549 12.6536 48.6133 3.2188
# 6 -12.7685 -23.0336 -4.1871 -7.0601 3.2188 34.0592
#
#
#
# Elastic Compliance Matrix: (Units=1/GPa)
#
#
# Indices 1 2 3 4 5 6 
#
# 1 0.013093 0.001600 0.002751 0.009957 0.001706 0.008231
# 2 0.001600 0.023064 0.008167 0.026858 0.005774 0.022223
# 3 0.002751 0.008167 0.015510 0.021587 0.002343 0.012715
# 4 0.009957 0.026858 0.021587 0.073279 -0.000001 0.039740
# 5 0.001706 0.005774 0.002343 -0.000001 0.024375 0.002529
# 6 0.008231 0.022223 0.012715 0.039740 0.002529 0.057038
#
#
# Mechanical properties :
#
#
# Convention : Reuss Voigt Hill
#
# Bulk Modulus (GPa) = 13.03718 43.43543 28.23631
# Shear Modulus (GPa) = 24.16737 42.94912 33.55824
#
# Velocity S-wave (km/s) = 3.15852 4.21062 3.72193
# Velocity P-wave (km/s) = 4.32243 6.44741 5.48874
#
# Compressibility (1/GPa) = 0.07670370
#
# Stress axis : x y z
#
# Youngs Moduli (GPa) = 76.37722 43.35689 64.47256
#
# Poissons Ratio (x) = -0.06935 -0.17738
# Poissons Ratio (y) = -0.12217 -0.52656
# Poissons Ratio (z) = -0.21013 -0.35410
#
# Static dielectric constant tensor:
#      x y z
#    x 4.167940 0.170950 0.009330 
#    y 0.170950 4.498110 -0.164830 
#    z 0.009330 -0.164830 4.543560 
# 
# 
# High freq. dielectric constant tensor:
#      x y z
#    x 1.951280 0.010120 0.006060 
#    y 0.010120 1.965230 -0.016040 
#    z 0.006060 -0.016040 1.982480 
# 
# From -- ./inp_files/36465.got.cif
#   From: 2010.06.25/outbox.cif.g09.slc.cpg/sg2_19_cif.got.tgz:36465.got - 2010.06.27 13:26:56.
