data_PCOD8019859
_publ_section_title
;
Structure prediction by ZEFSAII (Michael W. Deem and Ramdas Pophale) SiO2 
 PCOD8019859
Probable space group: P -1
;
_chemical_formula_sum "Si O2"
_cell_formula_units_Z 16
_cell_length_a 8.059234
_cell_length_b 13.880382
_cell_length_c 6.870182
_cell_angle_alpha 89.023018
_cell_angle_beta 94.174891
_cell_angle_gamma 71.836095
_cell_volume 727.658921
_symmetry_space_group_name_H-M "P -1"
_symmetry_group_IT_number 2
_symmetry_cell_setting 'triclinic'
loop_
_space_group_symop_operation_xyz
x,y,z
-x,-y,-z
loop_
_atom_site_type_symbol
_atom_site_label
_atom_site_fract_x
_atom_site_fract_y
_atom_site_fract_z
Si Si1 0.425839 0.870356 0.092720
Si Si2 0.149968 0.550101 0.038584
Si Si3 0.986100 0.265465 0.687381
Si Si4 0.362920 0.414647 0.370283
Si Si5 0.653572 0.785782 0.460233
Si Si6 0.298334 0.106274 0.172437
Si Si7 0.249834 0.592892 0.622578
Si Si8 0.055889 0.880247 0.021794
O O1 0.481963 0.813466 0.307177
O O2 0.357729 0.988419 0.134179
O O3 0.587638 0.842868 0.956730
O O4 0.263899 0.838563 0.982839
O O5 0.310757 0.463360 0.152279
O O6 0.085378 0.650150 0.157623
O O7 0.219570 0.583581 0.846239
O O8 0.000000 0.500000 0.000000
O O9 0.191831 0.239318 0.681569
O O10 0.894615 0.306234 0.472958
O O11 0.951318 0.161781 0.757818
O O12 0.326338 0.308747 0.392671
O O13 0.243032 0.490281 0.519198
O O14 0.566741 0.393603 0.418401
O O15 0.660632 0.877318 0.599428
O O16 0.086488 0.155352 0.116235
O O17 0.000000 0.000000 0.000000
#
# Coordination Sequence:
#
# PCOD8019859 Si02
#       8
#     2   2   2   2   2   2   2   2
#     4  10  22  44  64  91 129 169 217 268 322 385
#     4  11  23  39  63  90 126 167 208 257 321 378
#     4  11  24  39  63  93 127 167 211 265 316 384
#     4  10  23  39  61  94 122 169 209 266 316 379
#     4  12  23  39  67  95 130 165 220 267 325 386
#     4  10  23  42  65  93 128 170 213 271 326 382
#     4  10  22  42  61  88 133 161 215 262 314 384
#     4  10  22  44  66  91 131 171 212 270 324 380
#
# _framework density 21.988323000000001
#
# number of rings (size 3 to 8) (size 9 to 14) (size 15 to 20)
#    0.000    1.500    1.250    3.000    3.500    4.000 
#    2.250    1.250    0.000    0.000    0.000    0.000 
#    0.000    0.000    0.000    0.000    0.000    0.000 
#
# Total GULP energy -198327.488031 kJ/mol
# GULP energy per Si atom -12395.468002 kJ/mol
# Density = 2.193828 g / cm^3
# Si number density = 21.988323 Si / 1000 Ang^3
#
#
#
# Elastic Constant Matrix: (Units=GPa)
#
#
# Indices 1 2 3 4 5 6 
#
# 1 136.1264 29.0537 41.3367 -6.5471 8.7622 -4.0677
# 2 29.0537 61.1234 36.8282 -20.4705 -6.4342 4.1287
# 3 41.3367 36.8282 125.2023 -17.0057 -1.8835 -6.3590
# 4 -6.5471 -20.4705 -17.0057 32.3412 2.0748 -2.0635
# 5 8.7622 -6.4342 -1.8835 2.0748 35.2922 -8.6650
# 6 -4.0677 4.1287 -6.3590 -2.0635 -8.6650 26.0285
#
#
#
# Elastic Compliance Matrix: (Units=1/GPa)
#
#
# Indices 1 2 3 4 5 6 
#
# 1 0.008905 -0.003830 -0.002034 -0.001482 -0.002821 0.000445
# 2 -0.003830 0.025940 -0.004772 0.012660 0.003794 -0.003612
# 3 -0.002034 -0.004772 0.010565 0.002288 0.000926 0.003510
# 4 -0.001482 0.012660 0.002288 0.039893 0.000889 0.001778
# 5 -0.002821 0.003794 0.000926 0.000889 0.032171 0.009964
# 6 0.000445 -0.003612 0.003510 0.001778 0.009964 0.043378
#
#
# Mechanical properties :
#
#
# Convention : Reuss Voigt Hill
#
# Bulk Modulus (GPa) = 41.43235 59.65435 50.54335
# Shear Modulus (GPa) = 26.29212 33.08127 29.68669
#
# Velocity S-wave (km/s) = 3.46169 3.88299 3.67837
# Velocity P-wave (km/s) = 5.90436 6.87694 6.40913
#
# Compressibility (1/GPa) = 0.02413573
#
# Stress axis : x y z
#
# Youngs Moduli (GPa) = 112.29529 38.55076 94.64776
#
# Poissons Ratio (x) = 0.14767 0.19256
# Poissons Ratio (y) = 0.43014 0.45169
# Poissons Ratio (z) = 0.22846 0.18398
#
# Static dielectric constant tensor:
#      x y z
#    x 4.556090 -0.139450 -0.547910 
#    y -0.139450 3.927300 0.000970 
#    z -0.547910 0.000970 6.219760 
# 
# 
# High freq. dielectric constant tensor:
#      x y z
#    x 1.878380 -0.005690 0.004700 
#    y -0.005690 1.858390 -0.022370 
#    z 0.004700 -0.022370 1.860970 
# 
# From -- ./inp_files/38003.got.cif
#   From: 2010.06.25/outbox.cif.g09.slc.cpg/sg2_20_cif.got.tgz:38003.got - 2010.06.27 13:26:56.
