data_PCOD8019761
_publ_section_title
;
Structure prediction by ZEFSAII (Michael W. Deem and Ramdas Pophale) SiO2 
 PCOD8019761
Probable space group: P -1
;
_chemical_formula_sum "Si O2"
_cell_formula_units_Z 16
_cell_length_a 15.544909
_cell_length_b 16.482040
_cell_length_c 8.642763
_cell_angle_alpha 87.307782
_cell_angle_beta 109.710511
_cell_angle_gamma 153.433257
_cell_volume 742.414041
_symmetry_space_group_name_H-M "P -1"
_symmetry_group_IT_number 2
_symmetry_cell_setting 'triclinic'
loop_
_space_group_symop_operation_xyz
x,y,z
-x,-y,-z
loop_
_atom_site_type_symbol
_atom_site_label
_atom_site_fract_x
_atom_site_fract_y
_atom_site_fract_z
Si Si1 0.938312 0.648203 0.680002
Si Si2 0.584634 0.938796 0.271794
Si Si3 0.482769 0.252692 0.233187
Si Si4 0.725258 0.760517 0.780836
Si Si5 0.821099 0.275077 0.945260
Si Si6 0.555344 0.440365 0.664729
Si Si7 0.809608 0.121015 0.726786
Si Si8 0.617117 0.376323 0.965400
O O1 0.747778 0.447589 0.458884
O O2 0.793737 0.594317 0.705872
O O3 0.168510 0.878166 0.699026
O O4 0.058227 0.675656 0.848357
O O5 0.461140 0.924208 0.162661
O O6 0.644455 0.978926 0.485071
O O7 0.364510 0.689171 0.122913
O O8 0.455417 0.326740 0.231161
O O9 0.472096 0.229743 0.045920
O O10 0.259264 0.011308 0.190416
O O11 0.639471 0.597344 0.765870
O O12 0.694041 0.757922 0.579723
O O13 0.000000 0.000000 0.000000
O O14 0.767505 0.173199 0.775021
O O15 0.000000 0.500000 0.000000
O O16 0.467073 0.317362 0.773714
O O17 0.108143 0.359028 0.847346
#
# Coordination Sequence:
#
# PCOD8019761 Si02
#       8
#     2   2   2   2   2   2   2   2
#     4  11  23  43  69  98 137 181 225 271 342 396
#     4  12  25  42  68 101 133 180 230 276 331 398
#     4  11  25  45  71 100 134 181 221 277 336 402
#     4  10  22  41  71  98 132 172 223 269 338 391
#     4  12  23  43  66  97 136 176 225 282 330 391
#     4  10  22  43  66  96 138 174 214 283 324 397
#     4  12  24  46  70  97 137 177 225 278 336 393
#     4  12  24  44  70 100 135 178 229 268 338 396
#
# _framework density 21.551317999999998
#
# number of rings (size 3 to 8) (size 9 to 14) (size 15 to 20)
#    0.000    0.750    3.750    4.500    1.750    0.500 
#    0.000    2.500    0.000    0.000    0.000    0.000 
#    0.000    0.000    0.000    0.000    0.000    0.000 
#
# Total GULP energy -198345.304577 kJ/mol
# GULP energy per Si atom -12396.581536 kJ/mol
# Density = 2.150227 g / cm^3
# Si number density = 21.551318 Si / 1000 Ang^3
#
#
#
# Elastic Constant Matrix: (Units=GPa)
#
#
# Indices 1 2 3 4 5 6 
#
# 1 103.2556 46.2996 54.1172 -11.4568 -9.3289 -21.9145
# 2 46.2996 107.7027 52.7155 -18.7871 -3.6846 -6.8012
# 3 54.1172 52.7155 167.3214 -18.3667 -6.8667 -8.0561
# 4 -11.4568 -18.7871 -18.3667 38.7625 -3.3235 3.0572
# 5 -9.3289 -3.6846 -6.8667 -3.3235 38.9696 2.7601
# 6 -21.9145 -6.8012 -8.0561 3.0572 2.7601 28.5255
#
#
#
# Elastic Compliance Matrix: (Units=1/GPa)
#
#
# Indices 1 2 3 4 5 6 
#
# 1 0.015591 -0.004452 -0.003035 0.000421 0.002118 0.009809
# 2 -0.004452 0.012916 -0.002250 0.004008 0.000202 -0.001425
# 3 -0.003035 -0.002250 0.007855 0.001864 0.000669 -0.000914
# 4 0.000421 0.004008 0.001864 0.029171 0.003413 -0.001652
# 5 0.002118 0.000202 0.000669 0.003413 0.026673 -0.001083
# 6 0.009809 -0.001425 -0.000914 -0.001652 -0.001083 0.042276
#
#
# Mechanical properties :
#
#
# Convention : Reuss Voigt Hill
#
# Bulk Modulus (GPa) = 59.20897 76.06047 67.63472
# Shear Modulus (GPa) = 31.33141 36.26135 33.79638
#
# Velocity S-wave (km/s) = 3.81702 4.10635 3.96432
# Velocity P-wave (km/s) = 6.85268 7.60606 7.23918
#
# Compressibility (1/GPa) = 0.01688933
#
# Stress axis : x y z
#
# Youngs Moduli (GPa) = 64.13800 77.42506 127.30917
#
# Poissons Ratio (x) = 0.34468 0.38636
# Poissons Ratio (y) = 0.28553 0.28641
# Poissons Ratio (z) = 0.19465 0.17418
#
# Static dielectric constant tensor:
#      x y z
#    x 4.168820 -0.184780 0.103770 
#    y -0.184780 3.748680 -0.066450 
#    z 0.103770 -0.066450 4.353790 
# 
# 
# High freq. dielectric constant tensor:
#      x y z
#    x 1.843840 -0.014380 -0.003600 
#    y -0.014380 1.832000 -0.002260 
#    z -0.003600 -0.002260 1.873480 
# 
# From -- ./inp_files/315344.got.cif
#   From: 2010.06.25/outbox.cif.g09.slc.cpg/sg2_158_cif.got.tgz:315344.got - 2010.06.27 13:26:56.
