data_PCOD8019097
_publ_section_title
;
Structure prediction by ZEFSAII (Michael W. Deem and Ramdas Pophale) SiO2 
 PCOD8019097
Probable space group: P -1
;
_chemical_formula_sum "Si O2"
_cell_formula_units_Z 16
_cell_length_a 15.192592
_cell_length_b 11.470904
_cell_length_c 8.999979
_cell_angle_alpha 142.840175
_cell_angle_beta 131.210607
_cell_angle_gamma 51.975752
_cell_volume 698.310422
_symmetry_space_group_name_H-M "P -1"
_symmetry_group_IT_number 2
_symmetry_cell_setting 'triclinic'
loop_
_space_group_symop_operation_xyz
x,y,z
-x,-y,-z
loop_
_atom_site_type_symbol
_atom_site_label
_atom_site_fract_x
_atom_site_fract_y
_atom_site_fract_z
Si Si1 0.635468 0.046464 0.063991
Si Si2 0.369102 0.161931 0.857389
Si Si3 0.241499 0.650112 0.888965
Si Si4 0.164127 0.707517 0.471106
Si Si5 0.270475 0.336495 0.394276
Si Si6 0.187231 0.530966 0.017430
Si Si7 0.778367 0.919698 0.665101
Si Si8 0.993994 0.726098 0.539494
O O1 0.735501 0.167460 0.251130
O O2 0.645026 0.007793 0.212633
O O3 0.507131 0.179943 0.018249
O O4 0.641957 0.838639 0.772228
O O5 0.289337 0.364110 0.035843
O O6 0.323309 0.123254 0.602957
O O7 0.329673 0.482834 0.718160
O O8 0.253446 0.617857 0.044952
O O9 0.106277 0.639510 0.679808
O O10 0.267302 0.863992 0.098028
O O11 0.192570 0.481908 0.336335
O O12 0.041763 0.809100 0.522707
O O13 0.143782 0.698256 0.262765
O O14 0.195741 0.231739 0.322776
O O15 0.075074 0.448305 0.750220
O O16 0.903178 0.904991 0.699758
#
# Coordination Sequence:
#
# PCOD8019097 Si02
#       8
#     2   2   2   2   2   2   2   2
#     4  11  24  46  67  95 126 170 214 267 325 370
#     4  10  23  46  70  90 131 166 212 276 314 374
#     4  11  22  39  67  93 127 175 207 257 317 387
#     4  11  24  41  67  98 127 170 215 261 320 384
#     4  11  22  41  65  92 134 164 209 268 308 379
#     4  11  21  43  65  97 128 168 216 261 322 375
#     4  11  23  44  66  97 129 172 215 256 321 381
#     4  10  22  41  64  97 133 167 209 266 318 372
#
# _framework density 22.912444000000001
#
# number of rings (size 3 to 8) (size 9 to 14) (size 15 to 20)
#    0.000    1.250    3.750    3.375    1.750    1.000 
#    2.250    4.375    0.000    0.000    0.000    0.000 
#    0.000    0.000    0.000    0.000    0.000    0.000 
#
# Total GULP energy -198242.660550 kJ/mol
# GULP energy per Si atom -12390.166284 kJ/mol
# Density = 2.286029 g / cm^3
# Si number density = 22.912444 Si / 1000 Ang^3
#
#
#
# Elastic Constant Matrix: (Units=GPa)
#
#
# Indices 1 2 3 4 5 6 
#
# 1 42.6255 -6.1149 30.0711 6.5269 -13.2874 1.5037
# 2 -6.1149 56.8410 21.7708 1.2691 3.0954 4.1900
# 3 30.0711 21.7708 90.1754 16.1992 -13.1277 9.3282
# 4 6.5269 1.2691 16.1992 36.9604 6.8041 -0.4437
# 5 -13.2874 3.0954 -13.1277 6.8041 36.0429 -6.7749
# 6 1.5037 4.1900 9.3282 -0.4437 -6.7749 30.8223
#
#
#
# Elastic Compliance Matrix: (Units=1/GPa)
#
#
# Indices 1 2 3 4 5 6 
#
# 1 0.036828 0.008151 -0.012665 -0.002922 0.009369 0.002946
# 2 0.008151 0.021979 -0.008649 0.002073 -0.002674 -0.001326
# 3 -0.012665 -0.008649 0.019523 -0.006768 0.003829 -0.003371
# 4 -0.002922 0.002073 -0.006768 0.032269 -0.009769 0.000226
# 5 0.009369 -0.002674 0.003829 -0.009769 0.035888 0.006495
# 6 0.002946 -0.001326 -0.003371 0.000226 0.006495 0.034932
#
#
# Mechanical properties :
#
#
# Convention : Reuss Voigt Hill
#
# Bulk Modulus (GPa) = 19.22917 31.23288 25.23103
# Shear Modulus (GPa) = 22.21435 30.35945 26.28690
#
# Velocity S-wave (km/s) = 3.11711 3.64403 3.39082
# Velocity P-wave (km/s) = 4.62232 5.60056 5.13479
#
# Compressibility (1/GPa) = 0.05200433
#
# Stress axis : x y z
#
# Youngs Moduli (GPa) = 27.15310 45.49711 51.22194
#
# Poissons Ratio (x) = -0.37083 0.64871
# Poissons Ratio (y) = -0.22131 0.44301
# Poissons Ratio (z) = 0.34389 0.39350
#
# Static dielectric constant tensor:
#      x y z
#    x 4.156170 0.065510 -0.414750 
#    y 0.065510 3.998060 0.139820 
#    z -0.414750 0.139820 4.118960 
# 
# 
# High freq. dielectric constant tensor:
#      x y z
#    x 1.900070 0.019320 -0.029550 
#    y 0.019320 1.890870 0.006210 
#    z -0.029550 0.006210 1.903030 
# 
# From -- ./inp_files/308888.got.cif
#   From: 2010.06.25/outbox.cif.g09.slc.cpg/sg2_155_cif.got.tgz:308888.got - 2010.06.27 13:26:56.
