data_PCOD8019085
_publ_section_title
;
Structure prediction by ZEFSAII (Michael W. Deem and Ramdas Pophale) SiO2 
 PCOD8019085
Probable space group: P -1
;
_chemical_formula_sum "Si O2"
_cell_formula_units_Z 14
_cell_length_a 9.182048
_cell_length_b 7.873305
_cell_length_c 12.145880
_cell_angle_alpha 84.515258
_cell_angle_beta 101.390538
_cell_angle_gamma 129.819935
_cell_volume 660.565773
_symmetry_space_group_name_H-M "P -1"
_symmetry_group_IT_number 2
_symmetry_cell_setting 'triclinic'
loop_
_space_group_symop_operation_xyz
x,y,z
-x,-y,-z
loop_
_atom_site_type_symbol
_atom_site_label
_atom_site_fract_x
_atom_site_fract_y
_atom_site_fract_z
Si Si1 0.939425 0.695090 0.177104
Si Si2 0.669707 0.211744 0.785330
Si Si3 0.990425 0.098627 0.259293
Si Si4 0.635378 0.707981 0.585616
Si Si5 0.671980 0.978858 0.386615
Si Si6 0.107820 0.411950 0.059914
Si Si7 0.400936 0.734018 0.724042
O O1 0.750932 0.475790 0.213969
O O2 0.114493 0.689531 0.220473
O O3 0.880596 0.695113 0.041359
O O4 0.996727 0.909794 0.231541
O O5 0.687391 0.366803 0.875848
O O6 0.553911 0.220190 0.667843
O O7 0.543413 0.949258 0.812910
O O8 0.181282 0.268897 0.350761
O O9 0.989979 0.226231 0.148073
O O10 0.803599 0.990899 0.311674
O O11 0.500000 0.500000 0.500000
O O12 0.521385 0.684014 0.677490
O O13 0.712439 0.929221 0.515051
O O14 0.705039 0.208835 0.378718
O O15 0.000000 0.500000 0.000000
#
# Coordination Sequence:
#
# PCOD8019085 Si02
#       7
#     2   2   2   2   2   2   2
#     4  11  22  43  66  97 133 169 210 271 321 369
#     4   9  21  43  65  92 136 161 224 255 305 391
#     4  12  23  43  65  98 133 164 216 273 318 381
#     4  12  24  42  65  95 133 166 215 270 324 375
#     4  10  22  41  64  95 128 174 210 257 319 379
#     4  10  22  41  68  93 128 175 213 263 320 380
#     4  10  23  42  67  94 131 170 216 254 320 384
#
# _framework density 21.193951999999999
#
# number of rings (size 3 to 8) (size 9 to 14) (size 15 to 20)
#    0.857    0.571    1.429    4.714    0.000    0.571 
#    2.571    3.571    0.000    0.000    0.000    0.000 
#    0.000    0.000    0.000    0.000    0.000    0.000 
#
# Total GULP energy -173462.268780 kJ/mol
# GULP energy per Si atom -12390.162056 kJ/mol
# Density = 2.114571 g / cm^3
# Si number density = 21.193952 Si / 1000 Ang^3
#
#
#
# Elastic Constant Matrix: (Units=GPa)
#
#
# Indices 1 2 3 4 5 6 
#
# 1 93.0576 12.5930 28.7531 -0.5389 -7.3448 17.7139
# 2 12.5930 86.2495 19.8957 2.7197 -19.1476 17.1943
# 3 28.7531 19.8957 86.5536 -16.3113 -2.1981 29.2716
# 4 -0.5389 2.7197 -16.3113 38.6265 -3.6176 -4.7332
# 5 -7.3448 -19.1476 -2.1981 -3.6176 24.8402 -1.6211
# 6 17.7139 17.1943 29.2716 -4.7332 -1.6211 23.5893
#
#
#
# Elastic Compliance Matrix: (Units=1/GPa)
#
#
# Indices 1 2 3 4 5 6 
#
# 1 0.013054 0.001050 -0.002002 -0.001377 0.003762 -0.008101
# 2 0.001050 0.016652 0.000064 -0.001525 0.012115 -0.012478
# 3 -0.002002 0.000064 0.021464 0.006169 0.000696 -0.023892
# 4 -0.001377 -0.001525 0.006169 0.028947 0.003213 0.000520
# 5 0.003762 0.012115 0.000696 0.003213 0.050690 -0.008391
# 6 -0.008101 -0.012478 -0.023892 0.000520 -0.008391 0.086746
#
#
# Mechanical properties :
#
#
# Convention : Reuss Voigt Hill
#
# Bulk Modulus (GPa) = 20.24596 43.14937 31.69767
# Shear Modulus (GPa) = 21.20495 31.05246 26.12871
#
# Velocity S-wave (km/s) = 3.16653 3.83189 3.51499
# Velocity P-wave (km/s) = 4.78985 6.32308 5.60910
#
# Compressibility (1/GPa) = 0.04939256
#
# Stress axis : x y z
#
# Youngs Moduli (GPa) = 76.60717 60.05446 46.58883
#
# Poissons Ratio (x) = -0.06303 0.09327
# Poissons Ratio (y) = -0.08040 -0.00298
# Poissons Ratio (z) = 0.15337 -0.00385
#
# Static dielectric constant tensor:
#      x y z
#    x 3.808350 -0.093380 0.057870 
#    y -0.093380 4.043910 0.334760 
#    z 0.057870 0.334760 4.186500 
# 
# 
# High freq. dielectric constant tensor:
#      x y z
#    x 1.827600 -0.007350 0.005690 
#    y -0.007350 1.838170 0.004390 
#    z 0.005690 0.004390 1.820910 
# 
# From -- ./inp_files/378359.got.cif
#   From: 2010.06.25/outbox.cif.g09.slc.cpg/sg2_190_cif.got.tgz:378359.got - 2010.06.27 13:26:56.
