data_PCOD8019190
_publ_section_title
;
Structure prediction by ZEFSAII (Michael W. Deem and Ramdas Pophale) SiO2 
 PCOD8019190
Probable space group: P -1
;
_chemical_formula_sum "Si O2"
_cell_formula_units_Z 14
_cell_length_a 4.965300
_cell_length_b 13.218315
_cell_length_c 13.228090
_cell_angle_alpha 54.139006
_cell_angle_beta 83.446486
_cell_angle_gamma 108.798298
_cell_volume 611.978652
_symmetry_space_group_name_H-M "P -1"
_symmetry_group_IT_number 2
_symmetry_cell_setting 'triclinic'
loop_
_space_group_symop_operation_xyz
x,y,z
-x,-y,-z
loop_
_atom_site_type_symbol
_atom_site_label
_atom_site_fract_x
_atom_site_fract_y
_atom_site_fract_z
Si Si1 0.836405 0.347710 0.146512
Si Si2 0.575944 0.576429 0.290550
Si Si3 0.535361 0.890224 0.859403
Si Si4 0.018685 0.125464 0.994485
Si Si5 0.285715 0.341636 0.286917
Si Si6 0.005579 0.812023 0.417866
Si Si7 0.364504 0.648040 0.452383
O O1 0.685789 0.235458 0.130044
O O2 0.593100 0.334621 0.249322
O O3 0.096669 0.322886 0.204068
O O4 0.000000 0.500000 0.000000
O O5 0.377709 0.492499 0.249522
O O6 0.349184 0.594843 0.369220
O O7 0.711266 0.480054 0.390919
O O8 0.858011 0.729074 0.159253
O O9 0.758414 0.846867 0.935820
O O10 0.329149 0.922719 0.927540
O O11 0.733230 0.027472 0.701867
O O12 0.000000 0.000000 0.000000
O O13 0.082961 0.210138 0.447213
O O14 0.110753 0.698530 0.444242
O O15 0.705883 0.780167 0.382509
#
# Coordination Sequence:
#
# PCOD8019190 Si02
#       7
#     2   2   2   2   2   2   2
#     4  12  25  44  64  92 126 165 214 259 311 366
#     4  10  22  41  65  95 128 167 213 257 320 371
#     4  12  26  43  66  92 132 170 203 265 316 368
#     4  12  25  42  67  97 129 167 208 254 317 387
#     4  11  24  40  66  91 122 167 214 262 300 373
#     4  11  23  43  63  96 128 163 215 256 320 375
#     4  10  23  39  66  95 130 165 204 268 314 377
#
# _framework density 22.876615999999999
#
# number of rings (size 3 to 8) (size 9 to 14) (size 15 to 20)
#    0.000    0.857    0.000    7.714    0.000   10.857 
#    0.000    0.000    0.000    0.000    0.000    0.000 
#    0.000    0.000    0.000    0.000    0.000    0.000 
#
# Total GULP energy -173701.625416 kJ/mol
# GULP energy per Si atom -12407.258958 kJ/mol
# Density = 2.282455 g / cm^3
# Si number density = 22.876616 Si / 1000 Ang^3
#
#
#
# Elastic Constant Matrix: (Units=GPa)
#
#
# Indices 1 2 3 4 5 6 
#
# 1 71.4365 -1.4712 15.8318 1.3860 -7.6672 0.8144
# 2 -1.4712 106.7180 37.8176 -9.1974 -7.0440 15.5211
# 3 15.8318 37.8176 137.8236 -25.1946 -25.0698 1.4938
# 4 1.3860 -9.1974 -25.1946 44.0610 7.0162 -5.3230
# 5 -7.6672 -7.0440 -25.0698 7.0162 33.5151 9.8865
# 6 0.8144 15.5211 1.4938 -5.3230 9.8865 40.6235
#
#
#
# Elastic Compliance Matrix: (Units=1/GPa)
#
#
# Indices 1 2 3 4 5 6 
#
# 1 0.014815 0.001120 -0.001764 -0.001958 0.003217 -0.001699
# 2 0.001120 0.011180 -0.002834 -0.000191 0.001906 -0.004679
# 3 -0.001764 -0.002834 0.010048 0.004306 0.005633 -0.000058
# 4 -0.001958 -0.000191 0.004306 0.026362 -0.004085 0.004402
# 5 0.003217 0.001906 0.005633 -0.004085 0.039318 -0.011104
# 6 -0.001699 -0.004679 -0.000058 0.004402 -0.011104 0.029719
#
#
# Mechanical properties :
#
#
# Convention : Reuss Voigt Hill
#
# Bulk Modulus (GPa) = 34.37800 46.70382 40.54091
# Shear Modulus (GPa) = 33.76258 41.22657 37.49458
#
# Velocity S-wave (km/s) = 3.84585 4.24975 4.05284
# Velocity P-wave (km/s) = 5.89754 6.67386 6.29767
#
# Compressibility (1/GPa) = 0.02908837
#
# Stress axis : x y z
#
# Youngs Moduli (GPa) = 67.49933 89.44552 99.52139
#
# Poissons Ratio (x) = -0.10017 0.17551
# Poissons Ratio (y) = -0.07559 0.28202
# Poissons Ratio (z) = 0.11904 0.25346
#
# Static dielectric constant tensor:
#      x y z
#    x 4.165330 0.032220 -0.091000 
#    y 0.032220 4.134150 0.067610 
#    z -0.091000 0.067610 4.273210 
# 
# 
# High freq. dielectric constant tensor:
#      x y z
#    x 1.910160 0.005850 -0.009210 
#    y 0.005850 1.905070 0.003310 
#    z -0.009210 0.003310 1.915320 
# 
# From -- ./inp_files/363860.got.cif
#   From: 2010.06.25/outbox.cif.g09.slc.cpg/sg2_182_cif.got.tgz:363860.got - 2010.06.27 13:26:56.
