data_PCOD8019655
_publ_section_title
;
Structure prediction by ZEFSAII (Michael W. Deem and Ramdas Pophale) SiO2 
 PCOD8019655
Probable space group: P -1
;
_chemical_formula_sum "Si O2"
_cell_formula_units_Z 16
_cell_length_a 4.980384
_cell_length_b 11.404238
_cell_length_c 11.927480
_cell_angle_alpha 94.263087
_cell_angle_beta 79.795311
_cell_angle_gamma 78.764793
_cell_volume 649.785621
_symmetry_space_group_name_H-M "P -1"
_symmetry_group_IT_number 2
_symmetry_cell_setting 'triclinic'
loop_
_space_group_symop_operation_xyz
x,y,z
-x,-y,-z
loop_
_atom_site_type_symbol
_atom_site_label
_atom_site_fract_x
_atom_site_fract_y
_atom_site_fract_z
Si Si1 0.702528 0.598180 0.121528
Si Si2 0.847195 0.890678 0.985081
Si Si3 0.159048 0.996335 0.646366
Si Si4 0.765459 0.348857 0.008342
Si Si5 0.414567 0.988065 0.195944
Si Si6 0.405087 0.611861 0.361604
Si Si7 0.735741 0.600961 0.559501
Si Si8 0.966257 0.807712 0.504606
O O1 0.513668 0.665468 0.037724
O O2 0.584432 0.651997 0.252349
O O3 0.016679 0.616508 0.094927
O O4 0.695121 0.456709 0.110274
O O5 0.092382 0.773373 0.949394
O O6 0.629634 0.882860 0.103697
O O7 0.681415 0.905250 0.880365
O O8 0.000000 0.000000 0.000000
O O9 0.418320 0.968796 0.710460
O O10 0.862806 0.049867 0.736274
O O11 0.153538 0.869523 0.578103
O O12 0.219772 0.088924 0.552611
O O13 0.527234 0.628385 0.474318
O O14 0.387661 0.469966 0.336021
O O15 0.117214 0.710552 0.394910
O O16 0.800406 0.731662 0.594220
O O17 0.000000 0.500000 0.500000
#
# Coordination Sequence:
#
# PCOD8019655 Si02
#       8
#     2   2   2   2   2   2   2   2
#     4  10  24  45  70 102 134 180 228 277 346 404
#     4  11  25  47  71 105 142 178 235 285 346 423
#     4  11  26  45  67 106 139 182 231 284 349 407
#     4  10  25  45  69 101 140 173 226 289 336 411
#     4  11  26  45  69 102 140 187 231 278 353 414
#     4  10  22  41  69  97 132 183 227 280 341 411
#     4   9  21  43  61  96 132 173 225 279 333 401
#     4  10  25  42  69  97 142 178 231 287 337 413
#
# _framework density 24.623508000000001
#
# number of rings (size 3 to 8) (size 9 to 14) (size 15 to 20)
#    0.000    1.750    1.250    0.000   14.000    1.000 
#    9.000    0.000    0.000    0.000    0.000    0.000 
#    0.000    0.000    0.000    0.000    0.000    0.000 
#
# Total GULP energy -198241.702610 kJ/mol
# GULP energy per Si atom -12390.106413 kJ/mol
# Density = 2.456746 g / cm^3
# Si number density = 24.623508 Si / 1000 Ang^3
#
#
#
# Elastic Constant Matrix: (Units=GPa)
#
#
# Indices 1 2 3 4 5 6 
#
# 1 83.5811 27.4537 5.1526 -5.1995 13.6182 -4.2977
# 2 27.4537 126.4099 12.0874 -6.4340 28.9341 -0.9937
# 3 5.1526 12.0874 67.0155 -4.1010 14.1456 -1.3786
# 4 -5.1995 -6.4340 -4.1010 20.2333 -6.4621 -3.0020
# 5 13.6182 28.9341 14.1456 -6.4621 35.8259 -2.5860
# 6 -4.2977 -0.9937 -1.3786 -3.0020 -2.5860 40.2250
#
#
#
# Elastic Compliance Matrix: (Units=1/GPa)
#
#
# Indices 1 2 3 4 5 6 
#
# 1 0.013327 -0.002119 0.000131 0.002036 -0.002942 0.001339
# 2 -0.002119 0.010051 -0.000112 0.000248 -0.007254 -0.000430
# 3 0.000131 -0.000112 0.016317 0.001388 -0.006131 0.000280
# 4 0.002036 0.000248 0.001388 0.053745 0.008520 0.004830
# 5 -0.002942 -0.007254 -0.006131 0.008520 0.039023 0.002441
# 6 0.001339 -0.000430 0.000280 0.004830 0.002441 0.025520
#
#
# Mechanical properties :
#
#
# Convention : Reuss Voigt Hill
#
# Bulk Modulus (GPa) = 28.17406 40.71044 34.44225
# Shear Modulus (GPa) = 28.73276 34.74435 31.73855
#
# Velocity S-wave (km/s) = 3.41967 3.76043 3.59409
# Velocity P-wave (km/s) = 5.20183 5.95177 5.58939
#
# Compressibility (1/GPa) = 0.03549364
#
# Stress axis : x y z
#
# Youngs Moduli (GPa) = 75.03344 99.48798 61.28581
#
# Poissons Ratio (x) = 0.21085 -0.00801
# Poissons Ratio (y) = 0.15902 0.00689
# Poissons Ratio (z) = -0.00981 0.01119
#
# Static dielectric constant tensor:
#      x y z
#    x 4.523370 0.158390 -0.178440 
#    y 0.158390 4.464630 -0.234800 
#    z -0.178440 -0.234800 4.303410 
# 
# 
# High freq. dielectric constant tensor:
#      x y z
#    x 1.988250 -0.004960 -0.004190 
#    y -0.004960 1.982000 -0.008450 
#    z -0.004190 -0.008450 1.955340 
# 
# From -- ./inp_files/364491.got.cif
#   From: 2010.06.25/outbox.cif.g09.slc.cpg/sg2_183_cif.got.tgz:364491.got - 2010.06.27 13:26:56.
