data_PCOD8019624
_publ_section_title
;
Structure prediction by ZEFSAII (Michael W. Deem and Ramdas Pophale) SiO2 
 PCOD8019624
Probable space group: P -1
;
_chemical_formula_sum "Si O2"
_cell_formula_units_Z 16
_cell_length_a 18.396322
_cell_length_b 9.334651
_cell_length_c 10.014407
_cell_angle_alpha 75.024034
_cell_angle_beta 149.859280
_cell_angle_gamma 118.064894
_cell_volume 717.936002
_symmetry_space_group_name_H-M "P -1"
_symmetry_group_IT_number 2
_symmetry_cell_setting 'triclinic'
loop_
_space_group_symop_operation_xyz
x,y,z
-x,-y,-z
loop_
_atom_site_type_symbol
_atom_site_label
_atom_site_fract_x
_atom_site_fract_y
_atom_site_fract_z
Si Si1 0.679572 0.151736 0.132468
Si Si2 0.760191 0.284538 0.510048
Si Si3 0.626425 0.741110 0.506120
Si Si4 0.252954 0.500185 0.914730
Si Si5 0.578590 0.001432 0.482370
Si Si6 0.930972 0.735664 0.084390
Si Si7 0.798306 0.920770 0.481189
Si Si8 0.697880 0.577409 0.275522
O O1 0.635449 0.162211 0.218882
O O2 0.765598 0.035559 0.294598
O O3 0.797564 0.354926 0.232756
O O4 0.546056 0.082755 0.819887
O O5 0.704026 0.196104 0.588037
O O6 0.755540 0.458897 0.471673
O O7 0.949256 0.322766 0.781029
O O8 0.438024 0.580618 0.256588
O O9 0.649080 0.833095 0.375490
O O10 0.662233 0.880598 0.648554
O O11 0.761969 0.678554 0.745260
O O12 0.114115 0.356372 0.822479
O O13 0.256687 0.405069 0.810739
O O14 0.500000 0.000000 0.500000
O O15 0.026903 0.943942 0.201761
O O16 0.810623 0.770595 0.463475
O O17 0.500000 0.500000 0.000000
#
# Coordination Sequence:
#
# PCOD8019624 Si02
#       8
#     2   2   2   2   2   2   2   2
#     4   9  20  40  69  91 128 172 230 258 335 405
#     4  10  22  41  69  93 134 185 221 278 339 402
#     4  11  22  43  70  93 131 189 229 264 339 415
#     4  10  23  41  70  98 128 178 228 281 328 406
#     4  11  22  38  66 104 133 170 226 287 335 400
#     4  11  24  43  67  95 139 179 228 272 343 409
#     4  11  22  40  72  95 127 181 225 280 329 402
#     4  11  22  40  68 103 133 168 234 284 333 396
#
# _framework density 22.286109
#
# number of rings (size 3 to 8) (size 9 to 14) (size 15 to 20)
#    0.000    1.500    3.750    1.875    1.750    7.000 
#    4.500    4.375    0.000    0.000    0.000    0.000 
#    0.000    0.000    0.000    0.000    0.000    0.000 
#
# Total GULP energy -198233.880254 kJ/mol
# GULP energy per Si atom -12389.617516 kJ/mol
# Density = 2.223538 g / cm^3
# Si number density = 22.286109 Si / 1000 Ang^3
#
#
#
# Elastic Constant Matrix: (Units=GPa)
#
#
# Indices 1 2 3 4 5 6 
#
# 1 129.5238 66.5058 21.1301 -13.4472 5.7389 6.4453
# 2 66.5058 135.3527 24.5903 -5.7859 9.0768 -23.7428
# 3 21.1301 24.5903 68.9230 -20.3130 12.5469 -10.8942
# 4 -13.4472 -5.7859 -20.3130 29.8729 -1.9597 6.2644
# 5 5.7389 9.0768 12.5469 -1.9597 24.1677 -3.0659
# 6 6.4453 -23.7428 -10.8942 6.2644 -3.0659 41.9106
#
#
#
# Elastic Compliance Matrix: (Units=1/GPa)
#
#
# Indices 1 2 3 4 5 6 
#
# 1 0.012212 -0.006787 -0.000848 0.004991 -0.000358 -0.006715
# 2 -0.006787 0.012414 -0.001939 -0.003741 -0.001328 0.008034
# 3 -0.000848 -0.001939 0.021074 0.012582 -0.008739 0.001990
# 4 0.004991 -0.003741 0.012582 0.044697 -0.003519 -0.006555
# 5 -0.000358 -0.001328 -0.008739 -0.003519 0.046333 0.000947
# 6 -0.006715 0.008034 0.001990 -0.006555 0.000947 0.031011
#
#
# Mechanical properties :
#
#
# Convention : Reuss Voigt Hill
#
# Bulk Modulus (GPa) = 37.66198 62.02798 49.84498
# Shear Modulus (GPa) = 25.54423 33.96178 29.75300
#
# Velocity S-wave (km/s) = 3.38922 3.90795 3.65779
# Velocity P-wave (km/s) = 5.67906 6.94664 6.34459
#
# Compressibility (1/GPa) = 0.02655198
#
# Stress axis : x y z
#
# Youngs Moduli (GPa) = 81.88696 80.55650 47.45098
#
# Poissons Ratio (x) = 0.54674 0.04023
# Poissons Ratio (y) = 0.55577 0.09202
# Poissons Ratio (z) = 0.06943 0.15622
#
# Static dielectric constant tensor:
#      x y z
#    x 3.901390 -0.035580 0.050900 
#    y -0.035580 4.306750 -0.226960 
#    z 0.050900 -0.226960 3.843370 
# 
# 
# High freq. dielectric constant tensor:
#      x y z
#    x 1.860070 0.005700 0.002530 
#    y 0.005700 1.891370 -0.013720 
#    z 0.002530 -0.013720 1.863010 
# 
# From -- ./inp_files/298443.got.cif
#   From: 2010.06.25/outbox.cif.g09.slc.cpg/sg2_150_cif.got.tgz:298443.got - 2010.06.27 13:26:56.
