data_PCOD8019586
_publ_section_title
;
Structure prediction by ZEFSAII (Michael W. Deem and Ramdas Pophale) SiO2 
 PCOD8019586
Probable space group: P -1
;
_chemical_formula_sum "Si O2"
_cell_formula_units_Z 12
_cell_length_a 7.068931
_cell_length_b 11.316871
_cell_length_c 16.106737
_cell_angle_alpha 157.172064
_cell_angle_beta 58.917438
_cell_angle_gamma 124.114604
_cell_volume 413.872312
_symmetry_space_group_name_H-M "P -1"
_symmetry_group_IT_number 2
_symmetry_cell_setting 'triclinic'
loop_
_space_group_symop_operation_xyz
x,y,z
-x,-y,-z
loop_
_atom_site_type_symbol
_atom_site_label
_atom_site_fract_x
_atom_site_fract_y
_atom_site_fract_z
Si Si1 0.623958 0.625118 0.801246
Si Si2 0.762713 0.508185 0.456205
Si Si3 0.822697 0.275609 0.120867
Si Si4 0.023462 0.748531 0.262576
Si Si5 0.208181 0.897521 0.663328
Si Si6 0.634681 0.479637 0.049585
O O1 0.408173 0.668590 0.827983
O O2 0.687800 0.306975 0.557843
O O3 0.587501 0.643576 0.921699
O O4 0.824052 0.921611 0.916514
O O5 0.500000 0.500000 0.500000
O O6 0.877819 0.483243 0.325733
O O7 0.762986 0.207735 0.318128
O O8 0.931258 0.829986 0.664806
O O9 0.013767 0.418109 0.100546
O O10 0.821171 0.709095 0.216785
O O11 0.000000 0.000000 0.500000
O O12 0.264634 0.806744 0.195262
O O13 0.371011 0.259539 0.853136
#
# Coordination Sequence:
#
# PCOD8019586 Si02
#       6
#     2   2   2   2   2   2
#     4  10  22  43  70 104 145 191 237 298 364 424
#     4  11  24  42  70 107 144 186 245 299 358 430
#     4  10  22  41  69 100 140 188 242 298 354 432
#     4  10  22  42  69 103 139 190 244 297 363 431
#     4  11  24  43  73 105 146 191 237 299 363 429
#     4  10  23  44  70 101 148 190 235 302 363 427
#
# _framework density 28.994451000000002
#
# number of rings (size 3 to 8) (size 9 to 14) (size 15 to 20)
#    0.000    1.667    1.667    1.500    4.667    4.667 
#    3.000    0.833    0.000    0.000    0.000    0.000 
#    0.000    0.000    0.000    0.000    0.000    0.000 
#
# Total GULP energy -148691.626087 kJ/mol
# GULP energy per Si atom -12390.968841 kJ/mol
# Density = 2.892846 g / cm^3
# Si number density = 28.994451 Si / 1000 Ang^3
#
#
#
# Elastic Constant Matrix: (Units=GPa)
#
#
# Indices 1 2 3 4 5 6 
#
# 1 77.9150 -1.7391 0.8854 4.4160 -10.6654 3.7905
# 2 -1.7391 145.8697 3.9006 9.8038 -15.8012 2.6166
# 3 0.8854 3.9006 90.3465 -2.2157 -4.4686 26.3393
# 4 4.4160 9.8038 -2.2157 65.0537 8.4351 -2.9678
# 5 -10.6654 -15.8012 -4.4686 8.4351 27.6881 -0.4165
# 6 3.7905 2.6166 26.3393 -2.9678 -0.4165 40.1362
#
#
#
# Elastic Compliance Matrix: (Units=1/GPa)
#
#
# Indices 1 2 3 4 5 6 
#
# 1 0.013971 0.001043 0.000651 -0.002035 0.006673 -0.001896
# 2 0.001043 0.007585 0.000095 -0.001935 0.005324 -0.000743
# 3 0.000651 0.000095 0.013841 -0.000329 0.002501 -0.009149
# 4 -0.002035 -0.001935 -0.000329 0.016779 -0.007027 0.001702
# 5 0.006673 0.005324 0.002501 -0.007027 0.044230 -0.002679
# 6 -0.001896 -0.000743 -0.009149 0.001702 -0.002679 0.031245
#
#
# Mechanical properties :
#
#
# Convention : Reuss Voigt Hill
#
# Bulk Modulus (GPa) = 25.65746 35.58059 30.61902
# Shear Modulus (GPa) = 36.47867 47.31455 41.89661
#
# Velocity S-wave (km/s) = 3.55086 4.04400 3.80542
# Velocity P-wave (km/s) = 5.06752 5.83981 5.46732
#
# Compressibility (1/GPa) = 0.03897502
#
# Stress axis : x y z
#
# Youngs Moduli (GPa) = 71.57450 131.83130 72.24934
#
# Poissons Ratio (x) = -0.13748 -0.04703
# Poissons Ratio (y) = -0.07464 -0.00685
# Poissons Ratio (z) = -0.04659 -0.01250
#
# Static dielectric constant tensor:
#      x y z
#    x 5.497650 -0.243670 0.364960 
#    y -0.243670 6.368660 0.167520 
#    z 0.364960 0.167520 5.369160 
# 
# 
# High freq. dielectric constant tensor:
#      x y z
#    x 2.191130 -0.014120 0.010380 
#    y -0.014120 2.206870 -0.006810 
#    z 0.010380 -0.006810 2.166940 
# 
# From -- ./inp_files/559461.got.cif
#   From: 2010.06.25/outbox.cif.g09.slc.cpg/sg2_280_cif.got.tgz:559461.got - 2010.06.27 13:26:56.
