data_PCOD8019335
_publ_section_title
;
Structure prediction by ZEFSAII (Michael W. Deem and Ramdas Pophale) SiO2 
 PCOD8019335
Probable space group: P -1
;
_chemical_formula_sum "Si O2"
_cell_formula_units_Z 16
_cell_length_a 12.127843
_cell_length_b 8.268846
_cell_length_c 8.499628
_cell_angle_alpha 111.345218
_cell_angle_beta 55.669922
_cell_angle_gamma 105.851690
_cell_volume 653.048024
_symmetry_space_group_name_H-M "P -1"
_symmetry_group_IT_number 2
_symmetry_cell_setting 'triclinic'
loop_
_space_group_symop_operation_xyz
x,y,z
-x,-y,-z
loop_
_atom_site_type_symbol
_atom_site_label
_atom_site_fract_x
_atom_site_fract_y
_atom_site_fract_z
Si Si1 0.462450 0.231734 0.991392
Si Si2 0.930534 0.585394 0.730692
Si Si3 0.088534 0.708636 0.098636
Si Si4 0.820443 0.239075 0.288642
Si Si5 0.713852 0.540994 0.653705
Si Si6 0.203831 0.209006 0.605468
Si Si7 0.628166 0.903547 0.312877
Si Si8 0.286647 0.940566 0.220823
O O1 0.404172 0.205017 0.855266
O O2 0.621905 0.214799 0.857478
O O3 0.437161 0.420469 0.159129
O O4 0.384345 0.091452 0.118469
O O5 0.917410 0.462475 0.850388
O O6 0.788121 0.616836 0.781685
O O7 0.000000 0.500000 0.500000
O O8 0.028587 0.757452 0.758343
O O9 0.170655 0.869946 0.173185
O O10 0.942340 0.771014 0.198275
O O11 0.163785 0.665775 0.860993
O O12 0.726363 0.341709 0.520715
O O13 0.756548 0.044872 0.241786
O O14 0.772916 0.650401 0.498832
O O15 0.322767 0.234843 0.649172
O O16 0.215059 0.013611 0.457896
O O17 0.500000 0.000000 0.500000
#
# Coordination Sequence:
#
# PCOD8019335 Si02
#       8
#     2   2   2   2   2   2   2   2
#     4  10  22  45  68  97 135 186 232 280 340 412
#     4  10  22  41  66  98 145 175 225 287 347 407
#     4  12  23  41  72 104 140 182 228 289 348 405
#     4  11  25  44  67 103 143 183 225 289 347 404
#     4  10  24  45  71 101 140 184 233 281 350 419
#     4  11  24  40  71 102 140 176 235 276 350 411
#     4  12  26  46  71 101 142 182 231 294 341 405
#     4  10  22  42  68  97 138 176 232 284 339 401
#
# _framework density 24.500495999999998
#
# number of rings (size 3 to 8) (size 9 to 14) (size 15 to 20)
#    0.000    1.250    5.000    0.750    5.250    2.500 
#    0.000    5.000    0.000    0.000    0.000    0.000 
#    0.000    0.000    0.000    0.000    0.000    0.000 
#
# Total GULP energy -198269.848085 kJ/mol
# GULP energy per Si atom -12391.865505 kJ/mol
# Density = 2.444473 g / cm^3
# Si number density = 24.500496 Si / 1000 Ang^3
#
#
#
# Elastic Constant Matrix: (Units=GPa)
#
#
# Indices 1 2 3 4 5 6 
#
# 1 113.2151 10.0722 25.0808 -1.7718 8.7539 -16.6450
# 2 10.0722 25.4653 9.8263 3.1143 -5.8650 -3.5103
# 3 25.0808 9.8263 111.4100 12.6672 2.1978 -4.0272
# 4 -1.7718 3.1143 12.6672 36.4418 -2.5833 -1.8341
# 5 8.7539 -5.8650 2.1978 -2.5833 38.0347 1.9232
# 6 -16.6450 -3.5103 -4.0272 -1.8341 1.9232 35.1876
#
#
#
# Elastic Compliance Matrix: (Units=1/GPa)
#
#
# Indices 1 2 3 4 5 6 
#
# 1 0.010537 -0.003636 -0.002000 0.001539 -0.003000 0.004637
# 2 -0.003636 0.044096 -0.002891 -0.002313 0.007555 0.001815
# 3 -0.002000 -0.002891 0.010078 -0.003420 -0.000789 -0.000216
# 4 0.001539 -0.002313 -0.003420 0.029078 0.001384 0.001546
# 5 -0.003000 0.007555 -0.000789 0.001384 0.028400 -0.002236
# 6 0.004637 0.001815 -0.000216 0.001546 -0.002236 0.030972
#
#
# Mechanical properties :
#
#
# Convention : Reuss Voigt Hill
#
# Bulk Modulus (GPa) = 20.98328 37.78323 29.38325
# Shear Modulus (GPa) = 26.86737 35.60690 31.23714
#
# Velocity S-wave (km/s) = 3.31510 3.81637 3.57453
# Velocity P-wave (km/s) = 4.82039 5.90546 5.39030
#
# Compressibility (1/GPa) = 0.04765699
#
# Stress axis : x y z
#
# Youngs Moduli (GPa) = 94.90363 22.67787 99.22997
#
# Poissons Ratio (x) = 0.08246 0.19842
# Poissons Ratio (y) = 0.34508 0.28688
# Poissons Ratio (z) = 0.18977 0.06556
#
# Static dielectric constant tensor:
#      x y z
#    x 9.412570 -1.041600 0.281410 
#    y -1.041600 4.369700 0.057060 
#    z 0.281410 0.057060 4.760170 
# 
# 
# High freq. dielectric constant tensor:
#      x y z
#    x 1.978970 -0.005960 0.006220 
#    y -0.005960 1.952870 -0.001590 
#    z 0.006220 -0.001590 1.995730 
# 
# From -- ./inp_files/239571.got.cif
#   From: 2010.06.25/outbox.cif.g09.slc.cpg/sg2_120_cif.got.tgz:239571.got - 2010.06.27 13:26:56.
