data_PCOD8019340
_publ_section_title
;
Structure prediction by ZEFSAII (Michael W. Deem and Ramdas Pophale) SiO2 
 PCOD8019340
Probable space group: P -1
;
_chemical_formula_sum "Si O2"
_cell_formula_units_Z 16
_cell_length_a 9.144987
_cell_length_b 13.581370
_cell_length_c 10.464940
_cell_angle_alpha 77.998936
_cell_angle_beta 134.653579
_cell_angle_gamma 121.582755
_cell_volume 759.655489
_symmetry_space_group_name_H-M "P -1"
_symmetry_group_IT_number 2
_symmetry_cell_setting 'triclinic'
loop_
_space_group_symop_operation_xyz
x,y,z
-x,-y,-z
loop_
_atom_site_type_symbol
_atom_site_label
_atom_site_fract_x
_atom_site_fract_y
_atom_site_fract_z
Si Si1 0.911721 0.365509 0.738537
Si Si2 0.893110 0.753271 0.287431
Si Si3 0.562753 0.481282 0.901521
Si Si4 0.683489 0.127320 0.802625
Si Si5 0.912388 0.035098 0.814172
Si Si6 0.939547 0.840772 0.765616
Si Si7 0.845548 0.059081 0.386269
Si Si8 0.516298 0.418228 0.426750
O O1 0.729900 0.252802 0.748006
O O2 0.774111 0.428538 0.589593
O O3 0.997548 0.321346 0.682351
O O4 0.148206 0.467458 0.937336
O O5 0.618127 0.661761 0.198197
O O6 0.874517 0.834592 0.144905
O O7 0.077207 0.840896 0.485416
O O8 0.509519 0.550183 0.742385
O O9 0.500000 0.500000 0.000000
O O10 0.683660 0.046813 0.706401
O O11 0.434053 0.049744 0.746254
O O12 0.913921 0.158853 0.022568
O O13 0.847231 0.933236 0.696382
O O14 0.000000 0.000000 0.000000
O O15 0.697377 0.713798 0.632213
O O16 0.115670 0.875628 0.742584
O O17 0.000000 0.000000 0.500000
O O18 0.500000 0.500000 0.500000
#
# Coordination Sequence:
#
# PCOD8019340 Si02
#       8
#     2   2   2   2   2   2   2   2
#     4  10  23  45  73  96 130 185 227 283 336 405
#     4  10  22  41  66  99 136 173 224 278 337 402
#     4  10  23  46  69  99 140 176 235 283 336 403
#     4  10  22  41  67  98 133 176 228 270 341 414
#     4   9  20  38  66  97 125 173 219 268 335 399
#     4  11  22  43  65  96 141 175 218 283 340 408
#     4  12  23  38  60 100 139 172 216 278 338 400
#     4  12  26  45  70 100 136 180 236 281 345 407
#
# _framework density 21.062177999999999
#
# number of rings (size 3 to 8) (size 9 to 14) (size 15 to 20)
#    0.000    1.500    2.500    1.875    3.500    3.500 
#    2.250    2.500    0.000    0.000    0.000    0.000 
#    0.000    0.000    0.000    0.000    0.000    0.000 
#
# Total GULP energy -198329.986898 kJ/mol
# GULP energy per Si atom -12395.624181 kJ/mol
# Density = 2.101424 g / cm^3
# Si number density = 21.062178 Si / 1000 Ang^3
#
#
#
# Elastic Constant Matrix: (Units=GPa)
#
#
# Indices 1 2 3 4 5 6 
#
# 1 93.6030 57.3243 42.4594 -1.8356 1.1079 6.1897
# 2 57.3243 127.0279 52.4800 8.5775 15.0463 10.3878
# 3 42.4594 52.4800 110.0106 0.0684 12.5621 -1.4719
# 4 -1.8356 8.5775 0.0684 40.0188 7.8401 0.6920
# 5 1.1079 15.0463 12.5621 7.8401 31.8670 0.0680
# 6 6.1897 10.3878 -1.4719 0.6920 0.0680 45.2150
#
#
#
# Elastic Compliance Matrix: (Units=1/GPa)
#
#
# Indices 1 2 3 4 5 6 
#
# 1 0.016223 -0.006223 -0.003705 0.001417 0.003488 -0.000939
# 2 -0.006223 0.012842 -0.003295 -0.002211 -0.003999 -0.002166
# 3 -0.003705 -0.003295 0.012518 0.001181 -0.003544 0.001659
# 4 0.001417 -0.002211 0.001181 0.026710 -0.006042 -0.000047
# 5 0.003488 -0.003999 -0.003544 -0.006042 0.036030 0.000364
# 6 -0.000939 -0.002166 0.001659 -0.000047 0.000364 0.022797
#
#
# Mechanical properties :
#
#
# Convention : Reuss Voigt Hill
#
# Bulk Modulus (GPa) = 66.05978 70.57433 68.31705
# Shear Modulus (GPa) = 31.52347 35.31203 33.41775
#
# Velocity S-wave (km/s) = 3.87290 4.09903 3.98757
# Velocity P-wave (km/s) = 7.17157 7.48218 7.32852
#
# Compressibility (1/GPa) = 0.01513780
#
# Stress axis : x y z
#
# Youngs Moduli (GPa) = 61.63930 77.86922 79.88402
#
# Poissons Ratio (x) = 0.48455 0.29595
# Poissons Ratio (y) = 0.38356 0.26326
# Poissons Ratio (z) = 0.22836 0.25662
#
# Static dielectric constant tensor:
#      x y z
#    x 4.229190 0.118990 -0.040300 
#    y 0.118990 4.241770 0.230280 
#    z -0.040300 0.230280 3.887920 
# 
# 
# High freq. dielectric constant tensor:
#      x y z
#    x 1.825270 0.013840 -0.010180 
#    y 0.013840 1.837610 0.004830 
#    z -0.010180 0.004830 1.818450 
# 
# From -- ./inp_files/399075.got.cif
#   From: 2010.06.25/outbox.cif.g09.slc.cpg/sg2_200_cif.got.tgz:399075.got - 2010.06.27 13:26:56.
