data_PCOD8019255
_publ_section_title
;
Structure prediction by ZEFSAII (Michael W. Deem and Ramdas Pophale) SiO2 
 PCOD8019255
Probable space group: P -1
;
_chemical_formula_sum "Si O2"
_cell_formula_units_Z 16
_cell_length_a 18.153098
_cell_length_b 17.693709
_cell_length_c 12.151478
_cell_angle_alpha 161.198193
_cell_angle_beta 39.044112
_cell_angle_gamma 141.370678
_cell_volume 771.794668
_symmetry_space_group_name_H-M "P -1"
_symmetry_group_IT_number 2
_symmetry_cell_setting 'triclinic'
loop_
_space_group_symop_operation_xyz
x,y,z
-x,-y,-z
loop_
_atom_site_type_symbol
_atom_site_label
_atom_site_fract_x
_atom_site_fract_y
_atom_site_fract_z
Si Si1 0.910702 0.788127 0.502494
Si Si2 0.270918 0.905094 0.930971
Si Si3 0.710927 0.544294 0.121811
Si Si4 0.262418 0.677975 0.997648
Si Si5 0.153706 0.940659 0.328963
Si Si6 0.191093 0.569207 0.368643
Si Si7 0.518511 0.796807 0.780400
Si Si8 0.003665 0.880214 0.949066
O O1 0.848787 0.507089 0.188271
O O2 0.011130 0.843619 0.366900
O O3 0.804931 0.919462 0.787849
O O4 0.977182 0.886060 0.673047
O O5 0.268541 0.692035 0.552836
O O6 0.208654 0.801150 0.975643
O O7 0.404881 0.063734 0.014043
O O8 0.737667 0.344022 0.900381
O O9 0.584035 0.611238 0.386939
O O10 0.818805 0.775763 0.339666
O O11 0.714156 0.454815 0.869877
O O12 0.391821 0.643202 0.759193
O O13 0.230642 0.923134 0.328384
O O14 0.118607 0.307629 0.132997
O O15 0.107586 0.733087 0.638951
O O16 0.500000 0.000000 0.000000
O O17 0.000000 0.000000 0.000000
#
# Coordination Sequence:
#
# PCOD8019255 Si02
#       8
#     2   2   2   2   2   2   2   2
#     4  11  22  38  63 101 126 162 209 259 320 377
#     4  10  22  41  66  88 130 166 206 260 312 378
#     4  11  23  41  66  91 128 165 212 261 309 385
#     4  12  24  38  69  95 122 167 211 267 321 362
#     4  11  22  40  63  99 128 156 212 265 311 378
#     4  10  23  42  61  92 128 175 199 251 334 363
#     4  11  22  45  67  89 125 165 220 270 310 359
#     4  10  23  38  62  89 138 168 205 251 311 396
#
# _framework density 20.730903999999999
#
# number of rings (size 3 to 8) (size 9 to 14) (size 15 to 20)
#    0.000    1.250    6.250    1.125    3.500    0.000 
#    0.000    1.250    0.000    0.000    0.000    0.000 
#    0.000    0.000    0.000    0.000    0.000    0.000 
#
# Total GULP energy -198302.724131 kJ/mol
# GULP energy per Si atom -12393.920258 kJ/mol
# Density = 2.068372 g / cm^3
# Si number density = 20.730904 Si / 1000 Ang^3
#
#
#
# Elastic Constant Matrix: (Units=GPa)
#
#
# Indices 1 2 3 4 5 6 
#
# 1 50.3357 -11.9799 -7.2924 6.0649 24.0675 -29.0376
# 2 -11.9799 65.1185 -13.8809 3.1626 27.9590 -12.8315
# 3 -7.2924 -13.8809 32.8037 -3.9372 33.3955 -16.9174
# 4 6.0649 3.1626 -3.9372 17.7369 -11.4597 -0.2080
# 5 24.0675 27.9590 33.3955 -11.4597 31.3720 5.7388
# 6 -29.0376 -12.8315 -16.9174 -0.2080 5.7388 44.7514
#
#
#
# Elastic Compliance Matrix: (Units=1/GPa)
#
#
# Indices 1 2 3 4 5 6 
#
# 1 0.010277 -0.005967 -0.012223 0.002231 0.011465 -0.001123
# 2 -0.005967 0.008371 -0.007418 0.003524 0.007250 -0.005189
# 3 -0.012223 -0.007418 0.010387 0.015448 0.011964 -0.007594
# 4 0.002231 0.003524 0.015448 0.057224 -0.002007 0.008821
# 5 0.011465 0.007250 0.011964 -0.002007 0.000598 0.013955
# 6 -0.001123 -0.005189 -0.007594 0.008821 0.013955 0.015510
#
#
# Mechanical properties :
#
#
# Convention : Reuss Voigt Hill
#
# Bulk Modulus (GPa) = -45.08521 9.10572 -17.98975
# Shear Modulus (GPa) = 34.20217 30.86613 32.53415
#
# Velocity S-wave (km/s) = 4.06620 3.86281 3.96581
# Velocity P-wave (km/s) = 0.50026 4.92919 3.50337
#
# Compressibility (1/GPa) = -0.02218022
#
# Stress axis : x y z
#
# Youngs Moduli (GPa) = 97.30020 119.45681 96.27735
#
# Poissons Ratio (x) = 0.71278 1.17681
# Poissons Ratio (y) = 0.58057 0.71418
# Poissons Ratio (z) = 1.18931 0.88612
#
# Static dielectric constant tensor:
#      x y z
#    x 4.078580 0.038070 0.233060 
#    y 0.038070 3.954100 0.071230 
#    z 0.233060 0.071230 3.873880 
# 
# 
# High freq. dielectric constant tensor:
#      x y z
#    x 1.814160 -0.010850 -0.010380 
#    y -0.010850 1.816810 0.000310 
#    z -0.010380 0.000310 1.790110 
# 
# From -- ./inp_files/439214.got.cif
#   From: 2010.06.25/outbox.cif.g09.slc.cpg/sg2_220_cif.got.tgz:439214.got - 2010.06.27 13:26:56.
