data_PCOD8019928
_publ_section_title
;
Structure prediction by ZEFSAII (Michael W. Deem and Ramdas Pophale) SiO2 
 PCOD8019928
Probable space group: P -1
;
_chemical_formula_sum "Si O2"
_cell_formula_units_Z 14
_cell_length_a 15.896277
_cell_length_b 9.418671
_cell_length_c 19.516496
_cell_angle_alpha 136.390922
_cell_angle_beta 161.200009
_cell_angle_gamma 43.195601
_cell_volume 636.894737
_symmetry_space_group_name_H-M "P -1"
_symmetry_group_IT_number 2
_symmetry_cell_setting 'triclinic'
loop_
_space_group_symop_operation_xyz
x,y,z
-x,-y,-z
loop_
_atom_site_type_symbol
_atom_site_label
_atom_site_fract_x
_atom_site_fract_y
_atom_site_fract_z
Si Si1 0.123228 0.795891 0.566320
Si Si2 0.433841 0.274258 0.861393
Si Si3 0.394271 0.137049 0.633244
Si Si4 0.502398 0.296337 0.509569
Si Si5 0.541011 0.414310 0.724563
Si Si6 0.828234 0.059970 0.200576
Si Si7 0.052363 0.589793 0.191880
O O1 0.348272 0.640428 0.643283
O O2 0.260179 0.847332 0.760706
O O3 0.881425 0.682098 0.357289
O O4 0.000000 0.000000 0.500000
O O5 0.511268 0.169974 0.810144
O O6 0.500000 0.500000 0.000000
O O7 0.584758 0.115895 0.979552
O O8 0.466638 0.318023 0.704649
O O9 0.077009 0.153121 0.396026
O O10 0.532830 0.909937 0.631508
O O11 0.502015 0.259160 0.577970
O O12 0.255126 0.482273 0.368469
O O13 0.777304 0.372779 0.730566
O O14 0.845350 0.440355 0.965446
O O15 0.899828 0.811593 0.180194
#
# Coordination Sequence:
#
# PCOD8019928 Si02
#       7
#     2   2   2   2   2   2   2
#     4  11  24  39  61  95 125 154 200 248 297 358
#     4  11  23  41  64  88 122 162 199 244 298 357
#     4  10  24  41  61  91 121 157 203 246 296 358
#     4  10  23  43  61  86 124 158 198 250 301 356
#     4  12  23  38  63  91 121 158 201 249 298 353
#     4  10  22  42  63  87 125 163 194 244 305 353
#     4  10  23  40  63  88 117 159 204 245 299 356
#
# _framework density 21.981655
#
# number of rings (size 3 to 8) (size 9 to 14) (size 15 to 20)
#    0.000    1.429    0.000    4.286    0.000   16.571 
#    0.000    0.000    0.000    0.000    0.000    0.000 
#    0.000    0.000    0.000    0.000    0.000    0.000 
#
# Total GULP energy -173638.192966 kJ/mol
# GULP energy per Si atom -12402.728069 kJ/mol
# Density = 2.193162 g / cm^3
# Si number density = 21.981655 Si / 1000 Ang^3
#
#
#
# Elastic Constant Matrix: (Units=GPa)
#
#
# Indices 1 2 3 4 5 6 
#
# 1 111.1131 26.1989 49.0901 4.5560 -29.6085 -8.6952
# 2 26.1989 84.5745 29.7322 4.8897 -4.0672 -6.1589
# 3 49.0901 29.7322 89.1793 3.9660 -18.6306 -10.0022
# 4 4.5560 4.8897 3.9660 33.6763 -1.6381 -0.3625
# 5 -29.6085 -4.0672 -18.6306 -1.6381 34.6222 3.6010
# 6 -8.6952 -6.1589 -10.0022 -0.3625 3.6010 34.2293
#
#
#
# Elastic Compliance Matrix: (Units=1/GPa)
#
#
# Indices 1 2 3 4 5 6 
#
# 1 0.014271 -0.002083 -0.005151 -0.000572 0.009079 0.000784
# 2 -0.002083 0.013844 -0.003779 -0.001387 -0.002368 0.001092
# 3 -0.005151 -0.003779 0.016370 -0.000477 0.003687 0.002402
# 4 -0.000572 -0.001387 -0.000477 0.030053 0.000542 -0.000273
# 5 0.009079 -0.002368 0.003687 0.000542 0.038492 -0.001086
# 6 0.000784 0.001092 0.002402 -0.000273 -0.001086 0.030424
#
#
# Mechanical properties :
#
#
# Convention : Reuss Voigt Hill
#
# Bulk Modulus (GPa) = 44.52897 54.98993 49.75945
# Shear Modulus (GPa) = 28.90750 32.49528 30.70139
#
# Velocity S-wave (km/s) = 3.63033 3.84903 3.74128
# Velocity P-wave (km/s) = 6.15416 6.69507 6.43030
#
# Compressibility (1/GPa) = 0.02245729
#
# Stress axis : x y z
#
# Youngs Moduli (GPa) = 70.07290 72.23550 61.08821
#
# Poissons Ratio (x) = 0.15048 0.31466
# Poissons Ratio (y) = 0.14597 0.23087
# Poissons Ratio (z) = 0.36094 0.27300
#
# Static dielectric constant tensor:
#      x y z
#    x 3.993650 -0.052390 0.053030 
#    y -0.052390 3.860650 -0.019310 
#    z 0.053030 -0.019310 4.116900 
# 
# 
# High freq. dielectric constant tensor:
#      x y z
#    x 1.868090 -0.002160 -0.000520 
#    y -0.002160 1.865810 0.003430 
#    z -0.000520 0.003430 1.869320 
# 
# From -- ./inp_files/27298.got.cif
#   From: 2010.06.25/outbox.cif.g09.slc.cpg/sg2_14_cif.got.tgz:27298.got - 2010.06.27 13:26:56.
