data_PCOD8019361
_publ_section_title
;
Structure prediction by ZEFSAII (Michael W. Deem and Ramdas Pophale) SiO2 
 PCOD8019361
Probable space group: P -1
;
_chemical_formula_sum "Si O2"
_cell_formula_units_Z 12
_cell_length_a 12.344611
_cell_length_b 5.505112
_cell_length_c 9.008029
_cell_angle_alpha 113.789039
_cell_angle_beta 87.116717
_cell_angle_gamma 72.371632
_cell_volume 523.311910
_symmetry_space_group_name_H-M "P -1"
_symmetry_group_IT_number 2
_symmetry_cell_setting 'triclinic'
loop_
_space_group_symop_operation_xyz
x,y,z
-x,-y,-z
loop_
_atom_site_type_symbol
_atom_site_label
_atom_site_fract_x
_atom_site_fract_y
_atom_site_fract_z
Si Si1 0.569600 0.201117 0.997999
Si Si2 0.338895 0.689840 0.412198
Si Si3 0.007332 0.314040 0.099632
Si Si4 0.231423 0.279906 0.254742
Si Si5 0.411924 0.448202 0.664785
Si Si6 0.795045 0.705974 0.399265
O O1 0.674396 0.037491 0.838474
O O2 0.500000 0.500000 0.000000
O O3 0.620764 0.264051 0.165983
O O4 0.500000 0.000000 0.000000
O O5 0.294425 0.500600 0.253679
O O6 0.391112 0.504476 0.506756
O O7 0.452918 0.749679 0.355794
O O8 0.225271 0.960784 0.526267
O O9 0.127572 0.288086 0.158712
O O10 0.906491 0.498506 0.259740
O O11 0.000000 0.500000 0.000000
O O12 0.000000 0.000000 0.000000
O O13 0.189382 0.374332 0.448092
O O14 0.320549 0.300050 0.678088
#
# Coordination Sequence:
#
# PCOD8019361 Si02
#       6
#     2   2   2   2   2   2
#     4  12  26  42  70 106 149 191 236 294 361 430
#     4  10  22  41  72 105 143 192 236 300 359 437
#     4  12  31  52  77 106 144 195 249 310 368 431
#     4  11  26  46  73 110 146 192 251 298 366 435
#     4  10  22  41  67 107 148 187 244 285 369 426
#     4  11  25  45  75 101 148 192 247 300 366 434
#
# _framework density 22.930875
#
# number of rings (size 3 to 8) (size 9 to 14) (size 15 to 20)
#    0.000    1.000    1.667    3.000   11.667    0.667 
#    0.000    0.000    0.000    0.000    0.000    0.000 
#    0.000    0.000    0.000    0.000    0.000    0.000 
#
# Total GULP energy -148656.875958 kJ/mol
# GULP energy per Si atom -12388.072996 kJ/mol
# Density = 2.287868 g / cm^3
# Si number density = 22.930875 Si / 1000 Ang^3
#
#
#
# Elastic Constant Matrix: (Units=GPa)
#
#
# Indices 1 2 3 4 5 6 
#
# 1 155.5564 76.1882 67.3646 9.0972 22.6864 -13.8360
# 2 76.1882 132.7820 43.2845 24.9206 3.7362 -4.5991
# 3 67.3646 43.2845 135.6040 24.3737 -1.8869 -9.2186
# 4 9.0972 24.9206 24.3737 42.6689 -4.3013 -5.6300
# 5 22.6864 3.7362 -1.8869 -4.3013 57.3060 9.8243
# 6 -13.8360 -4.5991 -9.2186 -5.6300 9.8243 31.5541
#
#
#
# Elastic Compliance Matrix: (Units=1/GPa)
#
#
# Indices 1 2 3 4 5 6 
#
# 1 0.012405 -0.005958 -0.004617 0.003664 -0.005349 0.005541
# 2 -0.005958 0.011902 0.000077 -0.005884 0.001553 -0.002388
# 3 -0.004617 0.000077 0.010530 -0.004940 0.001867 -0.000400
# 4 0.003664 -0.005884 -0.004940 0.029530 0.000214 0.004508
# 5 -0.005349 0.001553 0.001867 0.000214 0.020924 -0.008050
# 6 0.005541 -0.002388 -0.000400 0.004508 -0.008050 0.036967
#
#
# Mechanical properties :
#
#
# Convention : Reuss Voigt Hill
#
# Bulk Modulus (GPa) = 72.24219 88.62414 80.43316
# Shear Modulus (GPa) = 33.81402 42.11280 37.96341
#
# Velocity S-wave (km/s) = 3.84423 4.29010 4.07327
# Velocity P-wave (km/s) = 7.16078 7.95439 7.56799
#
# Compressibility (1/GPa) = 0.01384233
#
# Stress axis : x y z
#
# Youngs Moduli (GPa) = 80.61485 84.01714 94.96566
#
# Poissons Ratio (x) = 0.50056 0.43845
# Poissons Ratio (y) = 0.48029 -0.00734
# Poissons Ratio (z) = 0.37219 -0.00650
#
# Static dielectric constant tensor:
#      x y z
#    x 4.676620 0.108900 0.049830 
#    y 0.108900 4.001170 0.248300 
#    z 0.049830 0.248300 4.602390 
# 
# 
# High freq. dielectric constant tensor:
#      x y z
#    x 1.909770 0.002560 0.009550 
#    y 0.002560 1.895660 0.012860 
#    z 0.009550 0.012860 1.926110 
# 
# From -- ./inp_files/23330.got.cif
#   From: 2010.06.25/outbox.cif.g09.slc.cpg/sg2_12_cif.got.tgz:23330.got - 2010.06.27 13:26:56.
