data_PCOD8019018
_publ_section_title
;
Structure prediction by ZEFSAII (Michael W. Deem and Ramdas Pophale) SiO2 
 PCOD8019018
Probable space group: P -1
;
_chemical_formula_sum "Si O2"
_cell_formula_units_Z 16
_cell_length_a 16.508640
_cell_length_b 8.916529
_cell_length_c 13.049962
_cell_angle_alpha 91.215687
_cell_angle_beta 25.115325
_cell_angle_gamma 84.136780
_cell_volume 781.098409
_symmetry_space_group_name_H-M "P -1"
_symmetry_group_IT_number 2
_symmetry_cell_setting 'triclinic'
loop_
_space_group_symop_operation_xyz
x,y,z
-x,-y,-z
loop_
_atom_site_type_symbol
_atom_site_label
_atom_site_fract_x
_atom_site_fract_y
_atom_site_fract_z
Si Si1 0.911336 0.053654 0.762652
Si Si2 0.504003 0.647393 0.267755
Si Si3 0.900088 0.255373 0.368479
Si Si4 0.901874 0.574454 0.011998
Si Si5 0.506257 0.820630 0.473285
Si Si6 0.280624 0.051050 0.205597
Si Si7 0.884003 0.640164 0.703630
Si Si8 0.700504 0.343960 0.133237
O O1 0.125273 0.018831 0.463310
O O2 0.741134 0.031065 0.879491
O O3 0.829405 0.230085 0.898233
O O4 0.962202 0.926617 0.796318
O O5 0.337243 0.715059 0.373417
O O6 0.466649 0.781915 0.399985
O O7 0.507351 0.476354 0.309104
O O8 0.724675 0.611912 0.966459
O O9 0.942636 0.311504 0.433105
O O10 0.950506 0.358584 0.222426
O O11 0.723386 0.719512 0.254442
O O12 0.838905 0.441174 0.021770
O O13 0.000000 0.500000 0.000000
O O14 0.355069 0.766738 0.719784
O O15 0.500000 0.000000 0.500000
O O16 0.231250 0.233932 0.244357
O O17 0.500000 0.000000 0.000000
O O18 0.000000 0.500000 0.500000
#
# Coordination Sequence:
#
# PCOD8019018 Si02
#       8
#     2   2   2   2   2   2   2   2
#     4  10  23  41  62  94 126 166 210 263 313 376
#     4  11  23  42  64  94 129 166 212 262 313 378
#     4  11  22  41  66  91 132 166 210 264 317 374
#     4  11  22  41  63  92 128 167 211 261 314 375
#     4  11  23  40  64  91 129 167 210 262 315 375
#     4  10  22  41  64  89 128 165 210 261 318 372
#     4  11  23  40  67  93 129 167 213 262 318 374
#     4  11  22  40  63  92 129 163 213 262 313 377
#
# _framework density 20.483975000000001
#
# number of rings (size 3 to 8) (size 9 to 14) (size 15 to 20)
#    0.000    1.250    2.500    5.250    1.750    2.500 
#    2.250    2.500    0.000    0.000    0.000    0.000 
#    0.000    0.000    0.000    0.000    0.000    0.000 
#
# Total GULP energy -198315.492287 kJ/mol
# GULP energy per Si atom -12394.718268 kJ/mol
# Density = 2.043735 g / cm^3
# Si number density = 20.483975 Si / 1000 Ang^3
#
#
#
# Elastic Constant Matrix: (Units=GPa)
#
#
# Indices 1 2 3 4 5 6 
#
# 1 144.2757 61.8453 56.7918 23.5681 -29.5097 -12.5652
# 2 61.8453 151.9510 46.0323 23.2334 2.9174 1.5824
# 3 56.7918 46.0323 84.0558 15.3996 -7.5736 15.2396
# 4 23.5681 23.2334 15.3996 41.8747 -2.6321 7.7147
# 5 -29.5097 2.9174 -7.5736 -2.6321 36.5197 0.7781
# 6 -12.5652 1.5824 15.2396 7.7147 0.7781 27.0402
#
#
#
# Elastic Compliance Matrix: (Units=1/GPa)
#
#
# Indices 1 2 3 4 5 6 
#
# 1 0.016999 -0.003208 -0.010401 -0.006099 0.011069 0.015370
# 2 -0.003208 0.009225 -0.002859 -0.002602 -0.004119 0.000442
# 3 -0.010401 -0.002859 0.023154 0.002106 -0.002834 -0.018235
# 4 -0.006099 -0.002602 0.002106 0.030154 -0.001846 -0.012419
# 5 0.011069 -0.004119 -0.002834 -0.001846 0.035797 0.006478
# 6 0.015370 0.000442 -0.018235 -0.012419 0.006478 0.057732
#
#
# Mechanical properties :
#
#
# Convention : Reuss Voigt Hill
#
# Bulk Modulus (GPa) = 60.81472 78.84683 69.83077
# Shear Modulus (GPa) = 23.64308 35.46113 29.55210
#
# Velocity S-wave (km/s) = 3.40107 4.16524 3.80240
# Velocity P-wave (km/s) = 6.72134 7.85543 7.31041
#
# Compressibility (1/GPa) = 0.01644339
#
# Stress axis : x y z
#
# Youngs Moduli (GPa) = 58.82640 108.39845 43.18815
#
# Poissons Ratio (x) = 0.34776 0.44918
# Poissons Ratio (y) = 0.18872 0.12348
# Poissons Ratio (z) = 0.61183 0.30992
#
# Static dielectric constant tensor:
#      x y z
#    x 3.349130 0.060900 0.017160 
#    y 0.060900 3.873060 -0.095650 
#    z 0.017160 -0.095650 3.584160 
# 
# 
# High freq. dielectric constant tensor:
#      x y z
#    x 1.804240 -0.013340 0.000800 
#    y -0.013340 1.815550 -0.004260 
#    z 0.000800 -0.004260 1.795520 
# 
# From -- ./inp_files/215692.got.cif
#   From: 2010.06.25/outbox.cif.g09.slc.cpg/sg2_108_cif.got.tgz:215692.got - 2010.06.27 13:26:56.
