data_PCOD8019217
_publ_section_title
;
Structure prediction by ZEFSAII (Michael W. Deem and Ramdas Pophale) SiO2 
 PCOD8019217
Probable space group: P -1
;
_chemical_formula_sum "Si O2"
_cell_formula_units_Z 16
_cell_length_a 5.111124
_cell_length_b 14.142653
_cell_length_c 12.019610
_cell_angle_alpha 119.904293
_cell_angle_beta 111.489651
_cell_angle_gamma 81.480111
_cell_volume 700.160949
_symmetry_space_group_name_H-M "P -1"
_symmetry_group_IT_number 2
_symmetry_cell_setting 'triclinic'
loop_
_space_group_symop_operation_xyz
x,y,z
-x,-y,-z
loop_
_atom_site_type_symbol
_atom_site_label
_atom_site_fract_x
_atom_site_fract_y
_atom_site_fract_z
Si Si1 0.660944 0.681474 0.858779
Si Si2 0.683087 0.483557 0.907506
Si Si3 0.893792 0.805175 0.544414
Si Si4 0.817132 0.026701 0.593234
Si Si5 0.484476 0.242984 0.347369
Si Si6 0.564081 0.243903 0.729764
Si Si7 0.680226 0.988907 0.912269
Si Si8 0.289929 0.785465 0.030147
O O1 0.620081 0.566310 0.846493
O O2 0.581557 0.669585 0.708262
O O3 0.422220 0.755608 0.915296
O O4 0.966470 0.740905 0.957895
O O5 0.647447 0.365603 0.772645
O O6 0.500000 0.500000 0.000000
O O7 0.000000 0.500000 0.000000
O O8 0.713191 0.736451 0.566493
O O9 0.733752 0.792830 0.393406
O O10 0.195208 0.751720 0.555866
O O11 0.915890 0.937876 0.649875
O O12 0.816288 0.156178 0.702070
O O13 0.500000 0.000000 0.500000
O O14 0.000000 0.000000 0.500000
O O15 0.406418 0.123826 0.222150
O O16 0.530864 0.261365 0.867788
O O17 0.652351 0.084508 0.873114
O O18 0.500000 0.000000 0.000000
O O19 0.000000 0.000000 0.000000
#
# Coordination Sequence:
#
# PCOD8019217 Si02
#       8
#     2   2   2   2   2   2   2   2
#     4  12  24  44  67 100 137 180 230 293 348 402
#     4  12  25  46  72 105 137 179 238 301 354 406
#     4  11  25  43  66 101 139 191 221 280 349 429
#     4  10  22  41  65  97 137 178 225 276 336 416
#     4  12  24  43  66  95 148 179 231 280 341 423
#     4  11  25  45  73 102 144 180 238 287 361 409
#     4  12  22  39  63  99 133 176 229 272 344 418
#     4  12  23  41  69 101 139 178 228 290 351 413
#
# _framework density 22.851887999999999
#
# number of rings (size 3 to 8) (size 9 to 14) (size 15 to 20)
#    0.000    0.500    5.000    3.750    0.000    8.000 
#    0.000    1.250    0.000    0.000    0.000    0.000 
#    0.000    0.000    0.000    0.000    0.000    0.000 
#
# Total GULP energy -198253.891173 kJ/mol
# GULP energy per Si atom -12390.868198 kJ/mol
# Density = 2.279988 g / cm^3
# Si number density = 22.851888 Si / 1000 Ang^3
#
#
#
# Elastic Constant Matrix: (Units=GPa)
#
#
# Indices 1 2 3 4 5 6 
#
# 1 146.5248 26.2251 22.4974 -4.9422 3.6740 16.2464
# 2 26.2251 165.2786 23.1844 -8.2609 4.2161 8.6803
# 3 22.4974 23.1844 57.3705 -5.1085 12.1147 1.0277
# 4 -4.9422 -8.2609 -5.1085 47.4374 -1.7246 -2.2375
# 5 3.6740 4.2161 12.1147 -1.7246 31.2820 -6.4725
# 6 16.2464 8.6803 1.0277 -2.2375 -6.4725 29.7589
#
#
#
# Elastic Compliance Matrix: (Units=1/GPa)
#
#
# Indices 1 2 3 4 5 6 
#
# 1 0.007815 -0.000635 -0.002572 0.000207 -0.000678 -0.004124
# 2 -0.000635 0.006592 -0.002279 0.000759 -0.000196 -0.001483
# 3 -0.002572 -0.002279 0.021069 0.001322 -0.007517 -0.000194
# 4 0.000207 0.000759 0.001322 0.021474 0.000839 0.001417
# 5 -0.000678 -0.000196 -0.007517 0.000839 0.036844 0.008763
# 6 -0.004124 -0.001483 -0.000194 0.001417 0.008763 0.038307
#
#
# Mechanical properties :
#
#
# Convention : Reuss Voigt Hill
#
# Bulk Modulus (GPa) = 40.81259 56.99862 48.90560
# Shear Modulus (GPa) = 33.05993 41.51345 37.28669
#
# Velocity S-wave (km/s) = 3.80768 4.26682 4.04377
# Velocity P-wave (km/s) = 6.10161 7.01934 6.57650
#
# Compressibility (1/GPa) = 0.02450224
#
# Stress axis : x y z
#
# Youngs Moduli (GPa) = 127.96482 151.70626 47.46310
#
# Poissons Ratio (x) = 0.09631 0.12209
# Poissons Ratio (y) = 0.08124 0.10818
# Poissons Ratio (z) = 0.32918 0.34578
#
# Static dielectric constant tensor:
#      x y z
#    x 3.214320 0.760130 1.941320 
#    y 0.760130 4.399000 -1.746070 
#    z 1.941320 -1.746070 -0.149930 
# 
# 
# High freq. dielectric constant tensor:
#      x y z
#    x 1.911560 0.008870 0.001020 
#    y 0.008870 1.917370 -0.014160 
#    z 0.001020 -0.014160 1.878310 
# 
# From -- ./inp_files/367983.got.cif
#   From: 2010.06.25/outbox.cif.g09.slc.cpg/sg2_184_cif.got.tgz:367983.got - 2010.06.27 13:26:56.
