data_PCOD8019056
_publ_section_title
;
Structure prediction by ZEFSAII (Michael W. Deem and Ramdas Pophale) SiO2 
 PCOD8019056
Probable space group: P -1
;
_chemical_formula_sum "Si O2"
_cell_formula_units_Z 16
_cell_length_a 17.111489
_cell_length_b 9.098672
_cell_length_c 11.183532
_cell_angle_alpha 63.015056
_cell_angle_beta 127.542819
_cell_angle_gamma 146.513617
_cell_volume 755.796345
_symmetry_space_group_name_H-M "P -1"
_symmetry_group_IT_number 2
_symmetry_cell_setting 'triclinic'
loop_
_space_group_symop_operation_xyz
x,y,z
-x,-y,-z
loop_
_atom_site_type_symbol
_atom_site_label
_atom_site_fract_x
_atom_site_fract_y
_atom_site_fract_z
Si Si1 0.112482 0.039099 0.716103
Si Si2 0.741765 0.129117 0.438832
Si Si3 0.482505 0.807440 0.120681
Si Si4 0.714735 0.899771 0.729547
Si Si5 0.008098 0.253982 0.526009
Si Si6 0.545566 0.557164 0.159182
Si Si7 0.837451 0.727959 0.884778
Si Si8 0.042162 0.741286 0.973797
O O1 0.002679 0.797286 0.607051
O O2 0.150284 0.964402 0.888470
O O3 0.283157 0.306124 0.716174
O O4 0.034411 0.108016 0.665182
O O5 0.688434 0.006601 0.568110
O O6 0.848330 0.127005 0.476751
O O7 0.840047 0.428979 0.424397
O O8 0.575185 0.938329 0.285300
O O9 0.563550 0.771062 0.133059
O O10 0.291443 0.525564 0.053487
O O11 0.500000 0.000000 0.000000
O O12 0.570966 0.696118 0.766154
O O13 0.745040 0.768027 0.733725
O O14 0.874732 0.148910 0.860892
O O15 0.500000 0.500000 0.000000
O O16 0.882528 0.647126 0.860033
O O17 0.000000 0.000000 0.000000
O O18 0.000000 0.500000 0.000000
#
# Coordination Sequence:
#
# PCOD8019056 Si02
#       8
#     2   2   2   2   2   2   2   2
#     4  11  22  43  65  95 130 179 219 258 339 394
#     4  11  23  44  66  97 131 169 224 275 328 383
#     4  11  26  42  69  98 129 173 223 274 332 392
#     4  10  22  41  64  92 130 172 214 268 326 386
#     4  10  24  42  67  94 131 176 216 276 324 397
#     4  11  23  42  67  94 131 172 216 273 329 394
#     4   9  22  41  62  94 126 171 215 265 324 391
#     4  11  22  37  66  94 128 167 217 271 320 389
#
# _framework density 21.169723000000001
#
# number of rings (size 3 to 8) (size 9 to 14) (size 15 to 20)
#    0.000    1.500    2.500    1.500    3.500    6.000 
#    4.500    0.625    0.000    0.000    0.000    0.000 
#    0.000    0.000    0.000    0.000    0.000    0.000 
#
# Total GULP energy -198301.192093 kJ/mol
# GULP energy per Si atom -12393.824506 kJ/mol
# Density = 2.112154 g / cm^3
# Si number density = 21.169723 Si / 1000 Ang^3
#
#
#
# Elastic Constant Matrix: (Units=GPa)
#
#
# Indices 1 2 3 4 5 6 
#
# 1 103.9614 48.0415 29.6632 0.2576 4.9762 -7.9374
# 2 48.0415 123.6983 56.7969 -7.0870 5.7714 -3.2098
# 3 29.6632 56.7969 122.0023 -11.5749 -12.3299 -0.5007
# 4 0.2576 -7.0870 -11.5749 38.0861 3.1430 3.1484
# 5 4.9762 5.7714 -12.3299 3.1430 29.6153 3.5093
# 6 -7.9374 -3.2098 -0.5007 3.1484 3.5093 37.4063
#
#
#
# Elastic Compliance Matrix: (Units=1/GPa)
#
#
# Indices 1 2 3 4 5 6 
#
# 1 0.012157 -0.003986 -0.001417 -0.001296 -0.002016 0.002517
# 2 -0.003986 0.012184 -0.004999 0.001066 -0.003948 0.000413
# 3 -0.001417 -0.004999 0.011682 0.002244 0.005994 -0.001324
# 4 -0.001296 0.001066 0.002244 0.027476 -0.001698 -0.002307
# 5 -0.002016 -0.003948 0.005994 -0.001698 0.038038 -0.004112
# 6 0.002517 0.000413 -0.001324 -0.002307 -0.004112 0.027865
#
#
# Mechanical properties :
#
#
# Convention : Reuss Voigt Hill
#
# Bulk Modulus (GPa) = 65.70683 68.74057 67.22370
# Shear Modulus (GPa) = 32.20046 35.36556 33.78301
#
# Velocity S-wave (km/s) = 3.90431 4.09170 3.99910
# Velocity P-wave (km/s) = 7.17150 7.40705 7.29022
#
# Compressibility (1/GPa) = 0.01521912
#
# Stress axis : x y z
#
# Youngs Moduli (GPa) = 82.25730 82.07804 85.60544
#
# Poissons Ratio (x) = 0.32715 0.12127
# Poissons Ratio (y) = 0.32787 0.42793
# Poissons Ratio (z) = 0.11653 0.41030
#
# Static dielectric constant tensor:
#      x y z
#    x 4.588530 0.300380 0.172300 
#    y 0.300380 4.263430 0.103410 
#    z 0.172300 0.103410 3.716630 
# 
# 
# High freq. dielectric constant tensor:
#      x y z
#    x 1.835880 -0.003960 0.003630 
#    y -0.003960 1.834170 0.001320 
#    z 0.003630 0.001320 1.818860 
# 
# From -- ./inp_files/462003.got.cif
#   From: 2010.06.25/outbox.cif.g09.slc.cpg/sg2_232_cif.got.tgz:462003.got - 2010.06.27 13:26:56.
