data_PCOD8019160
_publ_section_title
;
Structure prediction by ZEFSAII (Michael W. Deem and Ramdas Pophale) SiO2 
 PCOD8019160
Probable space group: P -1
;
_chemical_formula_sum "Si O2"
_cell_formula_units_Z 16
_cell_length_a 12.138532
_cell_length_b 8.811731
_cell_length_c 14.300201
_cell_angle_alpha 97.648751
_cell_angle_beta 32.681225
_cell_angle_gamma 108.392306
_cell_volume 757.078835
_symmetry_space_group_name_H-M "P -1"
_symmetry_group_IT_number 2
_symmetry_cell_setting 'triclinic'
loop_
_space_group_symop_operation_xyz
x,y,z
-x,-y,-z
loop_
_atom_site_type_symbol
_atom_site_label
_atom_site_fract_x
_atom_site_fract_y
_atom_site_fract_z
Si Si1 0.335486 0.812039 0.592784
Si Si2 0.471467 0.314315 0.006865
Si Si3 0.761974 0.176635 0.673238
Si Si4 0.420754 0.511152 0.454895
Si Si5 0.956828 0.140267 0.345420
Si Si6 0.755982 0.370911 0.159771
Si Si7 0.617597 0.168400 0.060338
Si Si8 0.975146 0.809798 0.338587
O O1 0.425916 0.697241 0.453525
O O2 0.117600 0.814946 0.697881
O O3 0.286349 0.734176 0.723777
O O4 0.500000 0.000000 0.500000
O O5 0.551830 0.288268 0.049767
O O6 0.218483 0.199948 0.162371
O O7 0.500000 0.500000 0.000000
O O8 0.626312 0.286977 0.812590
O O9 0.861821 0.224560 0.501774
O O10 0.972011 0.202423 0.591301
O O11 0.600248 0.987132 0.775192
O O12 0.500000 0.500000 0.500000
O O13 0.593110 0.468488 0.263432
O O14 0.176112 0.373202 0.603628
O O15 0.857061 0.940450 0.417892
O O16 0.729717 0.250462 0.082664
O O17 0.000000 0.500000 0.000000
O O18 0.795541 0.116043 0.875344
#
# Coordination Sequence:
#
# PCOD8019160 Si02
#       8
#     2   2   2   2   2   2   2   2
#     4  11  25  46  65  99 134 172 226 284 339 397
#     4  11  26  41  63 102 139 172 217 283 339 392
#     4  11  23  43  66 100 130 180 229 261 341 412
#     4  10  22  41  65  92 128 175 224 268 327 399
#     4  12  24  42  70  96 138 174 221 281 345 392
#     4  11  25  44  71  97 129 181 234 273 335 406
#     4  11  21  43  68  96 133 172 229 275 325 412
#     4  11  21  41  69  98 133 176 223 278 328 409
#
# _framework density 21.133862000000001
#
# number of rings (size 3 to 8) (size 9 to 14) (size 15 to 20)
#    0.000    1.000    2.500    5.625    7.000    1.500 
#    0.000    1.250    0.000    0.000    0.000    0.000 
#    0.000    0.000    0.000    0.000    0.000    0.000 
#
# Total GULP energy -198380.526885 kJ/mol
# GULP energy per Si atom -12398.782930 kJ/mol
# Density = 2.108576 g / cm^3
# Si number density = 21.133862 Si / 1000 Ang^3
#
#
#
# Elastic Constant Matrix: (Units=GPa)
#
#
# Indices 1 2 3 4 5 6 
#
# 1 135.9875 46.9244 35.9026 3.6427 -10.2976 7.0941
# 2 46.9244 141.7551 20.2102 -2.3694 -10.4552 -7.7850
# 3 35.9026 20.2102 66.5965 0.1034 -16.0796 -10.0284
# 4 3.6427 -2.3694 0.1034 34.4792 5.1666 -10.6402
# 5 -10.2976 -10.4552 -16.0796 5.1666 26.0986 -2.0438
# 6 7.0941 -7.7850 -10.0284 -10.6402 -2.0438 34.4428
#
#
#
# Elastic Compliance Matrix: (Units=1/GPa)
#
#
# Indices 1 2 3 4 5 6 
#
# 1 0.010122 -0.002937 -0.005442 -0.002809 -0.000389 -0.005224
# 2 -0.002937 0.008378 0.000027 0.001521 0.002156 0.003104
# 3 -0.005442 0.000027 0.022123 0.001416 0.011896 0.008712
# 4 -0.002809 0.001521 0.001416 0.033740 -0.005410 0.011437
# 5 -0.000389 0.002156 0.011896 -0.005410 0.047834 0.005198
# 6 -0.005224 0.003104 0.008712 0.011437 0.005198 0.037189
#
#
# Mechanical properties :
#
#
# Convention : Reuss Voigt Hill
#
# Bulk Modulus (GPa) = 41.80855 61.15705 51.48280
# Shear Modulus (GPa) = 27.16452 35.09092 31.12772
#
# Velocity S-wave (km/s) = 3.58907 4.07924 3.84198
# Velocity P-wave (km/s) = 6.08284 7.15455 6.64035
#
# Compressibility (1/GPa) = 0.02391855
#
# Stress axis : x y z
#
# Youngs Moduli (GPa) = 98.79271 119.36238 45.20147
#
# Poissons Ratio (x) = 0.35061 0.24597
# Poissons Ratio (y) = 0.29019 -0.00121
# Poissons Ratio (z) = 0.53759 -0.00318
#
# Static dielectric constant tensor:
#      x y z
#    x 3.852610 -0.004810 -0.141250 
#    y -0.004810 3.917710 0.432420 
#    z -0.141250 0.432420 3.916740 
# 
# 
# High freq. dielectric constant tensor:
#      x y z
#    x 1.834220 0.011740 -0.013230 
#    y 0.011740 1.838340 0.008660 
#    z -0.013230 0.008660 1.825450 
# 
# From -- ./inp_files/308072.got.cif
#   From: 2010.06.25/outbox.cif.g09.slc.cpg/sg2_155_cif.got.tgz:308072.got - 2010.06.27 13:26:56.
