data_PCOD8019068
_publ_section_title
;
Structure prediction by ZEFSAII (Michael W. Deem and Ramdas Pophale) SiO2 
 PCOD8019068
Probable space group: P -1
;
_chemical_formula_sum "Si O2"
_cell_formula_units_Z 16
_cell_length_a 8.658557
_cell_length_b 7.994835
_cell_length_c 25.423532
_cell_angle_alpha 60.332684
_cell_angle_beta 131.120564
_cell_angle_gamma 144.439242
_cell_volume 767.808792
_symmetry_space_group_name_H-M "P -1"
_symmetry_group_IT_number 2
_symmetry_cell_setting 'triclinic'
loop_
_space_group_symop_operation_xyz
x,y,z
-x,-y,-z
loop_
_atom_site_type_symbol
_atom_site_label
_atom_site_fract_x
_atom_site_fract_y
_atom_site_fract_z
Si Si1 0.129555 0.094521 0.366906
Si Si2 0.193925 0.468540 0.574369
Si Si3 0.178822 0.400724 0.696969
Si Si4 0.702347 0.181231 0.809130
Si Si5 0.300287 0.020569 0.923651
Si Si6 0.640240 0.445752 0.837321
Si Si7 0.936485 0.394926 0.272789
Si Si8 0.841401 0.793265 0.046007
O O1 0.494131 0.343464 0.416778
O O2 0.008018 0.223874 0.328132
O O3 0.990064 0.862719 0.417974
O O4 0.032664 0.934288 0.313192
O O5 0.265400 0.571198 0.635625
O O6 0.000000 0.500000 0.500000
O O7 0.482987 0.539150 0.773895
O O8 0.000222 0.425300 0.690644
O O9 0.552009 0.237097 0.803875
O O10 0.839063 0.375879 0.757976
O O11 0.972035 0.265524 0.887973
O O12 0.425098 0.841021 0.786317
O O13 0.518415 0.285055 0.890935
O O14 0.155648 0.063647 0.926434
O O15 0.009451 0.722149 0.876158
O O16 0.500000 0.000000 0.000000
O O17 0.500000 0.500000 0.000000
O O18 0.000000 0.000000 0.000000
#
# Coordination Sequence:
#
# PCOD8019068 Si02
#       8
#     2   2   2   2   2   2   2   2
#     4  10  22  41  64  93 132 162 213 256 321 367
#     4  10  22  43  69  94 135 174 210 258 321 380
#     4  10  25  38  69  94 129 167 217 263 320 380
#     4  12  24  40  63  92 125 166 209 272 331 376
#     4  12  25  41  61  89 121 168 213 261 325 386
#     4  12  23  41  64  90 124 163 213 265 319 377
#     4  12  23  41  63  97 128 163 214 268 321 375
#     4  12  24  42  60  86 123 165 214 268 324 389
#
# _framework density 20.838521
#
# number of rings (size 3 to 8) (size 9 to 14) (size 15 to 20)
#    0.750    0.000    1.250    7.500    3.500    0.000 
#    0.000    1.250    0.000    0.000    0.000    0.000 
#    0.000    0.000    0.000    0.000    0.000    0.000 
#
# Total GULP energy -198420.074725 kJ/mol
# GULP energy per Si atom -12401.254670 kJ/mol
# Density = 2.079109 g / cm^3
# Si number density = 20.838521 Si / 1000 Ang^3
#
#
#
# Elastic Constant Matrix: (Units=GPa)
#
#
# Indices 1 2 3 4 5 6 
#
# 1 122.9880 32.4227 33.8443 -4.6018 11.4143 -12.5187
# 2 32.4227 96.3955 31.0408 -2.2848 6.6029 17.9773
# 3 33.8443 31.0408 117.5164 -12.6559 25.5644 3.5483
# 4 -4.6018 -2.2848 -12.6559 28.7251 4.2218 5.8314
# 5 11.4143 6.6029 25.5644 4.2218 31.1882 1.5916
# 6 -12.5187 17.9773 3.5483 5.8314 1.5916 37.5720
#
#
#
# Elastic Compliance Matrix: (Units=1/GPa)
#
#
# Indices 1 2 3 4 5 6 
#
# 1 0.010352 -0.003833 -0.001789 -0.000309 -0.001753 0.005574
# 2 -0.003833 0.013868 -0.002369 0.000942 0.000682 -0.007864
# 3 -0.001789 -0.002369 0.012606 0.006815 -0.010033 -0.001286
# 4 -0.000309 0.000942 0.006815 0.040872 -0.010843 -0.007081
# 5 -0.001753 0.000682 -0.010033 -0.010843 0.042256 -0.000070
# 6 0.005574 -0.007864 -0.001286 -0.007081 -0.000070 0.033459
#
#
# Mechanical properties :
#
#
# Convention : Reuss Voigt Hill
#
# Bulk Modulus (GPa) = 47.97389 59.05727 53.51558
# Shear Modulus (GPa) = 28.35397 35.46988 31.91193
#
# Velocity S-wave (km/s) = 3.69270 4.13016 3.91754
# Velocity P-wave (km/s) = 6.42286 7.15166 6.79704
#
# Compressibility (1/GPa) = 0.02084467
#
# Stress axis : x y z
#
# Youngs Moduli (GPa) = 96.59822 72.10853 79.32876
#
# Poissons Ratio (x) = 0.27636 0.14193
# Poissons Ratio (y) = 0.37022 0.18792
# Poissons Ratio (z) = 0.17283 0.17082
#
# Static dielectric constant tensor:
#      x y z
#    x 3.969990 0.027400 0.209880 
#    y 0.027400 3.893930 0.078060 
#    z 0.209880 0.078060 3.875740 
# 
# 
# High freq. dielectric constant tensor:
#      x y z
#    x 1.821330 0.006360 0.011430 
#    y 0.006360 1.823450 -0.002700 
#    z 0.011430 -0.002700 1.809070 
# 
# From -- ./inp_files/51122.got.cif
#   From: 2010.06.25/outbox.cif.g09.slc.cpg/sg2_26_cif.got.tgz:51122.got - 2010.06.27 13:26:56.
