data_PCOD8019261
_publ_section_title
;
Structure prediction by ZEFSAII (Michael W. Deem and Ramdas Pophale) SiO2 
 PCOD8019261
Probable space group: P -1
;
_chemical_formula_sum "Si O2"
_cell_formula_units_Z 12
_cell_length_a 6.508956
_cell_length_b 17.712720
_cell_length_c 8.128486
_cell_angle_alpha 43.749072
_cell_angle_beta 88.803455
_cell_angle_gamma 66.497268
_cell_volume 538.946309
_symmetry_space_group_name_H-M "P -1"
_symmetry_group_IT_number 2
_symmetry_cell_setting 'triclinic'
loop_
_space_group_symop_operation_xyz
x,y,z
-x,-y,-z
loop_
_atom_site_type_symbol
_atom_site_label
_atom_site_fract_x
_atom_site_fract_y
_atom_site_fract_z
Si Si1 0.240811 0.781077 0.535814
Si Si2 0.059698 0.590482 0.258801
Si Si3 0.823677 0.832382 0.686866
Si Si4 0.032456 0.251442 0.693076
Si Si5 0.324842 0.994708 0.280096
Si Si6 0.779203 0.590475 0.738533
O O1 0.195905 0.923466 0.328440
O O2 0.529197 0.667181 0.727132
O O3 0.094434 0.764088 0.710280
O O4 0.148682 0.768314 0.380436
O O5 0.252153 0.496212 0.262651
O O6 0.000000 0.500000 0.500000
O O7 0.137454 0.655862 0.294841
O O8 0.826106 0.716531 0.969348
O O9 0.621368 0.890350 0.453050
O O10 0.774003 0.949373 0.623214
O O11 0.162926 0.310958 0.501201
O O12 0.261243 0.110625 0.973883
O O13 0.000000 0.500000 0.000000
#
# Coordination Sequence:
#
# PCOD8019261 Si02
#       6
#     2   2   2   2   2   2
#     4  12  23  37  63  94 123 158 203 250 306 365
#     4   9  20  42  63  86 121 161 205 247 298 357
#     4  10  22  41  66  91 121 163 203 251 305 358
#     4  10  23  40  62  90 121 162 203 251 304 359
#     4  10  22  42  63  89 126 160 202 252 304 362
#     4  11  24  42  63  89 123 162 205 253 302 358
#
# _framework density 22.265668999999999
#
# number of rings (size 3 to 8) (size 9 to 14) (size 15 to 20)
#    0.000    1.667    0.000    4.000    0.000    7.333 
#    0.000   16.667    0.000    0.000    0.000    0.000 
#    0.000    0.000    0.000    0.000    0.000    0.000 
#
# Total GULP energy -148705.725126 kJ/mol
# GULP energy per Si atom -12392.143761 kJ/mol
# Density = 2.221499 g / cm^3
# Si number density = 22.265669 Si / 1000 Ang^3
#
#
#
# Elastic Constant Matrix: (Units=GPa)
#
#
# Indices 1 2 3 4 5 6 
#
# 1 102.6659 65.1902 62.6968 0.1300 8.4160 4.7466
# 2 65.1902 142.3215 47.1881 -9.1010 2.9789 12.4538
# 3 62.6968 47.1881 172.4146 -1.3831 -1.4154 5.9324
# 4 0.1300 -9.1010 -1.3831 28.4125 5.6453 -1.8357
# 5 8.4160 2.9789 -1.4154 5.6453 28.3980 -5.2975
# 6 4.7466 12.4538 5.9324 -1.8357 -5.2975 46.8115
#
#
#
# Elastic Compliance Matrix: (Units=1/GPa)
#
#
# Indices 1 2 3 4 5 6 
#
# 1 0.016734 -0.006195 -0.004435 -0.001434 -0.004250 -0.000024
# 2 -0.006195 0.010422 -0.000507 0.003274 -0.000304 -0.001986
# 3 -0.004435 -0.000507 0.007571 -0.000131 0.001737 -0.000183
# 4 -0.001434 0.003274 -0.000131 0.037718 -0.007436 -0.000071
# 5 -0.004250 -0.000304 0.001737 -0.007436 0.038891 0.004401
# 6 -0.000024 -0.001986 -0.000183 -0.000071 0.004401 0.022412
#
#
# Mechanical properties :
#
#
# Convention : Reuss Voigt Hill
#
# Bulk Modulus (GPa) = 80.31196 85.28358 82.79777
# Shear Modulus (GPa) = 31.21633 36.87951 34.04792
#
# Velocity S-wave (km/s) = 3.74838 4.07423 3.91470
# Velocity P-wave (km/s) = 7.40824 7.77935 7.59606
#
# Compressibility (1/GPa) = 0.01245145
#
# Stress axis : x y z
#
# Youngs Moduli (GPa) = 59.75926 95.95317 132.08001
#
# Poissons Ratio (x) = 0.59444 0.58579
# Poissons Ratio (y) = 0.37021 0.06702
# Poissons Ratio (z) = 0.26504 0.04869
#
# Static dielectric constant tensor:
#      x y z
#    x 3.569270 0.259400 -0.058900 
#    y 0.259400 4.843480 -0.138180 
#    z -0.058900 -0.138180 4.106480 
# 
# 
# High freq. dielectric constant tensor:
#      x y z
#    x 1.829390 0.017330 -0.005440 
#    y 0.017330 1.913870 -0.008060 
#    z -0.005440 -0.008060 1.889140 
# 
# From -- ./inp_files/21030.got.cif
#   From: 2010.06.25/outbox.cif.g09.slc.cpg/sg2_11_cif.got.tgz:21030.got - 2010.06.27 13:26:56.
