data_PCOD8019841
_publ_section_title
;
Structure prediction by ZEFSAII (Michael W. Deem and Ramdas Pophale) SiO2 
 PCOD8019841
Probable space group: P -1
;
_chemical_formula_sum "Si O2"
_cell_formula_units_Z 14
_cell_length_a 17.513476
_cell_length_b 20.656707
_cell_length_c 9.349110
_cell_angle_alpha 36.598939
_cell_angle_beta 49.025268
_cell_angle_gamma 21.479032
_cell_volume 670.624328
_symmetry_space_group_name_H-M "P -1"
_symmetry_group_IT_number 2
_symmetry_cell_setting 'triclinic'
loop_
_space_group_symop_operation_xyz
x,y,z
-x,-y,-z
loop_
_atom_site_type_symbol
_atom_site_label
_atom_site_fract_x
_atom_site_fract_y
_atom_site_fract_z
Si Si1 0.022835 0.574748 0.656509
Si Si2 0.503501 0.395834 0.282952
Si Si3 0.222695 0.494696 0.291074
Si Si4 0.455412 0.495367 0.714480
Si Si5 0.191596 0.443598 0.980564
Si Si6 0.000003 0.183444 0.265903
Si Si7 0.574166 0.138835 0.247966
O O1 0.121222 0.499272 0.510431
O O2 0.209870 0.412756 0.840667
O O3 0.825126 0.848721 0.460219
O O4 0.935677 0.536296 0.829369
O O5 0.306466 0.504852 0.281296
O O6 0.443556 0.503933 0.317336
O O7 0.747206 0.101676 0.511996
O O8 0.500000 0.500000 0.000000
O O9 0.433626 0.246892 0.374913
O O10 0.025576 0.731245 0.007837
O O11 0.500000 0.500000 0.500000
O O12 0.183707 0.738355 0.645095
O O13 0.590548 0.253133 0.007663
O O14 0.054740 0.682549 0.774050
O O15 0.449191 0.203982 0.150044
#
# Coordination Sequence:
#
# PCOD8019841 Si02
#       7
#     2   2   2   2   2   2   2
#     4  11  22  40  67  86 122 159 200 249 307 349
#     4  12  22  40  61  87 121 161 199 245 297 355
#     4  10  24  39  61  94 118 159 208 238 299 369
#     4  10  23  38  60  89 122 156 203 241 300 357
#     4   9  22  41  61  92 118 154 202 251 300 361
#     4  10  23  41  61  85 126 156 198 256 296 351
#     4  10  22  42  59  90 126 154 200 254 292 359
#
# _framework density 20.876069000000001
#
# number of rings (size 3 to 8) (size 9 to 14) (size 15 to 20)
#    0.000    2.000    2.857    1.714    6.000    2.286 
#    0.000    7.857    0.000    0.000    0.000    0.000 
#    0.000    0.000    0.000    0.000    0.000    0.000 
#
# Total GULP energy -173547.666405 kJ/mol
# GULP energy per Si atom -12396.261886 kJ/mol
# Density = 2.082855 g / cm^3
# Si number density = 20.876069 Si / 1000 Ang^3
#
#
#
# Elastic Constant Matrix: (Units=GPa)
#
#
# Indices 1 2 3 4 5 6 
#
# 1 62.6208 -4.5163 -2.3326 -10.6167 0.7999 4.7454
# 2 -4.5163 61.4093 36.3403 20.2094 4.7323 13.5475
# 3 -2.3326 36.3403 72.0639 17.2007 10.6569 6.4319
# 4 -10.6167 20.2094 17.2007 35.2518 3.8946 7.3608
# 5 0.7999 4.7323 10.6569 3.8946 21.1720 5.4866
# 6 4.7454 13.5475 6.4319 7.3608 5.4866 24.1839
#
#
#
# Elastic Compliance Matrix: (Units=1/GPa)
#
#
# Indices 1 2 3 4 5 6 
#
# 1 0.017513 0.001010 -0.000935 0.006346 -0.000118 -0.005659
# 2 0.001010 0.028245 -0.011844 -0.008198 0.004045 -0.011293
# 3 -0.000935 -0.011844 0.021665 -0.003996 -0.008581 0.004219
# 4 0.006346 -0.008198 -0.003996 0.038565 -0.001691 -0.006945
# 5 -0.000118 0.004045 -0.008581 -0.001691 0.053994 -0.011696
# 6 -0.005659 -0.011293 0.004219 -0.006945 -0.011696 0.052431
#
#
# Mechanical properties :
#
#
# Convention : Reuss Voigt Hill
#
# Bulk Modulus (GPa) = 22.78627 28.34185 25.56406
# Shear Modulus (GPa) = 19.95373 27.22837 23.59105
#
# Velocity S-wave (km/s) = 3.09499 3.61541 3.36527
# Velocity P-wave (km/s) = 4.86936 5.57081 5.23185
#
# Compressibility (1/GPa) = 0.04388607
#
# Stress axis : x y z
#
# Youngs Moduli (GPa) = 57.09914 35.40441 46.15703
#
# Poissons Ratio (x) = -0.03576 0.04315
# Poissons Ratio (y) = -0.05768 0.54669
# Poissons Ratio (z) = 0.05337 0.41934
#
# Static dielectric constant tensor:
#      x y z
#    x 4.092390 -0.099390 0.095680 
#    y -0.099390 3.533450 0.090890 
#    z 0.095680 0.090890 3.858880 
# 
# 
# High freq. dielectric constant tensor:
#      x y z
#    x 1.838930 0.003540 0.008270 
#    y 0.003540 1.788280 0.006530 
#    z 0.008270 0.006530 1.823260 
# 
# From -- ./inp_files/186416.got.cif
#   From: 2010.06.25/outbox.cif.g09.slc.cpg/sg2_94_cif.got.tgz:186416.got - 2010.06.27 13:26:56.
