data_PCOD8019997
_publ_section_title
;
Structure prediction by ZEFSAII (Michael W. Deem and Ramdas Pophale) SiO2 
 PCOD8019997
Probable space group: P -1
;
_chemical_formula_sum "Si O2"
_cell_formula_units_Z 16
_cell_length_a 8.463436
_cell_length_b 13.593599
_cell_length_c 18.772930
_cell_angle_alpha 141.076424
_cell_angle_beta 53.458335
_cell_angle_gamma 95.912980
_cell_volume 763.777622
_symmetry_space_group_name_H-M "P -1"
_symmetry_group_IT_number 2
_symmetry_cell_setting 'triclinic'
loop_
_space_group_symop_operation_xyz
x,y,z
-x,-y,-z
loop_
_atom_site_type_symbol
_atom_site_label
_atom_site_fract_x
_atom_site_fract_y
_atom_site_fract_z
Si Si1 0.460619 0.154643 0.396235
Si Si2 0.015167 0.056522 0.948713
Si Si3 0.198973 0.491222 0.776295
Si Si4 0.614934 0.493172 0.114277
Si Si5 0.365620 0.286906 0.897936
Si Si6 0.224138 0.914181 0.198815
Si Si7 0.883990 0.370327 0.606350
Si Si8 0.450891 0.857198 0.962131
O O1 0.666062 0.125961 0.269364
O O2 0.426266 0.277482 0.545308
O O3 0.162805 0.295413 0.517505
O O4 0.599220 0.913244 0.247802
O O5 0.830034 0.054060 0.945651
O O6 0.000000 0.000000 0.000000
O O7 0.898583 0.298046 0.119326
O O8 0.332921 0.453797 0.795172
O O9 0.937002 0.522650 0.876340
O O10 0.616240 0.619402 0.124021
O O11 0.313546 0.575441 0.244757
O O12 0.846948 0.223269 0.885666
O O13 0.609789 0.199623 0.836114
O O14 0.414239 0.894595 0.078120
O O15 0.951613 0.176919 0.432365
O O16 0.714902 0.591181 0.726903
O O17 0.500000 0.000000 0.000000
#
# Coordination Sequence:
#
# PCOD8019997 Si02
#       8
#     2   2   2   2   2   2   2   2
#     4  10  25  43  66  96 135 174 213 270 326 386
#     4  11  26  45  66  97 130 173 215 266 334 393
#     4  11  22  42  64  93 141 167 217 269 327 385
#     4  11  22  39  66 100 130 176 220 268 325 380
#     4  10  23  40  66  97 134 175 218 265 328 386
#     4  10  22  42  64  92 133 169 213 273 322 381
#     4  10  23  43  65  96 132 168 220 269 322 384
#     4  11  25  43  68  96 128 167 216 271 333 388
#
# _framework density 20.948505000000001
#
# number of rings (size 3 to 8) (size 9 to 14) (size 15 to 20)
#    0.000    1.500    2.500    2.250    8.750    4.500 
#    0.000    0.000    0.000    0.000    0.000    0.000 
#    0.000    0.000    0.000    0.000    0.000    0.000 
#
# Total GULP energy -198390.848062 kJ/mol
# GULP energy per Si atom -12399.428004 kJ/mol
# Density = 2.090083 g / cm^3
# Si number density = 20.948505 Si / 1000 Ang^3
#
#
#
# Elastic Constant Matrix: (Units=GPa)
#
#
# Indices 1 2 3 4 5 6 
#
# 1 74.5977 40.3405 32.9595 0.2814 3.0650 7.2449
# 2 40.3405 183.4476 67.2870 -3.7349 -1.9414 -1.7183
# 3 32.9595 67.2870 133.2408 1.2697 14.3545 4.2159
# 4 0.2814 -3.7349 1.2697 22.7531 -0.0581 -1.0982
# 5 3.0650 -1.9414 14.3545 -0.0581 39.3509 -6.8642
# 6 7.2449 -1.7183 4.2159 -1.0982 -6.8642 34.0049
#
#
#
# Elastic Compliance Matrix: (Units=1/GPa)
#
#
# Indices 1 2 3 4 5 6 
#
# 1 0.016367 -0.002779 -0.002400 -0.000701 -0.001163 -0.003587
# 2 -0.002779 0.007354 -0.003327 0.001522 0.002119 0.001853
# 3 -0.002400 -0.003327 0.010282 -0.001187 -0.004041 -0.001786
# 4 -0.000701 0.001522 -0.001187 0.044374 0.000978 0.002004
# 5 -0.001163 0.002119 -0.004041 0.000978 0.028232 0.006586
# 6 -0.003587 0.001853 -0.001786 0.002004 0.006586 0.031881
#
#
# Mechanical properties :
#
#
# Convention : Reuss Voigt Hill
#
# Bulk Modulus (GPa) = 58.85639 74.71781 66.78710
# Shear Modulus (GPa) = 31.02379 35.93505 33.47942
#
# Velocity S-wave (km/s) = 3.85249 4.14623 4.00206
# Velocity P-wave (km/s) = 6.92428 7.65940 7.30110
#
# Compressibility (1/GPa) = 0.01699051
#
# Stress axis : x y z
#
# Youngs Moduli (GPa) = 61.09753 135.98888 97.25360
#
# Poissons Ratio (x) = 0.37794 0.23338
# Poissons Ratio (y) = 0.16980 0.32361
# Poissons Ratio (z) = 0.14662 0.45250
#
# Static dielectric constant tensor:
#      x y z
#    x 3.801510 0.063280 0.061060 
#    y 0.063280 3.860270 -0.005810 
#    z 0.061060 -0.005810 4.084940 
# 
# 
# High freq. dielectric constant tensor:
#      x y z
#    x 1.823300 0.004430 0.004650 
#    y 0.004430 1.817900 0.001670 
#    z 0.004650 0.001670 1.827960 
# 
# From -- ./inp_files/313932.got.cif
#   From: 2010.06.25/outbox.cif.g09.slc.cpg/sg2_157_cif.got.tgz:313932.got - 2010.06.27 13:26:56.
