data_PCOD8019211
_publ_section_title
;
Structure prediction by ZEFSAII (Michael W. Deem and Ramdas Pophale) SiO2 
 PCOD8019211
Probable space group: P -1
;
_chemical_formula_sum "Si O2"
_cell_formula_units_Z 14
_cell_length_a 11.981641
_cell_length_b 9.072086
_cell_length_c 14.973040
_cell_angle_alpha 30.151691
_cell_angle_beta 57.958778
_cell_angle_gamma 56.418214
_cell_volume 675.730431
_symmetry_space_group_name_H-M "P -1"
_symmetry_group_IT_number 2
_symmetry_cell_setting 'triclinic'
loop_
_space_group_symop_operation_xyz
x,y,z
-x,-y,-z
loop_
_atom_site_type_symbol
_atom_site_label
_atom_site_fract_x
_atom_site_fract_y
_atom_site_fract_z
Si Si1 0.548256 0.694281 0.252497
Si Si2 0.933695 0.719393 0.836321
Si Si3 0.089470 0.664426 0.126160
Si Si4 0.648042 0.717607 0.006827
Si Si5 0.668039 0.617505 0.429507
Si Si6 0.634615 0.294396 0.086699
Si Si7 0.974392 0.369755 0.483052
O O1 0.642773 0.558524 0.366431
O O2 0.419124 0.543491 0.383408
O O3 0.487101 0.054611 0.091690
O O4 0.639912 0.630210 0.159392
O O5 0.953829 0.525202 0.838341
O O6 0.777395 0.855815 0.857091
O O7 0.002281 0.007159 0.654886
O O8 0.000000 0.500000 0.000000
O O9 0.080358 0.472817 0.318752
O O10 0.243135 0.698151 0.036625
O O11 0.000000 0.000000 0.000000
O O12 0.670082 0.403975 0.110871
O O13 0.824599 0.516559 0.436535
O O14 0.612067 0.967157 0.285641
O O15 0.500000 0.500000 0.000000
O O16 0.000000 0.500000 0.500000
#
# Coordination Sequence:
#
# PCOD8019211 Si02
#       7
#     2   2   2   2   2   2   2
#     4  10  22  41  68  95 126 172 217 269 335 399
#     4  11  25  44  66  96 135 174 228 283 332 404
#     4  11  24  44  70  98 133 180 224 275 346 401
#     4  10  22  41  65  97 126 167 220 267 335 396
#     4  11  23  42  68  93 134 170 223 277 331 396
#     4  11  23  42  66  97 133 170 217 276 331 400
#     4  12  26  44  66 100 135 180 231 278 339 407
#
# _framework density 20.718319999999999
#
# number of rings (size 3 to 8) (size 9 to 14) (size 15 to 20)
#    0.000    1.143    4.286    1.286    4.000    2.857 
#    2.571    0.000    0.000    0.000    0.000    0.000 
#    0.000    0.000    0.000    0.000    0.000    0.000 
#
# Total GULP energy -173595.945997 kJ/mol
# GULP energy per Si atom -12399.710428 kJ/mol
# Density = 2.067116 g / cm^3
# Si number density = 20.718320 Si / 1000 Ang^3
#
#
#
# Elastic Constant Matrix: (Units=GPa)
#
#
# Indices 1 2 3 4 5 6 
#
# 1 92.4388 42.7654 23.1171 1.5562 5.2425 -2.2616
# 2 42.7654 136.0555 66.2499 10.5067 -7.3471 4.8547
# 3 23.1171 66.2499 129.7096 -1.6472 -5.0055 10.6316
# 4 1.5562 10.5067 -1.6472 44.2768 0.3340 3.8013
# 5 5.2425 -7.3471 -5.0055 0.3340 34.0312 -2.9450
# 6 -2.2616 4.8547 10.6316 3.8013 -2.9450 32.9288
#
#
#
# Elastic Compliance Matrix: (Units=1/GPa)
#
#
# Indices 1 2 3 4 5 6 
#
# 1 0.013017 -0.004113 -0.000433 0.000409 -0.002845 0.001339
# 2 -0.004113 0.011453 -0.005076 -0.002798 0.002405 0.000206
# 3 -0.000433 -0.005076 0.010652 0.001864 0.000267 -0.002912
# 4 0.000409 -0.002798 0.001864 0.023565 -0.000880 -0.002960
# 5 -0.002845 0.002405 0.000267 -0.000880 0.030581 0.002200
# 6 0.001339 0.000206 -0.002912 -0.002960 0.002200 0.031909
#
#
# Mechanical properties :
#
#
# Convention : Reuss Voigt Hill
#
# Bulk Modulus (GPa) = 62.98794 69.16320 66.07557
# Shear Modulus (GPa) = 34.31369 37.31879 35.81624
#
# Velocity S-wave (km/s) = 4.07406 4.24871 4.16230
# Velocity P-wave (km/s) = 7.25249 7.58445 7.42033
#
# Compressibility (1/GPa) = 0.01587605
#
# Stress axis : x y z
#
# Youngs Moduli (GPa) = 76.82527 87.31088 93.87769
#
# Poissons Ratio (x) = 0.35915 0.04067
# Poissons Ratio (y) = 0.31602 0.47656
# Poissons Ratio (z) = 0.03328 0.44322
#
# Static dielectric constant tensor:
#      x y z
#    x 3.774650 0.023410 0.018250 
#    y 0.023410 3.948730 0.033220 
#    z 0.018250 0.033220 3.256210 
# 
# 
# High freq. dielectric constant tensor:
#      x y z
#    x 1.811280 0.000690 -0.005340 
#    y 0.000690 1.815840 -0.002210 
#    z -0.005340 -0.002210 1.823010 
# 
# From -- ./inp_files/159281.got.cif
#   From: 2010.06.25/outbox.cif.g09.slc.cpg/sg2_80_cif.got.tgz:159281.got - 2010.06.27 13:26:56.
