data_PCOD8019253
_publ_section_title
;
Structure prediction by ZEFSAII (Michael W. Deem and Ramdas Pophale) SiO2 
 PCOD8019253
Probable space group: P -1
;
_chemical_formula_sum "Si O2"
_cell_formula_units_Z 16
_cell_length_a 9.589193
_cell_length_b 22.118703
_cell_length_c 19.060985
_cell_angle_alpha 168.427198
_cell_angle_beta 109.908177
_cell_angle_gamma 69.354664
_cell_volume 758.703403
_symmetry_space_group_name_H-M "P -1"
_symmetry_group_IT_number 2
_symmetry_cell_setting 'triclinic'
loop_
_space_group_symop_operation_xyz
x,y,z
-x,-y,-z
loop_
_atom_site_type_symbol
_atom_site_label
_atom_site_fract_x
_atom_site_fract_y
_atom_site_fract_z
Si Si1 0.843837 0.928204 0.613791
Si Si2 0.637179 0.818557 0.118370
Si Si3 0.039164 0.401278 0.114039
Si Si4 0.273661 0.077849 0.141444
Si Si5 0.579846 0.144925 0.335697
Si Si6 0.471655 0.155580 0.598128
Si Si7 0.856136 0.234933 0.106545
Si Si8 0.836629 0.073594 0.194188
O O1 0.698362 0.871044 0.481366
O O2 0.946461 0.611990 0.280617
O O3 0.791218 0.066296 0.837191
O O4 0.936249 0.160578 0.852598
O O5 0.574731 0.006227 0.253923
O O6 0.588040 0.999298 0.384936
O O7 0.816712 0.768740 0.092648
O O8 0.562863 0.505829 0.749498
O O9 0.089573 0.611421 0.425043
O O10 0.446628 0.040771 0.148106
O O11 0.210853 0.422967 0.513784
O O12 0.180532 0.932031 0.018821
O O13 0.257136 0.902428 0.866206
O O14 0.732597 0.021208 0.183244
O O15 0.500000 0.000000 0.500000
O O16 0.500000 0.500000 0.000000
O O17 0.036274 0.209410 0.105079
#
# Coordination Sequence:
#
# PCOD8019253 Si02
#       8
#     2   2   2   2   2   2   2   2
#     4  11  22  43  65  91 122 161 208 244 298 375
#     4  11  23  44  65  91 123 161 207 244 299 375
#     4  10  22  41  66  88 119 168 208 249 293 355
#     4  12  23  37  56  89 125 164 210 262 306 347
#     4  11  23  40  63  87 122 170 207 250 302 358
#     4  12  26  44  68  99 128 154 188 249 312 366
#     4  11  23  38  60  85 120 167 206 252 306 358
#     4  10  23  39  59  90 124 161 213 262 301 342
#
# _framework density 21.088609999999999
#
# number of rings (size 3 to 8) (size 9 to 14) (size 15 to 20)
#    0.000    1.000    0.000    8.625    0.000    5.000 
#    0.000    8.125    0.000    0.000    0.000    0.000 
#    0.000    0.000    0.000    0.000    0.000    0.000 
#
# Total GULP energy -198496.049905 kJ/mol
# GULP energy per Si atom -12406.003119 kJ/mol
# Density = 2.104061 g / cm^3
# Si number density = 21.088610 Si / 1000 Ang^3
#
#
#
# Elastic Constant Matrix: (Units=GPa)
#
#
# Indices 1 2 3 4 5 6 
#
# 1 111.4778 65.5671 46.6122 -8.3701 -2.6685 4.2877
# 2 65.5671 169.5693 75.7713 1.9818 12.2314 0.2562
# 3 46.6122 75.7713 102.3163 22.6189 -2.4561 -1.5507
# 4 -8.3701 1.9818 22.6189 47.4694 0.0042 4.8375
# 5 -2.6685 12.2314 -2.4561 0.0042 24.4546 4.9478
# 6 4.2877 0.2562 -1.5507 4.8375 4.9478 42.2972
#
#
#
# Elastic Compliance Matrix: (Units=1/GPa)
#
#
# Indices 1 2 3 4 5 6 
#
# 1 0.013479 -0.003403 -0.004687 0.005003 0.003200 -0.002464
# 2 -0.003403 0.010859 -0.007151 0.002301 -0.006628 0.000529
# 3 -0.004687 -0.007151 0.019563 -0.010037 0.004660 0.001839
# 4 0.005003 0.002301 -0.010037 0.027031 -0.000832 -0.003883
# 5 0.003200 -0.006628 0.004660 -0.000832 0.046120 -0.005413
# 6 -0.002464 0.000529 0.001839 -0.003883 -0.005413 0.025034
#
#
# Mechanical properties :
#
#
# Convention : Reuss Voigt Hill
#
# Bulk Modulus (GPa) = 74.52114 84.36272 79.44193
# Shear Modulus (GPa) = 28.24219 35.87177 32.05698
#
# Velocity S-wave (km/s) = 3.66350 4.12880 3.90309
# Velocity P-wave (km/s) = 7.30129 7.92591 7.62000
#
# Compressibility (1/GPa) = 0.01341901
#
# Stress axis : x y z
#
# Youngs Moduli (GPa) = 74.19164 92.08944 51.11617
#
# Poissons Ratio (x) = 0.31338 0.23957
# Poissons Ratio (y) = 0.25248 0.36554
# Poissons Ratio (z) = 0.34772 0.65854
#
# Static dielectric constant tensor:
#      x y z
#    x 3.955390 -0.080900 -0.002510 
#    y -0.080900 3.918890 0.029490 
#    z -0.002510 0.029490 3.828630 
# 
# 
# High freq. dielectric constant tensor:
#      x y z
#    x 1.841510 -0.004420 0.002320 
#    y -0.004420 1.831630 0.013340 
#    z 0.002320 0.013340 1.827910 
# 
# From -- ./inp_files/288470.got.cif
#   From: 2010.06.25/outbox.cif.g09.slc.cpg/sg2_145_cif.got.tgz:288470.got - 2010.06.27 13:26:56.
