data_PCOD8019620
_publ_section_title
;
Structure prediction by ZEFSAII (Michael W. Deem and Ramdas Pophale) SiO2 
 PCOD8019620
Probable space group: P -1
;
_chemical_formula_sum "Si O2"
_cell_formula_units_Z 16
_cell_length_a 14.945750
_cell_length_b 13.041079
_cell_length_c 8.895874
_cell_angle_alpha 72.548840
_cell_angle_beta 119.072540
_cell_angle_gamma 55.567671
_cell_volume 754.673002
_symmetry_space_group_name_H-M "P -1"
_symmetry_group_IT_number 2
_symmetry_cell_setting 'triclinic'
loop_
_space_group_symop_operation_xyz
x,y,z
-x,-y,-z
loop_
_atom_site_type_symbol
_atom_site_label
_atom_site_fract_x
_atom_site_fract_y
_atom_site_fract_z
Si Si1 0.615820 0.490229 0.181519
Si Si2 0.676546 0.639726 0.996339
Si Si3 0.263073 0.181351 0.009323
Si Si4 0.122078 0.213041 0.577663
Si Si5 0.568590 0.338498 0.721642
Si Si6 0.046030 0.047875 0.638857
Si Si7 0.562542 0.749957 0.518950
Si Si8 0.104746 0.420719 0.276763
O O1 0.557305 0.553396 0.277720
O O2 0.500000 0.500000 0.000000
O O3 0.554768 0.656382 0.974935
O O4 0.847689 0.259073 0.468253
O O5 0.613593 0.817730 0.907606
O O6 0.668715 0.627246 0.816187
O O7 0.895168 0.435420 0.326538
O O8 0.390834 0.990199 0.305820
O O9 0.247861 0.136520 0.857179
O O10 0.048249 0.392828 0.810957
O O11 0.184629 0.232355 0.479813
O O12 0.149274 0.060323 0.639561
O O13 0.500000 0.500000 0.500000
O O14 0.534178 0.267855 0.620383
O O15 0.800399 0.139382 0.034738
O O16 0.000000 0.000000 0.500000
O O17 0.714859 0.659919 0.560337
O O18 0.000000 0.500000 0.000000
#
# Coordination Sequence:
#
# PCOD8019620 Si02
#       8
#     2   2   2   2   2   2   2   2
#     4  11  24  46  73  98 129 180 230 274 341 402
#     4  10  22  41  69  92 138 180 212 273 333 398
#     4  11  23  43  64  98 137 171 223 272 330 397
#     4  10  22  42  67  97 135 174 219 275 329 398
#     4  12  28  46  69 102 136 174 228 287 338 402
#     4  11  24  47  72  97 133 178 230 278 337 404
#     4  12  25  42  65 101 136 174 224 274 333 400
#     4  11  23  40  66  98 136 180 217 265 339 392
#
# _framework density 21.201233999999999
#
# number of rings (size 3 to 8) (size 9 to 14) (size 15 to 20)
#    0.000    1.000    5.000    2.625    7.000    2.000 
#    0.000    1.250    0.000    0.000    0.000    0.000 
#    0.000    0.000    0.000    0.000    0.000    0.000 
#
# Total GULP energy -198372.479251 kJ/mol
# GULP energy per Si atom -12398.279953 kJ/mol
# Density = 2.115298 g / cm^3
# Si number density = 21.201234 Si / 1000 Ang^3
#
#
#
# Elastic Constant Matrix: (Units=GPa)
#
#
# Indices 1 2 3 4 5 6 
#
# 1 142.6119 55.4010 54.0484 0.5949 -19.7673 19.4009
# 2 55.4010 109.6434 37.3594 8.1941 -5.9170 27.1720
# 3 54.0484 37.3594 113.5550 -5.1730 -5.5362 10.6004
# 4 0.5949 8.1941 -5.1730 34.8562 4.0334 3.5655
# 5 -19.7673 -5.9170 -5.5362 4.0334 38.7497 0.8567
# 6 19.4009 27.1720 10.6004 3.5655 0.8567 43.7800
#
#
#
# Elastic Compliance Matrix: (Units=1/GPa)
#
#
# Indices 1 2 3 4 5 6 
#
# 1 0.010527 -0.003434 -0.003513 -0.000225 0.004406 -0.001751
# 2 -0.003434 0.013362 -0.002314 -0.002859 0.000388 -0.005986
# 3 -0.003513 -0.002314 0.011302 0.002363 -0.000778 0.000079
# 4 -0.000225 -0.002859 0.002363 0.030214 -0.003334 -0.001094
# 5 0.004406 0.000388 -0.000778 -0.003334 0.028400 -0.002289
# 6 -0.001751 -0.005986 0.000079 -0.001094 -0.002289 0.027447
#
#
# Mechanical properties :
#
#
# Convention : Reuss Voigt Hill
#
# Bulk Modulus (GPa) = 59.98948 73.26976 66.62962
# Shear Modulus (GPa) = 34.40435 38.07726 36.24081
#
# Velocity S-wave (km/s) = 4.03271 4.24251 4.13894
# Velocity P-wave (km/s) = 7.07392 7.65720 7.37133
#
# Compressibility (1/GPa) = 0.01666959
#
# Stress axis : x y z
#
# Youngs Moduli (GPa) = 94.99225 74.83890 88.47986
#
# Poissons Ratio (x) = 0.25697 0.31082
# Poissons Ratio (y) = 0.32617 0.20477
# Poissons Ratio (z) = 0.33369 0.17320
#
# Static dielectric constant tensor:
#      x y z
#    x 4.204950 0.096570 0.144630 
#    y 0.096570 3.894940 -0.032620 
#    z 0.144630 -0.032620 3.641390 
# 
# 
# High freq. dielectric constant tensor:
#      x y z
#    x 1.833180 0.021100 -0.002450 
#    y 0.021100 1.826340 0.002230 
#    z -0.002450 0.002230 1.846560 
# 
# From -- ./inp_files/242147.got.cif
#   From: 2010.06.25/outbox.cif.g09.slc.cpg/sg2_122_cif.got.tgz:242147.got - 2010.06.27 13:26:56.
