data_PCOD8019466
_publ_section_title
;
Structure prediction by ZEFSAII (Michael W. Deem and Ramdas Pophale) SiO2 
 PCOD8019466
Probable space group: P -1
;
_chemical_formula_sum "Si O2"
_cell_formula_units_Z 16
_cell_length_a 9.670338
_cell_length_b 9.792095
_cell_length_c 12.206937
_cell_angle_alpha 100.841455
_cell_angle_beta 65.064802
_cell_angle_gamma 134.797410
_cell_volume 733.036506
_symmetry_space_group_name_H-M "P -1"
_symmetry_group_IT_number 2
_symmetry_cell_setting 'triclinic'
loop_
_space_group_symop_operation_xyz
x,y,z
-x,-y,-z
loop_
_atom_site_type_symbol
_atom_site_label
_atom_site_fract_x
_atom_site_fract_y
_atom_site_fract_z
Si Si1 0.907082 0.092204 0.536182
Si Si2 0.551282 0.951306 0.797519
Si Si3 0.898138 0.101568 0.867066
Si Si4 0.433101 0.537159 0.257463
Si Si5 0.999539 0.138190 0.272305
Si Si6 0.299789 0.547597 0.768708
Si Si7 0.671273 0.495995 0.479321
Si Si8 0.289888 0.049239 0.861956
O O1 0.872951 0.098974 0.419203
O O2 0.083841 0.299712 0.565468
O O3 0.685692 0.975558 0.654518
O O4 0.000000 0.000000 0.500000
O O5 0.340452 0.717974 0.845462
O O6 0.683527 0.029732 0.877552
O O7 0.482564 0.064544 0.815602
O O8 0.072887 0.334927 0.840113
O O9 0.967692 0.008450 0.763136
O O10 0.858443 0.031944 0.994565
O O11 0.517003 0.441673 0.252857
O O12 0.389935 0.599965 0.393367
O O13 0.605099 0.731880 0.158708
O O14 0.221442 0.367794 0.231661
O O15 0.858516 0.095348 0.210235
O O16 0.322832 0.605373 0.640555
O O17 0.500000 0.500000 0.500000
#
# Coordination Sequence:
#
# PCOD8019466 Si02
#       8
#     2   2   2   2   2   2   2   2
#     4  11  19  39  69  96 131 166 225 276 317 400
#     4  12  26  44  67 103 133 177 221 278 336 387
#     4  12  24  46  70  95 134 181 232 264 320 412
#     4  10  22  41  67  99 131 172 221 277 328 392
#     4  11  23  43  69 100 128 175 224 274 328 391
#     4  11  21  39  71  96 125 179 230 269 320 395
#     4   9  18  34  63  99 125 160 221 273 319 382
#     4  12  29  43  64 101 143 175 215 279 340 387
#
# _framework density 21.827013999999998
#
# number of rings (size 3 to 8) (size 9 to 14) (size 15 to 20)
#    0.000    1.000    5.000    2.250    3.500    3.500 
#    0.000    1.250    0.000    0.000    0.000    0.000 
#    0.000    0.000    0.000    0.000    0.000    0.000 
#
# Total GULP energy -198323.827156 kJ/mol
# GULP energy per Si atom -12395.239197 kJ/mol
# Density = 2.177734 g / cm^3
# Si number density = 21.827014 Si / 1000 Ang^3
#
#
#
# Elastic Constant Matrix: (Units=GPa)
#
#
# Indices 1 2 3 4 5 6 
#
# 1 68.0107 11.0576 9.8627 12.1784 18.7104 11.5189
# 2 11.0576 100.6469 27.1415 -5.4669 11.6916 26.9209
# 3 9.8627 27.1415 79.8983 -6.6699 17.2637 14.1391
# 4 12.1784 -5.4669 -6.6699 22.9422 7.2385 2.8385
# 5 18.7104 11.6916 17.2637 7.2385 33.6342 9.6163
# 6 11.5189 26.9209 14.1391 2.8385 9.6163 32.4814
#
#
#
# Elastic Compliance Matrix: (Units=1/GPa)
#
#
# Indices 1 2 3 4 5 6 
#
# 1 0.018811 -0.000650 -0.000596 -0.007595 -0.007438 -0.003007
# 2 -0.000650 0.013726 -0.002064 0.004738 -0.001444 -0.010234
# 3 -0.000596 -0.002064 0.016233 0.007464 -0.007901 -0.003457
# 4 -0.007595 0.004738 0.007464 0.055265 -0.011454 -0.005921
# 5 -0.007438 -0.001444 -0.007901 -0.011454 0.042089 -0.004186
# 6 -0.003007 -0.010234 -0.003457 -0.005921 -0.004186 0.043597
#
#
# Mechanical properties :
#
#
# Convention : Reuss Voigt Hill
#
# Bulk Modulus (GPa) = 23.72477 38.29773 31.01125
# Shear Modulus (GPa) = 23.76533 31.17784 27.47159
#
# Velocity S-wave (km/s) = 3.30328 3.78353 3.55153
# Velocity P-wave (km/s) = 5.04400 6.05565 5.57283
#
# Compressibility (1/GPa) = 0.04215004
#
# Stress axis : x y z
#
# Youngs Moduli (GPa) = 53.15943 72.85346 61.60411
#
# Poissons Ratio (x) = 0.04737 0.03671
# Poissons Ratio (y) = 0.03456 0.12715
# Poissons Ratio (z) = 0.03168 0.15037
#
# Static dielectric constant tensor:
#      x y z
#    x 3.696470 0.305590 0.202020 
#    y 0.305590 3.893570 0.123710 
#    z 0.202020 0.123710 4.226900 
# 
# 
# High freq. dielectric constant tensor:
#      x y z
#    x 1.834570 0.030760 0.013290 
#    y 0.030760 1.858840 0.003150 
#    z 0.013290 0.003150 1.864680 
# 
# From -- ./inp_files/382281.got.cif
#   From: 2010.06.25/outbox.cif.g09.slc.cpg/sg2_192_cif.got.tgz:382281.got - 2010.06.27 13:26:56.
