data_PCOD8019907
_publ_section_title
;
Structure prediction by ZEFSAII (Michael W. Deem and Ramdas Pophale) SiO2 
 PCOD8019907
Probable space group: P -1
;
_chemical_formula_sum "Si O2"
_cell_formula_units_Z 16
_cell_length_a 14.607781
_cell_length_b 6.827640
_cell_length_c 14.898474
_cell_angle_alpha 114.823698
_cell_angle_beta 136.609619
_cell_angle_gamma 94.643579
_cell_volume 727.518815
_symmetry_space_group_name_H-M "P -1"
_symmetry_group_IT_number 2
_symmetry_cell_setting 'triclinic'
loop_
_space_group_symop_operation_xyz
x,y,z
-x,-y,-z
loop_
_atom_site_type_symbol
_atom_site_label
_atom_site_fract_x
_atom_site_fract_y
_atom_site_fract_z
Si Si1 0.856170 0.585095 0.253010
Si Si2 0.721814 0.506571 0.653017
Si Si3 0.357155 0.150259 0.250479
Si Si4 0.194977 0.159470 0.565207
Si Si5 0.747876 0.002258 0.050662
Si Si6 0.555087 0.506260 0.940977
Si Si7 0.823343 0.230260 0.792494
Si Si8 0.086304 0.132530 0.294982
O O1 0.824506 0.684709 0.340467
O O2 0.837152 0.312021 0.207641
O O3 0.715395 0.504244 0.060846
O O4 0.047066 0.828654 0.401131
O O5 0.554541 0.381042 0.452189
O O6 0.742688 0.723271 0.781120
O O7 0.722875 0.284881 0.664044
O O8 0.870242 0.654466 0.712513
O O9 0.288448 0.904883 0.224045
O O10 0.336612 0.044885 0.115041
O O11 0.384098 0.240265 0.720059
O O12 0.179994 0.273948 0.483088
O O13 0.885899 0.950028 0.132287
O O14 0.609517 0.781631 0.981713
O O15 0.500000 0.500000 0.000000
O O16 0.852366 0.039312 0.724788
O O17 0.000000 0.500000 0.000000
#
# Coordination Sequence:
#
# PCOD8019907 Si02
#       8
#     2   2   2   2   2   2   2   2
#     4  10  24  44  65  95 130 174 219 271 331 383
#     4  10  22  42  62  93 131 166 212 267 324 384
#     4  10  23  40  63  94 128 166 216 267 316 389
#     4  10  22  45  65  92 135 169 217 277 323 390
#     4  12  24  41  68  96 130 173 220 270 326 392
#     4  10  23  45  65  95 131 169 220 276 323 386
#     4  11  23  39  63  91 126 168 208 262 324 382
#     4  11  24  39  63  95 127 166 218 263 320 393
#
# _framework density 21.992560000000001
#
# number of rings (size 3 to 8) (size 9 to 14) (size 15 to 20)
#    0.000    1.500    1.250    2.625    3.500    6.500 
#    2.250    0.000    0.000    0.000    0.000    0.000 
#    0.000    0.000    0.000    0.000    0.000    0.000 
#
# Total GULP energy -198364.621685 kJ/mol
# GULP energy per Si atom -12397.788855 kJ/mol
# Density = 2.194250 g / cm^3
# Si number density = 21.992560 Si / 1000 Ang^3
#
#
#
# Elastic Constant Matrix: (Units=GPa)
#
#
# Indices 1 2 3 4 5 6 
#
# 1 81.3245 53.0132 36.3247 2.3592 -0.4349 26.7672
# 2 53.0132 133.6392 36.3226 -4.2973 -1.0701 24.2789
# 3 36.3247 36.3226 120.0538 -1.7928 9.0729 11.8147
# 4 2.3592 -4.2973 -1.7928 35.6436 7.5392 1.8563
# 5 -0.4349 -1.0701 9.0729 7.5392 36.7699 -1.4592
# 6 26.7672 24.2789 11.8147 1.8563 -1.4592 28.7474
#
#
#
# Elastic Compliance Matrix: (Units=1/GPa)
#
#
# Indices 1 2 3 4 5 6 
#
# 1 0.022239 -0.005179 -0.003811 -0.001701 0.000821 -0.014615
# 2 -0.005179 0.010613 -0.001254 0.001743 0.000051 -0.003736
# 3 -0.003811 -0.001254 0.010067 0.001186 -0.002799 0.000252
# 4 -0.001701 0.001743 0.001186 0.029952 -0.006508 -0.002641
# 5 0.000821 0.000051 -0.002799 -0.006508 0.029322 0.002251
# 6 -0.014615 -0.003736 0.000252 -0.002641 0.002251 0.051731
#
#
# Mechanical properties :
#
#
# Convention : Reuss Voigt Hill
#
# Bulk Modulus (GPa) = 44.58272 65.14871 54.86572
# Shear Modulus (GPa) = 27.48935 34.18932 30.83933
#
# Velocity S-wave (km/s) = 3.53928 3.94710 3.74874
# Velocity P-wave (km/s) = 6.08422 7.10353 6.61354
#
# Compressibility (1/GPa) = 0.02243021
#
# Stress axis : x y z
#
# Youngs Moduli (GPa) = 44.96617 94.22092 99.33813
#
# Poissons Ratio (x) = 0.48797 0.37858
# Poissons Ratio (y) = 0.23288 0.12460
# Poissons Ratio (z) = 0.17137 0.11818
#
# Static dielectric constant tensor:
#      x y z
#    x 3.490200 0.257310 0.134020 
#    y 0.257310 7.230080 1.001120 
#    z 0.134020 1.001120 4.655240 
# 
# 
# High freq. dielectric constant tensor:
#      x y z
#    x 1.866050 0.021280 0.006590 
#    y 0.021280 1.855690 -0.007220 
#    z 0.006590 -0.007220 1.876280 
# 
# From -- ./inp_files/525953.got.cif
#   From: 2010.06.25/outbox.cif.g09.slc.cpg/sg2_263_cif.got.tgz:525953.got - 2010.06.27 13:26:56.
