data_PCOD8019139
_publ_section_title
;
Structure prediction by ZEFSAII (Michael W. Deem and Ramdas Pophale) SiO2 
 PCOD8019139
Probable space group: P -1
;
_chemical_formula_sum "Si O2"
_cell_formula_units_Z 16
_cell_length_a 11.804851
_cell_length_b 14.634021
_cell_length_c 9.186648
_cell_angle_alpha 97.091020
_cell_angle_beta 38.012057
_cell_angle_gamma 118.728477
_cell_volume 755.241920
_symmetry_space_group_name_H-M "P -1"
_symmetry_group_IT_number 2
_symmetry_cell_setting 'triclinic'
loop_
_space_group_symop_operation_xyz
x,y,z
-x,-y,-z
loop_
_atom_site_type_symbol
_atom_site_label
_atom_site_fract_x
_atom_site_fract_y
_atom_site_fract_z
Si Si1 0.077958 0.172175 0.186708
Si Si2 0.816918 0.599427 0.331436
Si Si3 0.462294 0.884546 0.955521
Si Si4 0.350499 0.757337 0.754820
Si Si5 0.577739 0.661180 0.375986
Si Si6 0.602118 0.103083 0.527535
Si Si7 0.039806 0.233387 0.539007
Si Si8 0.193366 0.019975 0.148168
O O1 0.035293 0.050683 0.243064
O O2 0.832976 0.136976 0.377702
O O3 0.161432 0.249006 0.265393
O O4 0.280781 0.243791 0.876300
O O5 0.746059 0.637196 0.270219
O O6 0.653853 0.458571 0.482627
O O7 0.780994 0.650620 0.522286
O O8 0.086434 0.651722 0.053690
O O9 0.475483 0.868372 0.764279
O O10 0.674963 0.896366 0.823432
O O11 0.194953 0.777423 0.254481
O O12 0.500000 0.000000 0.000000
O O13 0.500678 0.710199 0.587294
O O14 0.336883 0.788525 0.608969
O O15 0.500000 0.000000 0.500000
O O16 0.404496 0.059247 0.836677
O O17 0.965783 0.118717 0.683181
#
# Coordination Sequence:
#
# PCOD8019139 Si02
#       8
#     2   2   2   2   2   2   2   2
#     4  12  25  40  63  96 131 164 211 262 315 381
#     4  10  23  44  66  90 127 167 219 266 313 374
#     4   9  19  38  64  89 125 168 203 253 310 378
#     4  11  22  41  68  92 126 168 216 255 322 378
#     4  11  24  42  65  95 125 167 216 270 317 366
#     4  12  24  39  62  92 134 168 201 258 318 380
#     4  10  22  41  65  89 126 173 209 255 318 375
#     4  11  23  41  61  95 131 164 210 252 313 391
#
# _framework density 21.185264
#
# number of rings (size 3 to 8) (size 9 to 14) (size 15 to 20)
#    0.000    1.250    3.750    3.000    3.500    2.000 
#    0.000    0.000    0.000    2.250    0.000    0.000 
#    0.000    0.000    0.000    0.000    0.000    0.000 
#
# Total GULP energy -198294.365772 kJ/mol
# GULP energy per Si atom -12393.397861 kJ/mol
# Density = 2.113705 g / cm^3
# Si number density = 21.185264 Si / 1000 Ang^3
#
#
#
# Elastic Constant Matrix: (Units=GPa)
#
#
# Indices 1 2 3 4 5 6 
#
# 1 72.2101 25.2093 14.6190 13.0273 9.9910 4.8949
# 2 25.2093 96.8879 29.9682 18.3900 7.7513 21.7357
# 3 14.6190 29.9682 90.1866 27.0525 12.3554 13.1580
# 4 13.0273 18.3900 27.0525 23.8975 2.2052 -0.0827
# 5 9.9910 7.7513 12.3554 2.2052 21.3035 8.4535
# 6 4.8949 21.7357 13.1580 -0.0827 8.4535 35.4109
#
#
#
# Elastic Compliance Matrix: (Units=1/GPa)
#
#
# Indices 1 2 3 4 5 6 
#
# 1 0.016967 -0.002907 0.001547 -0.008099 -0.007180 0.000559
# 2 -0.002907 0.014934 -0.000457 -0.009481 0.000658 -0.008774
# 3 0.001547 -0.000457 0.019280 -0.021657 -0.007360 -0.005391
# 4 -0.008099 -0.009481 -0.021657 0.077532 0.006367 0.013648
# 5 -0.007180 0.000658 -0.007360 0.006367 0.057832 -0.010467
# 6 0.000559 -0.008774 -0.005391 0.013648 -0.010467 0.038082
#
#
# Mechanical properties :
#
#
# Convention : Reuss Voigt Hill
#
# Bulk Modulus (GPa) = 21.03159 44.31975 32.67567
# Shear Modulus (GPa) = 20.48244 28.75491 24.61868
#
# Velocity S-wave (km/s) = 3.11275 3.68816 3.41261
# Velocity P-wave (km/s) = 4.78205 6.25318 5.56643
#
# Compressibility (1/GPa) = 0.04754751
#
# Stress axis : x y z
#
# Youngs Moduli (GPa) = 58.93868 66.95931 51.86631
#
# Poissons Ratio (x) = 0.19464 -0.08025
# Poissons Ratio (y) = 0.17133 0.02372
# Poissons Ratio (z) = -0.09119 0.03062
#
# Static dielectric constant tensor:
#      x y z
#    x 5.439460 0.351770 0.565420 
#    y 0.351770 3.789270 0.287270 
#    z 0.565420 0.287270 4.281770 
# 
# 
# High freq. dielectric constant tensor:
#      x y z
#    x 1.837660 0.011300 -0.004740 
#    y 0.011300 1.809080 0.020150 
#    z -0.004740 0.020150 1.836210 
# 
# From -- ./inp_files/273300.got.cif
#   From: 2010.06.25/outbox.cif.g09.slc.cpg/sg2_137_cif.got.tgz:273300.got - 2010.06.27 13:26:56.
