data_PCOD8019888
_publ_section_title
;
Structure prediction by ZEFSAII (Michael W. Deem and Ramdas Pophale) SiO2 
 PCOD8019888
Probable space group: P -1
;
_chemical_formula_sum "Si O2"
_cell_formula_units_Z 14
_cell_length_a 8.651886
_cell_length_b 10.821218
_cell_length_c 10.709694
_cell_angle_alpha 136.738729
_cell_angle_beta 75.288441
_cell_angle_gamma 81.784997
_cell_volume 577.664295
_symmetry_space_group_name_H-M "P -1"
_symmetry_group_IT_number 2
_symmetry_cell_setting 'triclinic'
loop_
_space_group_symop_operation_xyz
x,y,z
-x,-y,-z
loop_
_atom_site_type_symbol
_atom_site_label
_atom_site_fract_x
_atom_site_fract_y
_atom_site_fract_z
Si Si1 0.073875 0.909476 0.215265
Si Si2 0.389281 0.292513 0.614888
Si Si3 0.253778 0.300738 0.234780
Si Si4 0.965084 0.364067 0.153092
Si Si5 0.390472 0.002699 0.209995
Si Si6 0.268423 0.658535 0.388952
Si Si7 0.193701 0.515256 0.059864
O O1 0.080938 0.743009 0.190041
O O2 0.929478 0.143054 0.453510
O O3 0.010138 0.857838 0.058209
O O4 0.278132 0.879545 0.144213
O O5 0.405796 0.078456 0.402102
O O6 0.588655 0.270556 0.548262
O O7 0.253254 0.477913 0.687186
O O8 0.322904 0.336963 0.804504
O O9 0.055725 0.342919 0.254343
O O10 0.280622 0.207662 0.297841
O O11 0.255850 0.517247 0.398136
O O12 0.407024 0.141055 0.990116
O O13 0.047063 0.457658 0.103076
O O14 0.322310 0.521009 0.149508
#
# Coordination Sequence:
#
# PCOD8019888 Si02
#       7
#     2   2   2   2   2   2   2
#     4  11  22  39  63  93 125 159 201 246 304 363
#     4  11  22  38  61  92 122 159 201 245 302 357
#     4  10  23  44  63  88 122 158 206 254 302 356
#     4  10  22  42  65  90 124 160 201 251 301 359
#     4  11  24  41  64  90 121 160 204 254 302 359
#     4  11  23  40  64  91 124 163 201 248 301 360
#     4  10  22  42  62  90 125 160 201 252 300 358
#
# _framework density 24.235530000000001
#
# number of rings (size 3 to 8) (size 9 to 14) (size 15 to 20)
#    0.000    1.429    0.000    6.857    0.000    5.714 
#    0.000    9.286    0.000    0.000    0.000    0.000 
#    0.000    0.000    0.000    0.000    0.000    0.000 
#
# Total GULP energy -173614.298771 kJ/mol
# GULP energy per Si atom -12401.021341 kJ/mol
# Density = 2.418037 g / cm^3
# Si number density = 24.235530 Si / 1000 Ang^3
#
#
#
# Elastic Constant Matrix: (Units=GPa)
#
#
# Indices 1 2 3 4 5 6 
#
# 1 130.8329 9.5713 8.7812 3.9998 16.4582 9.0197
# 2 9.5713 71.3477 9.3311 13.3780 10.4179 3.2972
# 3 8.7812 9.3311 58.7531 1.7033 16.1131 10.9532
# 4 3.9998 13.3780 1.7033 23.5611 1.2160 1.8012
# 5 16.4582 10.4179 16.1131 1.2160 44.2033 12.7601
# 6 9.0197 3.2972 10.9532 1.8012 12.7601 26.4743
#
#
#
# Elastic Compliance Matrix: (Units=1/GPa)
#
#
# Indices 1 2 3 4 5 6 
#
# 1 0.008118 -0.000487 -0.000188 -0.000856 -0.002409 -0.001408
# 2 -0.000487 0.016393 -0.001581 -0.009018 -0.003116 0.000894
# 3 -0.000188 -0.001581 0.019727 0.000185 -0.005191 -0.005411
# 4 -0.000856 -0.009018 0.000185 0.047814 0.001875 -0.002819
# 5 -0.002409 -0.003116 -0.005191 0.001875 0.029229 -0.010859
# 6 -0.001408 0.000894 -0.005411 -0.002819 -0.010859 0.045805
#
#
# Mechanical properties :
#
#
# Convention : Reuss Voigt Hill
#
# Bulk Modulus (GPa) = 25.17339 35.14452 30.15895
# Shear Modulus (GPa) = 27.05042 34.39775 30.72408
#
# Velocity S-wave (km/s) = 3.34450 3.77146 3.56438
# Velocity P-wave (km/s) = 5.03228 5.78774 5.42318
#
# Compressibility (1/GPa) = 0.03972449
#
# Stress axis : x y z
#
# Youngs Moduli (GPa) = 123.18470 61.00309 50.69263
#
# Poissons Ratio (x) = 0.02971 0.00953
# Poissons Ratio (y) = 0.06000 0.08016
# Poissons Ratio (z) = 0.02315 0.09647
#
# Static dielectric constant tensor:
#      x y z
#    x 4.468860 -0.134560 0.224820 
#    y -0.134560 4.190660 0.069150 
#    z 0.224820 0.069150 4.328710 
# 
# 
# High freq. dielectric constant tensor:
#      x y z
#    x 1.975220 -0.007050 0.009430 
#    y -0.007050 1.945510 0.009740 
#    z 0.009430 0.009740 1.965670 
# 
# From -- ./inp_files/226702.got.cif
#   From: 2010.06.25/outbox.cif.g09.slc.cpg/sg2_114_cif.got.tgz:226702.got - 2010.06.27 13:26:56.
