data_PCOD8019707
_publ_section_title
;
Structure prediction by ZEFSAII (Michael W. Deem and Ramdas Pophale) SiO2 
 PCOD8019707
Probable space group: P -1
;
_chemical_formula_sum "Si O2"
_cell_formula_units_Z 16
_cell_length_a 7.910037
_cell_length_b 19.476771
_cell_length_c 11.652531
_cell_angle_alpha 50.382821
_cell_angle_beta 129.840689
_cell_angle_gamma 147.900707
_cell_volume 712.369268
_symmetry_space_group_name_H-M "P -1"
_symmetry_group_IT_number 2
_symmetry_cell_setting 'triclinic'
loop_
_space_group_symop_operation_xyz
x,y,z
-x,-y,-z
loop_
_atom_site_type_symbol
_atom_site_label
_atom_site_fract_x
_atom_site_fract_y
_atom_site_fract_z
Si Si1 0.998800 0.711751 0.579072
Si Si2 0.730028 0.889362 0.133617
Si Si3 0.438893 0.689100 0.410561
Si Si4 0.226255 0.792110 0.828672
Si Si5 0.665817 0.645612 0.908992
Si Si6 0.284148 0.914772 0.307671
Si Si7 0.839978 0.117520 0.957336
Si Si8 0.143455 0.596350 0.622331
O O1 0.693608 0.683551 0.508713
O O2 0.160584 0.720726 0.756422
O O3 0.283793 0.848103 0.485494
O O4 0.914435 0.604894 0.570066
O O5 0.553842 0.812573 0.260400
O O6 0.977301 0.887314 0.213818
O O7 0.454516 0.808212 0.000120
O O8 0.944733 0.045020 0.063336
O O9 0.370438 0.694217 0.508069
O O10 0.090002 0.554988 0.351169
O O11 0.875745 0.707847 0.818977
O O12 0.371625 0.931359 0.706593
O O13 0.385976 0.635864 0.785676
O O14 0.500000 0.500000 0.000000
O O15 0.895501 0.742315 0.012669
O O16 0.227641 0.852519 0.224579
O O17 0.500000 0.000000 0.000000
#
# Coordination Sequence:
#
# PCOD8019707 Si02
#       8
#     2   2   2   2   2   2   2   2
#     4  11  24  42  67 102 134 175 227 278 345 403
#     4  10  22  41  70  95 131 177 226 277 341 394
#     4  10  23  47  66  96 134 180 227 284 330 406
#     4  11  21  43  63  97 141 169 221 286 331 394
#     4  12  26  44  65 102 138 178 226 287 340 395
#     4  10  23  41  68  96 134 180 219 284 337 399
#     4  11  22  40  69  94 131 177 232 269 330 409
#     4  11  25  41  71  91 139 182 224 275 344 406
#
# _framework density 22.460260000000002
#
# number of rings (size 3 to 8) (size 9 to 14) (size 15 to 20)
#    0.000    1.250    3.750    3.000    5.250    1.000 
#    4.500    2.500    0.000    0.000    0.000    0.000 
#    0.000    0.000    0.000    0.000    0.000    0.000 
#
# Total GULP energy -198262.841086 kJ/mol
# GULP energy per Si atom -12391.427568 kJ/mol
# Density = 2.240914 g / cm^3
# Si number density = 22.460260 Si / 1000 Ang^3
#
#
#
# Elastic Constant Matrix: (Units=GPa)
#
#
# Indices 1 2 3 4 5 6 
#
# 1 86.5712 9.9735 28.7104 13.9665 -26.1977 -2.8186
# 2 9.9735 87.7080 16.6770 8.8973 -13.8565 3.6390
# 3 28.7104 16.6770 78.3882 7.3268 -16.8029 -1.5700
# 4 13.9665 8.8973 7.3268 28.6365 -1.0799 -8.3380
# 5 -26.1977 -13.8565 -16.8029 -1.0799 32.5543 3.3563
# 6 -2.8186 3.6390 -1.5700 -8.3380 3.3563 32.8098
#
#
#
# Elastic Compliance Matrix: (Units=1/GPa)
#
#
# Indices 1 2 3 4 5 6 
#
# 1 0.017756 0.001659 -0.003262 -0.008521 0.013270 -0.002338
# 2 0.001659 0.013187 -0.001648 -0.005229 0.006272 -0.003369
# 3 -0.003262 -0.001648 0.015451 -0.001757 0.004619 -0.000277
# 4 -0.008521 -0.005229 -0.001757 0.044281 -0.009760 0.012015
# 5 0.013270 0.006272 0.004619 -0.009760 0.046807 -0.006603
# 6 -0.002338 -0.003369 -0.000277 0.012015 -0.006603 0.034367
#
#
# Mechanical properties :
#
#
# Convention : Reuss Voigt Hill
#
# Bulk Modulus (GPa) = 25.06714 40.37657 32.72185
# Shear Modulus (GPa) = 26.08938 31.95390 29.02164
#
# Velocity S-wave (km/s) = 3.41189 3.77594 3.59852
# Velocity P-wave (km/s) = 5.16781 6.08492 5.64502
#
# Compressibility (1/GPa) = 0.03989286
#
# Stress axis : x y z
#
# Youngs Moduli (GPa) = 56.31852 75.83122 64.72035
#
# Poissons Ratio (x) = -0.12580 0.21113
# Poissons Ratio (y) = -0.09343 0.10663
# Poissons Ratio (z) = 0.18372 0.12493
#
# Static dielectric constant tensor:
#      x y z
#    x 4.214880 0.312850 -0.460120 
#    y 0.312850 3.561700 -0.002250 
#    z -0.460120 -0.002250 4.227100 
# 
# 
# High freq. dielectric constant tensor:
#      x y z
#    x 1.896190 0.008610 -0.017620 
#    y 0.008610 1.872050 0.000790 
#    z -0.017620 0.000790 1.887450 
# 
# From -- ./inp_files/392729.got.cif
#   From: 2010.06.25/outbox.cif.g09.slc.cpg/sg2_197_cif.got.tgz:392729.got - 2010.06.27 13:26:56.
