data_PCOD8019875
_publ_section_title
;
Structure prediction by ZEFSAII (Michael W. Deem and Ramdas Pophale) SiO2 
 PCOD8019875
Probable space group: P -1
;
_chemical_formula_sum "Si O2"
_cell_formula_units_Z 16
_cell_length_a 8.051214
_cell_length_b 10.017584
_cell_length_c 14.337539
_cell_angle_alpha 80.980461
_cell_angle_beta 42.350607
_cell_angle_gamma 83.498307
_cell_volume 769.371977
_symmetry_space_group_name_H-M "P -1"
_symmetry_group_IT_number 2
_symmetry_cell_setting 'triclinic'
loop_
_space_group_symop_operation_xyz
x,y,z
-x,-y,-z
loop_
_atom_site_type_symbol
_atom_site_label
_atom_site_fract_x
_atom_site_fract_y
_atom_site_fract_z
Si Si1 0.734023 0.541629 0.194742
Si Si2 0.717937 0.403828 0.392538
Si Si3 0.859531 0.892780 0.862246
Si Si4 0.109022 0.718892 0.934602
Si Si5 0.826650 0.383853 0.549139
Si Si6 0.316413 0.889397 0.554712
Si Si7 0.775126 0.090638 0.615771
Si Si8 0.429231 0.913970 0.909707
O O1 0.861897 0.480171 0.241682
O O2 0.754944 0.424347 0.121079
O O3 0.450540 0.571680 0.323649
O O4 0.868183 0.682602 0.099737
O O5 0.500000 0.500000 0.500000
O O6 0.890998 0.373422 0.412918
O O7 0.619939 0.257821 0.412076
O O8 0.612753 0.839232 0.915859
O O9 0.005179 0.782539 0.875006
O O10 0.044524 0.938125 0.696907
O O11 0.785274 0.014188 0.949218
O O12 0.298835 0.814199 0.901453
O O13 0.872526 0.238113 0.595733
O O14 0.000000 0.500000 0.500000
O O15 0.366223 0.878283 0.424893
O O16 0.500000 0.000000 0.500000
O O17 0.590617 0.024243 0.774005
O O18 0.000000 0.000000 0.500000
#
# Coordination Sequence:
#
# PCOD8019875 Si02
#       8
#     2   2   2   2   2   2   2   2
#     4  10  22  42  61  96 123 169 227 257 323 410
#     4   9  20  39  60  89 129 160 213 264 311 396
#     4  11  23  43  64  98 135 164 226 275 324 406
#     4  11  23  42  70  88 132 174 215 276 328 387
#     4  10  23  40  64  94 132 172 207 273 331 383
#     4  11  22  38  66  97 126 173 214 271 332 385
#     4  11  23  40  63  95 133 163 223 272 322 398
#     4  11  25  43  67  96 133 178 214 281 339 385
#
# _framework density 20.796182999999999
#
# number of rings (size 3 to 8) (size 9 to 14) (size 15 to 20)
#    0.000    1.500    2.500    1.875    1.750    4.000 
#    6.750    1.250    0.000    0.000    0.000    0.000 
#    0.000    0.000    0.000    0.000    0.000    0.000 
#
# Total GULP energy -198222.027130 kJ/mol
# GULP energy per Si atom -12388.876696 kJ/mol
# Density = 2.074885 g / cm^3
# Si number density = 20.796183 Si / 1000 Ang^3
#
#
#
# Elastic Constant Matrix: (Units=GPa)
#
#
# Indices 1 2 3 4 5 6 
#
# 1 90.5255 44.2540 27.7193 -17.9484 -1.4652 8.3239
# 2 44.2540 131.4127 41.1220 -10.7998 -13.0945 12.8726
# 3 27.7193 41.1220 102.7724 -3.2763 -0.5581 12.0994
# 4 -17.9484 -10.7998 -3.2763 39.1951 -1.4244 -8.5921
# 5 -1.4652 -13.0945 -0.5581 -1.4244 30.5079 0.6325
# 6 8.3239 12.8726 12.0994 -8.5921 0.6325 28.6077
#
#
#
# Elastic Compliance Matrix: (Units=1/GPa)
#
#
# Indices 1 2 3 4 5 6 
#
# 1 0.014695 -0.003877 -0.002251 0.005463 -0.000746 0.000078
# 2 -0.003877 0.010511 -0.002844 0.000529 0.004346 -0.002336
# 3 -0.002251 -0.002844 0.011834 -0.001642 -0.001116 -0.003538
# 4 0.005463 0.000529 -0.001642 0.029790 0.001689 0.007777
# 5 -0.000746 0.004346 -0.001116 0.001689 0.034698 -0.001527
# 6 0.000078 -0.002336 -0.003538 0.007777 -0.001527 0.039850
#
#
# Mechanical properties :
#
#
# Convention : Reuss Voigt Hill
#
# Bulk Modulus (GPa) = 52.37304 61.21124 56.79214
# Shear Modulus (GPa) = 30.17724 33.76982 31.97353
#
# Velocity S-wave (km/s) = 3.81346 4.03407 3.92531
# Velocity P-wave (km/s) = 6.68046 7.15514 6.92187
#
# Compressibility (1/GPa) = 0.01909379
#
# Stress axis : x y z
#
# Youngs Moduli (GPa) = 68.04927 95.14088 84.50411
#
# Poissons Ratio (x) = 0.36889 0.19024
# Poissons Ratio (y) = 0.26385 0.24036
# Poissons Ratio (z) = 0.15319 0.27062
#
# Static dielectric constant tensor:
#      x y z
#    x 4.012170 -0.162600 0.434180 
#    y -0.162600 4.456440 0.248730 
#    z 0.434180 0.248730 4.383620 
# 
# 
# High freq. dielectric constant tensor:
#      x y z
#    x 1.797850 -0.007650 0.018450 
#    y -0.007650 1.822960 0.010550 
#    z 0.018450 0.010550 1.825020 
# 
# From -- ./inp_files/272368.got.cif
#   From: 2010.06.25/outbox.cif.g09.slc.cpg/sg2_137_cif.got.tgz:272368.got - 2010.06.27 13:26:56.
