data_PCOD8019439
_publ_section_title
;
Structure prediction by ZEFSAII (Michael W. Deem and Ramdas Pophale) SiO2 
 PCOD8019439
Probable space group: P -1
;
_chemical_formula_sum "Si O2"
_cell_formula_units_Z 14
_cell_length_a 18.148637
_cell_length_b 12.104886
_cell_length_c 9.596073
_cell_angle_alpha 37.092070
_cell_angle_beta 137.213778
_cell_angle_gamma 150.660139
_cell_volume 617.655466
_symmetry_space_group_name_H-M "P -1"
_symmetry_group_IT_number 2
_symmetry_cell_setting 'triclinic'
loop_
_space_group_symop_operation_xyz
x,y,z
-x,-y,-z
loop_
_atom_site_type_symbol
_atom_site_label
_atom_site_fract_x
_atom_site_fract_y
_atom_site_fract_z
Si Si1 0.804948 0.566782 0.856834
Si Si2 0.152461 0.120704 0.156820
Si Si3 0.473253 0.532109 0.087256
Si Si4 0.418038 0.945231 0.295374
Si Si5 0.915335 0.560015 0.742632
Si Si6 0.830545 0.191607 0.351014
Si Si7 0.496899 0.232685 0.631389
O O1 0.850143 0.796408 0.775402
O O2 0.876798 0.665079 0.701966
O O3 0.623997 0.355407 0.800914
O O4 0.858783 0.443337 0.136346
O O5 0.293938 0.364240 0.020280
O O6 0.160143 0.905595 0.389725
O O7 0.000000 0.000000 0.000000
O O8 0.523327 0.445787 0.360905
O O9 0.500000 0.500000 0.000000
O O10 0.572083 0.828908 0.952293
O O11 0.239595 0.680576 0.310257
O O12 0.509860 0.945927 0.303734
O O13 0.500000 0.000000 0.500000
O O14 0.042083 0.771911 0.595292
O O15 0.000000 0.500000 0.000000
O O16 0.657240 0.945933 0.310338
#
# Coordination Sequence:
#
# PCOD8019439 Si02
#       7
#     2   2   2   2   2   2   2
#     4  10  22  43  65  92 128 169 211 259 317 381
#     4  11  27  42  62  94 129 171 208 262 322 372
#     4  11  24  42  64  95 129 165 215 259 311 382
#     4  11  22  40  67  90 127 171 212 256 315 378
#     4   9  22  41  65  97 123 166 211 263 319 374
#     4  10  22  42  65  96 130 159 213 263 317 377
#     4  10  22  41  67  97 124 167 211 262 321 371
#
# _framework density 22.666357000000001
#
# number of rings (size 3 to 8) (size 9 to 14) (size 15 to 20)
#    0.000    1.714    1.429    1.286    2.000   11.429 
#    0.000    0.000    0.000    0.000    0.000    0.000 
#    0.000    0.000    0.000    0.000    0.000    0.000 
#
# Total GULP energy -173452.044366 kJ/mol
# GULP energy per Si atom -12389.431740 kJ/mol
# Density = 2.261477 g / cm^3
# Si number density = 22.666357 Si / 1000 Ang^3
#
#
#
# Elastic Constant Matrix: (Units=GPa)
#
#
# Indices 1 2 3 4 5 6 
#
# 1 119.7731 81.8029 25.1186 -8.9654 -1.4513 17.8054
# 2 81.8029 123.6367 36.1158 19.8552 -6.9433 11.8269
# 3 25.1186 36.1158 90.3486 -9.5257 14.6140 -5.3675
# 4 -8.9654 19.8552 -9.5257 39.8732 5.1411 3.1099
# 5 -1.4513 -6.9433 14.6140 5.1411 31.9844 -5.3722
# 6 17.8054 11.8269 -5.3675 3.1099 -5.3722 46.4448
#
#
#
# Elastic Compliance Matrix: (Units=1/GPa)
#
#
# Indices 1 2 3 4 5 6 
#
# 1 0.021913 -0.018256 0.003969 0.016458 -0.008328 -0.005358
# 2 -0.018256 0.027284 -0.010248 -0.022048 0.013644 0.001921
# 3 0.003969 -0.010248 0.017210 0.011528 -0.011599 0.000963
# 4 0.016458 -0.022048 0.011528 0.045084 -0.017289 -0.004381
# 5 -0.008328 0.013644 -0.011599 -0.017289 0.042679 0.004472
# 6 -0.005358 0.001921 0.000963 -0.004381 0.004472 0.024018
#
#
# Mechanical properties :
#
#
# Convention : Reuss Voigt Hill
#
# Bulk Modulus (GPa) = 57.68024 68.87032 63.27528
# Shear Modulus (GPa) = 21.45588 36.37522 28.91555
#
# Velocity S-wave (km/s) = 3.08002 4.01036 3.57557
# Velocity P-wave (km/s) = 6.17668 7.20377 6.70991
#
# Compressibility (1/GPa) = 0.01733696
#
# Stress axis : x y z
#
# Youngs Moduli (GPa) = 45.63582 36.65173 58.10513
#
# Poissons Ratio (x) = 0.66911 -0.23063
# Poissons Ratio (y) = 0.83312 0.59548
# Poissons Ratio (z) = -0.18114 0.37562
#
# Static dielectric constant tensor:
#      x y z
#    x 12.734580 3.006200 -3.923710 
#    y 3.006200 4.389750 -1.193380 
#    z -3.923710 -1.193380 6.256390 
# 
# 
# High freq. dielectric constant tensor:
#      x y z
#    x 1.900990 0.022310 0.006360 
#    y 0.022310 1.880940 0.000270 
#    z 0.006360 0.000270 1.901900 
# 
# From -- ./inp_files/332757.got.cif
#   From: 2010.06.25/outbox.cif.g09.slc.cpg/sg2_167_cif.got.tgz:332757.got - 2010.06.27 13:26:56.
