data_PCOD8019390
_publ_section_title
;
Structure prediction by ZEFSAII (Michael W. Deem and Ramdas Pophale) SiO2 
 PCOD8019390
Probable space group: P -1
;
_chemical_formula_sum "Si O2"
_cell_formula_units_Z 16
_cell_length_a 9.170100
_cell_length_b 9.195741
_cell_length_c 16.887898
_cell_angle_alpha 70.025919
_cell_angle_beta 142.853309
_cell_angle_gamma 93.456041
_cell_volume 749.712146
_symmetry_space_group_name_H-M "P -1"
_symmetry_group_IT_number 2
_symmetry_cell_setting 'triclinic'
loop_
_space_group_symop_operation_xyz
x,y,z
-x,-y,-z
loop_
_atom_site_type_symbol
_atom_site_label
_atom_site_fract_x
_atom_site_fract_y
_atom_site_fract_z
Si Si1 0.248682 0.337755 0.155119
Si Si2 0.487955 0.280592 0.734942
Si Si3 0.511768 0.995335 0.912119
Si Si4 0.965344 0.068291 0.599903
Si Si5 0.949582 0.833040 0.022208
Si Si6 0.462963 0.189409 0.439732
Si Si7 0.798865 0.772913 0.524971
Si Si8 0.229896 0.616427 0.639688
O O1 0.277840 0.283147 0.269331
O O2 0.497212 0.370662 0.223987
O O3 0.219748 0.188097 0.120468
O O4 0.000000 0.500000 0.000000
O O5 0.521535 0.166011 0.848720
O O6 0.408768 0.196749 0.641287
O O7 0.269633 0.460255 0.628506
O O8 0.757444 0.308874 0.823876
O O9 0.250902 0.967836 0.776516
O O10 0.500000 0.000000 0.000000
O O11 0.774975 0.845168 0.023499
O O12 0.757628 0.180284 0.555381
O O13 0.976076 0.209611 0.517981
O O14 0.850989 0.942754 0.531740
O O15 0.000000 0.000000 0.000000
O O16 0.324691 0.284113 0.441646
O O17 0.500000 0.000000 0.500000
O O18 0.070245 0.616571 0.651293
#
# Coordination Sequence:
#
# PCOD8019390 Si02
#       8
#     2   2   2   2   2   2   2   2
#     4  11  22  45  65  94 132 170 215 259 331 384
#     4  11  24  41  63  97 126 174 205 267 325 379
#     4  11  25  42  64  95 130 166 218 267 315 383
#     4  10  22  41  67  94 123 169 215 264 316 378
#     4  10  24  40  67  91 127 171 216 256 326 387
#     4   9  23  38  67  96 126 167 218 271 305 385
#     4  11  22  39  67  96 127 162 223 259 319 376
#     4  11  22  41  67  92 129 169 210 266 318 387
#
# _framework density 21.341525000000001
#
# number of rings (size 3 to 8) (size 9 to 14) (size 15 to 20)
#    0.000    1.500    2.500    1.500   12.250    3.000 
#    2.250    3.125    0.000    0.000    0.000    0.000 
#    0.000    0.000    0.000    0.000    0.000    0.000 
#
# Total GULP energy -198258.791919 kJ/mol
# GULP energy per Si atom -12391.174495 kJ/mol
# Density = 2.129295 g / cm^3
# Si number density = 21.341525 Si / 1000 Ang^3
#
#
#
# Elastic Constant Matrix: (Units=GPa)
#
#
# Indices 1 2 3 4 5 6 
#
# 1 173.2533 44.6680 77.3530 5.5642 3.8080 -42.7070
# 2 44.6680 80.5023 32.9621 8.3521 -5.7939 -20.6710
# 3 77.3530 32.9621 123.9085 3.8565 7.0059 -14.8135
# 4 5.5642 8.3521 3.8565 35.1301 -3.5375 4.1601
# 5 3.8080 -5.7939 7.0059 -3.5375 30.9257 -3.6275
# 6 -42.7070 -20.6710 -14.8135 4.1601 -3.6275 37.0399
#
#
#
# Elastic Compliance Matrix: (Units=1/GPa)
#
#
# Indices 1 2 3 4 5 6 
#
# 1 0.011006 -0.001020 -0.005342 -0.002068 0.000633 0.010278
# 2 -0.001020 0.017042 -0.003068 -0.004049 0.004489 0.008002
# 3 -0.005342 -0.003068 0.011970 0.000365 -0.002988 -0.003418
# 4 -0.002068 -0.004049 0.000365 0.030839 0.002030 -0.007762
# 5 0.000633 0.004489 -0.002988 0.002030 0.034618 0.005202
# 6 0.010278 0.008002 -0.003418 -0.007762 0.005202 0.043329
#
#
# Mechanical properties :
#
#
# Convention : Reuss Voigt Hill
#
# Bulk Modulus (GPa) = 47.26240 76.40334 61.83287
# Shear Modulus (GPa) = 28.61755 35.46454 32.04104
#
# Velocity S-wave (km/s) = 3.66585 4.08089 3.87893
# Velocity P-wave (km/s) = 6.33338 7.62122 7.00695
#
# Compressibility (1/GPa) = 0.02115847
#
# Stress axis : x y z
#
# Youngs Moduli (GPa) = 90.85807 58.67839 83.53902
#
# Poissons Ratio (x) = 0.05987 0.44627
# Poissons Ratio (y) = 0.09270 0.25628
# Poissons Ratio (z) = 0.48537 0.18001
#
# Static dielectric constant tensor:
#      x y z
#    x 5.010610 -0.431600 0.498160 
#    y -0.431600 3.828990 -0.019940 
#    z 0.498160 -0.019940 4.009470 
# 
# 
# High freq. dielectric constant tensor:
#      x y z
#    x 1.854530 -0.017060 0.032510 
#    y -0.017060 1.825720 0.006890 
#    z 0.032510 0.006890 1.825890 
# 
# From -- ./inp_files/495086.got.cif
#   From: 2010.06.25/outbox.cif.g09.slc.cpg/sg2_248_cif.got.tgz:495086.got - 2010.06.27 13:26:56.
