data_PCOD8019831
_publ_section_title
;
Structure prediction by ZEFSAII (Michael W. Deem and Ramdas Pophale) SiO2 
 PCOD8019831
Probable space group: P -1
;
_chemical_formula_sum "Si O2"
_cell_formula_units_Z 16
_cell_length_a 8.268099
_cell_length_b 17.829071
_cell_length_c 5.749340
_cell_angle_alpha 63.583954
_cell_angle_beta 65.804544
_cell_angle_gamma 57.993100
_cell_volume 626.515718
_symmetry_space_group_name_H-M "P -1"
_symmetry_group_IT_number 2
_symmetry_cell_setting 'triclinic'
loop_
_space_group_symop_operation_xyz
x,y,z
-x,-y,-z
loop_
_atom_site_type_symbol
_atom_site_label
_atom_site_fract_x
_atom_site_fract_y
_atom_site_fract_z
Si Si1 0.106363 0.270056 0.934535
Si Si2 0.893659 0.960511 0.289083
Si Si3 0.858105 0.449659 0.634178
Si Si4 0.776106 0.515295 0.092013
Si Si5 0.532001 0.709682 0.116562
Si Si6 0.362337 0.849701 0.651526
Si Si7 0.821450 0.237130 0.432120
Si Si8 0.357969 0.090203 0.826618
O O1 0.283131 0.298359 0.830168
O O2 0.172806 0.161069 0.987451
O O3 0.979678 0.337586 0.708683
O O4 0.964042 0.287120 0.222643
O O5 0.716831 0.942998 0.308612
O O6 0.058267 0.866732 0.411025
O O7 0.791693 0.042314 0.422842
O O8 0.000000 0.000000 0.000000
O O9 0.734045 0.478257 0.423772
O O10 0.000000 0.500000 0.500000
O O11 0.743022 0.471354 0.926592
O O12 0.618785 0.622266 0.012881
O O13 0.000000 0.500000 0.000000
O O14 0.354343 0.702890 0.374401
O O15 0.452037 0.811092 0.904363
O O16 0.275902 0.777716 0.726801
O O17 0.537149 0.843574 0.389488
O O18 0.500000 0.000000 0.000000
#
# Coordination Sequence:
#
# PCOD8019831 Si02
#       8
#     2   2   2   2   2   2   2   2
#     4  12  25  46  76 103 148 193 244 311 375 451
#     4  12  23  45  66 101 153 192 241 311 364 440
#     4  10  22  44  73 111 139 200 247 308 388 453
#     4  10  22  41  76 104 148 186 252 309 384 448
#     4  12  25  46  73 106 138 192 246 310 369 456
#     4  12  25  44  73  98 149 194 246 306 370 447
#     4  12  27  46  68 110 142 194 252 301 378 445
#     4  12  25  43  73 110 144 197 251 299 374 453
#
# _framework density 25.538065
#
# number of rings (size 3 to 8) (size 9 to 14) (size 15 to 20)
#    0.000    0.500    5.000    4.500    5.250    1.000 
#    0.000    1.250    0.000    0.000    0.000    0.000 
#    0.000    0.000    0.000    0.000    0.000    0.000 
#
# Total GULP energy -198228.696143 kJ/mol
# GULP energy per Si atom -12389.293509 kJ/mol
# Density = 2.547994 g / cm^3
# Si number density = 25.538065 Si / 1000 Ang^3
#
#
#
# Elastic Constant Matrix: (Units=GPa)
#
#
# Indices 1 2 3 4 5 6 
#
# 1 48.8930 13.4984 22.4450 7.5276 -4.4378 -13.6607
# 2 13.4984 154.9274 36.3138 3.0507 -0.0328 -16.8895
# 3 22.4450 36.3138 132.0321 3.5985 2.5803 -13.7808
# 4 7.5276 3.0507 3.5985 46.3775 0.4172 3.0324
# 5 -4.4378 -0.0328 2.5803 0.4172 39.5085 8.8528
# 6 -13.6607 -16.8895 -13.7808 3.0324 8.8528 27.1401
#
#
#
# Elastic Compliance Matrix: (Units=1/GPa)
#
#
# Indices 1 2 3 4 5 6 
#
# 1 0.025955 -0.000177 -0.003015 -0.004742 0.000522 0.011783
# 2 -0.000177 0.007273 -0.001522 -0.000585 -0.000803 0.003992
# 3 -0.003015 -0.001522 0.008803 -0.000245 -0.001476 0.002514
# 4 -0.004742 -0.000585 -0.000245 0.022750 0.000492 -0.005578
# 5 0.000522 -0.000803 -0.001476 0.000492 0.027719 -0.010083
# 6 0.011783 0.003992 0.002514 -0.005578 -0.010083 0.050449
#
#
# Mechanical properties :
#
#
# Convention : Reuss Voigt Hill
#
# Bulk Modulus (GPa) = 30.67074 53.37408 42.02241
# Shear Modulus (GPa) = 30.62872 40.17824 35.40348
#
# Velocity S-wave (km/s) = 3.46690 3.97075 3.72735
# Velocity P-wave (km/s) = 5.29733 6.47824 5.91732
#
# Compressibility (1/GPa) = 0.03260436
#
# Stress axis : x y z
#
# Youngs Moduli (GPa) = 38.52764 137.48886 113.59851
#
# Poissons Ratio (x) = 0.02430 0.34248
# Poissons Ratio (y) = 0.00681 0.17291
# Poissons Ratio (z) = 0.11615 0.20928
#
# Static dielectric constant tensor:
#      x y z
#    x 4.155510 0.533740 0.329440 
#    y 0.533740 3.140000 -0.091350 
#    z 0.329440 -0.091350 5.020100 
# 
# 
# High freq. dielectric constant tensor:
#      x y z
#    x 1.997820 -0.012180 -0.001500 
#    y -0.012180 2.037870 -0.000680 
#    z -0.001500 -0.000680 2.020400 
# 
# From -- ./inp_files/52363.got.cif
#   From: 2010.06.25/outbox.cif.g09.slc.cpg/sg2_27_cif.got.tgz:52363.got - 2010.06.27 13:26:56.
