data_PCOD8019470
_publ_section_title
;
Structure prediction by ZEFSAII (Michael W. Deem and Ramdas Pophale) SiO2 
 PCOD8019470
Probable space group: P -1
;
_chemical_formula_sum "Si O2"
_cell_formula_units_Z 14
_cell_length_a 6.239621
_cell_length_b 10.560021
_cell_length_c 10.888176
_cell_angle_alpha 61.702828
_cell_angle_beta 99.251344
_cell_angle_gamma 86.962341
_cell_volume 616.549959
_symmetry_space_group_name_H-M "P -1"
_symmetry_group_IT_number 2
_symmetry_cell_setting 'triclinic'
loop_
_space_group_symop_operation_xyz
x,y,z
-x,-y,-z
loop_
_atom_site_type_symbol
_atom_site_label
_atom_site_fract_x
_atom_site_fract_y
_atom_site_fract_z
Si Si1 0.079148 0.272554 0.192238
Si Si2 0.540976 0.828255 0.571923
Si Si3 0.991534 0.793609 0.180183
Si Si4 0.301122 0.597599 0.752404
Si Si5 0.359945 0.304914 0.978415
Si Si6 0.334820 0.635591 0.471949
Si Si7 0.798301 0.099469 0.082593
O O1 0.895491 0.397763 0.169714
O O2 0.969702 0.149103 0.170839
O O3 0.201839 0.209993 0.356615
O O4 0.248915 0.331781 0.088974
O O5 0.414114 0.744782 0.703701
O O6 0.474427 0.767688 0.460574
O O7 0.500000 0.000000 0.500000
O O8 0.140986 0.688603 0.335662
O O9 0.829060 0.705199 0.134162
O O10 0.157102 0.855311 0.073301
O O11 0.839160 0.924680 0.176921
O O12 0.460863 0.450091 0.878727
O O13 0.226463 0.582013 0.611118
O O14 0.547385 0.164353 0.062402
O O15 0.500000 0.500000 0.500000
#
# Coordination Sequence:
#
# PCOD8019470 Si02
#       7
#     2   2   2   2   2   2   2
#     4  11  23  42  67  97 135 179 231 281 348 392
#     4  10  24  45  67  98 138 180 225 282 349 406
#     4  10  22  42  66  98 138 183 225 286 346 404
#     4  10  25  42  65 101 136 173 232 281 343 409
#     4  11  23  41  70  98 141 178 230 282 348 404
#     4  10  23  45  69  99 140 176 233 282 336 422
#     4  10  22  41  68 100 134 178 238 281 337 415
#
# _framework density 22.707000000000001
#
# number of rings (size 3 to 8) (size 9 to 14) (size 15 to 20)
#    0.857    0.857    0.000    3.429    2.000    4.571 
#    5.143    0.000    0.000    0.000    0.000    0.000 
#    0.000    0.000    0.000    0.000    0.000    0.000 
#
# Total GULP energy -173441.516486 kJ/mol
# GULP energy per Si atom -12388.679749 kJ/mol
# Density = 2.265532 g / cm^3
# Si number density = 22.707000 Si / 1000 Ang^3
#
#
#
# Elastic Constant Matrix: (Units=GPa)
#
#
# Indices 1 2 3 4 5 6 
#
# 1 80.2711 47.1485 49.3804 -2.2749 8.7953 -16.1560
# 2 47.1485 133.3641 57.7723 -16.0719 -0.0130 -13.8234
# 3 49.3804 57.7723 96.7686 -1.0020 27.1501 -4.8520
# 4 -2.2749 -16.0719 -1.0020 47.2011 1.7476 5.2884
# 5 8.7953 -0.0130 27.1501 1.7476 41.4914 6.4829
# 6 -16.1560 -13.8234 -4.8520 5.2884 6.4829 40.9989
#
#
#
# Elastic Compliance Matrix: (Units=1/GPa)
#
#
# Indices 1 2 3 4 5 6 
#
# 1 0.020687 -0.003126 -0.008451 -0.000948 0.000217 0.006186
# 2 -0.003126 0.012128 -0.006957 0.003559 0.004945 0.000793
# 3 -0.008451 -0.006957 0.022270 -0.001745 -0.012581 -0.000826
# 4 -0.000948 0.003559 -0.001745 0.022557 0.000770 -0.002411
# 5 0.000217 0.004945 -0.012581 0.000770 0.033047 -0.005061
# 6 0.006186 0.000793 -0.000826 -0.002411 -0.005061 0.028110
#
#
# Mechanical properties :
#
#
# Convention : Reuss Voigt Hill
#
# Bulk Modulus (GPa) = 55.49721 68.77846 62.13783
# Shear Modulus (GPa) = 27.49202 36.34513 31.91858
#
# Velocity S-wave (km/s) = 3.48333 4.00511 3.75330
# Velocity P-wave (km/s) = 6.37744 7.19327 6.79761
#
# Compressibility (1/GPa) = 0.01801892
#
# Stress axis : x y z
#
# Youngs Moduli (GPa) = 48.34019 82.45074 44.90396
#
# Poissons Ratio (x) = 0.25771 0.37948
# Poissons Ratio (y) = 0.15109 0.31238
# Poissons Ratio (z) = 0.40852 0.57357
#
# Static dielectric constant tensor:
#      x y z
#    x 3.920490 -0.032180 0.192130 
#    y -0.032180 4.161130 0.136230 
#    z 0.192130 0.136230 4.203520 
# 
# 
# High freq. dielectric constant tensor:
#      x y z
#    x 1.877730 -0.000930 0.016330 
#    y -0.000930 1.906450 0.005760 
#    z 0.016330 0.005760 1.899480 
# 
# From -- ./inp_files/362702.got.cif
#   From: 2010.06.25/outbox.cif.g09.slc.cpg/sg2_182_cif.got.tgz:362702.got - 2010.06.27 13:26:56.
