data_PCOD8019358
_publ_section_title
;
Structure prediction by ZEFSAII (Michael W. Deem and Ramdas Pophale) SiO2 
 PCOD8019358
Probable space group: P -1
;
_chemical_formula_sum "Si O2"
_cell_formula_units_Z 16
_cell_length_a 14.843351
_cell_length_b 10.961024
_cell_length_c 10.054857
_cell_angle_alpha 103.935153
_cell_angle_beta 104.999146
_cell_angle_gamma 28.543392
_cell_volume 754.722758
_symmetry_space_group_name_H-M "P -1"
_symmetry_group_IT_number 2
_symmetry_cell_setting 'triclinic'
loop_
_space_group_symop_operation_xyz
x,y,z
-x,-y,-z
loop_
_atom_site_type_symbol
_atom_site_label
_atom_site_fract_x
_atom_site_fract_y
_atom_site_fract_z
Si Si1 0.054985 0.854374 0.856037
Si Si2 0.115071 0.395033 0.820775
Si Si3 0.354238 0.337806 0.971356
Si Si4 0.700439 0.861214 0.814909
Si Si5 0.049140 0.030712 0.647713
Si Si6 0.717786 0.029184 0.376999
Si Si7 0.863782 0.842764 0.675818
Si Si8 0.669739 0.611232 0.723636
O O1 0.245195 0.554731 0.883394
O O2 0.885600 0.957641 0.776366
O O3 0.097916 0.896412 0.762360
O O4 0.000000 0.000000 0.000000
O O5 0.058558 0.538059 0.701633
O O6 0.256525 0.314687 0.940712
O O7 0.220698 0.145399 0.754027
O O8 0.919320 0.598216 0.881546
O O9 0.570003 0.069264 0.936064
O O10 0.349335 0.402465 0.132313
O O11 0.690888 0.969900 0.714816
O O12 0.633471 0.801044 0.729203
O O13 0.874970 0.331162 0.677431
O O14 0.237849 0.887577 0.647468
O O15 0.000000 0.000000 0.500000
O O16 0.835556 0.879435 0.518019
O O17 0.493561 0.277097 0.384653
#
# Coordination Sequence:
#
# PCOD8019358 Si02
#       8
#     2   2   2   2   2   2   2   2
#     4  11  23  47  71  92 134 184 229 277 325 401
#     4   9  21  39  67  95 135 176 218 279 338 403
#     4  11  23  44  67  99 140 173 228 284 334 400
#     4  10  22  41  67 105 130 172 218 285 349 391
#     4  12  26  48  70  96 137 186 228 275 340 394
#     4  12  23  43  67 100 138 179 222 280 342 404
#     4   9  22  42  65  96 136 172 227 275 333 405
#     4  12  26  41  69 105 135 174 227 283 338 414
#
# _framework density 21.199836000000001
#
# number of rings (size 3 to 8) (size 9 to 14) (size 15 to 20)
#    0.750    0.500    5.000    0.750    0.000    4.500 
#    2.250    1.250    0.000    0.000    0.000    0.000 
#    0.000    0.000    0.000    0.000    0.000    0.000 
#
# Total GULP energy -198374.342041 kJ/mol
# GULP energy per Si atom -12398.396378 kJ/mol
# Density = 2.115158 g / cm^3
# Si number density = 21.199836 Si / 1000 Ang^3
#
#
#
# Elastic Constant Matrix: (Units=GPa)
#
#
# Indices 1 2 3 4 5 6 
#
# 1 138.7073 17.6715 29.7945 -8.0351 -3.4396 -0.2238
# 2 17.6715 52.4753 14.9913 3.7097 -1.9451 -5.2584
# 3 29.7945 14.9913 86.8817 -0.4200 4.9270 4.8585
# 4 -8.0351 3.7097 -0.4200 32.4368 0.0131 -1.0400
# 5 -3.4396 -1.9451 4.9270 0.0131 33.4962 1.7033
# 6 -0.2238 -5.2584 4.8585 -1.0400 1.7033 34.1801
#
#
#
# Elastic Compliance Matrix: (Units=1/GPa)
#
#
# Indices 1 2 3 4 5 6 
#
# 1 0.008174 -0.002152 -0.002487 0.002241 0.001075 0.000091
# 2 -0.002152 0.021315 -0.003228 -0.002899 0.001311 0.003570
# 3 -0.002487 -0.003228 0.013175 -0.000148 -0.002265 -0.002277
# 4 0.002241 -0.002899 -0.000148 0.031732 0.000043 0.000553
# 5 0.001075 0.001311 -0.002265 0.000043 0.030424 -0.000984
# 6 0.000091 0.003570 -0.002277 0.000553 -0.000984 0.030196
#
#
# Mechanical properties :
#
#
# Convention : Reuss Voigt Hill
#
# Bulk Modulus (GPa) = 37.13300 44.77542 40.95421
# Shear Modulus (GPa) = 31.30357 34.39642 32.85000
#
# Velocity S-wave (km/s) = 3.84682 4.03238 3.94069
# Velocity P-wave (km/s) = 6.10610 6.54573 6.32973
#
# Compressibility (1/GPa) = 0.02693022
#
# Stress axis : x y z
#
# Youngs Moduli (GPa) = 122.33241 46.91606 75.90209
#
# Poissons Ratio (x) = 0.10095 0.18878
# Poissons Ratio (y) = 0.26323 0.24501
# Poissons Ratio (z) = 0.30426 0.15144
#
# Static dielectric constant tensor:
#      x y z
#    x 3.992280 -0.022700 0.097860 
#    y -0.022700 3.733970 -0.021350 
#    z 0.097860 -0.021350 3.590370 
# 
# 
# High freq. dielectric constant tensor:
#      x y z
#    x 1.842550 0.002250 0.000900 
#    y 0.002250 1.817570 -0.004760 
#    z 0.000900 -0.004760 1.827360 
# 
# From -- ./inp_files/308116.got.cif
#   From: 2010.06.25/outbox.cif.g09.slc.cpg/sg2_155_cif.got.tgz:308116.got - 2010.06.27 13:26:56.
