data_PCOD8019884
_publ_section_title
;
Structure prediction by ZEFSAII (Michael W. Deem and Ramdas Pophale) SiO2 
 PCOD8019884
Probable space group: P -1
;
_chemical_formula_sum "Si O2"
_cell_formula_units_Z 16
_cell_length_a 15.228818
_cell_length_b 10.558729
_cell_length_c 8.801433
_cell_angle_alpha 137.690284
_cell_angle_beta 133.282496
_cell_angle_gamma 46.688296
_cell_volume 645.615108
_symmetry_space_group_name_H-M "P -1"
_symmetry_group_IT_number 2
_symmetry_cell_setting 'triclinic'
loop_
_space_group_symop_operation_xyz
x,y,z
-x,-y,-z
loop_
_atom_site_type_symbol
_atom_site_label
_atom_site_fract_x
_atom_site_fract_y
_atom_site_fract_z
Si Si1 0.594065 0.378687 0.767131
Si Si2 0.839201 0.837264 0.222387
Si Si3 0.879126 0.308069 0.546027
Si Si4 0.628595 0.828217 0.438102
Si Si5 0.869441 0.747772 0.844478
Si Si6 0.157899 0.598939 0.082929
Si Si7 0.404869 0.975454 0.737057
Si Si8 0.354173 0.618453 0.846488
O O1 0.722310 0.406460 0.883047
O O2 0.540833 0.243405 0.474657
O O3 0.471116 0.589526 0.837589
O O4 0.629858 0.270878 0.881129
O O5 0.975186 0.840887 0.449466
O O6 0.726396 0.016098 0.329351
O O7 0.833187 0.880672 0.073329
O O8 0.821323 0.629855 0.057005
O O9 0.866146 0.533920 0.699183
O O10 0.843065 0.285552 0.657838
O O11 0.781980 0.247812 0.269683
O O12 0.760634 0.851805 0.680679
O O13 0.635024 0.606526 0.292061
O O14 0.500000 0.000000 0.500000
O O15 0.627269 0.849410 0.272698
O O16 0.017386 0.711025 0.932587
O O17 0.500000 0.000000 0.000000
#
# Coordination Sequence:
#
# PCOD8019884 Si02
#       8
#     2   2   2   2   2   2   2   2
#     4  11  24  41  57  89 129 158 198 254 309 353
#     4   9  18  38  63  93 119 157 206 243 293 357
#     4   8  17  36  66  90 118 159 201 246 290 360
#     4  11  20  39  64  86 118 165 208 242 297 353
#     4   8  17  35  65  92 121 157 202 248 290 363
#     4   9  18  37  64  95 121 155 201 250 303 350
#     4  12  26  41  60  90 122 158 206 254 301 365
#     4  10  22  42  62  87 124 159 205 247 298 362
#
# _framework density 24.782568000000001
#
# number of rings (size 3 to 8) (size 9 to 14) (size 15 to 20)
#    0.000    2.250    1.250    3.000    3.500    1.500 
#    4.500    8.750    0.000    0.000    0.000    0.000 
#    0.000    0.000    0.000    0.000    0.000    0.000 
#
# Total GULP energy -198243.443750 kJ/mol
# GULP energy per Si atom -12390.215234 kJ/mol
# Density = 2.472616 g / cm^3
# Si number density = 24.782568 Si / 1000 Ang^3
#
#
#
# Elastic Constant Matrix: (Units=GPa)
#
#
# Indices 1 2 3 4 5 6 
#
# 1 168.9165 45.1356 59.8893 -23.3196 3.4301 -31.5642
# 2 45.1356 74.6695 48.7026 -30.1771 3.1473 -9.3481
# 3 59.8893 48.7026 155.2011 -57.9470 -6.3837 -21.4948
# 4 -23.3196 -30.1771 -57.9470 48.6297 -6.8887 13.2927
# 5 3.4301 3.1473 -6.3837 -6.8887 36.6474 1.1564
# 6 -31.5642 -9.3481 -21.4948 13.2927 1.1564 33.0638
#
#
#
# Elastic Compliance Matrix: (Units=1/GPa)
#
#
# Indices 1 2 3 4 5 6 
#
# 1 0.008784 -0.004143 -0.002499 -0.003521 -0.001787 0.007068
# 2 -0.004143 0.020465 -0.001645 0.009642 0.000255 -0.003124
# 3 -0.002499 -0.001645 0.013718 0.014956 0.005580 -0.000141
# 4 -0.003521 0.009642 0.014956 0.047074 0.011278 -0.010233
# 5 -0.001787 0.000255 0.005580 0.011278 0.030638 -0.003612
# 6 0.007068 -0.003124 -0.000141 -0.010233 -0.003612 0.040257
#
#
# Mechanical properties :
#
#
# Convention : Reuss Voigt Hill
#
# Bulk Modulus (GPa) = 37.88969 78.47135 58.18052
# Shear Modulus (GPa) = 26.83725 40.00548 33.42137
#
# Velocity S-wave (km/s) = 3.29433 4.02214 3.67629
# Velocity P-wave (km/s) = 5.45822 7.30088 6.44574
#
# Compressibility (1/GPa) = 0.02639240
#
# Stress axis : x y z
#
# Youngs Moduli (GPa) = 113.84475 48.86477 72.89709
#
# Poissons Ratio (x) = 0.20243 0.18216
# Poissons Ratio (y) = 0.47162 0.11995
# Poissons Ratio (z) = 0.28449 0.08041
#
# Static dielectric constant tensor:
#      x y z
#    x 4.684160 -0.231250 0.035530 
#    y -0.231250 4.377320 -0.401870 
#    z 0.035530 -0.401870 4.899120 
# 
# 
# High freq. dielectric constant tensor:
#      x y z
#    x 1.986360 -0.014240 0.011800 
#    y -0.014240 1.976080 -0.003710 
#    z 0.011800 -0.003710 1.992850 
# 
# From -- ./inp_files/308615.got.cif
#   From: 2010.06.25/outbox.cif.g09.slc.cpg/sg2_155_cif.got.tgz:308615.got - 2010.06.27 13:26:56.
