data_PCOD8019923
_publ_section_title
;
Structure prediction by ZEFSAII (Michael W. Deem and Ramdas Pophale) SiO2 
 PCOD8019923
Probable space group: P -1
;
_chemical_formula_sum "Si O2"
_cell_formula_units_Z 14
_cell_length_a 11.908513
_cell_length_b 8.628175
_cell_length_c 9.923528
_cell_angle_alpha 55.480107
_cell_angle_beta 99.495968
_cell_angle_gamma 63.477328
_cell_volume 619.155897
_symmetry_space_group_name_H-M "P -1"
_symmetry_group_IT_number 2
_symmetry_cell_setting 'triclinic'
loop_
_space_group_symop_operation_xyz
x,y,z
-x,-y,-z
loop_
_atom_site_type_symbol
_atom_site_label
_atom_site_fract_x
_atom_site_fract_y
_atom_site_fract_z
Si Si1 0.201437 0.481583 0.554582
Si Si2 0.869978 0.829254 0.202820
Si Si3 0.568050 0.765022 0.505502
Si Si4 0.821025 0.240641 0.332555
Si Si5 0.769492 0.343115 0.967214
Si Si6 0.972861 0.431422 0.889413
Si Si7 0.692728 0.989068 0.506798
O O1 0.208201 0.247402 0.685915
O O2 0.339115 0.405114 0.523945
O O3 0.225386 0.558213 0.663212
O O4 0.036407 0.711707 0.346858
O O5 0.883140 0.732100 0.101478
O O6 0.763361 0.128179 0.039863
O O7 0.574524 0.986521 0.401977
O O8 0.386664 0.907347 0.408910
O O9 0.632016 0.594414 0.738951
O O10 0.771235 0.378981 0.110803
O O11 0.722741 0.159383 0.368710
O O12 0.000000 0.000000 0.500000
O O13 0.924645 0.267967 0.980242
O O14 0.844651 0.699679 0.663778
O O15 0.000000 0.500000 0.000000
#
# Coordination Sequence:
#
# PCOD8019923 Si02
#       7
#     2   2   2   2   2   2   2
#     4  11  22  38  61  89 122 164 205 244 311 362
#     4  11  21  37  62  91 122 160 202 253 305 365
#     4  10  23  42  64  87 119 173 205 241 297 379
#     4  12  23  37  63  94 124 157 200 263 307 352
#     4  11  22  36  61  93 124 155 206 253 303 357
#     4  11  22  37  62  97 122 152 201 265 308 348
#     4  10  22  42  63  86 124 166 205 241 305 376
#
# _framework density 22.611429999999999
#
# number of rings (size 3 to 8) (size 9 to 14) (size 15 to 20)
#    0.000    1.143    4.286    3.857    0.000    1.143 
#    0.000    1.429    0.000    9.429    0.000    0.000 
#    0.000    0.000    0.000    0.000    0.000    0.000 
#
# Total GULP energy -173436.446840 kJ/mol
# GULP energy per Si atom -12388.317631 kJ/mol
# Density = 2.255997 g / cm^3
# Si number density = 22.611430 Si / 1000 Ang^3
#
#
#
# Elastic Constant Matrix: (Units=GPa)
#
#
# Indices 1 2 3 4 5 6 
#
# 1 47.4517 9.5742 18.4327 -2.4858 -21.4956 -0.8677
# 2 9.5742 121.7498 48.2340 15.1886 1.3043 -0.3454
# 3 18.4327 48.2340 83.6509 12.8239 -21.2780 9.2006
# 4 -2.4858 15.1886 12.8239 40.1017 6.1675 -10.7217
# 5 -21.4956 1.3043 -21.2780 6.1675 25.1412 2.1108
# 6 -0.8677 -0.3454 9.2006 -10.7217 2.1108 37.9021
#
#
#
# Elastic Compliance Matrix: (Units=1/GPa)
#
#
# Indices 1 2 3 4 5 6 
#
# 1 0.036696 -0.004888 0.005399 -0.004416 0.037605 -0.003858
# 2 -0.004888 0.012799 -0.010663 0.001525 -0.014563 0.003835
# 3 0.005399 -0.010663 0.029117 -0.013625 0.034229 -0.012802
# 4 -0.004416 0.001525 -0.013625 0.036365 -0.025560 0.014931
# 5 0.037605 -0.014563 0.034229 -0.025560 0.109679 -0.020919
# 6 -0.003858 0.003835 -0.012802 0.014931 -0.020919 0.034827
#
#
# Mechanical properties :
#
#
# Convention : Reuss Voigt Hill
#
# Bulk Modulus (GPa) = 17.15018 45.03713 31.09366
# Shear Modulus (GPa) = 16.70996 32.40312 24.55654
#
# Velocity S-wave (km/s) = 2.72141 3.78966 3.29906
# Velocity P-wave (km/s) = 4.18043 6.25378 5.31911
#
# Compressibility (1/GPa) = 0.05830844
#
# Stress axis : x y z
#
# Youngs Moduli (GPa) = 27.25084 78.13067 34.34446
#
# Poissons Ratio (x) = 0.38187 -0.18542
# Poissons Ratio (y) = 0.13319 0.36622
# Poissons Ratio (z) = -0.14712 0.83312
#
# Static dielectric constant tensor:
#      x y z
#    x 4.134920 -0.120370 -0.335060 
#    y -0.120370 4.193290 0.097300 
#    z -0.335060 0.097300 3.920480 
# 
# 
# High freq. dielectric constant tensor:
#      x y z
#    x 1.876540 -0.003570 -0.034130 
#    y -0.003570 1.903500 0.004940 
#    z -0.034130 0.004940 1.874140 
# 
# From -- ./inp_files/233816.got.cif
#   From: 2010.06.25/outbox.cif.g09.slc.cpg/sg2_117_cif.got.tgz:233816.got - 2010.06.27 13:26:56.
