data_PCOD8019087
_publ_section_title
;
Structure prediction by ZEFSAII (Michael W. Deem and Ramdas Pophale) SiO2 
 PCOD8019087
Probable space group: P -1
;
_chemical_formula_sum "Si O2"
_cell_formula_units_Z 14
_cell_length_a 11.395542
_cell_length_b 12.637905
_cell_length_c 7.469382
_cell_angle_alpha 60.976657
_cell_angle_beta 143.957113
_cell_angle_gamma 113.713328
_cell_volume 553.352359
_symmetry_space_group_name_H-M "P -1"
_symmetry_group_IT_number 2
_symmetry_cell_setting 'triclinic'
loop_
_space_group_symop_operation_xyz
x,y,z
-x,-y,-z
loop_
_atom_site_type_symbol
_atom_site_label
_atom_site_fract_x
_atom_site_fract_y
_atom_site_fract_z
Si Si1 0.333852 0.338843 0.300057
Si Si2 0.323881 0.495825 0.510778
Si Si3 0.622623 0.882757 0.209827
Si Si4 0.011807 0.060379 0.215108
Si Si5 0.896061 0.311899 0.750473
Si Si6 0.307659 0.078402 0.236540
Si Si7 0.516209 0.713922 0.898342
O O1 0.312294 0.437122 0.352085
O O2 0.499915 0.400909 0.325157
O O3 0.401662 0.213437 0.577471
O O4 0.121717 0.326113 0.943756
O O5 0.127714 0.574802 0.235894
O O6 0.356388 0.398128 0.786749
O O7 0.858599 0.926597 0.452742
O O8 0.541830 0.825436 0.975376
O O9 0.500000 0.000000 0.000000
O O10 0.190126 0.045060 0.299508
O O11 0.880964 0.180996 0.933265
O O12 0.854904 0.948326 0.101676
O O13 0.720473 0.317721 0.379733
O O14 0.380757 0.222284 0.205603
O O15 0.500000 0.000000 0.500000
#
# Coordination Sequence:
#
# PCOD8019087 Si02
#       7
#     2   2   2   2   2   2   2
#     4   9  22  43  67  90 129 172 217 251 333 386
#     4  10  22  44  63  93 129 172 210 270 317 377
#     4  10  22  41  64  95 130 164 213 269 314 384
#     4  10  24  41  68  94 124 174 217 246 341 389
#     4  11  22  39  65  94 125 167 215 265 314 382
#     4  11  22  43  66  92 131 167 210 272 316 384
#     4  11  24  40  63  97 130 165 217 266 319 371
#
# _framework density 25.300335
#
# number of rings (size 3 to 8) (size 9 to 14) (size 15 to 20)
#    0.000    1.714    1.429    1.714    6.000    2.286 
#    2.571    4.286    0.000    0.000    0.000    0.000 
#    0.000    0.000    0.000    0.000    0.000    0.000 
#
# Total GULP energy -173495.186179 kJ/mol
# GULP energy per Si atom -12392.513299 kJ/mol
# Density = 2.524275 g / cm^3
# Si number density = 25.300335 Si / 1000 Ang^3
#
#
#
# Elastic Constant Matrix: (Units=GPa)
#
#
# Indices 1 2 3 4 5 6 
#
# 1 51.7518 15.9265 40.1229 3.0968 16.4585 3.4069
# 2 15.9265 152.3997 41.0714 4.4157 19.2293 0.8939
# 3 40.1229 41.0714 114.5569 6.0789 21.1270 -4.4850
# 4 3.0968 4.4157 6.0789 53.7258 -14.9278 8.7595
# 5 16.4585 19.2293 21.1270 -14.9278 33.1814 -1.7412
# 6 3.4069 0.8939 -4.4850 8.7595 -1.7412 39.1374
#
#
#
# Elastic Compliance Matrix: (Units=1/GPa)
#
#
# Indices 1 2 3 4 5 6 
#
# 1 0.029793 0.000759 -0.008527 -0.003476 -0.011527 -0.003323
# 2 0.000759 0.007634 -0.002177 -0.001513 -0.004112 -0.000334
# 3 -0.008527 -0.002177 0.013474 -0.002414 -0.004032 0.002697
# 4 -0.003476 -0.001513 -0.002414 0.024062 0.014718 -0.004670
# 5 -0.011527 -0.004112 -0.004032 0.014718 0.047398 -0.000550
# 6 -0.003323 -0.000334 0.002697 -0.004670 -0.000550 0.027178
#
#
# Mechanical properties :
#
#
# Convention : Reuss Voigt Hill
#
# Bulk Modulus (GPa) = 32.24714 56.99442 44.62078
# Shear Modulus (GPa) = 27.81427 39.98142 33.89784
#
# Velocity S-wave (km/s) = 3.31926 3.97958 3.66432
# Velocity P-wave (km/s) = 5.24055 6.61000 5.96471
#
# Compressibility (1/GPa) = 0.03101050
#
# Stress axis : x y z
#
# Youngs Moduli (GPa) = 33.56532 130.99646 74.21918
#
# Poissons Ratio (x) = -0.09943 0.63285
# Poissons Ratio (y) = -0.02548 0.16158
# Poissons Ratio (z) = 0.28620 0.28519
#
# Static dielectric constant tensor:
#      x y z
#    x 4.630120 -0.256040 -0.148620 
#    y -0.256040 5.544200 0.429050 
#    z -0.148620 0.429050 4.643410 
# 
# 
# High freq. dielectric constant tensor:
#      x y z
#    x 2.001390 -0.028420 0.006980 
#    y -0.028420 2.056080 0.013980 
#    z 0.006980 0.013980 2.009620 
# 
# From -- ./inp_files/272018.got.cif
#   From: 2010.06.25/outbox.cif.g09.slc.cpg/sg2_137_cif.got.tgz:272018.got - 2010.06.27 13:26:56.
