data_PCOD8019150
_publ_section_title
;
Structure prediction by ZEFSAII (Michael W. Deem and Ramdas Pophale) SiO2 
 PCOD8019150
Probable space group: P -1
;
_chemical_formula_sum "Si O2"
_cell_formula_units_Z 16
_cell_length_a 9.360966
_cell_length_b 12.586441
_cell_length_c 17.162526
_cell_angle_alpha 42.914587
_cell_angle_beta 137.977175
_cell_angle_gamma 142.153278
_cell_volume 776.483436
_symmetry_space_group_name_H-M "P -1"
_symmetry_group_IT_number 2
_symmetry_cell_setting 'triclinic'
loop_
_space_group_symop_operation_xyz
x,y,z
-x,-y,-z
loop_
_atom_site_type_symbol
_atom_site_label
_atom_site_fract_x
_atom_site_fract_y
_atom_site_fract_z
Si Si1 0.429102 0.076533 0.763417
Si Si2 0.717927 0.680971 0.783025
Si Si3 0.404363 0.334231 0.493300
Si Si4 0.774193 0.945579 0.995802
Si Si5 0.238880 0.486255 0.602910
Si Si6 0.994251 0.321333 0.237401
Si Si7 0.358717 0.546490 0.982245
Si Si8 0.873745 0.914381 0.230363
O O1 0.402643 0.170511 0.625405
O O2 0.372976 0.143805 0.785459
O O3 0.234219 0.861596 0.792751
O O4 0.699320 0.096728 0.867602
O O5 0.416438 0.586773 0.696830
O O6 0.763395 0.621789 0.916479
O O7 0.803995 0.591268 0.798886
O O8 0.875282 0.906876 0.724804
O O9 0.500000 0.500000 0.500000
O O10 0.592740 0.396004 0.464895
O O11 0.122716 0.278588 0.383866
O O12 0.554620 0.734860 0.004386
O O13 0.850908 0.966183 0.105748
O O14 0.000000 0.000000 0.000000
O O15 0.113751 0.266473 0.666213
O O16 0.000000 0.500000 0.500000
O O17 0.880077 0.444505 0.152162
O O18 0.500000 0.500000 0.000000
#
# Coordination Sequence:
#
# PCOD8019150 Si02
#       8
#     2   2   2   2   2   2   2   2
#     4  10  22  41  65  91 124 167 215 261 316 378
#     4  10  22  42  66  91 124 169 213 259 316 375
#     4  11  22  39  63  91 122 165 214 254 316 378
#     4  11  24  40  64  95 130 164 209 271 318 376
#     4  11  25  43  64  94 133 168 212 264 310 383
#     4   9  22  40  63  89 124 165 210 266 307 382
#     4  11  22  40  61  94 129 162 209 264 323 372
#     4  11  22  44  66  93 128 166 216 261 319 372
#
# _framework density 20.605719000000001
#
# number of rings (size 3 to 8) (size 9 to 14) (size 15 to 20)
#    0.000    1.500    2.500    1.875    1.750    3.500 
#    0.000    0.000    0.000    0.000    0.000    0.000 
#    0.000    0.000    0.000    0.000    0.000    0.000 
#
# Total GULP energy -198311.330172 kJ/mol
# GULP energy per Si atom -12394.458136 kJ/mol
# Density = 2.055882 g / cm^3
# Si number density = 20.605719 Si / 1000 Ang^3
#
#
#
# Elastic Constant Matrix: (Units=GPa)
#
#
# Indices 1 2 3 4 5 6 
#
# 1 112.3247 24.6762 93.5286 7.1611 9.1094 -1.7906
# 2 24.6762 82.4223 30.7456 -3.0555 17.7328 -5.4568
# 3 93.5286 30.7456 167.0541 -2.9659 19.3468 2.0232
# 4 7.1611 -3.0555 -2.9659 27.1984 4.8745 -1.9697
# 5 9.1094 17.7328 19.3468 4.8745 44.7175 -0.3453
# 6 -1.7906 -5.4568 2.0232 -1.9697 -0.3453 30.5972
#
#
#
# Elastic Compliance Matrix: (Units=1/GPa)
#
#
# Indices 1 2 3 4 5 6 
#
# 1 0.018027 -0.002320 -0.010059 -0.006451 0.002310 0.000917
# 2 -0.002320 0.014544 -0.000735 0.003310 -0.005317 0.002660
# 3 -0.010059 -0.000735 0.012247 0.004427 -0.003450 -0.001284
# 4 -0.006451 0.003310 0.004427 0.040632 -0.006324 0.002464
# 5 0.002310 -0.005317 -0.003450 -0.006324 0.026177 -0.000697
# 6 0.000917 0.002660 -0.001284 0.002464 -0.000697 0.033446
#
#
# Mechanical properties :
#
#
# Convention : Reuss Voigt Hill
#
# Bulk Modulus (GPa) = 53.79561 73.30021 63.54791
# Shear Modulus (GPa) = 28.16930 34.69265 31.43098
#
# Velocity S-wave (km/s) = 3.70139 4.10767 3.90981
# Velocity P-wave (km/s) = 6.66565 7.62544 7.16164
#
# Compressibility (1/GPa) = 0.01858888
#
# Stress axis : x y z
#
# Youngs Moduli (GPa) = 55.47379 68.75509 81.65465
#
# Poissons Ratio (x) = 0.15953 0.82134
# Poissons Ratio (y) = 0.12871 0.06006
# Poissons Ratio (z) = 0.55799 0.05057
#
# Static dielectric constant tensor:
#      x y z
#    x 3.801250 -0.017430 0.253940 
#    y -0.017430 3.893850 0.086340 
#    z 0.253940 0.086340 3.881990 
# 
# 
# High freq. dielectric constant tensor:
#      x y z
#    x 1.805480 0.000010 -0.000700 
#    y 0.000010 1.813290 -0.000470 
#    z -0.000700 -0.000470 1.809440 
# 
# From -- ./inp_files/186784.got.cif
#   From: 2010.06.25/outbox.cif.g09.slc.cpg/sg2_94_cif.got.tgz:186784.got - 2010.06.27 13:26:56.
