data_PCOD8019222
_publ_section_title
;
Structure prediction by ZEFSAII (Michael W. Deem and Ramdas Pophale) SiO2 
 PCOD8019222
Probable space group: P -1
;
_chemical_formula_sum "Si O2"
_cell_formula_units_Z 14
_cell_length_a 22.204637
_cell_length_b 11.086562
_cell_length_c 8.228226
_cell_angle_alpha 121.030608
_cell_angle_beta 46.787281
_cell_angle_gamma 151.626100
_cell_volume 679.086743
_symmetry_space_group_name_H-M "P -1"
_symmetry_group_IT_number 2
_symmetry_cell_setting 'triclinic'
loop_
_space_group_symop_operation_xyz
x,y,z
-x,-y,-z
loop_
_atom_site_type_symbol
_atom_site_label
_atom_site_fract_x
_atom_site_fract_y
_atom_site_fract_z
Si Si1 0.329543 0.777998 0.233776
Si Si2 0.589727 0.241356 0.609679
Si Si3 0.045086 0.273752 0.220724
Si Si4 0.656698 0.659239 0.262111
Si Si5 0.188032 0.296230 0.728112
Si Si6 0.514369 0.643160 0.942219
Si Si7 0.218151 0.931259 0.495522
O O1 0.321504 0.723114 0.397160
O O2 0.204483 0.505546 0.183076
O O3 0.275061 0.859601 0.382524
O O4 0.500000 0.000000 0.000000
O O5 0.708774 0.505071 0.472326
O O6 0.500000 0.000000 0.500000
O O7 0.477740 0.192276 0.871982
O O8 0.960427 0.305750 0.396088
O O9 0.084742 0.278315 0.968353
O O10 0.925662 0.990202 0.324051
O O11 0.500000 0.500000 0.500000
O O12 0.705365 0.598642 0.243819
O O13 0.633343 0.575160 0.060089
O O14 0.775849 0.959648 0.278391
O O15 0.672852 0.848751 0.694960
O O16 0.500000 0.500000 0.000000
#
# Coordination Sequence:
#
# PCOD8019222 Si02
#       7
#     2   2   2   2   2   2   2
#     4  12  24  42  67  97 132 177 221 272 341 389
#     4  12  26  39  66 102 136 170 226 280 320 392
#     4  10  22  43  68  91 132 175 221 268 335 404
#     4   9  19  36  64  90 129 164 220 265 317 386
#     4  10  22  42  65  94 131 178 218 269 332 391
#     4  11  22  38  65  98 131 174 223 274 322 390
#     4  10  22  41  65  98 128 175 217 272 337 395
#
# _framework density 20.615922000000001
#
# number of rings (size 3 to 8) (size 9 to 14) (size 15 to 20)
#    0.000    1.429    1.429    4.714    8.000    0.571 
#    0.000    5.000    0.000    0.000    0.000    0.000 
#    0.000    0.000    0.000    0.000    0.000    0.000 
#
# Total GULP energy -173484.090830 kJ/mol
# GULP energy per Si atom -12391.720774 kJ/mol
# Density = 2.056900 g / cm^3
# Si number density = 20.615922 Si / 1000 Ang^3
#
#
#
# Elastic Constant Matrix: (Units=GPa)
#
#
# Indices 1 2 3 4 5 6 
#
# 1 153.6885 55.0152 52.3619 -1.2564 -5.6489 4.2359
# 2 55.0152 112.0664 49.3113 4.6637 -2.0607 18.0793
# 3 52.3619 49.3113 101.8611 11.0328 -16.8055 7.1564
# 4 -1.2564 4.6637 11.0328 37.1276 1.9007 -5.3216
# 5 -5.6489 -2.0607 -16.8055 1.9007 36.8907 0.1967
# 6 4.2359 18.0793 7.1564 -5.3216 0.1967 27.8534
#
#
#
# Elastic Compliance Matrix: (Units=1/GPa)
#
#
# Indices 1 2 3 4 5 6 
#
# 1 0.008758 -0.003232 -0.003380 0.002022 -0.000494 0.002024
# 2 -0.003232 0.013781 -0.004603 -0.001466 -0.001706 -0.007539
# 3 -0.003380 -0.004603 0.015463 -0.004667 0.006517 -0.001409
# 4 0.002022 -0.001466 -0.004667 0.029836 -0.003476 0.007568
# 5 -0.000494 -0.001706 0.006517 -0.003476 0.030091 -0.001368
# 6 0.002024 -0.007539 -0.001409 0.007568 -0.001368 0.042305
#
#
# Mechanical properties :
#
#
# Convention : Reuss Voigt Hill
#
# Bulk Modulus (GPa) = 64.22033 75.66586 69.94309
# Shear Modulus (GPa) = 29.78741 34.43618 32.11180
#
# Velocity S-wave (km/s) = 3.80527 4.09145 3.95095
# Velocity P-wave (km/s) = 7.10811 7.68780 7.40363
#
# Compressibility (1/GPa) = 0.01557139
#
# Stress axis : x y z
#
# Youngs Moduli (GPa) = 114.18459 72.56243 64.67016
#
# Poissons Ratio (x) = 0.23450 0.21860
# Poissons Ratio (y) = 0.36902 0.29770
# Poissons Ratio (z) = 0.38597 0.33403
#
# Static dielectric constant tensor:
#      x y z
#    x 4.524590 1.462440 0.201530 
#    y 1.462440 6.390510 0.799880 
#    z 0.201530 0.799880 4.114700 
# 
# 
# High freq. dielectric constant tensor:
#      x y z
#    x 1.801720 0.004820 -0.024070 
#    y 0.004820 1.808010 0.012760 
#    z -0.024070 0.012760 1.810490 
# 
# From -- ./inp_files/345492.got.cif
#   From: 2010.06.25/outbox.cif.g09.slc.cpg/sg2_173_cif.got.tgz:345492.got - 2010.06.27 13:26:56.
