data_PCOD8019496
_publ_section_title
;
Structure prediction by ZEFSAII (Michael W. Deem and Ramdas Pophale) SiO2 
 PCOD8019496
Probable space group: P -1
;
_chemical_formula_sum "Si O2"
_cell_formula_units_Z 14
_cell_length_a 11.055683
_cell_length_b 10.703702
_cell_length_c 13.672170
_cell_angle_alpha 33.472307
_cell_angle_beta 38.840529
_cell_angle_gamma 49.608952
_cell_volume 559.627086
_symmetry_space_group_name_H-M "P -1"
_symmetry_group_IT_number 2
_symmetry_cell_setting 'triclinic'
loop_
_space_group_symop_operation_xyz
x,y,z
-x,-y,-z
loop_
_atom_site_type_symbol
_atom_site_label
_atom_site_fract_x
_atom_site_fract_y
_atom_site_fract_z
Si Si1 0.909071 0.748924 0.402332
Si Si2 0.793656 0.552376 0.787405
Si Si3 0.218254 0.630298 0.525597
Si Si4 0.538642 0.860651 0.470203
Si Si5 0.254722 0.990947 0.102645
Si Si6 0.628478 0.492946 0.299244
Si Si7 0.537782 0.197260 0.081287
O O1 0.788680 0.750038 0.579132
O O2 0.764056 0.786793 0.379502
O O3 0.000000 0.500000 0.500000
O O4 0.066385 0.950200 0.180535
O O5 0.646269 0.632994 0.912345
O O6 0.011693 0.512486 0.712962
O O7 0.724453 0.321034 0.930018
O O8 0.236575 0.866250 0.300271
O O9 0.402349 0.475606 0.485619
O O10 0.236028 0.653580 0.616890
O O11 0.389012 0.644382 0.703083
O O12 0.500000 0.000000 0.500000
O O13 0.499606 0.981422 0.313322
O O14 0.429863 0.881165 0.000610
O O15 0.289477 0.254384 0.929177
#
# Coordination Sequence:
#
# PCOD8019496 Si02
#       7
#     2   2   2   2   2   2   2
#     4  11  22  44  74 105 136 188 243 291 351 420
#     4  10  22  41  68 107 143 186 236 297 353 424
#     4  10  23  45  73 101 146 186 238 292 352 423
#     4  12  26  46  72 102 147 182 236 309 353 422
#     4  11  24  43  76 103 139 190 238 296 352 422
#     4  11  25  45  70 106 139 189 242 290 358 430
#     4  11  23  40  72 108 141 188 240 286 370 413
#
# _framework density 25.016658
#
# number of rings (size 3 to 8) (size 9 to 14) (size 15 to 20)
#    0.000    1.143    2.857    3.857    2.000    0.571 
#    0.000    3.571    3.143    2.571    0.000    0.000 
#    0.000    0.000    0.000    0.000    0.000    0.000 
#
# Total GULP energy -173457.639870 kJ/mol
# GULP energy per Si atom -12389.831419 kJ/mol
# Density = 2.495972 g / cm^3
# Si number density = 25.016658 Si / 1000 Ang^3
#
#
#
# Elastic Constant Matrix: (Units=GPa)
#
#
# Indices 1 2 3 4 5 6 
#
# 1 148.1673 43.7637 65.9912 -26.3032 -30.8887 -9.5681
# 2 43.7637 83.7131 56.8428 -21.6866 -12.3394 15.0204
# 3 65.9912 56.8428 120.9446 -18.5555 -30.8478 11.5575
# 4 -26.3032 -21.6866 -18.5555 30.3363 6.5061 -12.1451
# 5 -30.8887 -12.3394 -30.8478 6.5061 47.7064 -8.2326
# 6 -9.5681 15.0204 11.5575 -12.1451 -8.2326 39.2413
#
#
#
# Elastic Compliance Matrix: (Units=1/GPa)
#
#
# Indices 1 2 3 4 5 6 
#
# 1 0.012478 -0.002405 -0.003762 0.009285 0.005322 0.009061
# 2 -0.002405 0.020503 -0.007586 0.006650 -0.002885 -0.004747
# 3 -0.003762 -0.007586 0.015221 -0.001218 0.005307 -0.001760
# 4 0.009285 0.006650 -0.001218 0.051006 0.002829 0.016457
# 5 0.005322 -0.002885 0.005307 0.002829 0.028017 0.007592
# 6 0.009061 -0.004747 -0.001760 0.016457 0.007592 0.036714
#
#
# Mechanical properties :
#
#
# Convention : Reuss Voigt Hill
#
# Bulk Modulus (GPa) = 48.31768 76.22450 62.27109
# Shear Modulus (GPa) = 25.20877 35.87194 30.54035
#
# Velocity S-wave (km/s) = 3.17784 3.79082 3.49779
# Velocity P-wave (km/s) = 5.72896 7.04955 6.42328
#
# Compressibility (1/GPa) = 0.02069636
#
# Stress axis : x y z
#
# Youngs Moduli (GPa) = 80.14174 48.77309 65.69729
#
# Poissons Ratio (x) = 0.11728 0.24716
# Poissons Ratio (y) = 0.19271 0.49839
# Poissons Ratio (z) = 0.30151 0.37000
#
# Static dielectric constant tensor:
#      x y z
#    x 5.035060 -0.023250 -0.179180 
#    y -0.023250 4.361550 0.212660 
#    z -0.179180 0.212660 4.596220 
# 
# 
# High freq. dielectric constant tensor:
#      x y z
#    x 2.013670 0.004150 -0.014640 
#    y 0.004150 1.974510 -0.003330 
#    z -0.014640 -0.003330 1.991050 
# 
# From -- ./inp_files/518508.got.cif
#   From: 2010.06.25/outbox.cif.g09.slc.cpg/sg2_260_cif.got.tgz:518508.got - 2010.06.27 13:26:56.
