data_PCOD8019484
_publ_section_title
;
Structure prediction by ZEFSAII (Michael W. Deem and Ramdas Pophale) SiO2 
 PCOD8019484
Probable space group: P -1
;
_chemical_formula_sum "Si O2"
_cell_formula_units_Z 16
_cell_length_a 6.936118
_cell_length_b 10.733418
_cell_length_c 11.308142
_cell_angle_alpha 81.008525
_cell_angle_beta 115.349168
_cell_angle_gamma 83.918971
_cell_volume 737.239595
_symmetry_space_group_name_H-M "P -1"
_symmetry_group_IT_number 2
_symmetry_cell_setting 'triclinic'
loop_
_space_group_symop_operation_xyz
x,y,z
-x,-y,-z
loop_
_atom_site_type_symbol
_atom_site_label
_atom_site_fract_x
_atom_site_fract_y
_atom_site_fract_z
Si Si1 0.447461 0.638298 0.398883
Si Si2 0.945649 0.715088 0.199244
Si Si3 0.274109 0.146387 0.093328
Si Si4 0.333192 0.050076 0.790046
Si Si5 0.605276 0.583023 0.183192
Si Si6 0.368939 0.115415 0.523885
Si Si7 0.591969 0.319118 0.115525
Si Si8 0.003219 0.132576 0.251973
O O1 0.500000 0.500000 0.500000
O O2 0.546134 0.620400 0.296670
O O3 0.542467 0.749314 0.476411
O O4 0.189142 0.694862 0.313418
O O5 0.755440 0.807355 0.209325
O O6 0.860826 0.581102 0.218079
O O7 0.919772 0.774130 0.051102
O O8 0.452607 0.231013 0.162957
O O9 0.167559 0.106059 0.189576
O O10 0.424102 0.020223 0.086977
O O11 0.371248 0.057555 0.661206
O O12 0.141142 0.975219 0.778642
O O13 0.539277 0.448991 0.156260
O O14 0.471466 0.681009 0.039055
O O15 0.125852 0.137696 0.406727
O O16 0.500000 0.000000 0.500000
O O17 0.849118 0.271215 0.189185
#
# Coordination Sequence:
#
# PCOD8019484 Si02
#       8
#     2   2   2   2   2   2   2   2
#     4  12  29  44  67 100 136 182 228 278 329 401
#     4  11  24  43  68  95 135 176 217 277 343 393
#     4  10  22  41  68 103 132 166 221 281 336 400
#     4  11  23  43  66 101 129 175 222 275 341 403
#     4  10  22  45  65  94 135 168 225 274 332 394
#     4  12  25  46  67  94 140 179 223 277 328 402
#     4   9  22  40  69  97 127 175 218 276 330 402
#     4  11  23  39  68  96 130 173 223 270 336 392
#
# _framework density 21.702577000000002
#
# number of rings (size 3 to 8) (size 9 to 14) (size 15 to 20)
#    0.000    1.250    2.500    2.250    3.500    2.000 
#    0.000    3.750    0.000    0.000    0.000    0.000 
#    0.000    0.000    0.000    0.000    0.000    0.000 
#
# Total GULP energy -198237.971996 kJ/mol
# GULP energy per Si atom -12389.873250 kJ/mol
# Density = 2.165318 g / cm^3
# Si number density = 21.702577 Si / 1000 Ang^3
#
#
#
# Elastic Constant Matrix: (Units=GPa)
#
#
# Indices 1 2 3 4 5 6 
#
# 1 87.4339 36.9688 14.8563 -12.0992 9.6992 9.9036
# 2 36.9688 92.8854 26.6443 -2.4809 -4.7535 4.7986
# 3 14.8563 26.6443 49.8785 -4.8851 19.7910 1.1256
# 4 -12.0992 -2.4809 -4.8851 31.5789 -2.9165 -1.5939
# 5 9.6992 -4.7535 19.7910 -2.9165 45.2199 -3.9029
# 6 9.9036 4.7986 1.1256 -1.5939 -3.9029 27.2288
#
#
#
# Elastic Compliance Matrix: (Units=1/GPa)
#
#
# Indices 1 2 3 4 5 6 
#
# 1 0.015750 -0.006472 0.001241 0.005030 -0.004711 -0.005020
# 2 -0.006472 0.016520 -0.010079 -0.002009 0.007476 0.000813
# 3 0.001241 -0.010079 0.031367 0.003050 -0.015025 -0.001947
# 4 0.005030 -0.002009 0.003050 0.033886 -0.000412 0.000323
# 5 -0.004711 0.007476 -0.015025 -0.000412 0.030928 0.005426
# 6 -0.005020 0.000813 -0.001947 0.000323 0.005426 0.039286
#
#
# Mechanical properties :
#
#
# Convention : Reuss Voigt Hill
#
# Bulk Modulus (GPa) = 30.28634 43.01517 36.65076
# Shear Modulus (GPa) = 23.88209 30.92075 27.40142
#
# Velocity S-wave (km/s) = 3.32087 3.77868 3.55715
# Velocity P-wave (km/s) = 5.35628 6.23709 5.81339
#
# Compressibility (1/GPa) = 0.03301818
#
# Stress axis : x y z
#
# Youngs Moduli (GPa) = 63.49203 60.53345 31.88032
#
# Poissons Ratio (x) = 0.39177 -0.03957
# Poissons Ratio (y) = 0.41092 0.32131
# Poissons Ratio (z) = -0.07880 0.61009
#
# Static dielectric constant tensor:
#      x y z
#    x 3.929390 0.180190 0.109520 
#    y 0.180190 4.208840 -0.104520 
#    z 0.109520 -0.104520 4.324690 
# 
# 
# High freq. dielectric constant tensor:
#      x y z
#    x 1.858900 0.008740 0.002400 
#    y 0.008740 1.860460 -0.003320 
#    z 0.002400 -0.003320 1.858570 
# 
# From -- ./inp_files/364383.got.cif
#   From: 2010.06.25/outbox.cif.g09.slc.cpg/sg2_183_cif.got.tgz:364383.got - 2010.06.27 13:26:56.
