data_PCOD8019402
_publ_section_title
;
Structure prediction by ZEFSAII (Michael W. Deem and Ramdas Pophale) SiO2 
 PCOD8019402
Probable space group: P -1
;
_chemical_formula_sum "Si O2"
_cell_formula_units_Z 14
_cell_length_a 9.521068
_cell_length_b 11.529933
_cell_length_c 8.507483
_cell_angle_alpha 86.818041
_cell_angle_beta 125.404041
_cell_angle_gamma 118.481103
_cell_volume 636.546988
_symmetry_space_group_name_H-M "P -1"
_symmetry_group_IT_number 2
_symmetry_cell_setting 'triclinic'
loop_
_space_group_symop_operation_xyz
x,y,z
-x,-y,-z
loop_
_atom_site_type_symbol
_atom_site_label
_atom_site_fract_x
_atom_site_fract_y
_atom_site_fract_z
Si Si1 0.102985 0.664579 0.576831
Si Si2 0.157698 0.454377 0.083666
Si Si3 0.494594 0.134083 0.017008
Si Si4 0.123925 0.273169 0.342570
Si Si5 0.165135 0.970906 0.049272
Si Si6 0.797983 0.221203 0.704889
Si Si7 0.512407 0.737132 0.300673
O O1 0.282636 0.725128 0.819597
O O2 0.212537 0.760946 0.488535
O O3 0.000000 0.500000 0.500000
O O4 0.935204 0.694693 0.528914
O O5 0.210309 0.410691 0.284882
O O6 0.377886 0.580522 0.154461
O O7 0.000000 0.500000 0.000000
O O8 0.041192 0.326834 0.896889
O O9 0.403601 0.156431 0.797487
O O10 0.500000 0.000000 0.000000
O O11 0.350138 0.108574 0.075215
O O12 0.293138 0.235688 0.477016
O O13 0.926946 0.148168 0.134536
O O14 0.253458 0.928917 0.258440
O O15 0.000000 0.000000 0.000000
O O16 0.637296 0.247633 0.681559
#
# Coordination Sequence:
#
# PCOD8019402 Si02
#       7
#     2   2   2   2   2   2   2
#     4  12  25  44  69 102 134 174 224 276 335 403
#     4   9  18  40  66  91 130 176 216 267 332 395
#     4  12  24  47  69  93 137 184 222 272 341 398
#     4  11  24  42  68 100 135 170 227 280 331 395
#     4  11  26  46  67  94 134 179 230 276 329 402
#     4  10  22  41  67  94 133 179 225 273 333 399
#     4  11  22  40  68  97 131 179 221 278 335 394
#
# _framework density 21.993662
#
# number of rings (size 3 to 8) (size 9 to 14) (size 15 to 20)
#    0.000    1.143    2.857    4.714    4.000    2.286 
#    2.571    1.429    0.000    0.000    0.000    0.000 
#    0.000    0.000    0.000    0.000    0.000    0.000 
#
# Total GULP energy -173573.449700 kJ/mol
# GULP energy per Si atom -12398.103550 kJ/mol
# Density = 2.194360 g / cm^3
# Si number density = 21.993662 Si / 1000 Ang^3
#
#
#
# Elastic Constant Matrix: (Units=GPa)
#
#
# Indices 1 2 3 4 5 6 
#
# 1 116.3241 35.8984 23.0296 -16.4020 -0.1859 -0.4898
# 2 35.8984 103.6237 34.9953 -23.3483 1.1192 6.7389
# 3 23.0296 34.9953 95.6606 -29.7129 8.3407 -1.7612
# 4 -16.4020 -23.3483 -29.7129 50.7646 1.4401 -4.9625
# 5 -0.1859 1.1192 8.3407 1.4401 34.9025 -3.0874
# 6 -0.4898 6.7389 -1.7612 -4.9625 -3.0874 31.2839
#
#
#
# Elastic Compliance Matrix: (Units=1/GPa)
#
#
# Indices 1 2 3 4 5 6 
#
# 1 0.009864 -0.002859 -0.000900 0.001430 0.000387 0.000985
# 2 -0.002859 0.012457 -0.003049 0.002781 -0.000019 -0.002460
# 3 -0.000900 -0.003049 0.014295 0.006988 -0.003415 0.002219
# 4 0.001430 0.002781 0.006988 0.025961 -0.002496 0.003688
# 5 0.000387 -0.000019 -0.003415 -0.002496 0.029782 0.002361
# 6 0.000985 -0.002460 0.002219 0.003688 0.002361 0.033454
#
#
# Mechanical properties :
#
#
# Convention : Reuss Voigt Hill
#
# Bulk Modulus (GPa) = 43.47834 55.93947 49.70890
# Shear Modulus (GPa) = 33.99172 38.16920 36.08046
#
# Velocity S-wave (km/s) = 3.93558 4.17041 4.05469
# Velocity P-wave (km/s) = 6.36107 6.97706 6.67617
#
# Compressibility (1/GPa) = 0.02299996
#
# Stress axis : x y z
#
# Youngs Moduli (GPa) = 101.38253 80.27462 69.95656
#
# Poissons Ratio (x) = 0.22951 0.06296
# Poissons Ratio (y) = 0.28986 0.21328
# Poissons Ratio (z) = 0.09125 0.24473
#
# Static dielectric constant tensor:
#      x y z
#    x 3.782240 0.240830 -0.005310 
#    y 0.240830 4.458740 0.140800 
#    z -0.005310 0.140800 4.035920 
# 
# 
# High freq. dielectric constant tensor:
#      x y z
#    x 1.848400 0.010920 0.001410 
#    y 0.010920 1.875690 -0.006960 
#    z 0.001410 -0.006960 1.864580 
# 
# From -- ./inp_files/175516.got.cif
#   From: 2010.06.25/outbox.cif.g09.slc.cpg/sg2_88_cif.got.tgz:175516.got - 2010.06.27 13:26:56.
