data_PCOD8019415
_publ_section_title
;
Structure prediction by ZEFSAII (Michael W. Deem and Ramdas Pophale) SiO2 
 PCOD8019415
Probable space group: P -1
;
_chemical_formula_sum "Si O2"
_cell_formula_units_Z 16
_cell_length_a 8.361631
_cell_length_b 11.709448
_cell_length_c 16.385229
_cell_angle_alpha 127.329404
_cell_angle_beta 51.683393
_cell_angle_gamma 144.801988
_cell_volume 707.658694
_symmetry_space_group_name_H-M "P -1"
_symmetry_group_IT_number 2
_symmetry_cell_setting 'triclinic'
loop_
_space_group_symop_operation_xyz
x,y,z
-x,-y,-z
loop_
_atom_site_type_symbol
_atom_site_label
_atom_site_fract_x
_atom_site_fract_y
_atom_site_fract_z
Si Si1 0.154031 0.702530 0.491586
Si Si2 0.796075 0.790766 0.106852
Si Si3 0.548474 0.861456 0.949703
Si Si4 0.738350 0.906462 0.635833
Si Si5 0.702099 0.425769 0.953882
Si Si6 0.917628 0.720413 0.415533
Si Si7 0.767248 0.947787 0.344146
Si Si8 0.724439 0.381076 0.224550
O O1 0.025568 0.660976 0.423227
O O2 0.485051 0.819334 0.433401
O O3 0.000000 0.500000 0.500000
O O4 0.116648 0.831780 0.610579
O O5 0.597769 0.722663 0.062868
O O6 0.691116 0.833031 0.234082
O O7 0.768424 0.608235 0.058027
O O8 0.120534 0.996610 0.069019
O O9 0.472513 0.717994 0.836681
O O10 0.331351 0.714870 0.028629
O O11 0.500000 0.000000 0.000000
O O12 0.440760 0.793594 0.728604
O O13 0.706901 0.736496 0.526743
O O14 0.798884 0.060739 0.617608
O O15 0.999602 0.030368 0.671629
O O16 0.960597 0.525651 0.852209
O O17 0.749608 0.556109 0.324923
#
# Coordination Sequence:
#
# PCOD8019415 Si02
#       8
#     2   2   2   2   2   2   2   2
#     4  10  23  44  65  97 137 175 220 269 330 404
#     4  11  24  48  67  97 135 179 227 275 341 393
#     4  12  26  45  67 101 138 179 224 282 338 396
#     4  10  23  43  67  99 137 170 222 282 332 395
#     4  11  27  44  70 100 136 174 233 284 326 406
#     4  10  24  42  66 102 134 174 224 275 330 401
#     4  10  22  41  67  95 129 181 219 270 334 394
#     4  12  24  40  72 101 132 181 219 279 341 392
#
# _framework density 22.609770000000001
#
# number of rings (size 3 to 8) (size 9 to 14) (size 15 to 20)
#    0.000    1.250    2.500    1.875    3.500    7.000 
#    2.250    0.000    0.000    0.000    0.000    0.000 
#    0.000    0.000    0.000    0.000    0.000    0.000 
#
# Total GULP energy -198425.100568 kJ/mol
# GULP energy per Si atom -12401.568785 kJ/mol
# Density = 2.255831 g / cm^3
# Si number density = 22.609770 Si / 1000 Ang^3
#
#
#
# Elastic Constant Matrix: (Units=GPa)
#
#
# Indices 1 2 3 4 5 6 
#
# 1 86.7540 73.3879 37.5766 -3.4258 2.3145 -12.8201
# 2 73.3879 147.6385 69.6180 -8.5656 3.2707 -9.8862
# 3 37.5766 69.6180 131.2974 7.3019 13.2488 -2.6791
# 4 -3.4258 -8.5656 7.3019 53.9292 10.4486 5.8935
# 5 2.3145 3.2707 13.2488 10.4486 22.9167 -0.5256
# 6 -12.8201 -9.8862 -2.6791 5.8935 -0.5256 50.2401
#
#
#
# Elastic Compliance Matrix: (Units=1/GPa)
#
#
# Indices 1 2 3 4 5 6 
#
# 1 0.020462 -0.009683 -0.000624 -0.000517 -0.000012 0.003343
# 2 -0.009683 0.013956 -0.004833 0.002124 0.000806 -0.000223
# 3 -0.000624 -0.004833 0.010923 -0.001272 -0.004992 -0.000431
# 4 -0.000517 0.002124 -0.001272 0.021052 -0.009168 -0.002347
# 5 -0.000012 0.000806 -0.004992 -0.009168 0.050623 0.001495
# 6 0.003343 -0.000223 -0.000431 -0.002347 0.001495 0.020982
#
#
# Mechanical properties :
#
#
# Convention : Reuss Voigt Hill
#
# Bulk Modulus (GPa) = 66.39224 80.76164 73.57694
# Shear Modulus (GPa) = 28.85220 37.75768 33.30494
#
# Velocity S-wave (km/s) = 3.57612 4.09096 3.84218
# Velocity P-wave (km/s) = 6.81760 7.62312 7.23159
#
# Compressibility (1/GPa) = 0.01506200
#
# Stress axis : x y z
#
# Youngs Moduli (GPa) = 48.87076 71.65536 91.55091
#
# Poissons Ratio (x) = 0.69384 0.05711
# Poissons Ratio (y) = 0.47321 0.44243
# Poissons Ratio (z) = 0.03049 0.34628
#
# Static dielectric constant tensor:
#      x y z
#    x 3.802170 0.104390 0.104520 
#    y 0.104390 4.315700 0.126380 
#    z 0.104520 0.126380 4.180760 
# 
# 
# High freq. dielectric constant tensor:
#      x y z
#    x 1.871680 0.009990 0.008660 
#    y 0.009990 1.907720 0.004790 
#    z 0.008660 0.004790 1.897440 
# 
# From -- ./inp_files/559915.got.cif
#   From: 2010.06.25/outbox.cif.g09.slc.cpg/sg2_280_cif.got.tgz:559915.got - 2010.06.27 13:26:56.
