data_PCOD8019241
_publ_section_title
;
Structure prediction by ZEFSAII (Michael W. Deem and Ramdas Pophale) SiO2 
 PCOD8019241
Probable space group: P -1
;
_chemical_formula_sum "Si O2"
_cell_formula_units_Z 16
_cell_length_a 12.227768
_cell_length_b 10.579421
_cell_length_c 8.854923
_cell_angle_alpha 83.122870
_cell_angle_beta 52.714886
_cell_angle_gamma 59.597379
_cell_volume 756.373470
_symmetry_space_group_name_H-M "P -1"
_symmetry_group_IT_number 2
_symmetry_cell_setting 'triclinic'
loop_
_space_group_symop_operation_xyz
x,y,z
-x,-y,-z
loop_
_atom_site_type_symbol
_atom_site_label
_atom_site_fract_x
_atom_site_fract_y
_atom_site_fract_z
Si Si1 0.872127 0.660718 0.152567
Si Si2 0.710577 0.294871 0.253723
Si Si3 0.040009 0.137459 0.129674
Si Si4 0.975017 0.393098 0.644023
Si Si5 0.586732 0.580891 0.989353
Si Si6 0.934104 0.176118 0.534530
Si Si7 0.307104 0.794084 0.039321
Si Si8 0.587353 0.627429 0.326042
O O1 0.689722 0.700440 0.272641
O O2 0.912675 0.655367 0.295214
O O3 0.880944 0.787106 0.036646
O O4 0.000000 0.500000 0.000000
O O5 0.693078 0.448115 0.308272
O O6 0.578111 0.274038 0.450956
O O7 0.895381 0.147741 0.148175
O O8 0.682304 0.309951 0.095028
O O9 0.939925 0.228293 0.352263
O O10 0.191997 0.968931 0.063925
O O11 0.781870 0.487937 0.828378
O O12 0.034173 0.230855 0.539762
O O13 0.000000 0.500000 0.500000
O O14 0.500000 0.500000 0.000000
O O15 0.492772 0.739099 0.943513
O O16 0.535768 0.640042 0.194275
O O17 0.758906 0.252186 0.752898
O O18 0.000000 0.000000 0.500000
#
# Coordination Sequence:
#
# PCOD8019241 Si02
#       8
#     2   2   2   2   2   2   2   2
#     4  12  23  45  67  97 140 177 225 276 348 410
#     4  11  22  38  66  98 130 173 228 278 333 395
#     4  11  23  41  69  94 134 179 226 275 342 409
#     4  12  26  40  72 105 136 178 227 286 344 409
#     4  12  22  41  67  95 139 168 230 284 338 399
#     4  10  22  41  66 100 134 175 225 280 338 406
#     4  11  23  41  66  98 132 175 226 284 333 397
#     4  11  24  39  67 101 131 175 222 281 336 403
#
# _framework density 21.153569999999998
#
# number of rings (size 3 to 8) (size 9 to 14) (size 15 to 20)
#    0.000    0.750    5.000    2.625    1.750    1.000 
#    0.000    1.250    5.500    0.000    0.000    0.000 
#    0.000    0.000    0.000    0.000    0.000    0.000 
#
# Total GULP energy -198209.629752 kJ/mol
# GULP energy per Si atom -12388.101860 kJ/mol
# Density = 2.110542 g / cm^3
# Si number density = 21.153570 Si / 1000 Ang^3
#
#
#
# Elastic Constant Matrix: (Units=GPa)
#
#
# Indices 1 2 3 4 5 6 
#
# 1 163.0493 50.7494 65.5668 -11.0414 4.1512 -11.4177
# 2 50.7494 102.7716 36.7062 -8.6657 -6.8009 -6.6997
# 3 65.5668 36.7062 129.0684 -20.5058 -1.0090 3.1972
# 4 -11.0414 -8.6657 -20.5058 35.5109 -2.0906 -0.6157
# 5 4.1512 -6.8009 -1.0090 -2.0906 41.3158 0.3278
# 6 -11.4177 -6.6997 3.1972 -0.6157 0.3278 37.7540
#
#
#
# Elastic Compliance Matrix: (Units=1/GPa)
#
#
# Indices 1 2 3 4 5 6 
#
# 1 0.008734 -0.002946 -0.003701 -0.000185 -0.001482 0.002442
# 2 -0.002946 0.012170 -0.001795 0.001178 0.002304 0.001420
# 3 -0.003701 -0.001795 0.010951 0.004731 0.000601 -0.002293
# 4 -0.000185 0.001178 0.004731 0.031239 0.001907 0.000245
# 5 -0.001482 0.002304 0.000601 0.001907 0.024845 -0.000275
# 6 0.002442 0.001420 -0.002293 0.000245 -0.000275 0.027678
#
#
# Mechanical properties :
#
#
# Convention : Reuss Voigt Hill
#
# Bulk Modulus (GPa) = 66.78467 77.88158 72.33313
# Shear Modulus (GPa) = 36.36574 39.04060 37.70317
#
# Velocity S-wave (km/s) = 4.15074 4.30068 4.22637
# Velocity P-wave (km/s) = 7.38995 7.84591 7.62134
#
# Compressibility (1/GPa) = 0.01497350
#
# Stress axis : x y z
#
# Youngs Moduli (GPa) = 114.49020 82.16720 91.31280
#
# Poissons Ratio (x) = 0.24205 0.33793
# Poissons Ratio (y) = 0.33726 0.16388
# Poissons Ratio (z) = 0.42370 0.14747
#
# Static dielectric constant tensor:
#      x y z
#    x 4.707180 -0.441810 0.047210 
#    y -0.441810 3.461110 0.180890 
#    z 0.047210 0.180890 4.329120 
# 
# 
# High freq. dielectric constant tensor:
#      x y z
#    x 1.834020 -0.013020 0.014920 
#    y -0.013020 1.818550 -0.001220 
#    z 0.014920 -0.001220 1.841380 
# 
# From -- ./inp_files/244713.got.cif
#   From: 2010.06.25/outbox.cif.g09.slc.cpg/sg2_123_cif.got.tgz:244713.got - 2010.06.27 13:26:56.
