data_PCOD8019594
_publ_section_title
;
Structure prediction by ZEFSAII (Michael W. Deem and Ramdas Pophale) SiO2 
 PCOD8019594
Probable space group: P -1
;
_chemical_formula_sum "Si O2"
_cell_formula_units_Z 14
_cell_length_a 20.593116
_cell_length_b 14.195002
_cell_length_c 8.909304
_cell_angle_alpha 34.153982
_cell_angle_beta 29.435972
_cell_angle_gamma 31.999977
_cell_volume 637.452012
_symmetry_space_group_name_H-M "P -1"
_symmetry_group_IT_number 2
_symmetry_cell_setting 'triclinic'
loop_
_space_group_symop_operation_xyz
x,y,z
-x,-y,-z
loop_
_atom_site_type_symbol
_atom_site_label
_atom_site_fract_x
_atom_site_fract_y
_atom_site_fract_z
Si Si1 0.085566 0.619931 0.659959
Si Si2 0.819312 0.208317 0.513979
Si Si3 0.085797 0.036737 0.644374
Si Si4 0.629403 0.056386 0.623436
Si Si5 0.320323 0.998404 0.736118
Si Si6 0.488734 0.492978 0.356832
Si Si7 0.371413 0.304473 0.380061
O O1 0.065353 0.743243 0.688850
O O2 0.260660 0.478982 0.474316
O O3 0.019114 0.750421 0.476210
O O4 0.000000 0.500000 0.000000
O O5 0.680101 0.405564 0.492512
O O6 0.895467 0.102215 0.348217
O O7 0.778823 0.079873 0.876253
O O8 0.248354 0.010322 0.401493
O O9 0.000000 0.000000 0.000000
O O10 0.716100 0.959815 0.422300
O O11 0.561971 0.279083 0.435655
O O12 0.500000 0.000000 0.000000
O O13 0.494350 0.845462 0.592514
O O14 0.286664 0.196243 0.620307
O O15 0.500000 0.500000 0.500000
O O16 0.571225 0.609318 0.979430
#
# Coordination Sequence:
#
# PCOD8019594 Si02
#       7
#     2   2   2   2   2   2   2
#     4  12  27  44  68  98 140 184 235 278 340 430
#     4  11  24  45  73  95 133 187 231 281 346 416
#     4  12  27  47  69 101 142 186 229 288 358 420
#     4  12  26  42  70 105 143 178 229 293 352 401
#     4  10  22  42  74 100 136 175 233 282 344 404
#     4  11  21  40  70 101 134 170 226 289 339 399
#     4  10  22  41  69 102 132 178 228 283 331 409
#
# _framework density 21.962437000000001
#
# number of rings (size 3 to 8) (size 9 to 14) (size 15 to 20)
#    0.000    0.857    1.429    5.571    8.000    3.429 
#    0.000    1.429    0.000    0.000    0.000    0.000 
#    0.000    0.000    0.000    0.000    0.000    0.000 
#
# Total GULP energy -173647.469532 kJ/mol
# GULP energy per Si atom -12403.390681 kJ/mol
# Density = 2.191245 g / cm^3
# Si number density = 21.962437 Si / 1000 Ang^3
#
#
#
# Elastic Constant Matrix: (Units=GPa)
#
#
# Indices 1 2 3 4 5 6 
#
# 1 142.9112 37.1206 65.3425 -4.1247 1.4548 14.8453
# 2 37.1206 101.0633 25.7750 -6.5201 -0.5892 -0.7551
# 3 65.3425 25.7750 118.9580 -7.2151 -2.2890 5.7371
# 4 -4.1247 -6.5201 -7.2151 38.1648 5.6863 3.6935
# 5 1.4548 -0.5892 -2.2890 5.6863 39.9526 2.7534
# 6 14.8453 -0.7551 5.7371 3.6935 2.7534 39.7916
#
#
#
# Elastic Compliance Matrix: (Units=1/GPa)
#
#
# Indices 1 2 3 4 5 6 
#
# 1 0.010241 -0.002523 -0.004929 0.000121 -0.000494 -0.003135
# 2 -0.002523 0.011175 -0.001012 0.001342 -0.000074 0.001180
# 3 -0.004929 -0.001012 0.011428 0.001361 0.000625 0.000003
# 4 0.000121 0.001342 0.001361 0.027488 -0.003646 -0.002515
# 5 -0.000494 -0.000074 0.000625 -0.003646 0.025694 -0.001347
# 6 -0.003135 0.001180 0.000003 -0.002515 -0.001347 0.026649
#
#
# Mechanical properties :
#
#
# Convention : Reuss Voigt Hill
#
# Bulk Modulus (GPa) = 62.83851 68.82321 65.83086
# Shear Modulus (GPa) = 37.06216 39.22809 38.14513
#
# Velocity S-wave (km/s) = 4.11241 4.23087 4.17206
# Velocity P-wave (km/s) = 7.15703 7.43450 7.29708
#
# Compressibility (1/GPa) = 0.01591381
#
# Stress axis : x y z
#
# Youngs Moduli (GPa) = 97.65027 89.48914 87.50520
#
# Poissons Ratio (x) = 0.22575 0.43135
# Poissons Ratio (y) = 0.24634 0.08860
# Poissons Ratio (z) = 0.48136 0.09060
#
# Static dielectric constant tensor:
#      x y z
#    x 4.243990 0.213190 -0.295780 
#    y 0.213190 4.573360 -0.633400 
#    z -0.295780 -0.633400 4.534780 
# 
# 
# High freq. dielectric constant tensor:
#      x y z
#    x 1.877090 0.001280 0.000900 
#    y 0.001280 1.873690 -0.004840 
#    z 0.000900 -0.004840 1.863940 
# 
# From -- ./inp_files/189829.got.cif
#   From: 2010.06.25/outbox.cif.g09.slc.cpg/sg2_95_cif.got.tgz:189829.got - 2010.06.27 13:26:56.
