data_PCOD8019107
_publ_section_title
;
Structure prediction by ZEFSAII (Michael W. Deem and Ramdas Pophale) SiO2 
 PCOD8019107
Probable space group: P -1
;
_chemical_formula_sum "Si O2"
_cell_formula_units_Z 12
_cell_length_a 6.869917
_cell_length_b 17.525347
_cell_length_c 6.857012
_cell_angle_alpha 102.215435
_cell_angle_beta 66.390163
_cell_angle_gamma 60.911773
_cell_volume 569.631168
_symmetry_space_group_name_H-M "P -1"
_symmetry_group_IT_number 2
_symmetry_cell_setting 'triclinic'
loop_
_space_group_symop_operation_xyz
x,y,z
-x,-y,-z
loop_
_atom_site_type_symbol
_atom_site_label
_atom_site_fract_x
_atom_site_fract_y
_atom_site_fract_z
Si Si1 0.991556 0.221658 0.147910
Si Si2 0.927138 0.640685 0.618774
Si Si3 0.895043 0.123008 0.451429
Si Si4 0.387361 0.710722 0.015585
Si Si5 0.900863 0.512208 0.829786
Si Si6 0.426623 0.948401 0.354389
O O1 0.946472 0.304600 0.357897
O O2 0.891270 0.167540 0.269746
O O3 0.814242 0.279432 0.057456
O O4 0.308086 0.142108 0.917398
O O5 0.595770 0.721307 0.826392
O O6 0.054619 0.544116 0.659322
O O7 0.006038 0.595295 0.342628
O O8 0.700038 0.093198 0.491368
O O9 0.791711 0.201737 0.709052
O O10 0.207705 0.026226 0.322007
O O11 0.568461 0.600703 0.990557
O O12 0.000000 0.500000 0.000000
O O13 0.500000 0.000000 0.500000
#
# Coordination Sequence:
#
# PCOD8019107 Si02
#       6
#     2   2   2   2   2   2
#     4  12  24  42  68  96 133 173 213 269 328 375
#     4   9  22  41  63  95 133 166 215 272 313 383
#     4  11  25  41  68  96 129 173 217 263 325 384
#     4  10  22  41  64  99 127 164 226 264 309 400
#     4   9  20  42  68  91 133 172 209 271 322 377
#     4  11  23  46  64  96 134 166 220 269 312 392
#
# _framework density 21.066261999999998
#
# number of rings (size 3 to 8) (size 9 to 14) (size 15 to 20)
#    1.000    0.667    3.333    0.500    2.333    4.000 
#    0.000    1.667    0.000    0.000    0.000    0.000 
#    0.000    0.000    0.000    0.000    0.000    0.000 
#
# Total GULP energy -148764.763438 kJ/mol
# GULP energy per Si atom -12397.063620 kJ/mol
# Density = 2.101831 g / cm^3
# Si number density = 21.066262 Si / 1000 Ang^3
#
#
#
# Elastic Constant Matrix: (Units=GPa)
#
#
# Indices 1 2 3 4 5 6 
#
# 1 114.2552 52.9658 62.9564 3.0052 10.9805 -0.7128
# 2 52.9658 95.4285 58.8743 1.7407 2.8286 -12.7147
# 3 62.9564 58.8743 116.4672 1.1901 28.1848 -14.1563
# 4 3.0052 1.7407 1.1901 28.4153 2.6692 1.8086
# 5 10.9805 2.8286 28.1848 2.6692 29.8108 6.6615
# 6 -0.7128 -12.7147 -14.1563 1.8086 6.6615 37.8189
#
#
#
# Elastic Compliance Matrix: (Units=1/GPa)
#
#
# Indices 1 2 3 4 5 6 
#
# 1 0.014136 -0.004485 -0.006389 -0.000909 0.002230 -0.003982
# 2 -0.004485 0.018147 -0.008383 -0.001101 0.007599 0.001593
# 3 -0.006389 -0.008383 0.022140 0.001571 -0.019886 0.008776
# 4 -0.000909 -0.001101 0.001571 0.035723 -0.004068 -0.000791
# 5 0.002230 0.007599 -0.019886 -0.004068 0.054347 -0.014225
# 6 -0.003982 0.001593 0.008776 -0.000791 -0.014225 0.032731
#
#
# Mechanical properties :
#
#
# Convention : Reuss Voigt Hill
#
# Bulk Modulus (GPa) = 62.85175 75.08266 68.96721
# Shear Modulus (GPa) = 22.62018 29.29929 25.95974
#
# Velocity S-wave (km/s) = 3.28039 3.73341 3.51421
# Velocity P-wave (km/s) = 6.65191 7.36906 7.01965
#
# Compressibility (1/GPa) = 0.01591046
#
# Stress axis : x y z
#
# Youngs Moduli (GPa) = 70.73937 55.10464 45.16620
#
# Poissons Ratio (x) = 0.24712 0.28856
# Poissons Ratio (y) = 0.31724 0.37864
# Poissons Ratio (z) = 0.45195 0.46196
#
# Static dielectric constant tensor:
#      x y z
#    x 3.677920 -0.036400 -0.081630 
#    y -0.036400 3.736280 0.195920 
#    z -0.081630 0.195920 3.772580 
# 
# 
# High freq. dielectric constant tensor:
#      x y z
#    x 1.817420 -0.006600 0.003110 
#    y -0.006600 1.816190 0.015630 
#    z 0.003110 0.015630 1.830800 
# 
# From -- ./inp_files/10107.got.cif
#   From: 2010.06.25/outbox.cif.g09.slc.cpg/sg2_6_cif.got.tgz:10107.got - 2010.06.27 13:26:56.
