data_PCOD8019679
_publ_section_title
;
Structure prediction by ZEFSAII (Michael W. Deem and Ramdas Pophale) SiO2 
 PCOD8019679
Probable space group: P -1
;
_chemical_formula_sum "Si O2"
_cell_formula_units_Z 16
_cell_length_a 8.825155
_cell_length_b 8.818418
_cell_length_c 12.927170
_cell_angle_alpha 86.504756
_cell_angle_beta 132.613210
_cell_angle_gamma 84.801194
_cell_volume 727.001934
_symmetry_space_group_name_H-M "P -1"
_symmetry_group_IT_number 2
_symmetry_cell_setting 'triclinic'
loop_
_space_group_symop_operation_xyz
x,y,z
-x,-y,-z
loop_
_atom_site_type_symbol
_atom_site_label
_atom_site_fract_x
_atom_site_fract_y
_atom_site_fract_z
Si Si1 0.104681 0.607606 0.971470
Si Si2 0.228384 0.108015 0.164881
Si Si3 0.535862 0.656618 0.175025
Si Si4 0.103878 0.867957 0.258201
Si Si5 0.321534 0.980901 0.995951
Si Si6 0.518726 0.266890 0.440409
Si Si7 0.939692 0.567026 0.236210
Si Si8 0.680249 0.569217 0.461925
O O1 0.048159 0.576359 0.828467
O O2 0.002587 0.786205 0.940365
O O3 0.356920 0.550890 0.103766
O O4 0.000000 0.500000 0.000000
O O5 0.391903 0.181721 0.305464
O O6 0.212872 0.935692 0.206823
O O7 0.299097 0.099231 0.078082
O O8 0.376272 0.813273 0.075114
O O9 0.700730 0.622580 0.159447
O O10 0.663071 0.655368 0.340526
O O11 0.260731 0.849224 0.429865
O O12 0.037517 0.700549 0.216046
O O13 0.889855 0.990591 0.173278
O O14 0.500000 0.000000 0.000000
O O15 0.547241 0.431166 0.400198
O O16 0.404913 0.302841 0.496759
O O17 0.078595 0.504670 0.402430
#
# Coordination Sequence:
#
# PCOD8019679 Si02
#       8
#     2   2   2   2   2   2   2   2
#     4  12  26  41  70 104 133 174 232 282 330 395
#     4  12  24  43  69 101 132 176 232 276 331 402
#     4  12  25  43  69  98 138 182 219 275 345 403
#     4  11  23  42  72  99 131 181 223 272 336 401
#     4  12  26  45  67  98 138 179 222 278 346 403
#     4  10  22  42  69 102 134 167 227 289 324 391
#     4  11  24  46  68  99 141 176 222 282 337 403
#     4  10  22  41  70 101 134 176 222 276 343 393
#
# _framework density 22.008192999999999
#
# number of rings (size 3 to 8) (size 9 to 14) (size 15 to 20)
#    0.000    0.750    3.750    3.750    7.000    0.000 
#    2.250    0.625    2.750    0.000    0.000    0.000 
#    0.000    0.000    0.000    0.000    0.000    0.000 
#
# Total GULP energy -198287.564977 kJ/mol
# GULP energy per Si atom -12392.972811 kJ/mol
# Density = 2.195810 g / cm^3
# Si number density = 22.008193 Si / 1000 Ang^3
#
#
#
# Elastic Constant Matrix: (Units=GPa)
#
#
# Indices 1 2 3 4 5 6 
#
# 1 122.8668 44.0339 60.1238 16.0230 9.3533 -11.1411
# 2 44.0339 68.9974 41.3144 -7.1086 5.5908 -14.9196
# 3 60.1238 41.3144 128.0269 -9.3555 15.0864 -9.5838
# 4 16.0230 -7.1086 -9.3555 40.7813 -1.2617 0.2323
# 5 9.3533 5.5908 15.0864 -1.2617 36.3963 1.4255
# 6 -11.1411 -14.9196 -9.5838 0.2323 1.4255 26.3722
#
#
#
# Elastic Compliance Matrix: (Units=1/GPa)
#
#
# Indices 1 2 3 4 5 6 
#
# 1 0.014050 -0.006675 -0.004878 -0.007832 -0.000854 0.000502
# 2 -0.006675 0.023313 -0.003188 0.005881 -0.000701 0.009197
# 3 -0.004878 -0.003188 0.011821 0.003976 -0.003041 0.000561
# 4 -0.007832 0.005881 0.003976 0.029542 0.000439 0.001179
# 5 -0.000854 -0.000701 -0.003041 0.000439 0.029213 -0.003445
# 6 0.000502 0.009197 0.000561 0.001179 -0.003445 0.043713
#
#
# Mechanical properties :
#
#
# Convention : Reuss Voigt Hill
#
# Bulk Modulus (GPa) = 50.75413 67.87059 59.31236
# Shear Modulus (GPa) = 26.63773 32.33788 29.48780
#
# Velocity S-wave (km/s) = 3.48279 3.83738 3.66437
# Velocity P-wave (km/s) = 6.26775 7.10913 6.70165
#
# Compressibility (1/GPa) = 0.01970283
#
# Stress axis : x y z
#
# Youngs Moduli (GPa) = 71.17323 42.89380 84.59279
#
# Poissons Ratio (x) = 0.28631 0.41267
# Poissons Ratio (y) = 0.47508 0.26966
# Poissons Ratio (z) = 0.34721 0.13674
#
# Static dielectric constant tensor:
#      x y z
#    x 3.932520 0.079790 0.225500 
#    y 0.079790 4.082080 -0.196020 
#    z 0.225500 -0.196020 4.331340 
# 
# 
# High freq. dielectric constant tensor:
#      x y z
#    x 1.861830 0.006060 0.014590 
#    y 0.006060 1.853890 -0.019070 
#    z 0.014590 -0.019070 1.880780 
# 
# From -- ./inp_files/184244.got.cif
#   From: 2010.06.25/outbox.cif.g09.slc.cpg/sg2_93_cif.got.tgz:184244.got - 2010.06.27 13:26:56.
