data_PCOD8019207
_publ_section_title
;
Structure prediction by ZEFSAII (Michael W. Deem and Ramdas Pophale) SiO2 
 PCOD8019207
Probable space group: P -1
;
_chemical_formula_sum "Si O2"
_cell_formula_units_Z 16
_cell_length_a 11.706995
_cell_length_b 11.296055
_cell_length_c 5.211382
_cell_angle_alpha 78.835849
_cell_angle_beta 102.909134
_cell_angle_gamma 100.262622
_cell_volume 652.447062
_symmetry_space_group_name_H-M "P -1"
_symmetry_group_IT_number 2
_symmetry_cell_setting 'triclinic'
loop_
_space_group_symop_operation_xyz
x,y,z
-x,-y,-z
loop_
_atom_site_type_symbol
_atom_site_label
_atom_site_fract_x
_atom_site_fract_y
_atom_site_fract_z
Si Si1 0.521695 0.645759 0.450505
Si Si2 0.011333 0.654307 0.218624
Si Si3 0.392609 0.715446 0.857736
Si Si4 0.811449 0.011782 0.975589
Si Si5 0.635452 0.043087 0.500908
Si Si6 0.137158 0.596410 0.790985
Si Si7 0.254997 0.176946 0.594779
Si Si8 0.961156 0.868722 0.808640
O O1 0.500000 0.500000 0.500000
O O2 0.481900 0.692804 0.684035
O O3 0.660696 0.694243 0.449580
O O4 0.452171 0.705236 0.166969
O O5 0.081906 0.675832 0.512597
O O6 0.904724 0.544404 0.234422
O O7 0.099775 0.632065 0.040413
O O8 0.952744 0.773805 0.080112
O O9 0.352694 0.849703 0.749635
O O10 0.278236 0.613984 0.830611
O O11 0.749184 0.879127 0.098046
O O12 0.904359 0.988715 0.809067
O O13 0.897120 0.089595 0.201165
O O14 0.710059 0.087181 0.780248
O O15 0.500000 0.000000 0.500000
O O16 0.692342 0.925415 0.499674
O O17 0.120471 0.194210 0.437770
#
# Coordination Sequence:
#
# PCOD8019207 Si02
#       8
#     2   2   2   2   2   2   2   2
#     4  12  29  48  70 103 139 184 242 284 344 422
#     4  10  22  41  65  96 135 175 228 278 339 407
#     4  12  26  46  74 101 138 183 230 290 357 406
#     4  10  23  41  65 102 135 176 236 278 353 419
#     4  11  23  42  69 101 140 177 232 289 351 415
#     4  10  23  41  65 100 131 175 230 280 339 405
#     4  11  25  42  69  98 139 183 235 288 351 414
#     4  10  23  40  65  96 136 181 226 284 351 408
#
# _framework density 24.523060999999998
#
# number of rings (size 3 to 8) (size 9 to 14) (size 15 to 20)
#    0.000    1.250    1.250    3.000    8.750    2.000 
#    0.000    0.000    0.000    0.000    0.000    0.000 
#    0.000    0.000    0.000    0.000    0.000    0.000 
#
# Total GULP energy -198299.794241 kJ/mol
# GULP energy per Si atom -12393.737140 kJ/mol
# Density = 2.446725 g / cm^3
# Si number density = 24.523061 Si / 1000 Ang^3
#
#
#
# Elastic Constant Matrix: (Units=GPa)
#
#
# Indices 1 2 3 4 5 6 
#
# 1 97.3959 24.2548 39.0356 2.1515 27.9525 37.0509
# 2 24.2548 97.2886 26.3968 -20.6503 16.4344 29.7515
# 3 39.0356 26.3968 122.3197 -19.0526 18.8174 19.6434
# 4 2.1515 -20.6503 -19.0526 38.3027 2.6739 3.7854
# 5 27.9525 16.4344 18.8174 2.6739 39.6043 3.7827
# 6 37.0509 29.7515 19.6434 3.7854 3.7827 43.1604
#
#
#
# Elastic Compliance Matrix: (Units=1/GPa)
#
#
# Indices 1 2 3 4 5 6 
#
# 1 0.021410 0.004153 -0.001965 0.002967 -0.014252 -0.019358
# 2 0.004153 0.018647 0.000964 0.012709 -0.010355 -0.017064
# 3 -0.001965 0.000964 0.010991 0.006812 -0.004293 -0.004200
# 4 0.002967 0.012709 0.006812 0.038650 -0.011611 -0.016779
# 5 -0.014252 -0.010355 -0.004293 -0.011611 0.040635 0.018783
# 6 -0.019358 -0.017064 -0.004200 -0.016779 0.018783 0.053287
#
#
# Mechanical properties :
#
#
# Convention : Reuss Voigt Hill
#
# Bulk Modulus (GPa) = 17.43711 55.15316 36.29514
# Shear Modulus (GPa) = 25.45382 39.36795 32.41089
#
# Velocity S-wave (km/s) = 3.22523 4.01102 3.63939
# Velocity P-wave (km/s) = 4.58207 6.63251 5.70024
#
# Compressibility (1/GPa) = 0.05734896
#
# Stress axis : x y z
#
# Youngs Moduli (GPa) = 46.70768 53.62802 90.98726
#
# Poissons Ratio (x) = -0.22270 0.17882
# Poissons Ratio (y) = -0.19396 -0.08767
# Poissons Ratio (z) = 0.09180 -0.05167
#
# Static dielectric constant tensor:
#      x y z
#    x 4.956680 0.308060 0.275310 
#    y 0.308060 4.496150 -0.081830 
#    z 0.275310 -0.081830 4.705720 
# 
# 
# High freq. dielectric constant tensor:
#      x y z
#    x 1.974790 0.021030 0.007790 
#    y 0.021030 1.968740 -0.006060 
#    z 0.007790 -0.006060 1.987210 
# 
# From -- ./inp_files/69389.got.cif
#   From: 2010.06.25/outbox.cif.g09.slc.cpg/sg2_35_cif.got.tgz:69389.got - 2010.06.27 13:26:56.
