data_PCOD8019446
_publ_section_title
;
Structure prediction by ZEFSAII (Michael W. Deem and Ramdas Pophale) SiO2 
 PCOD8019446
Probable space group: P -1
;
_chemical_formula_sum "Si O2"
_cell_formula_units_Z 16
_cell_length_a 11.339790
_cell_length_b 8.971702
_cell_length_c 9.065236
_cell_angle_alpha 112.608343
_cell_angle_beta 71.317522
_cell_angle_gamma 72.993326
_cell_volume 709.626090
_symmetry_space_group_name_H-M "P -1"
_symmetry_group_IT_number 2
_symmetry_cell_setting 'triclinic'
loop_
_space_group_symop_operation_xyz
x,y,z
-x,-y,-z
loop_
_atom_site_type_symbol
_atom_site_label
_atom_site_fract_x
_atom_site_fract_y
_atom_site_fract_z
Si Si1 0.168945 0.920197 0.323608
Si Si2 0.001458 0.726796 0.334401
Si Si3 0.145733 0.478988 0.626030
Si Si4 0.591736 0.364608 0.035078
Si Si5 0.046098 0.100779 0.139769
Si Si6 0.202421 0.478148 0.932402
Si Si7 0.577814 0.764016 0.753098
Si Si8 0.318698 0.129200 0.960702
O O1 0.130817 0.765473 0.348479
O O2 0.140866 0.072542 0.519697
O O3 0.066058 0.010243 0.257796
O O4 0.327224 0.828236 0.161720
O O5 0.966166 0.595168 0.405801
O O6 0.050381 0.625638 0.118166
O O7 0.171239 0.423088 0.766117
O O8 0.299301 0.374459 0.453759
O O9 0.078525 0.693333 0.708828
O O10 0.700904 0.422175 0.085755
O O11 0.498862 0.346842 0.194231
O O12 0.500000 0.500000 0.000000
O O13 0.187170 0.090952 0.012027
O O14 0.000000 0.000000 0.000000
O O15 0.284842 0.295167 0.926539
O O16 0.459853 0.944379 0.783048
O O17 0.654246 0.818115 0.868757
#
# Coordination Sequence:
#
# PCOD8019446 Si02
#       8
#     2   2   2   2   2   2   2   2
#     4  10  23  40  67 100 132 177 230 287 341 399
#     4  10  22  41  67  97 133 171 234 281 335 406
#     4  12  27  41  70 103 139 178 231 282 347 409
#     4  11  22  43  69  94 137 179 230 276 341 409
#     4  12  25  43  67 100 138 182 223 293 341 400
#     4  11  24  43  68  98 134 185 223 286 338 401
#     4  11  26  45  69 106 134 182 229 282 339 415
#     4  11  24  45  72  95 140 179 232 278 342 404
#
# _framework density 22.547087000000001
#
# number of rings (size 3 to 8) (size 9 to 14) (size 15 to 20)
#    0.000    1.000    3.750    2.625    5.250    3.000 
#    0.000    0.000    0.000    0.000    0.000    0.000 
#    0.000    0.000    0.000    0.000    0.000    0.000 
#
# Total GULP energy -198256.798507 kJ/mol
# GULP energy per Si atom -12391.049907 kJ/mol
# Density = 2.249577 g / cm^3
# Si number density = 22.547087 Si / 1000 Ang^3
#
#
#
# Elastic Constant Matrix: (Units=GPa)
#
#
# Indices 1 2 3 4 5 6 
#
# 1 96.2217 47.1973 48.3011 5.9976 -21.3010 16.7077
# 2 47.1973 123.2047 73.9891 21.0379 -7.4861 -0.5419
# 3 48.3011 73.9891 150.9809 20.1021 -34.4188 -2.5710
# 4 5.9976 21.0379 20.1021 31.8735 0.3051 -7.0064
# 5 -21.3010 -7.4861 -34.4188 0.3051 31.8780 -4.2314
# 6 16.7077 -0.5419 -2.5710 -7.0064 -4.2314 48.6995
#
#
#
# Elastic Compliance Matrix: (Units=1/GPa)
#
#
# Indices 1 2 3 4 5 6 
#
# 1 0.015932 -0.005087 -0.000859 -0.000256 0.007873 -0.004921
# 2 -0.005087 0.014155 -0.006274 -0.004284 -0.006759 0.000368
# 3 -0.000859 -0.006274 0.013411 -0.003955 0.012665 0.001464
# 4 -0.000256 -0.004284 -0.003955 0.037855 -0.005169 0.004828
# 5 0.007873 -0.006759 0.012665 -0.005169 0.048954 0.001402
# 6 -0.004921 0.000368 0.001464 0.004828 0.001402 0.023120
#
#
# Mechanical properties :
#
#
# Convention : Reuss Voigt Hill
#
# Bulk Modulus (GPa) = 52.46691 78.82024 65.64357
# Shear Modulus (GPa) = 27.14139 35.88486 31.51312
#
# Velocity S-wave (km/s) = 3.47330 3.99375 3.74258
# Velocity P-wave (km/s) = 6.27738 7.50338 6.91759
#
# Compressibility (1/GPa) = 0.01905963
#
# Stress axis : x y z
#
# Youngs Moduli (GPa) = 62.76515 70.64474 74.56337
#
# Poissons Ratio (x) = 0.35938 0.06404
# Poissons Ratio (y) = 0.31930 0.46779
# Poissons Ratio (z) = 0.05391 0.44320
#
# Static dielectric constant tensor:
#      x y z
#    x 4.294830 0.291930 -0.147920 
#    y 0.291930 4.317650 0.259430 
#    z -0.147920 0.259430 4.210800 
# 
# 
# High freq. dielectric constant tensor:
#      x y z
#    x 1.882540 0.023990 -0.020190 
#    y 0.023990 1.897240 0.014970 
#    z -0.020190 0.014970 1.891340 
# 
# From -- ./inp_files/244974.got.cif
#   From: 2010.06.25/outbox.cif.g09.slc.cpg/sg2_123_cif.got.tgz:244974.got - 2010.06.27 13:26:56.
