data_PCOD8019906
_publ_section_title
;
Structure prediction by ZEFSAII (Michael W. Deem and Ramdas Pophale) SiO2 
 PCOD8019906
Probable space group: P -1
;
_chemical_formula_sum "Si O2"
_cell_formula_units_Z 14
_cell_length_a 10.877781
_cell_length_b 12.354800
_cell_length_c 11.942895
_cell_angle_alpha 65.929157
_cell_angle_beta 100.184054
_cell_angle_gamma 44.395361
_cell_volume 697.360425
_symmetry_space_group_name_H-M "P -1"
_symmetry_group_IT_number 2
_symmetry_cell_setting 'triclinic'
loop_
_space_group_symop_operation_xyz
x,y,z
-x,-y,-z
loop_
_atom_site_type_symbol
_atom_site_label
_atom_site_fract_x
_atom_site_fract_y
_atom_site_fract_z
Si Si1 0.662124 0.166750 0.858605
Si Si2 0.322378 0.432939 0.480859
Si Si3 0.241727 0.643683 0.167806
Si Si4 0.454196 0.405502 0.070765
Si Si5 0.291653 0.198607 0.477187
Si Si6 0.120725 0.135129 0.609430
Si Si7 0.196591 0.517743 0.775592
O O1 0.558402 0.256101 0.677944
O O2 0.690953 0.274576 0.867568
O O3 0.469664 0.254875 0.873116
O O4 0.935760 0.874195 0.026609
O O5 0.374156 0.480439 0.368186
O O6 0.331095 0.293377 0.495393
O O7 0.046499 0.687883 0.385062
O O8 0.350522 0.483025 0.146827
O O9 0.725461 0.110962 0.231251
O O10 0.500000 0.500000 0.000000
O O11 0.238562 0.527132 0.904170
O O12 0.002326 0.428067 0.279509
O O13 0.500000 0.000000 0.500000
O O14 0.316969 0.079630 0.631334
O O15 0.929272 0.273987 0.412481
#
# Coordination Sequence:
#
# PCOD8019906 Si02
#       7
#     2   2   2   2   2   2   2
#     4  10  22  42  62  93 130 163 213 260 309 379
#     4  11  22  43  66  91 128 173 204 263 315 369
#     4  11  24  38  63  97 128 165 213 256 312 377
#     4  12  23  41  64  92 133 166 207 262 315 370
#     4  10  22  43  66  94 128 159 219 257 312 383
#     4   9  23  41  64  91 127 164 213 256 313 370
#     4   9  22  43  62  93 126 163 211 258 316 373
#
# _framework density 20.075703000000001
#
# number of rings (size 3 to 8) (size 9 to 14) (size 15 to 20)
#    0.857    0.857    1.429    2.571    4.000    0.571 
#    2.571    2.857    0.000    0.000    0.000    0.000 
#    0.000    0.000    0.000    0.000    0.000    0.000 
#
# Total GULP energy -173566.806108 kJ/mol
# GULP energy per Si atom -12397.629008 kJ/mol
# Density = 2.003001 g / cm^3
# Si number density = 20.075703 Si / 1000 Ang^3
#
#
#
# Elastic Constant Matrix: (Units=GPa)
#
#
# Indices 1 2 3 4 5 6 
#
# 1 34.7167 22.3102 5.4118 -8.2866 7.8107 -7.9138
# 2 22.3102 136.3653 42.1284 5.1001 5.1049 -2.5511
# 3 5.4118 42.1284 80.8788 8.0441 14.3417 7.6732
# 4 -8.2866 5.1001 8.0441 39.2375 -3.1625 -4.5438
# 5 7.8107 5.1049 14.3417 -3.1625 33.9274 -2.5275
# 6 -7.9138 -2.5511 7.6732 -4.5438 -2.5275 35.2304
#
#
#
# Elastic Compliance Matrix: (Units=1/GPa)
#
#
# Indices 1 2 3 4 5 6 
#
# 1 0.038574 -0.006265 0.000023 0.009479 -0.006395 0.008970
# 2 -0.006265 0.009878 -0.004967 -0.001391 0.001952 0.000351
# 3 0.000023 -0.004967 0.017125 -0.004039 -0.007255 -0.005126
# 4 0.009479 -0.001391 -0.004039 0.029542 0.003004 0.006934
# 5 -0.006395 0.001952 -0.007255 0.003004 0.034233 0.003128
# 6 0.008970 0.000351 -0.005126 0.006934 0.003128 0.032660
#
#
# Mechanical properties :
#
#
# Convention : Reuss Voigt Hill
#
# Bulk Modulus (GPa) = 23.17142 43.51793 33.34468
# Shear Modulus (GPa) = 25.14880 33.81975 29.48427
#
# Velocity S-wave (km/s) = 3.54319 4.10885 3.83646
# Velocity P-wave (km/s) = 5.32034 6.65088 6.02247
#
# Compressibility (1/GPa) = 0.04315661
#
# Stress axis : x y z
#
# Youngs Moduli (GPa) = 25.92448 101.23139 58.39579
#
# Poissons Ratio (x) = 0.63423 -0.00132
# Poissons Ratio (y) = 0.16242 0.29007
# Poissons Ratio (z) = -0.00059 0.50285
#
# Static dielectric constant tensor:
#      x y z
#    x 3.458310 -0.155000 0.099800 
#    y -0.155000 3.714050 0.077490 
#    z 0.099800 0.077490 3.694120 
# 
# 
# High freq. dielectric constant tensor:
#      x y z
#    x 1.767610 -0.014080 0.006010 
#    y -0.014080 1.792310 0.007650 
#    z 0.006010 0.007650 1.783010 
# 
# From -- ./inp_files/428172.got.cif
#   From: 2010.06.25/outbox.cif.g09.slc.cpg/sg2_215_cif.got.tgz:428172.got - 2010.06.27 13:26:56.
