data_PCOD8019905
_publ_section_title
;
Structure prediction by ZEFSAII (Michael W. Deem and Ramdas Pophale) SiO2 
 PCOD8019905
Probable space group: P -1
;
_chemical_formula_sum "Si O2"
_cell_formula_units_Z 14
_cell_length_a 11.998464
_cell_length_b 6.907250
_cell_length_c 14.532157
_cell_angle_alpha 93.832504
_cell_angle_beta 149.644068
_cell_angle_gamma 77.134070
_cell_volume 573.861803
_symmetry_space_group_name_H-M "P -1"
_symmetry_group_IT_number 2
_symmetry_cell_setting 'triclinic'
loop_
_space_group_symop_operation_xyz
x,y,z
-x,-y,-z
loop_
_atom_site_type_symbol
_atom_site_label
_atom_site_fract_x
_atom_site_fract_y
_atom_site_fract_z
Si Si1 0.117294 0.879123 0.805825
Si Si2 0.999525 0.361454 0.708196
Si Si3 0.304349 0.110162 0.611121
Si Si4 0.189494 0.965775 0.054414
Si Si5 0.359672 0.370260 0.823102
Si Si6 0.883923 0.578845 0.016212
Si Si7 0.612916 0.361538 0.305475
O O1 0.076046 0.115517 0.760236
O O2 0.377388 0.741969 0.956730
O O3 0.916935 0.804515 0.612577
O O4 0.103126 0.852307 0.906106
O O5 0.203823 0.421705 0.804935
O O6 0.957186 0.481660 0.780446
O O7 0.760474 0.449854 0.484410
O O8 0.534946 0.141735 0.727606
O O9 0.329750 0.879415 0.650440
O O10 0.262265 0.231157 0.681411
O O11 0.199274 0.178726 0.031229
O O12 0.000000 0.000000 0.000000
O O13 0.336066 0.583215 0.760292
O O14 0.656012 0.509258 0.858190
O O15 0.000000 0.500000 0.000000
#
# Coordination Sequence:
#
# PCOD8019905 Si02
#       7
#     2   2   2   2   2   2   2
#     4   9  20  37  61  91 126 162 203 250 311 367
#     4  10  22  42  62  93 127 162 205 254 308 368
#     4   9  21  40  59  92 126 164 198 250 317 365
#     4   9  19  37  61  85 121 156 209 260 297 360
#     4  11  22  38  67  94 126 163 204 252 304 375
#     4  10  23  40  62  87 122 163 203 256 313 355
#     4  10  23  41  62  93 130 158 205 257 305 366
#
# _framework density 24.396118000000001
#
# number of rings (size 3 to 8) (size 9 to 14) (size 15 to 20)
#    0.000    2.286    0.000    1.714    4.000    6.286 
#    0.000    0.000    0.000    0.000    0.000    0.000 
#    0.000    0.000    0.000    0.000    0.000    0.000 
#
# Total GULP energy -173510.664400 kJ/mol
# GULP energy per Si atom -12393.618886 kJ/mol
# Density = 2.434059 g / cm^3
# Si number density = 24.396118 Si / 1000 Ang^3
#
#
#
# Elastic Constant Matrix: (Units=GPa)
#
#
# Indices 1 2 3 4 5 6 
#
# 1 151.7357 15.5030 55.2171 18.8654 -12.7816 4.0583
# 2 15.5030 38.2471 44.9210 22.8222 -0.1507 0.2059
# 3 55.2171 44.9210 194.4261 32.0475 -16.8315 -2.1315
# 4 18.8654 22.8222 32.0475 42.4965 -3.1159 -1.0817
# 5 -12.7816 -0.1507 -16.8315 -3.1159 28.2496 11.1536
# 6 4.0583 0.2059 -2.1315 -1.0817 11.1536 23.6462
#
#
#
# Elastic Compliance Matrix: (Units=1/GPa)
#
#
# Indices 1 2 3 4 5 6 
#
# 1 0.007829 -0.000035 -0.001592 -0.002071 0.003674 -0.003314
# 2 -0.000035 0.047845 -0.008409 -0.019853 -0.007546 0.001483
# 3 -0.001592 -0.008409 0.007986 -0.000508 0.004332 -0.001000
# 4 -0.002071 -0.019853 -0.000508 0.035681 0.002157 0.001097
# 5 0.003674 -0.007546 0.004332 0.002157 0.048993 -0.023185
# 6 -0.003314 0.001483 -0.001000 0.001097 -0.023185 0.053742
#
#
# Mechanical properties :
#
#
# Convention : Reuss Voigt Hill
#
# Bulk Modulus (GPa) = 22.94255 68.41012 45.67634
# Shear Modulus (GPa) = 21.12566 36.79632 28.96099
#
# Velocity S-wave (km/s) = 2.94588 3.88788 3.44919
# Velocity P-wave (km/s) = 4.58209 6.94668 5.88439
#
# Compressibility (1/GPa) = 0.04358714
#
# Stress axis : x y z
#
# Youngs Moduli (GPa) = 127.73024 20.90083 125.21806
#
# Poissons Ratio (x) = 0.00074 0.19938
# Poissons Ratio (y) = 0.00451 1.05294
# Poissons Ratio (z) = 0.20338 0.17575
#
# Static dielectric constant tensor:
#      x y z
#    x 4.627650 -0.282940 -0.182290 
#    y -0.282940 5.010030 0.272670 
#    z -0.182290 0.272670 4.920960 
# 
# 
# High freq. dielectric constant tensor:
#      x y z
#    x 1.946010 0.007490 -0.008350 
#    y 0.007490 1.999730 0.008980 
#    z -0.008350 0.008980 1.984970 
# 
# From -- ./inp_files/273340.got.cif
#   From: 2010.06.25/outbox.cif.g09.slc.cpg/sg2_137_cif.got.tgz:273340.got - 2010.06.27 13:26:56.
