data_PCOD8019850
_publ_section_title
;
Structure prediction by ZEFSAII (Michael W. Deem and Ramdas Pophale) SiO2 
 PCOD8019850
Probable space group: P -1
;
_chemical_formula_sum "Si O2"
_cell_formula_units_Z 14
_cell_length_a 15.542870
_cell_length_b 7.756313
_cell_length_c 8.696280
_cell_angle_alpha 51.832847
_cell_angle_beta 48.903259
_cell_angle_gamma 65.923019
_cell_volume 621.153242
_symmetry_space_group_name_H-M "P -1"
_symmetry_group_IT_number 2
_symmetry_cell_setting 'triclinic'
loop_
_space_group_symop_operation_xyz
x,y,z
-x,-y,-z
loop_
_atom_site_type_symbol
_atom_site_label
_atom_site_fract_x
_atom_site_fract_y
_atom_site_fract_z
Si Si1 0.435259 0.537054 0.399348
Si Si2 0.853576 0.822726 0.881960
Si Si3 0.465361 0.266930 0.109523
Si Si4 0.766146 0.826722 0.426043
Si Si5 0.636496 0.933799 0.247538
Si Si6 0.077676 0.005417 0.595384
Si Si7 0.183013 0.553878 0.659052
O O1 0.500000 0.500000 0.500000
O O2 0.309075 0.635592 0.516384
O O3 0.419715 0.288567 0.489686
O O4 0.503177 0.715249 0.118260
O O5 0.939963 0.994394 0.771487
O O6 0.878898 0.810512 0.676900
O O7 0.873715 0.581307 0.060571
O O8 0.721961 0.892647 0.027377
O O9 0.330967 0.225749 0.304424
O O10 0.537292 0.090746 0.220495
O O11 0.500000 0.500000 0.000000
O O12 0.810631 0.601850 0.415209
O O13 0.715683 0.003077 0.262614
O O14 0.870605 0.945268 0.325294
O O15 0.111482 0.774151 0.600778
#
# Coordination Sequence:
#
# PCOD8019850 Si02
#       7
#     2   2   2   2   2   2   2
#     4  10  23  37  58  91 125 165 205 251 310 368
#     4   9  22  42  63  91 123 160 214 256 311 371
#     4  12  22  39  62  87 130 170 197 258 310 369
#     4  10  24  40  63  98 123 164 217 242 315 382
#     4  10  23  41  59  90 129 161 206 263 304 367
#     4  11  22  42  67  89 123 166 207 262 310 362
#     4  10  22  42  60  91 128 159 205 265 301 369
#
# _framework density 22.538723000000001
#
# number of rings (size 3 to 8) (size 9 to 14) (size 15 to 20)
#    0.000    2.000    2.857    1.714    6.000    2.857 
#    0.000    2.857    0.000    0.000    0.000    0.000 
#    0.000    0.000    0.000    0.000    0.000    0.000 
#
# Total GULP energy -173444.920592 kJ/mol
# GULP energy per Si atom -12388.922899 kJ/mol
# Density = 2.248742 g / cm^3
# Si number density = 22.538723 Si / 1000 Ang^3
#
#
#
# Elastic Constant Matrix: (Units=GPa)
#
#
# Indices 1 2 3 4 5 6 
#
# 1 90.1132 21.9823 -4.4878 -0.7757 12.1326 13.5897
# 2 21.9823 68.1909 13.5445 -5.1453 -2.6193 -8.9418
# 3 -4.4878 13.5445 104.9571 -3.7708 15.6493 -5.1714
# 4 -0.7757 -5.1453 -3.7708 20.6871 -3.3701 5.0558
# 5 12.1326 -2.6193 15.6493 -3.3701 33.3972 0.8670
# 6 13.5897 -8.9418 -5.1714 5.0558 0.8670 26.1616
#
#
#
# Elastic Compliance Matrix: (Units=1/GPa)
#
#
# Indices 1 2 3 4 5 6 
#
# 1 0.015241 -0.006819 0.002077 0.000531 -0.006739 -0.009716
# 2 -0.006819 0.019022 -0.003029 0.002670 0.005431 0.008749
# 3 0.002077 -0.003029 0.010936 0.000277 -0.006093 0.000196
# 4 0.000531 0.002670 0.000277 0.052301 0.005413 -0.009595
# 5 -0.006739 0.005431 -0.006093 0.005413 0.036169 0.001907
# 6 -0.009716 0.008749 0.000196 -0.009595 0.001907 0.048091
#
#
# Mechanical properties :
#
#
# Convention : Reuss Voigt Hill
#
# Bulk Modulus (GPa) = 33.71928 36.14881 34.93405
# Shear Modulus (GPa) = 24.13294 31.53065 27.83179
#
# Velocity S-wave (km/s) = 3.27575 3.74432 3.51785
# Velocity P-wave (km/s) = 5.41299 5.89632 5.65982
#
# Compressibility (1/GPa) = 0.02965662
#
# Stress axis : x y z
#
# Youngs Moduli (GPa) = 65.61228 52.57167 91.44518
#
# Poissons Ratio (x) = 0.35846 -0.18990
# Poissons Ratio (y) = 0.44738 0.27698
# Poissons Ratio (z) = -0.13626 0.15924
#
# Static dielectric constant tensor:
#      x y z
#    x 4.216860 0.015880 0.148480 
#    y 0.015880 3.735460 -0.200640 
#    z 0.148480 -0.200640 4.382330 
# 
# 
# High freq. dielectric constant tensor:
#      x y z
#    x 1.891410 -0.013020 -0.000910 
#    y -0.013020 1.850020 0.005390 
#    z -0.000910 0.005390 1.907350 
# 
# From -- ./inp_files/201766.got.cif
#   From: 2010.06.25/outbox.cif.g09.slc.cpg/sg2_101_cif.got.tgz:201766.got - 2010.06.27 13:26:56.
