data_PCOD8019208
_publ_section_title
;
Structure prediction by ZEFSAII (Michael W. Deem and Ramdas Pophale) SiO2 
 PCOD8019208
Probable space group: P -1
;
_chemical_formula_sum "Si O2"
_cell_formula_units_Z 12
_cell_length_a 11.662718
_cell_length_b 9.124193
_cell_length_c 7.982720
_cell_angle_alpha 76.987401
_cell_angle_beta 99.750775
_cell_angle_gamma 142.993790
_cell_volume 498.085116
_symmetry_space_group_name_H-M "P -1"
_symmetry_group_IT_number 2
_symmetry_cell_setting 'triclinic'
loop_
_space_group_symop_operation_xyz
x,y,z
-x,-y,-z
loop_
_atom_site_type_symbol
_atom_site_label
_atom_site_fract_x
_atom_site_fract_y
_atom_site_fract_z
Si Si1 0.943084 0.094352 0.627807
Si Si2 0.848937 0.158162 0.254907
Si Si3 0.237518 0.212076 0.854543
Si Si4 0.442301 0.842959 0.187160
Si Si5 0.672573 0.596193 0.819772
Si Si6 0.101372 0.646080 0.312613
O O1 0.781851 0.799967 0.650457
O O2 0.952730 0.175770 0.426108
O O3 0.890474 0.164984 0.739025
O O4 0.145856 0.230540 0.691696
O O5 0.972415 0.437624 0.186242
O O6 0.844964 0.043281 0.122565
O O7 0.632799 0.983913 0.293534
O O8 0.461318 0.443714 0.815668
O O9 0.201853 0.235001 0.027174
O O10 0.319486 0.573505 0.165897
O O11 0.317849 0.809721 0.298248
O O12 0.500000 0.000000 0.000000
O O13 0.000000 0.500000 0.500000
#
# Coordination Sequence:
#
# PCOD8019208 Si02
#       6
#     2   2   2   2   2   2
#     4  11  23  39  69  98 132 178 222 285 330 400
#     4  10  24  44  67 101 135 179 230 274 342 403
#     4  10  22  41  65  96 137 169 222 279 340 396
#     4  11  26  45  71  98 140 181 225 282 338 408
#     4  10  24  42  66 101 131 176 228 275 340 401
#     4  10  25  43  66 101 137 179 223 275 342 400
#
# _framework density 24.092269000000002
#
# number of rings (size 3 to 8) (size 9 to 14) (size 15 to 20)
#    0.000    1.667    0.000    2.000    9.333   10.000 
#    0.000    0.000    0.000    0.000    0.000    0.000 
#    0.000    0.000    0.000    0.000    0.000    0.000 
#
# Total GULP energy -148747.805527 kJ/mol
# GULP energy per Si atom -12395.650461 kJ/mol
# Density = 2.403743 g / cm^3
# Si number density = 24.092269 Si / 1000 Ang^3
#
#
#
# Elastic Constant Matrix: (Units=GPa)
#
#
# Indices 1 2 3 4 5 6 
#
# 1 145.8937 29.0794 15.9573 9.3184 -0.1215 -19.3164
# 2 29.0794 118.0865 8.3964 7.2422 12.4926 -40.8527
# 3 15.9573 8.3964 52.5406 0.5371 2.5986 -1.5000
# 4 9.3184 7.2422 0.5371 38.1725 3.2817 3.3723
# 5 -0.1215 12.4926 2.5986 3.2817 29.2257 1.2124
# 6 -19.3164 -40.8527 -1.5000 3.3723 1.2124 37.1736
#
#
#
# Elastic Compliance Matrix: (Units=1/GPa)
#
#
# Indices 1 2 3 4 5 6 
#
# 1 0.007805 -0.000403 -0.002202 -0.002167 0.000490 0.003705
# 2 -0.000403 0.015718 -0.001508 -0.003823 -0.006886 0.017575
# 3 -0.002202 -0.001508 0.019933 0.000821 -0.001145 -0.002035
# 4 -0.002167 -0.003823 0.000821 0.028241 -0.001295 -0.007814
# 5 0.000490 -0.006886 -0.001145 -0.001295 0.037761 -0.008473
# 6 0.003705 0.017575 -0.002035 -0.007814 -0.008473 0.049043
#
#
# Mechanical properties :
#
#
# Convention : Reuss Voigt Hill
#
# Bulk Modulus (GPa) = 28.38542 47.04301 37.71421
# Shear Modulus (GPa) = 28.01588 38.45354 33.23471
#
# Velocity S-wave (km/s) = 3.41377 3.99945 3.71816
# Velocity P-wave (km/s) = 5.22934 6.39500 5.84132
#
# Compressibility (1/GPa) = 0.03522935
#
# Stress axis : x y z
#
# Youngs Moduli (GPa) = 128.12619 63.62219 50.16819
#
# Poissons Ratio (x) = 0.02561 0.11049
# Poissons Ratio (y) = 0.05158 0.07566
# Poissons Ratio (z) = 0.28218 0.09595
#
# Static dielectric constant tensor:
#      x y z
#    x 4.730720 -0.486760 -0.007550 
#    y -0.486760 4.991550 0.264190 
#    z -0.007550 0.264190 3.924380 
# 
# 
# High freq. dielectric constant tensor:
#      x y z
#    x 1.978300 -0.008800 -0.000770 
#    y -0.008800 1.973800 0.008280 
#    z -0.000770 0.008280 1.925350 
# 
# From -- ./inp_files/237939.got.cif
#   From: 2010.06.25/outbox.cif.g09.slc.cpg/sg2_119_cif.got.tgz:237939.got - 2010.06.27 13:26:56.
