data_PCOD8019517
_publ_section_title
;
Structure prediction by ZEFSAII (Michael W. Deem and Ramdas Pophale) SiO2 
 PCOD8019517
Probable space group: P -1
;
_chemical_formula_sum "Si O2"
_cell_formula_units_Z 14
_cell_length_a 14.624100
_cell_length_b 11.390489
_cell_length_c 5.041757
_cell_angle_alpha 113.695624
_cell_angle_beta 85.173940
_cell_angle_gamma 126.537834
_cell_volume 603.996939
_symmetry_space_group_name_H-M "P -1"
_symmetry_group_IT_number 2
_symmetry_cell_setting 'triclinic'
loop_
_space_group_symop_operation_xyz
x,y,z
-x,-y,-z
loop_
_atom_site_type_symbol
_atom_site_label
_atom_site_fract_x
_atom_site_fract_y
_atom_site_fract_z
Si Si1 0.500935 0.663591 0.421868
Si Si2 0.389554 0.831374 0.480107
Si Si3 0.055442 0.775557 0.077233
Si Si4 0.903121 0.646371 0.486167
Si Si5 0.632877 0.709375 0.921109
Si Si6 0.756956 0.276582 0.094128
Si Si7 0.876204 0.901772 0.801745
O O1 0.421935 0.712775 0.403193
O O2 0.567951 0.745984 0.757434
O O3 0.410451 0.470500 0.292239
O O4 0.602018 0.725789 0.238912
O O5 0.344043 0.849794 0.787232
O O6 0.500000 0.000000 0.500000
O O7 0.287523 0.757284 0.224683
O O8 0.143083 0.742575 0.927688
O O9 0.952051 0.692815 0.813602
O O10 0.003235 0.690929 0.296296
O O11 0.119115 0.968752 0.270952
O O12 0.800123 0.455056 0.328281
O O13 0.855523 0.748816 0.513055
O O14 0.772064 0.834666 0.975400
O O15 0.000000 0.000000 0.000000
#
# Coordination Sequence:
#
# PCOD8019517 Si02
#       7
#     2   2   2   2   2   2   2
#     4  10  23  42  65  95 126 173 223 268 329 385
#     4  12  27  43  67  98 136 169 230 277 337 395
#     4  11  24  41  67 100 134 173 222 268 334 396
#     4  11  23  44  66  97 135 173 226 268 323 411
#     4  10  22  41  68  93 130 171 217 273 325 402
#     4  12  25  44  70  95 132 185 217 276 336 393
#     4  10  24  41  67 100 137 170 219 277 344 391
#
# _framework density 23.178923000000001
#
# number of rings (size 3 to 8) (size 9 to 14) (size 15 to 20)
#    0.000    1.143    0.000    5.143    4.000    8.000 
#    0.000    0.000    0.000    0.000    0.000    0.000 
#    0.000    0.000    0.000    0.000    0.000    0.000 
#
# Total GULP energy -173645.675736 kJ/mol
# GULP energy per Si atom -12403.262553 kJ/mol
# Density = 2.312617 g / cm^3
# Si number density = 23.178923 Si / 1000 Ang^3
#
#
#
# Elastic Constant Matrix: (Units=GPa)
#
#
# Indices 1 2 3 4 5 6 
#
# 1 55.3187 27.2913 9.2467 7.0375 2.4133 0.0145
# 2 27.2913 104.9535 20.8335 -13.5902 -0.2688 10.7377
# 3 9.2467 20.8335 51.9691 0.8033 1.0593 -13.1578
# 4 7.0375 -13.5902 0.8033 31.6003 -1.0768 -8.1047
# 5 2.4133 -0.2688 1.0593 -1.0768 34.2718 -2.1635
# 6 0.0145 10.7377 -13.1578 -8.1047 -2.1635 43.7736
#
#
#
# Elastic Compliance Matrix: (Units=1/GPa)
#
#
# Indices 1 2 3 4 5 6 
#
# 1 0.022678 -0.006649 -0.001294 -0.008030 -0.001883 -0.000345
# 2 -0.006649 0.013526 -0.005281 0.006517 0.000711 -0.003661
# 3 -0.001294 -0.005281 0.023709 -0.000455 -0.000172 0.008330
# 4 -0.008030 0.006517 -0.000455 0.037694 0.002153 0.005353
# 5 -0.001883 0.000711 -0.000172 0.002153 0.029493 0.001631
# 6 -0.000345 -0.003661 0.008330 0.005353 0.001631 0.027319
#
#
# Mechanical properties :
#
#
# Convention : Reuss Voigt Hill
#
# Bulk Modulus (GPa) = 29.88405 36.33160 33.10783
# Shear Modulus (GPa) = 26.03867 32.25377 29.14622
#
# Velocity S-wave (km/s) = 3.35532 3.73435 3.54989
# Velocity P-wave (km/s) = 5.28504 5.85681 5.57825
#
# Compressibility (1/GPa) = 0.03346266
#
# Stress axis : x y z
#
# Youngs Moduli (GPa) = 44.09647 73.93320 42.17758
#
# Poissons Ratio (x) = 0.49160 0.05459
# Poissons Ratio (y) = 0.29321 0.22276
# Poissons Ratio (z) = 0.05708 0.39047
#
# Static dielectric constant tensor:
#      x y z
#    x 4.209110 -0.208940 -0.146600 
#    y -0.208940 4.508490 0.118070 
#    z -0.146600 0.118070 3.905420 
# 
# 
# High freq. dielectric constant tensor:
#      x y z
#    x 1.922560 -0.000930 -0.007650 
#    y -0.000930 1.933480 -0.003860 
#    z -0.007650 -0.003860 1.905750 
# 
# From -- ./inp_files/94088.got.cif
#   From: 2010.06.25/outbox.cif.g09.slc.cpg/sg2_48_cif.got.tgz:94088.got - 2010.06.27 13:26:56.
