data_PCOD8019336
_publ_section_title
;
Structure prediction by ZEFSAII (Michael W. Deem and Ramdas Pophale) SiO2 
 PCOD8019336
Probable space group: P -1
;
_chemical_formula_sum "Si O2"
_cell_formula_units_Z 14
_cell_length_a 5.160364
_cell_length_b 18.161259
_cell_length_c 8.382569
_cell_angle_alpha 54.105529
_cell_angle_beta 57.856972
_cell_angle_gamma 63.691016
_cell_volume 528.905887
_symmetry_space_group_name_H-M "P -1"
_symmetry_group_IT_number 2
_symmetry_cell_setting 'triclinic'
loop_
_space_group_symop_operation_xyz
x,y,z
-x,-y,-z
loop_
_atom_site_type_symbol
_atom_site_label
_atom_site_fract_x
_atom_site_fract_y
_atom_site_fract_z
Si Si1 0.719573 0.735127 0.279687
Si Si2 0.701708 0.097835 0.632978
Si Si3 0.543792 0.372479 0.034740
Si Si4 0.972813 0.497827 0.823075
Si Si5 0.144936 0.826706 0.836849
Si Si6 0.710076 0.007876 0.271860
Si Si7 0.344086 0.615098 0.364521
O O1 0.496183 0.802341 0.385999
O O2 0.530718 0.658035 0.383052
O O3 0.040557 0.689107 0.319896
O O4 0.818991 0.795033 0.023234
O O5 0.888698 0.109970 0.391391
O O6 0.468528 0.023906 0.782429
O O7 0.952857 0.060641 0.734301
O O8 0.878015 0.404292 0.905065
O O9 0.435598 0.406916 0.842010
O O10 0.324793 0.415016 0.200141
O O11 0.580739 0.262380 0.167816
O O12 0.244279 0.522345 0.587768
O O13 0.000000 0.500000 0.000000
O O14 0.235576 0.886195 0.883005
O O15 0.500000 0.000000 0.500000
#
# Coordination Sequence:
#
# PCOD8019336 Si02
#       7
#     2   2   2   2   2   2   2
#     4  11  26  42  69 103 129 187 219 272 335 390
#     4  11  23  42  67  96 138 174 222 279 326 386
#     4  10  25  45  67 101 131 181 218 281 338 396
#     4  11  26  44  71 101 130 177 227 272 344 404
#     4  10  23  43  67  94 135 172 228 269 333 401
#     4  10  22  41  66  99 130 181 219 274 334 387
#     4  11  26  45  69  99 144 171 226 275 333 401
#
# _framework density 26.469739000000001
#
# number of rings (size 3 to 8) (size 9 to 14) (size 15 to 20)
#    0.000    1.429    0.000    3.857   10.000    9.714 
#    0.000    0.000    0.000    0.000    0.000    0.000 
#    0.000    0.000    0.000    0.000    0.000    0.000 
#
# Total GULP energy -173593.890098 kJ/mol
# GULP energy per Si atom -12399.563578 kJ/mol
# Density = 2.640949 g / cm^3
# Si number density = 26.469739 Si / 1000 Ang^3
#
#
#
# Elastic Constant Matrix: (Units=GPa)
#
#
# Indices 1 2 3 4 5 6 
#
# 1 116.6093 30.3109 14.2086 -2.4498 -14.7644 4.6828
# 2 30.3109 110.2027 31.7885 -5.8933 -11.6895 3.0267
# 3 14.2086 31.7885 93.2368 -8.2728 -26.2901 0.6939
# 4 -2.4498 -5.8933 -8.2728 48.7233 -3.2115 -11.5197
# 5 -14.7644 -11.6895 -26.2901 -3.2115 33.0536 -4.6440
# 6 4.6828 3.0267 0.6939 -11.5197 -4.6440 48.1825
#
#
#
# Elastic Compliance Matrix: (Units=1/GPa)
#
#
# Indices 1 2 3 4 5 6 
#
# 1 0.009637 -0.002342 0.000455 0.000457 0.003838 -0.000317
# 2 -0.002342 0.010696 -0.003166 0.000600 0.000244 -0.000232
# 3 0.000455 -0.003166 0.015398 0.003495 0.011940 0.001919
# 4 0.000457 0.000600 0.003495 0.023041 0.006275 0.005981
# 5 0.003838 0.000244 0.011940 0.006275 0.042874 0.005072
# 6 -0.000317 -0.000232 0.001919 0.005981 0.005072 0.022691
#
#
# Mechanical properties :
#
#
# Convention : Reuss Voigt Hill
#
# Bulk Modulus (GPa) = 39.02360 52.51829 45.77095
# Shear Modulus (GPa) = 34.96889 42.24127 38.60508
#
# Velocity S-wave (km/s) = 3.63862 3.99912 3.82312
# Velocity P-wave (km/s) = 5.69451 6.41934 6.06776
#
# Compressibility (1/GPa) = 0.02562552
#
# Stress axis : x y z
#
# Youngs Moduli (GPa) = 103.76466 93.49423 64.94308
#
# Poissons Ratio (x) = 0.21893 -0.02954
# Poissons Ratio (y) = 0.24298 0.20561
# Poissons Ratio (z) = -0.04720 0.29601
#
# Static dielectric constant tensor:
#      x y z
#    x 5.300770 -0.649290 -0.594580 
#    y -0.649290 6.873700 0.546400 
#    z -0.594580 0.546400 5.110190 
# 
# 
# High freq. dielectric constant tensor:
#      x y z
#    x 2.069110 -0.017720 -0.011200 
#    y -0.017720 2.090830 -0.000290 
#    z -0.011200 -0.000290 2.056840 
# 
# From -- ./inp_files/138454.got.cif
#   From: 2010.06.25/outbox.cif.g09.slc.cpg/sg2_70_cif.got.tgz:138454.got - 2010.06.27 13:26:56.
