data_PCOD8019329
_publ_section_title
;
Structure prediction by ZEFSAII (Michael W. Deem and Ramdas Pophale) SiO2 
 PCOD8019329
Probable space group: P -1
;
_chemical_formula_sum "Si O2"
_cell_formula_units_Z 14
_cell_length_a 8.773343
_cell_length_b 8.837656
_cell_length_c 9.964346
_cell_angle_alpha 116.325356
_cell_angle_beta 114.950927
_cell_angle_gamma 68.302241
_cell_volume 611.777787
_symmetry_space_group_name_H-M "P -1"
_symmetry_group_IT_number 2
_symmetry_cell_setting 'triclinic'
loop_
_space_group_symop_operation_xyz
x,y,z
-x,-y,-z
loop_
_atom_site_type_symbol
_atom_site_label
_atom_site_fract_x
_atom_site_fract_y
_atom_site_fract_z
Si Si1 0.626471 0.076524 0.173996
Si Si2 0.042104 0.320143 0.148798
Si Si3 0.352624 0.370784 0.128626
Si Si4 0.245567 0.746711 0.175379
Si Si5 0.004641 0.088066 0.289493
Si Si6 0.601182 0.772475 0.204802
Si Si7 0.939473 0.627364 0.406389
O O1 0.528239 0.278226 0.237102
O O2 0.813341 0.066628 0.174520
O O3 0.646216 0.960434 0.269973
O O4 0.500000 0.000000 0.000000
O O5 0.199749 0.281887 0.087866
O O6 0.077640 0.187615 0.234814
O O7 0.022769 0.522084 0.264453
O O8 0.868415 0.298714 0.005948
O O9 0.311776 0.575836 0.223884
O O10 0.376692 0.342474 0.966997
O O11 0.407673 0.807570 0.198867
O O12 0.132795 0.901115 0.283251
O O13 0.998024 0.195815 0.468918
O O14 0.732088 0.674256 0.328189
O O15 0.000000 0.500000 0.500000
#
# Coordination Sequence:
#
# PCOD8019329 Si02
#       7
#     2   2   2   2   2   2   2
#     4  10  22  41  66  98 134 167 217 272 325 383
#     4  11  22  43  68  98 135 173 220 273 326 392
#     4  11  23  39  69 104 132 165 221 281 326 380
#     4  12  23  38  72 102 127 168 227 276 327 380
#     4  11  25  44  67  98 135 180 217 264 334 397
#     4  11  23  42  68  98 135 173 220 275 328 387
#     4  10  25  43  68  92 138 178 219 264 334 396
#
# _framework density 22.884124
#
# number of rings (size 3 to 8) (size 9 to 14) (size 15 to 20)
#    0.000    1.143    1.429    5.571    6.000    1.143 
#    0.000    0.714    0.000    0.000    0.000    0.000 
#    0.000    0.000    0.000    0.000    0.000    0.000 
#
# Total GULP energy -173536.139936 kJ/mol
# GULP energy per Si atom -12395.438567 kJ/mol
# Density = 2.283204 g / cm^3
# Si number density = 22.884124 Si / 1000 Ang^3
#
#
#
# Elastic Constant Matrix: (Units=GPa)
#
#
# Indices 1 2 3 4 5 6 
#
# 1 147.9553 53.9159 27.7929 -1.8738 24.9031 -14.5826
# 2 53.9159 178.3723 27.5656 13.7719 2.6171 -26.0928
# 3 27.7929 27.5656 78.8612 15.9586 2.6562 -14.7878
# 4 -1.8738 13.7719 15.9586 39.4902 -4.4655 0.6948
# 5 24.9031 2.6171 2.6562 -4.4655 14.0971 1.0983
# 6 -14.5826 -26.0928 -14.7878 0.6948 1.0983 40.1697
#
#
#
# Elastic Compliance Matrix: (Units=1/GPa)
#
#
# Indices 1 2 3 4 5 6 
#
# 1 0.011677 -0.002570 -0.002109 0.000007 -0.019933 0.002338
# 2 -0.002570 0.007108 -0.000576 -0.002160 0.002376 0.003444
# 3 -0.002109 -0.000576 0.015934 -0.006610 -0.001645 0.004886
# 4 0.000007 -0.002160 -0.006610 0.030135 0.011544 -0.004671
# 5 -0.019933 0.002376 -0.001645 0.011544 0.110416 -0.009517
# 6 0.002338 0.003444 0.004886 -0.004671 -0.009517 0.030120
#
#
# Mechanical properties :
#
#
# Convention : Reuss Voigt Hill
#
# Bulk Modulus (GPa) = 41.30438 69.30419 55.30428
# Shear Modulus (GPa) = 22.32449 38.47902 30.40176
#
# Velocity S-wave (km/s) = 3.12676 4.10502 3.64883
# Velocity P-wave (km/s) = 5.57889 7.26766 6.47854
#
# Compressibility (1/GPa) = 0.02421051
#
# Stress axis : x y z
#
# Youngs Moduli (GPa) = 85.63878 140.69146 62.75801
#
# Poissons Ratio (x) = 0.36153 0.13233
# Poissons Ratio (y) = 0.22007 0.03614
# Poissons Ratio (z) = 0.18058 0.08102
#
# Static dielectric constant tensor:
#      x y z
#    x 3.942150 -0.318240 0.022860 
#    y -0.318240 4.984910 0.247370 
#    z 0.022860 0.247370 4.094410 
# 
# 
# High freq. dielectric constant tensor:
#      x y z
#    x 1.897420 -0.015370 0.010880 
#    y -0.015370 1.929410 0.006940 
#    z 0.010880 0.006940 1.870180 
# 
# From -- ./inp_files/354266.got.cif
#   From: 2010.06.25/outbox.cif.g09.slc.cpg/sg2_178_cif.got.tgz:354266.got - 2010.06.27 13:26:56.
