data_PCOD8019223
_publ_section_title
;
Structure prediction by ZEFSAII (Michael W. Deem and Ramdas Pophale) SiO2 
 PCOD8019223
Probable space group: P -1
;
_chemical_formula_sum "Si O2"
_cell_formula_units_Z 16
_cell_length_a 8.487021
_cell_length_b 11.675595
_cell_length_c 11.418269
_cell_angle_alpha 130.062349
_cell_angle_beta 121.922192
_cell_angle_gamma 52.641691
_cell_volume 670.302109
_symmetry_space_group_name_H-M "P -1"
_symmetry_group_IT_number 2
_symmetry_cell_setting 'triclinic'
loop_
_space_group_symop_operation_xyz
x,y,z
-x,-y,-z
loop_
_atom_site_type_symbol
_atom_site_label
_atom_site_fract_x
_atom_site_fract_y
_atom_site_fract_z
Si Si1 0.770382 0.922204 0.118963
Si Si2 0.777081 0.792408 0.623296
Si Si3 0.461078 0.878168 0.140402
Si Si4 0.802069 0.665880 0.297692
Si Si5 0.058979 0.814717 0.367241
Si Si6 0.572275 0.487968 0.651437
Si Si7 0.156409 0.346896 0.205945
Si Si8 0.775152 0.222346 0.194221
O O1 0.564567 0.930795 0.105619
O O2 0.963233 0.813996 0.202873
O O3 0.752002 0.106641 0.213008
O O4 0.814886 0.828400 0.950435
O O5 0.729756 0.721661 0.438474
O O6 0.747324 0.683016 0.644998
O O7 0.001688 0.785278 0.720944
O O8 0.618436 0.979603 0.700143
O O9 0.618939 0.722154 0.170158
O O10 0.279129 0.835977 0.990393
O O11 0.963320 0.742885 0.382908
O O12 0.917422 0.468872 0.203206
O O13 0.303148 0.702392 0.384205
O O14 0.000000 0.000000 0.500000
O O15 0.500000 0.500000 0.500000
O O16 0.728968 0.575187 0.782347
O O17 0.380581 0.587861 0.723810
#
# Coordination Sequence:
#
# PCOD8019223 Si02
#       8
#     2   2   2   2   2   2   2   2
#     4  11  22  41  69  96 126 169 218 266 322 381
#     4  12  24  43  64  92 133 178 213 261 320 389
#     4  11  23  40  66  94 126 168 217 268 317 379
#     4  10  24  41  65  92 127 169 219 263 321 386
#     4  10  22  41  65  98 129 164 212 270 325 376
#     4  11  23  40  67  97 130 165 214 271 318 383
#     4  11  23  42  67  93 128 171 215 265 322 382
#     4  12  23  41  64  99 131 166 219 261 325 379
#
# _framework density 23.869831000000001
#
# number of rings (size 3 to 8) (size 9 to 14) (size 15 to 20)
#    0.000    1.000    2.500    5.250    1.750    2.500 
#    0.000    4.375    0.000    0.000    0.000    0.000 
#    0.000    0.000    0.000    0.000    0.000    0.000 
#
# Total GULP energy -198449.200718 kJ/mol
# GULP energy per Si atom -12403.075045 kJ/mol
# Density = 2.381550 g / cm^3
# Si number density = 23.869831 Si / 1000 Ang^3
#
#
#
# Elastic Constant Matrix: (Units=GPa)
#
#
# Indices 1 2 3 4 5 6 
#
# 1 44.9180 11.7500 18.2185 2.9852 -13.7922 -10.6536
# 2 11.7500 125.6487 15.3821 13.9725 -11.0835 -21.2418
# 3 18.2185 15.3821 77.3063 6.3405 -19.2999 -4.2124
# 4 2.9852 13.9725 6.3405 43.8017 -5.6677 -8.8149
# 5 -13.7922 -11.0835 -19.2999 -5.6677 36.3926 1.5138
# 6 -10.6536 -21.2418 -4.2124 -8.8149 1.5138 34.1896
#
#
#
# Elastic Compliance Matrix: (Units=1/GPa)
#
#
# Indices 1 2 3 4 5 6 
#
# 1 0.028460 -0.000172 -0.004257 0.001473 0.008362 0.008246
# 2 -0.000172 0.009288 -0.000951 -0.001550 0.001805 0.005121
# 3 -0.004257 -0.000951 0.015759 -0.000971 0.006324 -0.000506
# 4 0.001473 -0.001550 -0.000971 0.024920 0.003217 0.005659
# 5 0.008362 0.001805 0.006324 0.003217 0.034894 0.003791
# 6 0.008246 0.005121 -0.000506 0.005659 0.003791 0.036228
#
#
# Mechanical properties :
#
#
# Convention : Reuss Voigt Hill
#
# Bulk Modulus (GPa) = 23.39305 37.61936 30.50620
# Shear Modulus (GPa) = 28.64369 36.37826 32.51097
#
# Velocity S-wave (km/s) = 3.46785 3.90811 3.69455
# Velocity P-wave (km/s) = 5.08490 6.01323 5.56844
#
# Compressibility (1/GPa) = 0.04274774
#
# Stress axis : x y z
#
# Youngs Moduli (GPa) = 35.13712 107.66095 63.45627
#
# Poissons Ratio (x) = 0.01856 0.27010
# Poissons Ratio (y) = 0.00606 0.06034
# Poissons Ratio (z) = 0.14956 0.10237
#
# Static dielectric constant tensor:
#      x y z
#    x 4.176420 -0.134470 -0.077240 
#    y -0.134470 4.767080 -0.053930 
#    z -0.077240 -0.053930 4.156740 
# 
# 
# High freq. dielectric constant tensor:
#      x y z
#    x 1.925910 -0.013620 -0.007680 
#    y -0.013620 1.965290 0.000100 
#    z -0.007680 0.000100 1.943640 
# 
# From -- ./inp_files/263169.got.cif
#   From: 2010.06.25/outbox.cif.g09.slc.cpg/sg2_132_cif.got.tgz:263169.got - 2010.06.27 13:26:56.
