data_PCOD8019772
_publ_section_title
;
Structure prediction by ZEFSAII (Michael W. Deem and Ramdas Pophale) SiO2 
 PCOD8019772
Probable space group: P -1
;
_chemical_formula_sum "Si O2"
_cell_formula_units_Z 16
_cell_length_a 8.901248
_cell_length_b 14.527084
_cell_length_c 5.467906
_cell_angle_alpha 80.272719
_cell_angle_beta 101.414755
_cell_angle_gamma 105.393481
_cell_volume 663.111976
_symmetry_space_group_name_H-M "P -1"
_symmetry_group_IT_number 2
_symmetry_cell_setting 'triclinic'
loop_
_space_group_symop_operation_xyz
x,y,z
-x,-y,-z
loop_
_atom_site_type_symbol
_atom_site_label
_atom_site_fract_x
_atom_site_fract_y
_atom_site_fract_z
Si Si1 0.750751 0.642798 0.567230
Si Si2 0.813563 0.990946 0.450528
Si Si3 0.637771 0.466231 0.925208
Si Si4 0.392470 0.751753 0.950671
Si Si5 0.950941 0.269181 0.051002
Si Si6 0.562317 0.796455 0.469960
Si Si7 0.919498 0.561540 0.275582
Si Si8 0.124749 0.934383 0.063489
O O1 0.611191 0.696521 0.489150
O O2 0.821393 0.632887 0.329263
O O3 0.890985 0.702866 0.752422
O O4 0.677034 0.531422 0.666249
O O5 0.719687 0.881043 0.484106
O O6 0.774358 0.045813 0.659251
O O7 0.000000 0.000000 0.500000
O O8 0.768414 0.038476 0.161951
O O9 0.581987 0.352634 0.923278
O O10 0.803115 0.483934 0.111035
O O11 0.500000 0.500000 0.000000
O O12 0.211936 0.755480 0.838908
O O13 0.480359 0.794168 0.710105
O O14 0.455072 0.812159 0.193799
O O15 0.962926 0.178327 0.927079
O O16 0.940901 0.364334 0.853350
O O17 0.000000 0.500000 0.500000
O O18 0.000000 0.000000 0.000000
#
# Coordination Sequence:
#
# PCOD8019772 Si02
#       8
#     2   2   2   2   2   2   2   2
#     4  11  24  41  73 100 141 192 256 289 345 427
#     4  10  22  43  71 101 135 171 231 297 351 412
#     4  11  23  43  63 102 142 193 237 294 352 413
#     4  12  28  46  69 105 153 188 236 295 368 428
#     4  11  27  44  71 107 144 191 240 297 362 421
#     4  12  27  46  74 108 141 189 239 298 358 436
#     4  11  25  41  70 102 146 188 247 293 350 426
#     4  10  22  41  72 101 134 177 231 297 350 414
#
# _framework density 24.128654999999998
#
# number of rings (size 3 to 8) (size 9 to 14) (size 15 to 20)
#    0.000    1.000    1.250    4.500   12.250    3.000 
#    0.000    3.750    0.000    0.000    0.000    0.000 
#    0.000    0.000    0.000    0.000    0.000    0.000 
#
# Total GULP energy -198289.064041 kJ/mol
# GULP energy per Si atom -12393.066503 kJ/mol
# Density = 2.407374 g / cm^3
# Si number density = 24.128655 Si / 1000 Ang^3
#
#
#
# Elastic Constant Matrix: (Units=GPa)
#
#
# Indices 1 2 3 4 5 6 
#
# 1 78.9873 15.0148 21.4085 -10.9664 -15.7720 13.7322
# 2 15.0148 110.4075 35.9847 5.5342 -1.2838 22.5182
# 3 21.4085 35.9847 156.5108 3.8441 -24.3356 14.6410
# 4 -10.9664 5.5342 3.8441 28.6918 -8.6614 -8.7874
# 5 -15.7720 -1.2838 -24.3356 -8.6614 28.4730 -3.3502
# 6 13.7322 22.5182 14.6410 -8.7874 -3.3502 33.1363
#
#
#
# Elastic Compliance Matrix: (Units=1/GPa)
#
#
# Indices 1 2 3 4 5 6 
#
# 1 0.017314 -0.002425 0.000016 0.010384 0.012475 -0.001519
# 2 -0.002425 0.012313 -0.002448 -0.007591 -0.006240 -0.008925
# 3 0.000016 -0.002448 0.008106 0.001274 0.007112 -0.000868
# 4 0.010384 -0.007591 0.001274 0.052626 0.024474 0.016723
# 5 0.012475 -0.006240 0.007112 0.024474 0.056227 0.008103
# 6 -0.001519 -0.008925 -0.000868 0.016723 0.008103 0.042510
#
#
# Mechanical properties :
#
#
# Convention : Reuss Voigt Hill
#
# Bulk Modulus (GPa) = 35.69171 54.52461 45.10816
# Shear Modulus (GPa) = 24.02118 36.29340 30.15729
#
# Velocity S-wave (km/s) = 3.15865 3.88256 3.53916
# Velocity P-wave (km/s) = 5.30350 6.53801 5.95284
#
# Compressibility (1/GPa) = 0.02801771
#
# Stress axis : x y z
#
# Youngs Moduli (GPa) = 57.75775 81.21243 123.37006
#
# Poissons Ratio (x) = 0.19698 -0.00199
# Poissons Ratio (y) = 0.14009 0.30204
# Poissons Ratio (z) = -0.00093 0.19883
#
# Static dielectric constant tensor:
#      x y z
#    x 4.047300 0.022260 -0.191580 
#    y 0.022260 4.439150 0.355790 
#    z -0.191580 0.355790 4.847150 
# 
# 
# High freq. dielectric constant tensor:
#      x y z
#    x 1.948480 0.005890 -0.007630 
#    y 0.005890 1.966410 0.003130 
#    z -0.007630 0.003130 1.966000 
# 
# From -- ./inp_files/38125.got.cif
#   From: 2010.06.25/outbox.cif.g09.slc.cpg/sg2_20_cif.got.tgz:38125.got - 2010.06.27 13:26:56.
