data_PCOD8019227
_publ_section_title
;
Structure prediction by ZEFSAII (Michael W. Deem and Ramdas Pophale) SiO2 
 PCOD8019227
Probable space group: P -1
;
_chemical_formula_sum "Si O2"
_cell_formula_units_Z 14
_cell_length_a 16.407739
_cell_length_b 12.177140
_cell_length_c 15.008598
_cell_angle_alpha 30.346941
_cell_angle_beta 153.756434
_cell_angle_gamma 147.787676
_cell_volume 634.141060
_symmetry_space_group_name_H-M "P -1"
_symmetry_group_IT_number 2
_symmetry_cell_setting 'triclinic'
loop_
_space_group_symop_operation_xyz
x,y,z
-x,-y,-z
loop_
_atom_site_type_symbol
_atom_site_label
_atom_site_fract_x
_atom_site_fract_y
_atom_site_fract_z
Si Si1 0.032456 0.181599 0.105898
Si Si2 0.944862 0.311490 0.225543
Si Si3 0.798713 0.873867 0.502367
Si Si4 0.788379 0.951253 0.785535
Si Si5 0.417259 0.912600 0.076411
Si Si6 0.586747 0.307761 0.300829
Si Si7 0.360280 0.190633 0.990241
O O1 0.088928 0.158287 0.278343
O O2 0.198512 0.133209 0.242884
O O3 0.016309 0.427949 0.890686
O O4 0.819060 0.002280 0.004267
O O5 0.146131 0.273872 0.418667
O O6 0.862165 0.142814 0.346408
O O7 0.798987 0.260348 0.032037
O O8 0.564474 0.786306 0.349358
O O9 0.621758 0.754844 0.810482
O O10 0.730195 0.182119 0.568892
O O11 0.000000 0.000000 0.000000
O O12 0.409986 0.113445 0.995914
O O13 0.500000 0.000000 0.000000
O O14 0.546424 0.243346 0.201797
O O15 0.695820 0.576933 0.236073
#
# Coordination Sequence:
#
# PCOD8019227 Si02
#       7
#     2   2   2   2   2   2   2
#     4  12  24  42  71 100 133 179 223 279 336 406
#     4  10  23  43  62  98 139 169 226 274 324 408
#     4  10  22  42  64  94 136 179 217 268 338 393
#     4  11  24  47  67 101 130 172 232 281 345 392
#     4  10  22  41  65  98 134 176 221 270 337 404
#     4  10  25  47  68  96 138 173 226 290 327 406
#     4  11  23  45  69  99 134 179 228 274 343 400
#
# _framework density 22.077106000000001
#
# number of rings (size 3 to 8) (size 9 to 14) (size 15 to 20)
#    0.000    1.429    2.857    1.286    4.000    2.286 
#    2.571    0.000    0.000    0.000    0.000    0.000 
#    0.000    0.000    0.000    0.000    0.000    0.000 
#
# Total GULP energy -173580.234666 kJ/mol
# GULP energy per Si atom -12398.588190 kJ/mol
# Density = 2.202686 g / cm^3
# Si number density = 22.077106 Si / 1000 Ang^3
#
#
#
# Elastic Constant Matrix: (Units=GPa)
#
#
# Indices 1 2 3 4 5 6 
#
# 1 117.4736 38.2979 23.7780 -10.2276 10.1081 -10.7869
# 2 38.2979 88.2212 34.6661 -24.4262 13.3781 -2.7807
# 3 23.7780 34.6661 102.4931 -15.8376 14.4405 13.4969
# 4 -10.2276 -24.4262 -15.8376 34.5019 0.9051 -1.1673
# 5 10.1081 13.3781 14.4405 0.9051 35.6506 2.2018
# 6 -10.7869 -2.7807 13.4969 -1.1673 2.2018 20.4120
#
#
#
# Elastic Compliance Matrix: (Units=1/GPa)
#
#
# Indices 1 2 3 4 5 6 
#
# 1 0.010786 -0.003445 -0.002014 0.000097 -0.001367 0.006715
# 2 -0.003445 0.017936 -0.003526 0.010323 -0.004839 0.004066
# 3 -0.002014 -0.003526 0.013622 0.002900 -0.003076 -0.010054
# 4 0.000097 0.010323 0.002900 0.037895 -0.006185 0.002374
# 5 -0.001367 -0.004839 -0.003076 -0.006185 0.031850 -0.003137
# 6 0.006715 0.004066 -0.010054 0.002374 -0.003137 0.060216
#
#
# Mechanical properties :
#
#
# Convention : Reuss Voigt Hill
#
# Bulk Modulus (GPa) = 41.02622 55.74132 48.38377
# Shear Modulus (GPa) = 25.20160 32.20930 28.70545
#
# Velocity S-wave (km/s) = 3.38231 3.82376 3.60979
# Velocity P-wave (km/s) = 5.82039 6.69314 6.27196
#
# Compressibility (1/GPa) = 0.02437466
#
# Stress axis : x y z
#
# Youngs Moduli (GPa) = 92.71252 55.75235 73.41026
#
# Poissons Ratio (x) = 0.19208 0.14783
# Poissons Ratio (y) = 0.31942 0.25884
# Poissons Ratio (z) = 0.18670 0.19658
#
# Static dielectric constant tensor:
#      x y z
#    x 4.235630 0.076190 0.202490 
#    y 0.076190 3.930420 0.200790 
#    z 0.202490 0.200790 4.192560 
# 
# 
# High freq. dielectric constant tensor:
#      x y z
#    x 1.878130 -0.002430 0.004730 
#    y -0.002430 1.851740 0.003500 
#    z 0.004730 0.003500 1.874270 
# 
# From -- ./inp_files/538171.got.cif
#   From: 2010.06.25/outbox.cif.g09.slc.cpg/sg2_270_cif.got.tgz:538171.got - 2010.06.27 13:26:56.
