data_PCOD8019557
_publ_section_title
;
Structure prediction by ZEFSAII (Michael W. Deem and Ramdas Pophale) SiO2 
 PCOD8019557
Probable space group: P -1
;
_chemical_formula_sum "Si O2"
_cell_formula_units_Z 14
_cell_length_a 14.483572
_cell_length_b 9.201026
_cell_length_c 11.360716
_cell_angle_alpha 53.237017
_cell_angle_beta 147.152332
_cell_angle_gamma 112.312777
_cell_volume 630.895693
_symmetry_space_group_name_H-M "P -1"
_symmetry_group_IT_number 2
_symmetry_cell_setting 'triclinic'
loop_
_space_group_symop_operation_xyz
x,y,z
-x,-y,-z
loop_
_atom_site_type_symbol
_atom_site_label
_atom_site_fract_x
_atom_site_fract_y
_atom_site_fract_z
Si Si1 0.355505 0.788510 0.905000
Si Si2 0.560370 0.936912 0.465835
Si Si3 0.878169 0.042400 0.630885
Si Si4 0.717134 0.557756 0.921708
Si Si5 0.726319 0.830440 0.251826
Si Si6 0.027304 0.341155 0.204458
Si Si7 0.196157 0.186407 0.906819
O O1 0.214870 0.806606 0.640409
O O2 0.272971 0.951138 0.834554
O O3 0.408228 0.572628 0.113523
O O4 0.528885 0.823983 0.016986
O O5 0.626484 0.707806 0.649887
O O6 0.500000 0.000000 0.500000
O O7 0.726372 0.015247 0.570575
O O8 0.379178 0.015974 0.160194
O O9 0.032003 0.119876 0.818265
O O10 0.987006 0.844370 0.787258
O O11 0.769424 0.658086 0.044137
O O12 0.884109 0.403893 0.122295
O O13 0.789163 0.711752 0.498162
O O14 0.847658 0.741736 0.310313
O O15 0.000000 0.500000 0.000000
#
# Coordination Sequence:
#
# PCOD8019557 Si02
#       7
#     2   2   2   2   2   2   2
#     4  10  22  41  68  97 128 174 220 272 323 385
#     4  10  23  44  63  97 139 171 214 269 328 391
#     4  11  22  44  72  90 136 177 215 269 330 389
#     4  11  24  42  64 100 136 165 224 276 319 387
#     4  10  22  42  67  96 131 173 221 265 333 389
#     4  11  23  42  64  97 132 169 219 272 320 390
#     4  11  24  43  70  98 129 178 219 266 333 389
#
# _framework density 22.190673
#
# number of rings (size 3 to 8) (size 9 to 14) (size 15 to 20)
#    0.000    1.429    2.857    1.714    0.000    8.571 
#    5.143    2.143    0.000    0.000    0.000    0.000 
#    0.000    0.000    0.000    0.000    0.000    0.000 
#
# Total GULP energy -173458.291597 kJ/mol
# GULP energy per Si atom -12389.877971 kJ/mol
# Density = 2.214017 g / cm^3
# Si number density = 22.190673 Si / 1000 Ang^3
#
#
#
# Elastic Constant Matrix: (Units=GPa)
#
#
# Indices 1 2 3 4 5 6 
#
# 1 113.5605 41.7781 23.7162 6.6164 6.7935 3.4329
# 2 41.7781 107.1289 45.3793 3.9853 0.4028 14.7254
# 3 23.7162 45.3793 83.7299 3.3913 4.5962 13.4607
# 4 6.6164 3.9853 3.3913 29.5435 3.7014 -0.6626
# 5 6.7935 0.4028 4.5962 3.7014 38.5353 -2.1832
# 6 3.4329 14.7254 13.4607 -0.6626 -2.1832 37.1600
#
#
#
# Elastic Compliance Matrix: (Units=1/GPa)
#
#
# Indices 1 2 3 4 5 6 
#
# 1 0.010539 -0.003758 -0.000920 -0.001541 -0.001519 0.000732
# 2 -0.003758 0.013735 -0.005956 -0.000532 0.001117 -0.002882
# 3 -0.000920 -0.005956 0.016126 -0.000691 -0.001832 -0.003516
# 4 -0.001541 -0.000532 -0.000691 0.034734 -0.002917 0.001051
# 5 -0.001519 0.001117 -0.001832 -0.002917 0.026812 0.001884
# 6 0.000732 -0.002882 -0.003516 0.001051 0.001884 0.029388
#
#
# Mechanical properties :
#
#
# Convention : Reuss Voigt Hill
#
# Bulk Modulus (GPa) = 52.27083 58.46296 55.36690
# Shear Modulus (GPa) = 31.45088 33.95079 32.70083
#
# Velocity S-wave (km/s) = 3.76879 3.91571 3.84295
# Velocity P-wave (km/s) = 6.52264 6.84446 6.68549
#
# Compressibility (1/GPa) = 0.01913113
#
# Stress axis : x y z
#
# Youngs Moduli (GPa) = 94.88488 72.80882 62.01330
#
# Poissons Ratio (x) = 0.27360 0.05708
# Poissons Ratio (y) = 0.35655 0.36934
# Poissons Ratio (z) = 0.08734 0.43364
#
# Static dielectric constant tensor:
#      x y z
#    x 4.036530 0.004810 -0.018130 
#    y 0.004810 3.868460 -0.328350 
#    z -0.018130 -0.328350 5.190840 
# 
# 
# High freq. dielectric constant tensor:
#      x y z
#    x 1.881600 0.001390 -0.001150 
#    y 0.001390 1.855680 -0.005690 
#    z -0.001150 -0.005690 1.879890 
# 
# From -- ./inp_files/174189.got.cif
#   From: 2010.06.25/outbox.cif.g09.slc.cpg/sg2_88_cif.got.tgz:174189.got - 2010.06.27 13:26:56.
