data_PCOD8019412
_publ_section_title
;
Structure prediction by ZEFSAII (Michael W. Deem and Ramdas Pophale) SiO2 
 PCOD8019412
Probable space group: P -1
;
_chemical_formula_sum "Si O2"
_cell_formula_units_Z 16
_cell_length_a 8.675375
_cell_length_b 15.545943
_cell_length_c 19.134221
_cell_angle_alpha 27.810986
_cell_angle_beta 33.009148
_cell_angle_gamma 34.268751
_cell_volume 618.419346
_symmetry_space_group_name_H-M "P -1"
_symmetry_group_IT_number 2
_symmetry_cell_setting 'triclinic'
loop_
_space_group_symop_operation_xyz
x,y,z
-x,-y,-z
loop_
_atom_site_type_symbol
_atom_site_label
_atom_site_fract_x
_atom_site_fract_y
_atom_site_fract_z
Si Si1 0.184224 0.989415 0.593739
Si Si2 0.749045 0.620297 0.899804
Si Si3 0.424948 0.106743 0.105483
Si Si4 0.805548 0.138900 0.816595
Si Si5 0.758326 0.201958 0.424798
Si Si6 0.805849 0.377071 0.508970
Si Si7 0.298471 0.784730 0.831762
Si Si8 0.209777 0.256061 0.687336
O O1 0.377421 0.864948 0.545528
O O2 0.379562 0.915710 0.644389
O O3 0.893310 0.920224 0.758621
O O4 0.042177 0.227085 0.473823
O O5 0.587717 0.715273 0.964983
O O6 0.568979 0.736729 0.817791
O O7 0.084360 0.632904 0.762896
O O8 0.758330 0.398922 0.050943
O O9 0.690299 0.917620 0.169598
O O10 0.505822 0.149063 0.965365
O O11 0.727836 0.256312 0.689384
O O12 0.990840 0.232048 0.729205
O O13 0.994421 0.912705 0.893120
O O14 0.504433 0.279658 0.522673
O O15 0.000000 0.000000 0.500000
O O16 0.500000 0.500000 0.500000
O O17 0.958228 0.535747 0.361357
#
# Coordination Sequence:
#
# PCOD8019412 Si02
#       8
#     2   2   2   2   2   2   2   2
#     4  10  23  42  65  96 128 169 214 269 323 380
#     4  10  22  41  67  95 129 172 216 263 327 381
#     4  11  22  43  68  93 131 171 218 264 324 385
#     4  11  25  43  68  95 131 175 214 268 322 383
#     4  11  20  41  67  89 127 175 211 264 321 380
#     4  11  23  45  65  97 131 166 220 267 323 386
#     4  10  22  42  63  99 132 162 219 270 319 387
#     4  12  23  43  66  95 132 172 221 261 323 389
#
# _framework density 25.872413000000002
#
# number of rings (size 3 to 8) (size 9 to 14) (size 15 to 20)
#    0.000    1.250    5.000    0.750    0.000    7.000 
#    2.250    8.125    0.000    0.000    0.000    0.000 
#    0.000    0.000    0.000    0.000    0.000    0.000 
#
# Total GULP energy -198409.972939 kJ/mol
# GULP energy per Si atom -12400.623309 kJ/mol
# Density = 2.581353 g / cm^3
# Si number density = 25.872413 Si / 1000 Ang^3
#
#
#
# Elastic Constant Matrix: (Units=GPa)
#
#
# Indices 1 2 3 4 5 6 
#
# 1 97.9853 29.2363 4.0686 -21.1042 11.8069 9.5942
# 2 29.2363 112.2837 31.3288 -31.8661 -10.6677 25.3521
# 3 4.0686 31.3288 67.5536 -11.4459 5.8207 7.6465
# 4 -21.1042 -31.8661 -11.4459 42.6141 8.8403 -3.2395
# 5 11.8069 -10.6677 5.8207 8.8403 39.0102 -7.6599
# 6 9.5942 25.3521 7.6465 -3.2395 -7.6599 42.5151
#
#
#
# Elastic Compliance Matrix: (Units=1/GPa)
#
#
# Indices 1 2 3 4 5 6 
#
# 1 0.013387 -0.002214 0.002322 0.006856 -0.007123 -0.002879
# 2 -0.002214 0.014654 -0.004873 0.007562 0.002445 -0.006345
# 3 0.002322 -0.004873 0.018211 0.003487 -0.005874 -0.001686
# 4 0.006856 0.007562 0.003487 0.035006 -0.009588 -0.005744
# 5 -0.007123 0.002445 -0.005874 -0.009588 0.032760 0.006378
# 6 -0.002879 -0.006345 -0.001686 -0.005744 0.006378 0.028969
#
#
# Mechanical properties :
#
#
# Convention : Reuss Voigt Hill
#
# Bulk Modulus (GPa) = 27.23340 45.23222 36.23281
# Shear Modulus (GPa) = 30.34746 39.04045 34.69396
#
# Velocity S-wave (km/s) = 3.42857 3.88875 3.66589
# Velocity P-wave (km/s) = 5.12078 6.13872 5.65271
#
# Compressibility (1/GPa) = 0.03671961
#
# Stress axis : x y z
#
# Youngs Moduli (GPa) = 74.70071 68.24307 54.91126
#
# Poissons Ratio (x) = 0.15112 -0.12750
# Poissons Ratio (y) = 0.16542 0.26761
# Poissons Ratio (z) = -0.17345 0.33258
#
# Static dielectric constant tensor:
#      x y z
#    x 4.975530 -0.066450 -0.371370 
#    y -0.066450 3.896660 -0.934540 
#    z -0.371370 -0.934540 4.119010 
# 
# 
# High freq. dielectric constant tensor:
#      x y z
#    x 2.060590 0.018970 -0.005880 
#    y 0.018970 2.038230 -0.007950 
#    z -0.005880 -0.007950 2.029330 
# 
# From -- ./inp_files/561330.got.cif
#   From: 2010.06.25/outbox.cif.g09.slc.cpg/sg2_281_cif.got.tgz:561330.got - 2010.06.27 13:26:56.
