data_PCOD8019685
_publ_section_title
;
Structure prediction by ZEFSAII (Michael W. Deem and Ramdas Pophale) SiO2 
 PCOD8019685
Probable space group: P -1
;
_chemical_formula_sum "Si O2"
_cell_formula_units_Z 14
_cell_length_a 5.852897
_cell_length_b 17.747596
_cell_length_c 8.585007
_cell_angle_alpha 62.623454
_cell_angle_beta 51.316840
_cell_angle_gamma 62.253909
_cell_volume 597.398508
_symmetry_space_group_name_H-M "P -1"
_symmetry_group_IT_number 2
_symmetry_cell_setting 'triclinic'
loop_
_space_group_symop_operation_xyz
x,y,z
-x,-y,-z
loop_
_atom_site_type_symbol
_atom_site_label
_atom_site_fract_x
_atom_site_fract_y
_atom_site_fract_z
Si Si1 0.930796 0.970867 0.724324
Si Si2 0.342677 0.807507 0.860238
Si Si3 0.508619 0.595165 0.342558
Si Si4 0.693664 0.546679 0.984942
Si Si5 0.578676 0.122014 0.918254
Si Si6 0.845370 0.717118 0.209928
Si Si7 0.120354 0.308970 0.418180
O O1 0.212265 0.895979 0.736685
O O2 0.872394 0.056052 0.779849
O O3 0.634205 0.935689 0.869973
O O4 0.000000 0.000000 0.500000
O O5 0.691179 0.772249 0.688671
O O6 0.312979 0.826992 0.036628
O O7 0.156484 0.733162 0.990459
O O8 0.500000 0.500000 0.500000
O O9 0.466438 0.596705 0.170716
O O10 0.808282 0.627459 0.227030
O O11 0.242317 0.671234 0.463627
O O12 0.500000 0.500000 0.000000
O O13 0.792193 0.605649 0.759104
O O14 0.000000 0.500000 0.000000
O O15 0.413221 0.194273 0.797274
O O16 0.805632 0.705426 0.419713
#
# Coordination Sequence:
#
# PCOD8019685 Si02
#       7
#     2   2   2   2   2   2   2
#     4  10  22  41  70 102 140 184 235 293 363 438
#     4  11  25  44  69 105 143 188 239 298 369 439
#     4  12  27  48  71 102 140 190 244 308 372 447
#     4  12  28  48  75 106 145 190 251 317 383 452
#     4  10  22  43  67 101 143 184 235 297 357 441
#     4  11  25  44  71 100 143 185 245 295 371 439
#     4  12  26  42  71  99 140 187 241 304 371 443
#
# _framework density 23.434941999999999
#
# number of rings (size 3 to 8) (size 9 to 14) (size 15 to 20)
#    0.000    0.857    1.429    4.714    4.000    6.286 
#    0.000    0.000    0.000    0.000    0.000    0.000 
#    0.000    0.000    0.000    0.000    0.000    0.000 
#
# Total GULP energy -173500.622704 kJ/mol
# GULP energy per Si atom -12392.901622 kJ/mol
# Density = 2.338160 g / cm^3
# Si number density = 23.434942 Si / 1000 Ang^3
#
#
#
# Elastic Constant Matrix: (Units=GPa)
#
#
# Indices 1 2 3 4 5 6 
#
# 1 104.4214 47.9670 41.9181 6.0818 9.8175 0.4536
# 2 47.9670 108.9060 53.0068 18.5115 -1.8847 -7.1422
# 3 41.9181 53.0068 142.1607 1.7811 23.8384 -11.4286
# 4 6.0818 18.5115 1.7811 48.3069 -9.3667 4.5740
# 5 9.8175 -1.8847 23.8384 -9.3667 40.2084 -1.0096
# 6 0.4536 -7.1422 -11.4286 4.5740 -1.0096 44.8196
#
#
#
# Elastic Compliance Matrix: (Units=1/GPa)
#
#
# Indices 1 2 3 4 5 6 
#
# 1 0.012734 -0.004960 -0.001612 0.000020 -0.002416 -0.001387
# 2 -0.004960 0.014336 -0.004273 -0.004203 0.003482 0.001752
# 3 -0.001612 -0.004273 0.010213 0.000174 -0.005776 0.001792
# 4 0.000020 -0.004203 0.000174 0.023570 0.005112 -0.002916
# 5 -0.002416 0.003482 -0.005776 0.005112 0.030221 -0.000735
# 6 -0.001387 0.001752 0.001792 -0.002916 -0.000735 0.023343
#
#
# Mechanical properties :
#
#
# Convention : Reuss Voigt Hill
#
# Bulk Modulus (GPa) = 64.13048 71.25241 67.69145
# Shear Modulus (GPa) = 35.38419 40.84006 38.11212
#
# Velocity S-wave (km/s) = 3.88995 4.17909 4.03711
# Velocity P-wave (km/s) = 6.89930 7.33190 7.11889
#
# Compressibility (1/GPa) = 0.01559321
#
# Stress axis : x y z
#
# Youngs Moduli (GPa) = 78.52824 69.75284 97.91062
#
# Poissons Ratio (x) = 0.34600 0.15782
# Poissons Ratio (y) = 0.38953 0.41839
# Poissons Ratio (z) = 0.12658 0.29807
#
# Static dielectric constant tensor:
#      x y z
#    x 5.029540 -0.645710 -0.318740 
#    y -0.645710 4.818460 0.233820 
#    z -0.318740 0.233820 4.589460 
# 
# 
# High freq. dielectric constant tensor:
#      x y z
#    x 1.922010 -0.011570 0.003660 
#    y -0.011570 1.939450 -0.006010 
#    z 0.003660 -0.006010 1.947190 
# 
# From -- ./inp_files/12652.got.cif
#   From: 2010.06.25/outbox.cif.g09.slc.cpg/sg2_7_cif.got.tgz:12652.got - 2010.06.27 13:26:56.
