data_PCOD8019883
_publ_section_title
;
Structure prediction by ZEFSAII (Michael W. Deem and Ramdas Pophale) SiO2 
 PCOD8019883
Probable space group: P -1
;
_chemical_formula_sum "Si O2"
_cell_formula_units_Z 14
_cell_length_a 7.281879
_cell_length_b 25.652866
_cell_length_c 10.744763
_cell_angle_alpha 33.884584
_cell_angle_beta 82.434642
_cell_angle_gamma 108.129251
_cell_volume 719.935650
_symmetry_space_group_name_H-M "P -1"
_symmetry_group_IT_number 2
_symmetry_cell_setting 'triclinic'
loop_
_space_group_symop_operation_xyz
x,y,z
-x,-y,-z
loop_
_atom_site_type_symbol
_atom_site_label
_atom_site_fract_x
_atom_site_fract_y
_atom_site_fract_z
Si Si1 0.678965 0.428161 0.913803
Si Si2 0.323070 0.742861 0.261089
Si Si3 0.172708 0.154984 0.130712
Si Si4 0.337491 0.951858 0.739512
Si Si5 0.304344 0.368180 0.870892
Si Si6 0.258981 0.749756 0.764386
Si Si7 0.277576 0.663226 0.688256
O O1 0.467108 0.419616 0.885685
O O2 0.994609 0.592062 0.568686
O O3 0.700077 0.339578 0.007632
O O4 0.551517 0.349537 0.218293
O O5 0.426939 0.760467 0.358687
O O6 0.524442 0.758223 0.125308
O O7 0.358651 0.865714 0.987784
O O8 0.989017 0.143918 0.068971
O O9 0.230187 0.238679 0.080821
O O10 0.000000 0.000000 0.500000
O O11 0.500000 0.000000 0.500000
O O12 0.472844 0.084704 0.548751
O O13 0.500000 0.500000 0.500000
O O14 0.020457 0.316631 0.017013
O O15 0.220361 0.728479 0.659044
O O16 0.000000 0.500000 0.000000
#
# Coordination Sequence:
#
# PCOD8019883 Si02
#       7
#     2   2   2   2   2   2   2
#     4   9  22  40  63  88 122 157 198 255 300 348
#     4  11  22  42  62  87 124 161 204 247 299 361
#     4  12  24  38  61  88 128 161 195 246 307 362
#     4  12  23  40  60  92 125 161 198 249 304 357
#     4  12  23  35  62  98 116 155 205 245 310 361
#     4  10  22  42  62  85 128 155 203 253 295 354
#     4   8  20  44  63  84 119 163 201 252 298 347
#
# _framework density 19.446183999999999
#
# number of rings (size 3 to 8) (size 9 to 14) (size 15 to 20)
#    0.857    0.571    2.857    2.571    0.000    1.714 
#    2.571    2.143    0.000    0.000    0.000    0.000 
#    0.000    0.000    0.000    0.000    0.000    0.000 
#
# Total GULP energy -173460.395936 kJ/mol
# GULP energy per Si atom -12390.028281 kJ/mol
# Density = 1.940192 g / cm^3
# Si number density = 19.446184 Si / 1000 Ang^3
#
#
#
# Elastic Constant Matrix: (Units=GPa)
#
#
# Indices 1 2 3 4 5 6 
#
# 1 61.7480 0.6761 8.3790 4.1076 6.4240 22.7103
# 2 0.6761 91.4119 21.3917 -10.1243 11.7861 7.6056
# 3 8.3790 21.3917 73.8741 -2.5177 19.4129 9.3728
# 4 4.1076 -10.1243 -2.5177 36.8657 4.2637 7.8535
# 5 6.4240 11.7861 19.4129 4.2637 35.5469 2.7512
# 6 22.7103 7.6056 9.3728 7.8535 2.7512 38.6412
#
#
#
# Elastic Compliance Matrix: (Units=1/GPa)
#
#
# Indices 1 2 3 4 5 6 
#
# 1 0.021139 0.001521 -0.000330 0.001113 -0.003300 -0.012634
# 2 0.001521 0.012685 -0.002359 0.004285 -0.003440 -0.003444
# 3 -0.000330 -0.002359 0.016970 0.002229 -0.008437 -0.003310
# 4 0.001113 0.004285 0.002229 0.030687 -0.005912 -0.007854
# 5 -0.003300 -0.003440 -0.008437 -0.005912 0.034924 0.003378
# 6 -0.012634 -0.003444 -0.003310 -0.007854 0.003378 0.036141
#
#
# Mechanical properties :
#
#
# Convention : Reuss Voigt Hill
#
# Bulk Modulus (GPa) = 20.63629 31.99196 26.31413
# Shear Modulus (GPa) = 29.23376 35.31658 32.27517
#
# Velocity S-wave (km/s) = 3.88147 4.26622 4.07838
# Velocity P-wave (km/s) = 5.54281 6.38394 5.97819
#
# Compressibility (1/GPa) = 0.04845832
#
# Stress axis : x y z
#
# Youngs Moduli (GPa) = 47.30573 78.83424 58.92727
#
# Poissons Ratio (x) = -0.11989 0.01944
# Poissons Ratio (y) = -0.07194 0.13899
# Poissons Ratio (z) = 0.01561 0.18594
#
# Static dielectric constant tensor:
#      x y z
#    x 3.632550 0.137310 0.218400 
#    y 0.137310 3.763870 0.032570 
#    z 0.218400 0.032570 3.668500 
# 
# 
# High freq. dielectric constant tensor:
#      x y z
#    x 1.755080 0.008940 0.015280 
#    y 0.008940 1.760690 -0.013380 
#    z 0.015280 -0.013380 1.753370 
# 
# From -- ./inp_files/371307.got.cif
#   From: 2010.06.25/outbox.cif.g09.slc.cpg/sg2_186_cif.got.tgz:371307.got - 2010.06.27 13:26:56.
