data_PCOD8019243
_publ_section_title
;
Structure prediction by ZEFSAII (Michael W. Deem and Ramdas Pophale) SiO2 
 PCOD8019243
Probable space group: P -1
;
_chemical_formula_sum "Si O2"
_cell_formula_units_Z 10
_cell_length_a 5.416181
_cell_length_b 15.134942
_cell_length_c 15.859338
_cell_angle_alpha 162.705580
_cell_angle_beta 91.837482
_cell_angle_gamma 88.036101
_cell_volume 386.252415
_symmetry_space_group_name_H-M "P -1"
_symmetry_group_IT_number 2
_symmetry_cell_setting 'triclinic'
loop_
_space_group_symop_operation_xyz
x,y,z
-x,-y,-z
loop_
_atom_site_type_symbol
_atom_site_label
_atom_site_fract_x
_atom_site_fract_y
_atom_site_fract_z
Si Si1 0.350514 0.231510 0.325661
Si Si2 0.249318 0.816591 0.317023
Si Si3 0.996556 0.255114 0.490633
Si Si4 0.007102 0.362786 0.007650
Si Si5 0.323652 0.270059 0.179290
O O1 0.190262 0.130428 0.310736
O O2 0.201175 0.197496 0.203730
O O3 0.416202 0.576238 0.653119
O O4 0.603477 0.028658 0.142734
O O5 0.236984 0.530318 0.117951
O O6 0.500000 0.000000 0.500000
O O7 0.224907 0.697987 0.112720
O O8 0.000000 0.000000 0.500000
O O9 0.110878 0.429230 0.730349
O O10 0.818589 0.498156 0.668552
O O11 0.873181 0.950725 0.244450
#
# Coordination Sequence:
#
# PCOD8019243 Si02
#       5
#     2   2   2   2   2
#     4  10  22  41  66 100 145 203 254 302 372 447
#     4  11  26  56  81 111 154 205 255 314 395 481
#     4  12  23  45  68 110 154 190 256 319 383 434
#     4  11  26  46  75 116 144 200 255 314 392 465
#     4  10  22  41  66 100 145 203 254 302 372 447
#
# _framework density 25.889807999999999
#
# number of rings (size 3 to 8) (size 9 to 14) (size 15 to 20)
#    0.000    1.200    2.000    3.000    0.000    4.800 
#   14.400    8.000    0.000    0.000    0.000    0.000 
#    0.000    0.000    0.000    0.000    0.000    0.000 
#
# Total GULP energy -123894.720497 kJ/mol
# GULP energy per Si atom -12389.472050 kJ/mol
# Density = 2.583088 g / cm^3
# Si number density = 25.889808 Si / 1000 Ang^3
#
#
#
# Elastic Constant Matrix: (Units=GPa)
#
#
# Indices 1 2 3 4 5 6 
#
# 1 103.2688 58.3199 50.5117 -0.9168 13.8353 5.1755
# 2 58.3199 209.0278 86.5481 7.4800 -2.9031 7.3425
# 3 50.5117 86.5481 162.2381 -13.0511 -2.2105 9.8763
# 4 -0.9168 7.4800 -13.0511 105.9133 8.7954 -4.4460
# 5 13.8353 -2.9031 -2.2105 8.7954 47.1053 1.6427
# 6 5.1755 7.3425 9.8763 -4.4460 1.6427 13.1734
#
#
#
# Elastic Compliance Matrix: (Units=1/GPa)
#
#
# Indices 1 2 3 4 5 6 
#
# 1 0.013044 -0.002566 -0.002661 0.000263 -0.004125 -0.001097
# 2 -0.002566 0.006751 -0.002795 -0.000997 0.001265 -0.001153
# 3 -0.002661 -0.002795 0.008809 0.001021 0.000964 -0.003776
# 4 0.000263 -0.000997 0.001021 0.009950 -0.002064 0.003302
# 5 -0.004125 0.001265 0.000964 -0.002064 0.023067 -0.003380
# 6 -0.001097 -0.001153 -0.003776 0.003302 -0.003380 0.081351
#
#
# Mechanical properties :
#
#
# Convention : Reuss Voigt Hill
#
# Bulk Modulus (GPa) = 79.61919 96.14381 87.88150
# Shear Modulus (GPa) = 30.63693 51.84875 41.24284
#
# Velocity S-wave (km/s) = 3.44373 4.47998 3.99559
# Velocity P-wave (km/s) = 6.82878 7.99854 7.43670
#
# Compressibility (1/GPa) = 0.01255979
#
# Stress axis : x y z
#
# Youngs Moduli (GPa) = 76.66480 148.12380 113.52637
#
# Poissons Ratio (x) = 0.38006 0.30205
# Poissons Ratio (y) = 0.19671 0.31735
# Poissons Ratio (z) = 0.20398 0.41406
#
# Static dielectric constant tensor:
#      x y z
#    x 3.991620 0.075390 0.202480 
#    y 0.075390 5.323210 -0.143460 
#    z 0.202480 -0.143460 5.252640 
# 
# 
# High freq. dielectric constant tensor:
#      x y z
#    x 1.971260 0.000690 0.002670 
#    y 0.000690 2.065060 0.001730 
#    z 0.002670 0.001730 2.072860 
# 
# From -- ./inp_files/483472.got.cif
#   From: 2010.06.25/outbox.cif.g09.slc.cpg/sg2_242_cif.got.tgz:483472.got - 2010.06.27 13:26:56.
