data_PCOD8019494
_publ_section_title
;
Structure prediction by ZEFSAII (Michael W. Deem and Ramdas Pophale) SiO2 
 PCOD8019494
Probable space group: P -1
;
_chemical_formula_sum "Si O2"
_cell_formula_units_Z 14
_cell_length_a 9.185116
_cell_length_b 24.745645
_cell_length_c 11.647787
_cell_angle_alpha 29.965653
_cell_angle_beta 38.869106
_cell_angle_gamma 28.180548
_cell_volume 623.225543
_symmetry_space_group_name_H-M "P -1"
_symmetry_group_IT_number 2
_symmetry_cell_setting 'triclinic'
loop_
_space_group_symop_operation_xyz
x,y,z
-x,-y,-z
loop_
_atom_site_type_symbol
_atom_site_label
_atom_site_fract_x
_atom_site_fract_y
_atom_site_fract_z
Si Si1 0.707302 0.034160 0.771040
Si Si2 0.185963 0.916746 0.153480
Si Si3 0.235412 0.370559 0.426382
Si Si4 0.847956 0.826877 0.886137
Si Si5 0.167099 0.152467 0.400006
Si Si6 0.091958 0.546730 0.960781
Si Si7 0.290128 0.533785 0.270771
O O1 0.928394 0.992860 0.821795
O O2 0.493695 0.200570 0.556938
O O3 0.879588 0.929591 0.748495
O O4 0.500000 0.000000 0.000000
O O5 0.103893 0.815376 0.411905
O O6 0.542872 0.843500 0.055815
O O7 0.000000 0.000000 0.000000
O O8 0.357214 0.404335 0.396099
O O9 0.914417 0.417090 0.580031
O O10 0.159448 0.460245 0.194028
O O11 0.904421 0.853707 0.675929
O O12 0.135537 0.663933 0.037611
O O13 0.173336 0.280855 0.174344
O O14 0.500000 0.000000 0.500000
O O15 0.392130 0.516217 0.788729
O O16 0.000000 0.500000 0.000000
#
# Coordination Sequence:
#
# PCOD8019494 Si02
#       7
#     2   2   2   2   2   2   2
#     4  10  22  41  68 107 134 177 234 288 332 410
#     4  11  23  43  69 101 143 178 224 289 347 409
#     4  11  23  45  73  99 141 183 235 285 348 414
#     4  11  24  46  70 107 135 179 241 282 346 413
#     4  12  27  46  70 100 140 185 231 288 355 416
#     4  12  30  46  67 107 142 182 236 292 355 417
#     4  11  24  46  76  98 136 189 232 284 350 421
#
# _framework density 22.463778000000001
#
# number of rings (size 3 to 8) (size 9 to 14) (size 15 to 20)
#    0.000    0.857    5.714    1.286    6.000    2.286 
#    0.000    0.000    0.000    0.000    0.000    0.000 
#    0.000    0.000    0.000    0.000    0.000    0.000 
#
# Total GULP energy -173474.272157 kJ/mol
# GULP energy per Si atom -12391.019440 kJ/mol
# Density = 2.241265 g / cm^3
# Si number density = 22.463778 Si / 1000 Ang^3
#
#
#
# Elastic Constant Matrix: (Units=GPa)
#
#
# Indices 1 2 3 4 5 6 
#
# 1 129.6663 40.3705 45.4645 -8.3787 1.0196 10.6021
# 2 40.3705 82.7477 38.4850 -15.7678 4.7372 0.4830
# 3 45.4645 38.4850 131.5628 -12.6923 13.5857 3.6624
# 4 -8.3787 -15.7678 -12.6923 47.8330 6.1125 -2.6859
# 5 1.0196 4.7372 13.5857 6.1125 22.2609 5.5300
# 6 10.6021 0.4830 3.6624 -2.6859 5.5300 39.7705
#
#
#
# Elastic Compliance Matrix: (Units=1/GPa)
#
#
# Indices 1 2 3 4 5 6 
#
# 1 0.010019 -0.003978 -0.002592 -0.000772 0.002887 -0.002837
# 2 -0.003978 0.016306 -0.002665 0.004507 -0.003366 0.001880
# 3 -0.002592 -0.002665 0.010116 0.002202 -0.006295 0.000816
# 4 -0.000772 0.004507 0.002202 0.024238 -0.009650 0.002927
# 5 0.002887 -0.003366 -0.006295 -0.009650 0.054064 -0.008318
# 6 -0.002837 0.001880 0.000816 0.002927 -0.008318 0.027157
#
#
# Mechanical properties :
#
#
# Convention : Reuss Voigt Hill
#
# Bulk Modulus (GPa) = 55.64853 65.84630 60.74742
# Shear Modulus (GPa) = 30.05514 36.61668 33.33591
#
# Velocity S-wave (km/s) = 3.66175 4.04175 3.85643
# Velocity P-wave (km/s) = 6.53485 7.15240 6.85058
#
# Compressibility (1/GPa) = 0.01796993
#
# Stress axis : x y z
#
# Youngs Moduli (GPa) = 99.81053 61.32791 98.85258
#
# Poissons Ratio (x) = 0.24398 0.25624
# Poissons Ratio (y) = 0.39708 0.26344
# Poissons Ratio (z) = 0.25873 0.16344
#
# Static dielectric constant tensor:
#      x y z
#    x 6.330030 1.030800 -0.145750 
#    y 1.030800 4.373780 0.151750 
#    z -0.145750 0.151750 4.434270 
# 
# 
# High freq. dielectric constant tensor:
#      x y z
#    x 1.880290 0.003370 0.000010 
#    y 0.003370 1.878510 0.006060 
#    z 0.000010 0.006060 1.911810 
# 
# From -- ./inp_files/406872.got.cif
#   From: 2010.06.25/outbox.cif.g09.slc.cpg/sg2_204_cif.got.tgz:406872.got - 2010.06.27 13:26:56.
