data_PCOD8019274
_publ_section_title
;
Structure prediction by ZEFSAII (Michael W. Deem and Ramdas Pophale) SiO2 
 PCOD8019274
Probable space group: P -1
;
_chemical_formula_sum "Si O2"
_cell_formula_units_Z 16
_cell_length_a 15.534402
_cell_length_b 14.137263
_cell_length_c 8.885024
_cell_angle_alpha 150.354062
_cell_angle_beta 130.453469
_cell_angle_gamma 46.333826
_cell_volume 691.672152
_symmetry_space_group_name_H-M "P -1"
_symmetry_group_IT_number 2
_symmetry_cell_setting 'triclinic'
loop_
_space_group_symop_operation_xyz
x,y,z
-x,-y,-z
loop_
_atom_site_type_symbol
_atom_site_label
_atom_site_fract_x
_atom_site_fract_y
_atom_site_fract_z
Si Si1 0.842425 0.820376 0.187996
Si Si2 0.277323 0.473342 0.797392
Si Si3 0.341639 0.369633 0.170981
Si Si4 0.089572 0.306537 0.246033
Si Si5 0.935365 0.114548 0.349979
Si Si6 0.504066 0.797242 0.148195
Si Si7 0.298964 0.641181 0.744755
Si Si8 0.219093 0.750988 0.372469
O O1 0.936982 0.850893 0.460967
O O2 0.748122 0.046391 0.352101
O O3 0.773051 0.704154 0.049881
O O4 0.902922 0.691742 0.927320
O O5 0.221875 0.302802 0.446504
O O6 0.403132 0.383100 0.901314
O O7 0.299456 0.607913 0.874971
O O8 0.187566 0.637479 0.035660
O O9 0.371532 0.420927 0.445427
O O10 0.315503 0.588928 0.362214
O O11 0.451240 0.209493 0.984491
O O12 0.000000 0.500000 0.500000
O O13 0.060561 0.111068 0.003256
O O14 0.838294 0.272613 0.351049
O O15 0.903958 0.153877 0.544791
O O16 0.500000 0.000000 0.500000
O O17 0.369615 0.793727 0.996200
#
# Coordination Sequence:
#
# PCOD8019274 Si02
#       8
#     2   2   2   2   2   2   2   2
#     4  11  21  42  68  97 132 178 220 255 328 396
#     4  11  22  42  66  97 128 169 212 274 330 383
#     4  10  23  44  69  95 130 176 219 268 325 390
#     4  11  21  40  66  99 137 170 214 266 331 383
#     4  10  22  41  66  92 133 175 209 267 320 390
#     4  11  25  45  69  93 129 170 217 277 330 378
#     4  11  23  44  66  96 129 166 226 270 321 389
#     4   9  21  39  66  91 132 173 211 265 319 385
#
# _framework density 23.132345999999998
#
# number of rings (size 3 to 8) (size 9 to 14) (size 15 to 20)
#    0.000    1.500    1.250    4.500    1.750    2.000 
#    6.750    1.875    2.750    0.000    0.000    0.000 
#    0.000    0.000    0.000    0.000    0.000    0.000 
#
# Total GULP energy -198224.625825 kJ/mol
# GULP energy per Si atom -12389.039114 kJ/mol
# Density = 2.307970 g / cm^3
# Si number density = 23.132346 Si / 1000 Ang^3
#
#
#
# Elastic Constant Matrix: (Units=GPa)
#
#
# Indices 1 2 3 4 5 6 
#
# 1 79.1660 20.3939 39.7093 3.4915 3.1797 11.6829
# 2 20.3939 57.3824 13.6416 4.4563 -6.0895 7.6785
# 3 39.7093 13.6416 137.5273 10.2291 -3.5974 1.7367
# 4 3.4915 4.4563 10.2291 35.6057 -7.1830 0.4508
# 5 3.1797 -6.0895 -3.5974 -7.1830 43.3656 -5.5462
# 6 11.6829 7.6785 1.7367 0.4508 -5.5462 20.7994
#
#
#
# Elastic Compliance Matrix: (Units=1/GPa)
#
#
# Indices 1 2 3 4 5 6 
#
# 1 0.017480 -0.004285 -0.004568 -0.000452 -0.003458 -0.008767
# 2 -0.004285 0.020003 -0.000527 -0.001414 0.002296 -0.004291
# 3 -0.004568 -0.000527 0.008776 -0.001839 0.000982 0.002330
# 4 -0.000452 -0.001414 -0.001839 0.029787 0.004816 0.001568
# 5 -0.003458 0.002296 0.000982 0.004816 0.025501 0.007708
# 6 -0.008767 -0.004291 0.002330 0.001568 0.007708 0.056414
#
#
# Mechanical properties :
#
#
# Convention : Reuss Voigt Hill
#
# Bulk Modulus (GPa) = 36.36771 46.84059 41.60415
# Shear Modulus (GPa) = 26.89816 33.30952 30.10384
#
# Velocity S-wave (km/s) = 3.41368 3.79879 3.61137
# Velocity P-wave (km/s) = 5.59404 6.28761 5.95094
#
# Compressibility (1/GPa) = 0.02749692
#
# Stress axis : x y z
#
# Youngs Moduli (GPa) = 57.20963 49.99278 113.95224
#
# Poissons Ratio (x) = 0.21422 0.52054
# Poissons Ratio (y) = 0.24515 0.06010
# Poissons Ratio (z) = 0.26134 0.02637
#
# Static dielectric constant tensor:
#      x y z
#    x 4.410680 -0.339400 -0.320730 
#    y -0.339400 4.476630 0.231480 
#    z -0.320730 0.231480 4.610440 
# 
# 
# High freq. dielectric constant tensor:
#      x y z
#    x 1.905990 0.003420 -0.009330 
#    y 0.003420 1.886250 0.000190 
#    z -0.009330 0.000190 1.938060 
# 
# From -- ./inp_files/316213.got.cif
#   From: 2010.06.25/outbox.cif.g09.slc.cpg/sg2_159_cif.got.tgz:316213.got - 2010.06.27 13:26:56.
