data_PCOD8019794
_publ_section_title
;
Structure prediction by ZEFSAII (Michael W. Deem and Ramdas Pophale) SiO2 
 PCOD8019794
Probable space group: P -1
;
_chemical_formula_sum "Si O2"
_cell_formula_units_Z 16
_cell_length_a 8.647328
_cell_length_b 13.994569
_cell_length_c 18.043462
_cell_angle_alpha 136.970795
_cell_angle_beta 138.077005
_cell_angle_gamma 31.240160
_cell_volume 727.723336
_symmetry_space_group_name_H-M "P -1"
_symmetry_group_IT_number 2
_symmetry_cell_setting 'triclinic'
loop_
_space_group_symop_operation_xyz
x,y,z
-x,-y,-z
loop_
_atom_site_type_symbol
_atom_site_label
_atom_site_fract_x
_atom_site_fract_y
_atom_site_fract_z
Si Si1 0.606876 0.612339 0.581331
Si Si2 0.309290 0.362355 0.697095
Si Si3 0.421999 0.995608 0.314581
Si Si4 0.929570 0.048076 0.088509
Si Si5 0.794248 0.717978 0.029160
Si Si6 0.513772 0.729746 0.452499
Si Si7 0.197966 0.055159 0.710679
Si Si8 0.265077 0.659504 0.064936
O O1 0.500000 0.500000 0.500000
O O2 0.621753 0.602762 0.491924
O O3 0.394079 0.828279 0.659548
O O4 0.949969 0.501042 0.676224
O O5 0.289520 0.391650 0.618558
O O6 0.504856 0.416526 0.825280
O O7 0.501163 0.151959 0.679774
O O8 0.414948 0.137551 0.439180
O O9 0.688280 0.894861 0.288222
O O10 0.082859 0.124700 0.222445
O O11 0.562346 0.187097 0.056601
O O12 0.143232 0.851017 0.095907
O O13 0.000000 0.000000 0.000000
O O14 0.954001 0.698782 0.997769
O O15 0.792946 0.851330 0.159906
O O16 0.000000 0.500000 0.000000
O O17 0.149178 0.852862 0.377601
O O18 0.500000 0.500000 0.000000
#
# Coordination Sequence:
#
# PCOD8019794 Si02
#       8
#     2   2   2   2   2   2   2   2
#     4  11  24  43  68 104 139 182 225 280 349 420
#     4  11  23  42  67 102 136 175 231 285 346 413
#     4  10  22  41  72  99 137 186 223 283 354 412
#     4  11  23  45  71 102 138 181 234 286 351 415
#     4  12  26  46  71 101 138 184 238 293 347 416
#     4  11  22  43  68  97 142 180 231 283 341 411
#     4  11  23  44  71  97 140 183 226 286 346 414
#     4  11  26  45  70  98 137 187 233 294 350 414
#
# _framework density 21.986377000000001
#
# number of rings (size 3 to 8) (size 9 to 14) (size 15 to 20)
#    0.000    1.000    2.500    4.875    3.500    2.000 
#    2.250    0.000    0.000    0.000    0.000    0.000 
#    0.000    0.000    0.000    0.000    0.000    0.000 
#
# Total GULP energy -198248.348885 kJ/mol
# GULP energy per Si atom -12390.521805 kJ/mol
# Density = 2.193634 g / cm^3
# Si number density = 21.986377 Si / 1000 Ang^3
#
#
#
# Elastic Constant Matrix: (Units=GPa)
#
#
# Indices 1 2 3 4 5 6 
#
# 1 113.5517 28.1745 32.8178 5.5771 1.1493 -18.2194
# 2 28.1745 99.6049 43.9070 -12.8749 9.0317 -20.4246
# 3 32.8178 43.9070 102.9293 -4.1530 13.9168 -18.6533
# 4 5.5771 -12.8749 -4.1530 36.2154 -12.1343 8.7653
# 5 1.1493 9.0317 13.9168 -12.1343 39.4320 -8.9129
# 6 -18.2194 -20.4246 -18.6533 8.7653 -8.9129 46.0046
#
#
#
# Elastic Compliance Matrix: (Units=1/GPa)
#
#
# Indices 1 2 3 4 5 6 
#
# 1 0.010555 -0.001806 -0.002232 -0.003071 0.000669 0.003188
# 2 -0.001806 0.013651 -0.004641 0.004077 0.000445 0.002773
# 3 -0.002232 -0.004641 0.013186 -0.001458 -0.003523 0.001998
# 4 -0.003071 0.004077 -0.001458 0.033482 0.008923 -0.004648
# 5 0.000669 0.000445 -0.003523 0.008923 0.029936 0.003134
# 6 0.003188 0.002773 0.001998 -0.004648 0.003134 0.026534
#
#
# Mechanical properties :
#
#
# Convention : Reuss Voigt Hill
#
# Bulk Modulus (GPa) = 49.90894 58.43161 54.17028
# Shear Modulus (GPa) = 33.02941 38.40950 35.71945
#
# Velocity S-wave (km/s) = 3.88011 4.18421 4.03503
# Velocity P-wave (km/s) = 6.54392 7.06947 6.81177
#
# Compressibility (1/GPa) = 0.02003649
#
# Stress axis : x y z
#
# Youngs Moduli (GPa) = 94.73987 73.25217 75.83751
#
# Poissons Ratio (x) = 0.13227 0.16925
# Poissons Ratio (y) = 0.17107 0.35194
# Poissons Ratio (z) = 0.21143 0.33994
#
# Static dielectric constant tensor:
#      x y z
#    x 4.304460 -0.158740 0.250300 
#    y -0.158740 3.999460 -0.281070 
#    z 0.250300 -0.281070 4.405670 
# 
# 
# High freq. dielectric constant tensor:
#      x y z
#    x 1.877490 -0.004590 0.011500 
#    y -0.004590 1.867370 -0.013350 
#    z 0.011500 -0.013350 1.876170 
# 
# From -- ./inp_files/274366.got.cif
#   From: 2010.06.25/outbox.cif.g09.slc.cpg/sg2_138_cif.got.tgz:274366.got - 2010.06.27 13:26:56.
