data_PCOD8019602
_publ_section_title
;
Structure prediction by ZEFSAII (Michael W. Deem and Ramdas Pophale) SiO2 
 PCOD8019602
Probable space group: P -1
;
_chemical_formula_sum "Si O2"
_cell_formula_units_Z 12
_cell_length_a 19.434031
_cell_length_b 11.460919
_cell_length_c 5.240412
_cell_angle_alpha 76.520533
_cell_angle_beta 96.876797
_cell_angle_gamma 152.139437
_cell_volume 520.773222
_symmetry_space_group_name_H-M "P -1"
_symmetry_group_IT_number 2
_symmetry_cell_setting 'triclinic'
loop_
_space_group_symop_operation_xyz
x,y,z
-x,-y,-z
loop_
_atom_site_type_symbol
_atom_site_label
_atom_site_fract_x
_atom_site_fract_y
_atom_site_fract_z
Si Si1 0.380947 0.984511 0.367494
Si Si2 0.900178 0.836628 0.287095
Si Si3 0.654862 0.793977 0.829816
Si Si4 0.191617 0.055931 0.689441
Si Si5 0.151224 0.465037 0.310383
Si Si6 0.370054 0.774505 0.861897
O O1 0.255894 0.743425 0.233998
O O2 0.333639 0.845032 0.675315
O O3 0.367222 0.104641 0.323530
O O4 0.556606 0.219573 0.278389
O O5 0.825777 0.588640 0.402966
O O6 0.784949 0.771117 0.288005
O O7 0.000000 0.000000 0.500000
O O8 0.000000 0.000000 0.000000
O O9 0.713754 0.815449 0.593435
O O10 0.500000 0.500000 0.000000
O O11 0.762807 0.956735 0.042859
O O12 0.019859 0.761061 0.695136
O O13 0.217863 0.495148 0.077999
O O14 0.500000 0.000000 0.000000
#
# Coordination Sequence:
#
# PCOD8019602 Si02
#       6
#     2   2   2   2   2   2
#     4  10  24  43  70 102 139 185 238 282 356 408
#     4  10  22  41  69 104 141 172 224 287 350 406
#     4  12  29  48  70  96 148 192 234 280 351 439
#     4  11  26  46  71 107 137 188 231 287 359 414
#     4  10  23  41  75 102 140 172 240 299 351 399
#     4   9  21  41  66 101 134 178 229 292 341 407
#
# _framework density 23.042657999999999
#
# number of rings (size 3 to 8) (size 9 to 14) (size 15 to 20)
#    0.000    1.667    0.000    2.500   14.000    5.333 
#    0.000    0.000    0.000    0.000    0.000    0.000 
#    0.000    0.000    0.000    0.000    0.000    0.000 
#
# Total GULP energy -148681.106275 kJ/mol
# GULP energy per Si atom -12390.092190 kJ/mol
# Density = 2.299021 g / cm^3
# Si number density = 23.042658 Si / 1000 Ang^3
#
#
#
# Elastic Constant Matrix: (Units=GPa)
#
#
# Indices 1 2 3 4 5 6 
#
# 1 151.7092 51.2209 77.3125 -21.2617 3.3998 5.7970
# 2 51.2209 80.4247 32.3843 -14.6686 -0.3713 9.2139
# 3 77.3125 32.3843 188.6239 -14.9307 -18.4954 15.9290
# 4 -21.2617 -14.6686 -14.9307 41.3680 10.1972 4.6063
# 5 3.3998 -0.3713 -18.4954 10.1972 45.3237 -3.2680
# 6 5.7970 9.2139 15.9290 4.6063 -3.2680 36.6554
#
#
#
# Elastic Compliance Matrix: (Units=1/GPa)
#
#
# Indices 1 2 3 4 5 6 
#
# 1 0.010496 -0.004745 -0.003567 0.003104 -0.002949 0.000430
# 2 -0.004745 0.016780 -0.000372 0.004017 -0.000843 -0.003886
# 3 -0.003567 -0.000372 0.007334 0.000183 0.003052 -0.002280
# 4 0.003104 0.004017 0.000183 0.029707 -0.007238 -0.005959
# 5 -0.002949 -0.000843 0.003052 -0.007238 0.025333 0.002520
# 6 0.000430 -0.003886 -0.002280 -0.005959 0.002520 0.030154
#
#
# Mechanical properties :
#
#
# Convention : Reuss Voigt Hill
#
# Bulk Modulus (GPa) = 58.00391 82.51035 70.25713
# Shear Modulus (GPa) = 34.98433 41.99210 38.48821
#
# Velocity S-wave (km/s) = 3.90069 4.27355 4.09137
# Velocity P-wave (km/s) = 6.74642 7.76121 7.27154
#
# Compressibility (1/GPa) = 0.01724022
#
# Stress axis : x y z
#
# Youngs Moduli (GPa) = 95.27231 59.59465 136.35237
#
# Poissons Ratio (x) = 0.28279 0.48641
# Poissons Ratio (y) = 0.45209 0.05079
# Poissons Ratio (z) = 0.33986 0.02220
#
# Static dielectric constant tensor:
#      x y z
#    x 4.534040 -0.023260 -0.598880 
#    y -0.023260 4.621800 -0.058860 
#    z -0.598880 -0.058860 5.952360 
# 
# 
# High freq. dielectric constant tensor:
#      x y z
#    x 1.896090 0.008310 -0.003320 
#    y 0.008310 1.918050 0.005520 
#    z -0.003320 0.005520 1.935850 
# 
# From -- ./inp_files/25726.got.cif
#   From: 2010.06.25/outbox.cif.g09.slc.cpg/sg2_13_cif.got.tgz:25726.got - 2010.06.27 13:26:56.
