data_PCOD8019437
_publ_section_title
;
Structure prediction by ZEFSAII (Michael W. Deem and Ramdas Pophale) SiO2 
 PCOD8019437
Probable space group: P -1
;
_chemical_formula_sum "Si O2"
_cell_formula_units_Z 14
_cell_length_a 12.348865
_cell_length_b 8.785702
_cell_length_c 11.279625
_cell_angle_alpha 93.746311
_cell_angle_beta 112.860094
_cell_angle_gamma 37.558773
_cell_volume 619.952347
_symmetry_space_group_name_H-M "P -1"
_symmetry_group_IT_number 2
_symmetry_cell_setting 'triclinic'
loop_
_space_group_symop_operation_xyz
x,y,z
-x,-y,-z
loop_
_atom_site_type_symbol
_atom_site_label
_atom_site_fract_x
_atom_site_fract_y
_atom_site_fract_z
Si Si1 0.763636 0.557806 0.417205
Si Si2 0.214969 0.731266 0.964249
Si Si3 0.081771 0.361398 0.898768
Si Si4 0.836943 0.335838 0.818988
Si Si5 0.878518 0.736562 0.610976
Si Si6 0.466153 0.764902 0.102509
Si Si7 0.465366 0.362642 0.485690
O O1 0.769797 0.715542 0.491689
O O2 0.557316 0.752127 0.255984
O O3 0.731661 0.465032 0.500825
O O4 0.982832 0.308069 0.422344
O O5 0.339191 0.512538 0.903255
O O6 0.195366 0.623474 0.051459
O O7 0.320474 0.772385 0.066837
O O8 0.978735 0.031259 0.832414
O O9 0.955175 0.348418 0.811457
O O10 0.033599 0.527564 0.777356
O O11 0.000000 0.500000 0.000000
O O12 0.331468 0.042668 0.991913
O O13 0.603981 0.596554 0.676113
O O14 0.681613 0.042744 0.596892
O O15 0.500000 0.500000 0.500000
#
# Coordination Sequence:
#
# PCOD8019437 Si02
#       7
#     2   2   2   2   2   2   2
#     4  11  25  46  70 102 142 181 226 289 342 415
#     4   9  21  42  66 101 135 171 228 290 337 406
#     4  11  24  42  69 100 132 183 230 278 346 410
#     4  10  22  41  67  96 135 178 224 285 341 407
#     4  11  27  47  68 102 145 180 231 284 344 418
#     4  10  22  41  70  99 135 176 228 282 344 403
#     4  12  26  45  73  99 135 189 231 280 352 406
#
# _framework density 22.582381000000002
#
# number of rings (size 3 to 8) (size 9 to 14) (size 15 to 20)
#    0.000    1.429    1.429    2.143    6.000    4.571 
#    2.571    0.000    0.000    0.000    0.000    0.000 
#    0.000    0.000    0.000    0.000    0.000    0.000 
#
# Total GULP energy -173437.712744 kJ/mol
# GULP energy per Si atom -12388.408053 kJ/mol
# Density = 2.253098 g / cm^3
# Si number density = 22.582381 Si / 1000 Ang^3
#
#
#
# Elastic Constant Matrix: (Units=GPa)
#
#
# Indices 1 2 3 4 5 6 
#
# 1 122.2839 24.5557 23.9201 1.4065 -18.4377 -11.2290
# 2 24.5557 79.7655 35.5361 -0.1584 -14.5491 -6.0448
# 3 23.9201 35.5361 120.2767 -5.9419 1.6733 10.5359
# 4 1.4065 -0.1584 -5.9419 29.5184 2.8919 -3.2417
# 5 -18.4377 -14.5491 1.6733 2.8919 35.6116 5.3682
# 6 -11.2290 -6.0448 10.5359 -3.2417 5.3682 25.6614
#
#
#
# Elastic Compliance Matrix: (Units=1/GPa)
#
#
# Indices 1 2 3 4 5 6 
#
# 1 0.009800 -0.001016 -0.002094 -0.000880 0.004239 0.003910
# 2 -0.001016 0.016563 -0.005194 -0.001026 0.005932 0.004219
# 3 -0.002094 -0.005194 0.010906 0.001931 -0.003010 -0.005744
# 4 -0.000880 -0.001026 0.001931 0.035168 -0.004416 0.003947
# 5 0.004239 0.005932 -0.003010 -0.004416 0.033668 -0.003113
# 6 0.003910 0.004219 -0.005744 0.003947 -0.003113 0.045182
#
#
# Mechanical properties :
#
#
# Convention : Reuss Voigt Hill
#
# Bulk Modulus (GPa) = 48.40253 54.48332 51.44292
# Shear Modulus (GPa) = 28.60688 34.04587 31.32638
#
# Velocity S-wave (km/s) = 3.56304 3.88703 3.72856
# Velocity P-wave (km/s) = 6.19737 6.65764 6.43162
#
# Compressibility (1/GPa) = 0.02066008
#
# Stress axis : x y z
#
# Youngs Moduli (GPa) = 102.04453 60.37373 91.69565
#
# Poissons Ratio (x) = 0.06136 0.19197
# Poissons Ratio (y) = 0.10371 0.47630
# Poissons Ratio (z) = 0.21364 0.31361
#
# Static dielectric constant tensor:
#      x y z
#    x 4.327640 -0.030290 0.117290 
#    y -0.030290 3.945600 -0.115920 
#    z 0.117290 -0.115920 3.938410 
# 
# 
# High freq. dielectric constant tensor:
#      x y z
#    x 1.901100 -0.005240 0.007040 
#    y -0.005240 1.875560 -0.000030 
#    z 0.007040 -0.000030 1.897480 
# 
# From -- ./inp_files/383721.got.cif
#   From: 2010.06.25/outbox.cif.g09.slc.cpg/sg2_192_cif.got.tgz:383721.got - 2010.06.27 13:26:56.
