data_PCOD8019852
_publ_section_title
;
Structure prediction by ZEFSAII (Michael W. Deem and Ramdas Pophale) SiO2 
 PCOD8019852
Probable space group: P -1
;
_chemical_formula_sum "Si O2"
_cell_formula_units_Z 14
_cell_length_a 6.822448
_cell_length_b 9.292126
_cell_length_c 13.750750
_cell_angle_alpha 93.464222
_cell_angle_beta 103.083457
_cell_angle_gamma 130.029992
_cell_volume 624.865389
_symmetry_space_group_name_H-M "P -1"
_symmetry_group_IT_number 2
_symmetry_cell_setting 'triclinic'
loop_
_space_group_symop_operation_xyz
x,y,z
-x,-y,-z
loop_
_atom_site_type_symbol
_atom_site_label
_atom_site_fract_x
_atom_site_fract_y
_atom_site_fract_z
Si Si1 0.558175 0.310007 0.725776
Si Si2 0.716895 0.280606 0.946724
Si Si3 0.789478 0.015821 0.012908
Si Si4 0.559601 0.723827 0.593698
Si Si5 0.352738 0.932377 0.613645
Si Si6 0.986208 0.757403 0.752018
Si Si7 0.182118 0.293954 0.562336
O O1 0.557716 0.267748 0.836628
O O2 0.821799 0.529188 0.735762
O O3 0.274097 0.261428 0.672500
O O4 0.564119 0.166561 0.656779
O O5 0.509589 0.201188 0.012295
O O6 0.774221 0.136348 0.936017
O O7 0.000000 0.500000 0.000000
O O8 0.874775 0.133293 0.127531
O O9 0.000000 0.000000 0.000000
O O10 0.521399 0.875682 0.598093
O O11 0.786748 0.790668 0.701125
O O12 0.275630 0.505855 0.578942
O O13 0.649891 0.718102 0.497498
O O14 0.205637 0.834619 0.695988
O O15 0.138652 0.869049 0.501134
#
# Coordination Sequence:
#
# PCOD8019852 Si02
#       7
#     2   2   2   2   2   2   2
#     4  11  22  40  63  92 129 167 209 269 322 377
#     4  11  24  46  68  96 133 169 217 273 328 392
#     4  11  25  44  71  95 129 173 220 271 332 390
#     4   9  20  37  63  91 126 169 213 254 318 386
#     4  11  21  39  67  88 125 174 213 255 323 385
#     4  10  22  42  60  92 132 164 208 271 319 379
#     4   9  20  39  59  92 132 163 209 268 314 377
#
# _framework density 22.404824999999999
#
# number of rings (size 3 to 8) (size 9 to 14) (size 15 to 20)
#    0.000    1.714    2.857    1.714    2.000    1.143 
#    0.000    8.571    0.000    0.000    0.000    0.000 
#    0.000    0.000    0.000    0.000    0.000    0.000 
#
# Total GULP energy -173574.541613 kJ/mol
# GULP energy per Si atom -12398.181544 kJ/mol
# Density = 2.235383 g / cm^3
# Si number density = 22.404825 Si / 1000 Ang^3
#
#
#
# Elastic Constant Matrix: (Units=GPa)
#
#
# Indices 1 2 3 4 5 6 
#
# 1 119.1491 55.6911 18.5514 -6.5205 9.0652 -15.7263
# 2 55.6911 147.4431 30.0424 1.6178 10.0256 -5.9353
# 3 18.5514 30.0424 101.2291 -15.0527 23.2300 -5.8751
# 4 -6.5205 1.6178 -15.0527 34.8437 -6.3304 4.8825
# 5 9.0652 10.0256 23.2300 -6.3304 24.9589 -1.0186
# 6 -15.7263 -5.9353 -5.8751 4.8825 -1.0186 30.8650
#
#
#
# Elastic Compliance Matrix: (Units=1/GPa)
#
#
# Indices 1 2 3 4 5 6 
#
# 1 0.011021 -0.003863 0.000034 0.001251 -0.001978 0.004616
# 2 -0.003863 0.008716 -0.002041 -0.002092 -0.000744 -0.000375
# 3 0.000034 -0.002041 0.013607 0.003836 -0.010833 0.001251
# 4 0.001251 -0.002092 0.003836 0.032114 0.004800 -0.003957
# 5 -0.001978 -0.000744 -0.010833 0.004800 0.052292 -0.002246
# 6 0.004616 -0.000375 0.001251 -0.003957 -0.002246 0.035469
#
#
# Mechanical properties :
#
#
# Convention : Reuss Voigt Hill
#
# Bulk Modulus (GPa) = 46.28549 64.04346 55.16448
# Shear Modulus (GPa) = 29.04277 35.70260 32.37268
#
# Velocity S-wave (km/s) = 3.60428 3.99623 3.80530
# Velocity P-wave (km/s) = 6.16642 7.06681 6.63191
#
# Compressibility (1/GPa) = 0.02160504
#
# Stress axis : x y z
#
# Youngs Moduli (GPa) = 90.73219 114.73403 73.49231
#
# Poissons Ratio (x) = 0.44326 -0.00253
# Poissons Ratio (y) = 0.35053 0.14997
# Poissons Ratio (z) = -0.00313 0.23413
#
# Static dielectric constant tensor:
#      x y z
#    x 3.725100 -0.061590 0.337680 
#    y -0.061590 4.373630 -0.048440 
#    z 0.337680 -0.048440 4.323900 
# 
# 
# High freq. dielectric constant tensor:
#      x y z
#    x 1.853430 -0.002850 0.026380 
#    y -0.002850 1.905480 -0.006480 
#    z 0.026380 -0.006480 1.888400 
# 
# From -- ./inp_files/480589.got.cif
#   From: 2010.06.25/outbox.cif.g09.slc.cpg/sg2_241_cif.got.tgz:480589.got - 2010.06.27 13:26:56.
