data_PCOD8019289
_publ_section_title
;
Structure prediction by ZEFSAII (Michael W. Deem and Ramdas Pophale) SiO2 
 PCOD8019289
Probable space group: P -1
;
_chemical_formula_sum "Si O2"
_cell_formula_units_Z 16
_cell_length_a 8.410608
_cell_length_b 17.277383
_cell_length_c 9.408980
_cell_angle_alpha 128.799211
_cell_angle_beta 73.554869
_cell_angle_gamma 136.971669
_cell_volume 686.622634
_symmetry_space_group_name_H-M "P -1"
_symmetry_group_IT_number 2
_symmetry_cell_setting 'triclinic'
loop_
_space_group_symop_operation_xyz
x,y,z
-x,-y,-z
loop_
_atom_site_type_symbol
_atom_site_label
_atom_site_fract_x
_atom_site_fract_y
_atom_site_fract_z
Si Si1 0.850555 0.029581 0.630054
Si Si2 0.952667 0.594959 0.363246
Si Si3 0.430268 0.811660 0.301521
Si Si4 0.364757 0.308800 0.826722
Si Si5 0.309906 0.732411 0.927454
Si Si6 0.321404 0.015963 0.072973
Si Si7 0.018030 0.299006 0.237593
Si Si8 0.454999 0.464382 0.730485
O O1 0.711843 0.950379 0.724383
O O2 0.071993 0.207177 0.802418
O O3 0.635907 0.975600 0.513056
O O4 0.000000 0.000000 0.500000
O O5 0.786338 0.422019 0.205201
O O6 0.068605 0.669269 0.573710
O O7 0.784150 0.615426 0.392846
O O8 0.171416 0.685589 0.300443
O O9 0.578449 0.775839 0.236745
O O10 0.379205 0.814469 0.154225
O O11 0.429234 0.348659 0.687999
O O12 0.529655 0.449517 0.047397
O O13 0.096967 0.704918 0.880396
O O14 0.561712 0.847076 0.900510
O O15 0.062166 0.852612 0.897248
O O16 0.500000 0.000000 0.000000
O O17 0.312258 0.433517 0.313895
#
# Coordination Sequence:
#
# PCOD8019289 Si02
#       8
#     2   2   2   2   2   2   2   2
#     4  10  22  43  67  95 131 175 221 274 329 396
#     4  12  25  42  67 100 132 170 225 277 326 395
#     4  11  23  42  67  99 128 168 225 272 326 396
#     4  10  22  41  66  94 128 171 212 272 327 390
#     4  11  24  41  68  98 132 176 219 275 328 394
#     4  10  22  42  65  93 131 178 217 269 331 392
#     4  11  24  44  65  94 137 177 217 269 335 398
#     4  11  23  39  67  92 130 171 216 266 332 388
#
# _framework density 23.302465000000002
#
# number of rings (size 3 to 8) (size 9 to 14) (size 15 to 20)
#    0.000    1.250    2.500    3.375    3.500    3.000 
#    0.000    9.375    0.000    0.000    0.000    0.000 
#    0.000    0.000    0.000    0.000    0.000    0.000 
#
# Total GULP energy -198281.501332 kJ/mol
# GULP energy per Si atom -12392.593833 kJ/mol
# Density = 2.324943 g / cm^3
# Si number density = 23.302465 Si / 1000 Ang^3
#
#
#
# Elastic Constant Matrix: (Units=GPa)
#
#
# Indices 1 2 3 4 5 6 
#
# 1 49.0784 16.6868 27.7303 -11.0518 17.4686 8.4839
# 2 16.6868 133.6702 44.5355 -22.8367 18.3976 25.8656
# 3 27.7303 44.5355 119.3754 -20.4251 22.4605 12.8685
# 4 -11.0518 -22.8367 -20.4251 37.8669 5.0013 -4.8873
# 5 17.4686 18.3976 22.4605 5.0013 34.1780 -4.5816
# 6 8.4839 25.8656 12.8685 -4.8873 -4.5816 21.5507
#
#
#
# Elastic Compliance Matrix: (Units=1/GPa)
#
#
# Indices 1 2 3 4 5 6 
#
# 1 0.035159 0.006412 -0.000666 0.014199 -0.026210 -0.023491
# 2 0.006412 0.014574 -0.000080 0.009936 -0.015335 -0.020975
# 3 -0.000666 -0.000080 0.012362 0.006735 -0.009740 -0.007567
# 4 0.014199 0.009936 0.006735 0.041266 -0.025427 -0.017584
# 5 -0.026210 -0.015335 -0.009740 -0.025427 0.066792 0.042973
# 6 -0.023491 -0.020975 -0.007567 -0.017584 0.042973 0.090491
#
#
# Mechanical properties :
#
#
# Convention : Reuss Voigt Hill
#
# Bulk Modulus (GPa) = 13.61913 53.33659 33.47786
# Shear Modulus (GPa) = 18.26219 32.93056 25.59638
#
# Velocity S-wave (km/s) = 2.80250 3.76331 3.31787
# Velocity P-wave (km/s) = 4.04094 6.46698 5.39217
#
# Compressibility (1/GPa) = 0.07342612
#
# Stress axis : x y z
#
# Youngs Moduli (GPa) = 28.44212 68.61370 80.89129
#
# Poissons Ratio (x) = -0.43992 0.05389
# Poissons Ratio (y) = -0.18236 0.00649
# Poissons Ratio (z) = 0.01895 0.00550
#
# Static dielectric constant tensor:
#      x y z
#    x 3.887090 0.042960 0.189560 
#    y 0.042960 5.453530 1.203400 
#    z 0.189560 1.203400 5.698120 
# 
# 
# High freq. dielectric constant tensor:
#      x y z
#    x 1.896610 0.014400 0.010030 
#    y 0.014400 1.936210 0.004100 
#    z 0.010030 0.004100 1.933160 
# 
# From -- ./inp_files/216447.got.cif
#   From: 2010.06.25/outbox.cif.g09.slc.cpg/sg2_109_cif.got.tgz:216447.got - 2010.06.27 13:26:56.
