data_PCOD8019147
_publ_section_title
;
Structure prediction by ZEFSAII (Michael W. Deem and Ramdas Pophale) SiO2 
 PCOD8019147
Probable space group: P -1
;
_chemical_formula_sum "Si O2"
_cell_formula_units_Z 16
_cell_length_a 11.223135
_cell_length_b 14.453966
_cell_length_c 9.156330
_cell_angle_alpha 96.589805
_cell_angle_beta 41.107911
_cell_angle_gamma 119.298865
_cell_volume 763.552194
_symmetry_space_group_name_H-M "P -1"
_symmetry_group_IT_number 2
_symmetry_cell_setting 'triclinic'
loop_
_space_group_symop_operation_xyz
x,y,z
-x,-y,-z
loop_
_atom_site_type_symbol
_atom_site_label
_atom_site_fract_x
_atom_site_fract_y
_atom_site_fract_z
Si Si1 0.261647 0.949756 0.866730
Si Si2 0.224180 0.182291 0.576288
Si Si3 0.787001 0.181820 0.694994
Si Si4 0.592361 0.936591 0.762412
Si Si5 0.878189 0.227302 0.286097
Si Si6 0.521237 0.784709 0.366428
Si Si7 0.603934 0.631539 0.091721
Si Si8 0.293526 0.364270 0.332907
O O1 0.452078 0.945144 0.765659
O O2 0.194991 0.887248 0.757900
O O3 0.345035 0.080729 0.785367
O O4 0.043370 0.881092 0.163064
O O5 0.247654 0.091048 0.458717
O O6 0.354973 0.224443 0.615201
O O7 0.344569 0.300182 0.390486
O O8 0.767280 0.193491 0.543642
O O9 0.021436 0.296457 0.564260
O O10 0.763630 0.061887 0.711700
O O11 0.579190 0.162320 0.975587
O O12 0.743184 0.274005 0.351888
O O13 0.152461 0.322755 0.054499
O O14 0.525750 0.709779 0.221125
O O15 0.416766 0.497729 0.295805
O O16 0.612309 0.637527 0.910800
#
# Coordination Sequence:
#
# PCOD8019147 Si02
#       8
#     2   2   2   2   2   2   2   2
#     4  12  23  41  63 101 139 160 206 264 326 390
#     4  12  25  39  67  98 128 173 204 263 329 381
#     4  10  22  41  65  90 133 168 205 271 314 372
#     4  11  23  40  62 101 132 164 208 262 331 381
#     4  11  22  42  65  95 129 166 210 266 316 379
#     4  12  24  39  68  98 125 176 209 257 329 385
#     4  10  25  46  65  91 127 174 223 260 313 373
#     4  10  24  47  64  89 133 172 217 272 303 373
#
# _framework density 20.954689999999999
#
# number of rings (size 3 to 8) (size 9 to 14) (size 15 to 20)
#    0.000    1.000    5.000    1.500    5.250    1.000 
#    2.250    2.500    0.000    0.000    0.000    0.000 
#    0.000    0.000    0.000    0.000    0.000    0.000 
#
# Total GULP energy -198368.735685 kJ/mol
# GULP energy per Si atom -12398.045980 kJ/mol
# Density = 2.090700 g / cm^3
# Si number density = 20.954690 Si / 1000 Ang^3
#
#
#
# Elastic Constant Matrix: (Units=GPa)
#
#
# Indices 1 2 3 4 5 6 
#
# 1 75.4438 45.8635 31.2268 -14.1317 -0.1368 -3.2489
# 2 45.8635 124.2928 52.3734 -7.2056 -7.9556 6.7011
# 3 31.2268 52.3734 90.6736 -1.2867 -12.8028 -2.0507
# 4 -14.1317 -7.2056 -1.2867 40.0087 -0.3656 -1.9161
# 5 -0.1368 -7.9556 -12.8028 -0.3656 32.3776 -0.8270
# 6 -3.2489 6.7011 -2.0507 -1.9161 -0.8270 31.1520
#
#
#
# Elastic Compliance Matrix: (Units=1/GPa)
#
#
# Indices 1 2 3 4 5 6 
#
# 1 0.019424 -0.005636 -0.003642 0.005863 -0.002593 0.003290
# 2 -0.005636 0.012607 -0.005299 -0.000056 0.000885 -0.003628
# 3 -0.003642 -0.005299 0.016079 -0.001589 0.005070 0.001855
# 4 0.005863 -0.000056 -0.001589 0.027106 -0.000255 0.002179
# 5 -0.002593 0.000885 0.005070 -0.000255 0.033113 0.000736
# 6 0.003290 -0.003628 0.001855 0.002179 0.000736 0.033500
#
#
# Mechanical properties :
#
#
# Convention : Reuss Voigt Hill
#
# Bulk Modulus (GPa) = 52.75565 61.03752 56.89658
# Shear Modulus (GPa) = 28.20058 31.43741 29.81900
#
# Velocity S-wave (km/s) = 3.67248 3.87752 3.77639
# Velocity P-wave (km/s) = 6.57370 7.01701 6.79897
#
# Compressibility (1/GPa) = 0.01895532
#
# Stress axis : x y z
#
# Youngs Moduli (GPa) = 51.48310 79.32159 62.19364
#
# Poissons Ratio (x) = 0.44705 0.22654
# Poissons Ratio (y) = 0.29016 0.32954
# Poissons Ratio (z) = 0.18753 0.42030
#
# Static dielectric constant tensor:
#      x y z
#    x 3.908390 0.138000 0.028980 
#    y 0.138000 3.717010 0.034190 
#    z 0.028980 0.034190 3.976650 
# 
# 
# High freq. dielectric constant tensor:
#      x y z
#    x 1.826670 0.015370 0.001930 
#    y 0.015370 1.804140 0.009160 
#    z 0.001930 0.009160 1.828640 
# 
# From -- ./inp_files/259254.got.cif
#   From: 2010.06.25/outbox.cif.g09.slc.cpg/sg2_130_cif.got.tgz:259254.got - 2010.06.27 13:26:56.
