data_PCOD8019982
_publ_section_title
;
Structure prediction by ZEFSAII (Michael W. Deem and Ramdas Pophale) SiO2 
 PCOD8019982
Probable space group: P -1
;
_chemical_formula_sum "Si O2"
_cell_formula_units_Z 14
_cell_length_a 8.398653
_cell_length_b 6.481833
_cell_length_c 18.018557
_cell_angle_alpha 51.592071
_cell_angle_beta 62.592939
_cell_angle_gamma 84.852777
_cell_volume 654.654065
_symmetry_space_group_name_H-M "P -1"
_symmetry_group_IT_number 2
_symmetry_cell_setting 'triclinic'
loop_
_space_group_symop_operation_xyz
x,y,z
-x,-y,-z
loop_
_atom_site_type_symbol
_atom_site_label
_atom_site_fract_x
_atom_site_fract_y
_atom_site_fract_z
Si Si1 0.013839 0.784029 0.891545
Si Si2 0.957248 0.278998 0.428277
Si Si3 0.916796 0.686428 0.768183
Si Si4 0.751979 0.182337 0.706850
Si Si5 0.604417 0.799608 0.311044
Si Si6 0.560307 0.225626 0.496466
Si Si7 0.292943 0.895795 0.096545
O O1 0.022778 0.736505 0.812264
O O2 0.212926 0.008420 0.812748
O O3 0.843078 0.903197 0.928610
O O4 0.000000 0.500000 0.000000
O O5 0.743103 0.241571 0.503600
O O6 0.961933 0.330513 0.326928
O O7 0.086130 0.526427 0.394906
O O8 0.000000 0.000000 0.500000
O O9 0.775403 0.384512 0.872350
O O10 0.824377 0.931315 0.719446
O O11 0.577824 0.163070 0.696774
O O12 0.682111 0.149899 0.812600
O O13 0.596766 0.484984 0.376103
O O14 0.604462 0.834386 0.393410
O O15 0.500000 0.000000 0.500000
O O16 0.500000 0.000000 0.000000
#
# Coordination Sequence:
#
# PCOD8019982 Si02
#       7
#     2   2   2   2   2   2   2
#     4  11  26  44  66  96 134 177 218 272 337 391
#     4  11  22  40  64  97 129 172 220 266 330 394
#     4  10  22  42  64  90 130 170 214 270 321 393
#     4  10  23  40  65  94 130 170 219 270 326 394
#     4  11  24  41  62  97 130 168 219 270 328 392
#     4  11  23  40  65  93 133 170 214 273 326 388
#     4  10  24  44  66  93 124 171 223 269 322 389
#
# _framework density 21.385341
#
# number of rings (size 3 to 8) (size 9 to 14) (size 15 to 20)
#    0.000    1.429    0.000    5.143    4.000    7.429 
#    2.571    0.000    0.000    0.000    0.000    0.000 
#    0.000    0.000    0.000    0.000    0.000    0.000 
#
# Total GULP energy -173448.948184 kJ/mol
# GULP energy per Si atom -12389.210585 kJ/mol
# Density = 2.133667 g / cm^3
# Si number density = 21.385341 Si / 1000 Ang^3
#
#
#
# Elastic Constant Matrix: (Units=GPa)
#
#
# Indices 1 2 3 4 5 6 
#
# 1 104.8386 37.1085 51.8438 -11.3623 0.5587 -5.4580
# 2 37.1085 125.2385 41.8643 -27.8362 -8.2986 0.5932
# 3 51.8438 41.8643 114.3761 -26.2148 -12.0293 -12.7537
# 4 -11.3623 -27.8362 -26.2148 41.0277 -6.2901 5.0906
# 5 0.5587 -8.2986 -12.0293 -6.2901 40.9807 -4.2779
# 6 -5.4580 0.5932 -12.7537 5.0906 -4.2779 31.2172
#
#
#
# Elastic Compliance Matrix: (Units=1/GPa)
#
#
# Indices 1 2 3 4 5 6 
#
# 1 0.013101 -0.002636 -0.005791 -0.002280 -0.002765 -0.000032
# 2 -0.002636 0.010788 -0.001198 0.006462 0.002668 -0.001843
# 3 -0.005791 -0.001198 0.014563 0.007195 0.005692 0.004567
# 4 -0.002280 0.006462 0.007195 0.034276 0.008503 -0.002006
# 5 -0.002765 0.002668 0.005692 0.008503 0.028404 0.004297
# 6 -0.000032 -0.001843 0.004567 -0.002006 0.004297 0.034845
#
#
# Mechanical properties :
#
#
# Convention : Reuss Voigt Hill
#
# Bulk Modulus (GPa) = 52.07353 67.34295 59.70824
# Shear Modulus (GPa) = 30.93536 36.88757 33.91147
#
# Velocity S-wave (km/s) = 3.80750 4.15770 3.98645
# Velocity P-wave (km/s) = 6.61305 7.38967 7.01212
#
# Compressibility (1/GPa) = 0.01920361
#
# Stress axis : x y z
#
# Youngs Moduli (GPa) = 76.33033 92.69567 68.66655
#
# Poissons Ratio (x) = 0.24436 0.39761
# Poissons Ratio (y) = 0.20122 0.08223
# Poissons Ratio (z) = 0.44199 0.11101
#
# Static dielectric constant tensor:
#      x y z
#    x 3.892880 -0.032990 -0.044740 
#    y -0.032990 4.110550 -0.109290 
#    z -0.044740 -0.109290 4.155580 
# 
# 
# High freq. dielectric constant tensor:
#      x y z
#    x 1.839950 0.001640 0.000100 
#    y 0.001640 1.855350 -0.004620 
#    z 0.000100 -0.004620 1.846770 
# 
# From -- ./inp_files/28431.got.cif
#   From: 2010.06.25/outbox.cif.g09.slc.cpg/sg2_15_cif.got.tgz:28431.got - 2010.06.27 13:26:56.
