data_PCOD8019763
_publ_section_title
;
Structure prediction by ZEFSAII (Michael W. Deem and Ramdas Pophale) SiO2 
 PCOD8019763
Probable space group: P -1
;
_chemical_formula_sum "Si O2"
_cell_formula_units_Z 16
_cell_length_a 20.349737
_cell_length_b 8.294383
_cell_length_c 22.472137
_cell_angle_alpha 144.596014
_cell_angle_beta 159.221513
_cell_angle_gamma 31.796168
_cell_volume 704.745146
_symmetry_space_group_name_H-M "P -1"
_symmetry_group_IT_number 2
_symmetry_cell_setting 'triclinic'
loop_
_space_group_symop_operation_xyz
x,y,z
-x,-y,-z
loop_
_atom_site_type_symbol
_atom_site_label
_atom_site_fract_x
_atom_site_fract_y
_atom_site_fract_z
Si Si1 0.259505 0.034681 0.755933
Si Si2 0.878845 0.152521 0.528211
Si Si3 0.295981 0.908181 0.519731
Si Si4 0.515025 0.235945 0.630955
Si Si5 0.998439 0.143206 0.830900
Si Si6 0.259249 0.500581 0.175194
Si Si7 0.635180 0.447479 0.038414
Si Si8 0.542096 0.672399 0.261873
O O1 0.394096 0.225800 0.916683
O O2 0.102122 0.158499 0.715786
O O3 0.128353 0.079330 0.598281
O O4 0.401118 0.677934 0.779023
O O5 0.844972 0.005635 0.515520
O O6 0.712214 0.495564 0.479883
O O7 0.535128 0.691282 0.670132
O O8 0.199253 0.733338 0.342607
O O9 0.275438 0.226259 0.567542
O O10 0.684312 0.347151 0.787350
O O11 0.572173 0.123695 0.714584
O O12 0.500000 0.000000 0.500000
O O13 0.909253 0.225555 0.846575
O O14 0.125744 0.776576 0.815134
O O15 0.154017 0.296926 0.996272
O O16 0.500000 0.500000 0.000000
O O17 0.582449 0.257629 0.884601
#
# Coordination Sequence:
#
# PCOD8019763 Si02
#       8
#     2   2   2   2   2   2   2   2
#     4  10  23  41  65  92 139 178 233 284 336 402
#     4   9  22  40  63 100 131 175 234 280 334 418
#     4  11  22  42  71  99 136 177 228 274 354 404
#     4  10  22  41  71  98 137 180 218 289 356 398
#     4  11  25  41  72 100 132 183 230 285 338 413
#     4  10  23  47  67  97 143 172 232 285 341 412
#     4  12  27  44  68  99 141 184 231 283 345 405
#     4  11  24  42  68  97 137 181 227 283 338 406
#
# _framework density 22.703244000000002
#
# number of rings (size 3 to 8) (size 9 to 14) (size 15 to 20)
#    0.000    1.500    1.250    2.250   12.250    2.500 
#    0.000    0.625    0.000    0.000    0.000    0.000 
#    0.000    0.000    0.000    0.000    0.000    0.000 
#
# Total GULP energy -198243.362835 kJ/mol
# GULP energy per Si atom -12390.210177 kJ/mol
# Density = 2.265157 g / cm^3
# Si number density = 22.703244 Si / 1000 Ang^3
#
#
#
# Elastic Constant Matrix: (Units=GPa)
#
#
# Indices 1 2 3 4 5 6 
#
# 1 179.8688 37.0713 64.3980 15.4390 12.7573 -4.8653
# 2 37.0713 69.8374 29.8282 14.1206 14.1940 -11.0477
# 3 64.3980 29.8282 143.3069 9.3857 2.5468 2.1503
# 4 15.4390 14.1206 9.3857 21.7260 -1.1618 4.0197
# 5 12.7573 14.1940 2.5468 -1.1618 44.9002 3.0918
# 6 -4.8653 -11.0477 2.1503 4.0197 3.0918 33.5746
#
#
#
# Elastic Compliance Matrix: (Units=1/GPa)
#
#
# Indices 1 2 3 4 5 6 
#
# 1 0.007283 -0.001486 -0.002734 -0.003354 -0.001620 0.001292
# 2 -0.001486 0.022403 -0.003065 -0.014390 -0.007531 0.009769
# 3 -0.002734 -0.003065 0.008813 0.000605 0.001411 -0.002172
# 4 -0.003354 -0.014390 0.000605 0.060373 0.007940 -0.013219
# 5 -0.001620 -0.007531 0.001411 0.007940 0.025659 -0.006117
# 6 0.001292 0.009769 -0.002172 -0.013219 -0.006117 0.035471
#
#
# Mechanical properties :
#
#
# Convention : Reuss Voigt Hill
#
# Bulk Modulus (GPa) = 41.79496 72.84536 57.32016
# Shear Modulus (GPa) = 27.39012 37.48787 32.43900
#
# Velocity S-wave (km/s) = 3.47715 4.06792 3.78408
# Velocity P-wave (km/s) = 5.87963 7.36339 6.66294
#
# Compressibility (1/GPa) = 0.02392633
#
# Stress axis : x y z
#
# Youngs Moduli (GPa) = 137.31466 44.63746 113.47416
#
# Poissons Ratio (x) = 0.06634 0.31026
# Poissons Ratio (y) = 0.20408 0.34784
# Poissons Ratio (z) = 0.37544 0.13683
#
# Static dielectric constant tensor:
#      x y z
#    x 4.595750 -0.109450 -0.077200 
#    y -0.109450 3.793240 0.118980 
#    z -0.077200 0.118980 4.248260 
# 
# 
# High freq. dielectric constant tensor:
#      x y z
#    x 1.910240 -0.006000 0.006910 
#    y -0.006000 1.875080 0.010340 
#    z 0.006910 0.010340 1.897660 
# 
# From -- ./inp_files/613636.got.cif
#   From: 2010.06.25/outbox.cif.g09.slc.cpg/sg2_307_cif.got.tgz:613636.got - 2010.06.27 13:26:56.
