data_PCOD8019212
_publ_section_title
;
Structure prediction by ZEFSAII (Michael W. Deem and Ramdas Pophale) SiO2 
 PCOD8019212
Probable space group: P -1
;
_chemical_formula_sum "Si O2"
_cell_formula_units_Z 14
_cell_length_a 12.552063
_cell_length_b 10.122169
_cell_length_c 18.566501
_cell_angle_alpha 67.871534
_cell_angle_beta 58.678296
_cell_angle_gamma 22.725816
_cell_volume 739.768245
_symmetry_space_group_name_H-M "P -1"
_symmetry_group_IT_number 2
_symmetry_cell_setting 'triclinic'
loop_
_space_group_symop_operation_xyz
x,y,z
-x,-y,-z
loop_
_atom_site_type_symbol
_atom_site_label
_atom_site_fract_x
_atom_site_fract_y
_atom_site_fract_z
Si Si1 0.344689 0.560810 0.826745
Si Si2 0.583229 0.030272 0.780220
Si Si3 0.372779 0.727910 0.061991
Si Si4 0.221853 0.482854 0.675440
Si Si5 0.354890 0.077533 0.966542
Si Si6 0.712170 0.153684 0.527720
Si Si7 0.834112 0.145345 0.641933
O O1 0.496299 0.247851 0.821297
O O2 0.401817 0.535785 0.895203
O O3 0.515551 0.498831 0.727558
O O4 0.977109 0.952214 0.858872
O O5 0.342092 0.284023 0.746904
O O6 0.542010 0.926535 0.859331
O O7 0.950530 0.664076 0.701457
O O8 0.500000 0.500000 0.000000
O O9 0.378569 0.884114 0.002630
O O10 0.529554 0.192454 0.575292
O O11 0.079042 0.792722 0.676235
O O12 0.000000 0.500000 0.000000
O O13 0.500000 0.000000 0.000000
O O14 0.500000 0.500000 0.500000
O O15 0.777038 0.107038 0.599222
O O16 0.034422 0.835898 0.432682
#
# Coordination Sequence:
#
# PCOD8019212 Si02
#       7
#     2   2   2   2   2   2   2
#     4  11  20  35  56  74 107 145 188 216 278 325
#     4  11  19  30  51  75 100 134 182 217 261 317
#     4  12  25  40  55  78 111 148 187 235 277 317
#     4  10  17  28  43  69 107 139 163 211 265 319
#     4  12  22  36  56  81 104 138 188 235 275 329
#     4   9  16  26  42  71 110 141 166 205 270 328
#     4   9  18  27  45  71 104 146 171 209 262 339
#
# _framework density 18.924845999999999
#
# number of rings (size 3 to 8) (size 9 to 14) (size 15 to 20)
#    0.000    1.429    5.714    3.000    2.000    0.000 
#    0.000    0.000    0.000    0.000    0.000    0.000 
#    0.000    6.857    0.000    0.000    0.000    0.000 
#
# Total GULP energy -173442.730633 kJ/mol
# GULP energy per Si atom -12388.766474 kJ/mol
# Density = 1.888177 g / cm^3
# Si number density = 18.924846 Si / 1000 Ang^3
#
#
#
# Elastic Constant Matrix: (Units=GPa)
#
#
# Indices 1 2 3 4 5 6 
#
# 1 55.4898 35.5618 29.9210 6.5183 -11.7532 -8.1778
# 2 35.5618 61.8937 29.7889 -10.4893 -8.2083 -18.6986
# 3 29.9210 29.7889 112.6272 -4.1481 -37.4602 1.8834
# 4 6.5183 -10.4893 -4.1481 29.9713 -11.8002 1.5627
# 5 -11.7532 -8.2083 -37.4602 -11.8002 38.6961 5.1767
# 6 -8.1778 -18.6986 1.8834 1.5627 5.1767 28.2920
#
#
#
# Elastic Compliance Matrix: (Units=1/GPa)
#
#
# Indices 1 2 3 4 5 6 
#
# 1 0.036489 -0.022428 -0.006027 -0.018433 -0.004867 -0.001966
# 2 -0.022428 0.039773 -0.004101 0.017400 0.000413 0.019040
# 3 -0.006027 -0.004101 0.018878 0.010990 0.020267 -0.010025
# 4 -0.018433 0.017400 0.010990 0.055310 0.025913 -0.002356
# 5 -0.004867 0.000413 0.020267 0.025913 0.053815 -0.013761
# 6 -0.001966 0.019040 -0.010025 -0.002356 -0.013761 0.050676
#
#
# Mechanical properties :
#
#
# Convention : Reuss Voigt Hill
#
# Bulk Modulus (GPa) = 33.30235 46.72822 40.01529
# Shear Modulus (GPa) = 15.14867 28.37450 21.76159
#
# Velocity S-wave (km/s) = 2.83232 3.87631 3.39469
# Velocity P-wave (km/s) = 5.32272 6.69175 6.04611
#
# Compressibility (1/GPa) = 0.03002791
#
# Stress axis : x y z
#
# Youngs Moduli (GPa) = 27.40540 25.14290 52.97186
#
# Poissons Ratio (x) = 0.56391 0.31924
# Poissons Ratio (y) = 0.61465 0.21726
# Poissons Ratio (z) = 0.16516 0.10312
#
# Static dielectric constant tensor:
#      x y z
#    x 3.321960 -0.634020 -0.623280 
#    y -0.634020 3.480250 -0.029480 
#    z -0.623280 -0.029480 4.093700 
# 
# 
# High freq. dielectric constant tensor:
#      x y z
#    x 1.689930 -0.061980 -0.046940 
#    y -0.061980 1.717050 -0.024430 
#    z -0.046940 -0.024430 1.752730 
# 
# From -- ./inp_files/111527.got.cif
#   From: 2010.06.25/outbox.cif.g09.slc.cpg/sg2_56_cif.got.tgz:111527.got - 2010.06.27 13:26:56.
