data_PCOD8019025
_publ_section_title
;
Structure prediction by ZEFSAII (Michael W. Deem and Ramdas Pophale) SiO2 
 PCOD8019025
Probable space group: P -1
;
_chemical_formula_sum "Si O2"
_cell_formula_units_Z 12
_cell_length_a 15.439095
_cell_length_b 10.947533
_cell_length_c 9.404463
_cell_angle_alpha 51.345967
_cell_angle_beta 38.156432
_cell_angle_gamma 30.937195
_cell_volume 498.608251
_symmetry_space_group_name_H-M "P -1"
_symmetry_group_IT_number 2
_symmetry_cell_setting 'triclinic'
loop_
_space_group_symop_operation_xyz
x,y,z
-x,-y,-z
loop_
_atom_site_type_symbol
_atom_site_label
_atom_site_fract_x
_atom_site_fract_y
_atom_site_fract_z
Si Si1 0.779138 0.824510 0.472704
Si Si2 0.615571 0.921856 0.056097
Si Si3 0.865621 0.396130 0.640297
Si Si4 0.466347 0.379450 0.885473
Si Si5 0.102090 0.585541 0.988647
Si Si6 0.150364 0.730913 0.542906
O O1 0.814758 0.610920 0.611059
O O2 0.892642 0.836789 0.439684
O O3 0.520271 0.057328 0.659109
O O4 0.876550 0.786721 0.220409
O O5 0.848806 0.638285 0.955337
O O6 0.500000 0.000000 0.000000
O O7 0.626572 0.100635 0.932418
O O8 0.853157 0.390422 0.492467
O O9 0.687190 0.438182 0.916750
O O10 0.309660 0.470626 0.890188
O O11 0.608642 0.408778 0.639597
O O12 0.060556 0.725182 0.803315
O O13 0.000000 0.000000 0.500000
#
# Coordination Sequence:
#
# PCOD8019025 Si02
#       6
#     2   2   2   2   2   2
#     4   9  19  39  66  95 112 159 212 251 302 358
#     4   9  18  36  71  89 114 156 209 253 291 360
#     4   9  19  39  63  86 124 157 201 257 302 359
#     4   9  20  42  63  86 120 164 205 242 310 369
#     4  10  22  41  64  90 123 162 207 253 294 368
#     4  12  26  38  57  93 131 162 196 252 314 359
#
# _framework density 24.066991000000002
#
# number of rings (size 3 to 8) (size 9 to 14) (size 15 to 20)
#    0.000    2.333    0.000    4.000    7.000    0.667 
#    6.000    3.333    0.000    0.000    0.000    0.000 
#    0.000    0.000    0.000    0.000    0.000    0.000 
#
# Total GULP energy -148673.116488 kJ/mol
# GULP energy per Si atom -12389.426374 kJ/mol
# Density = 2.401221 g / cm^3
# Si number density = 24.066991 Si / 1000 Ang^3
#
#
#
# Elastic Constant Matrix: (Units=GPa)
#
#
# Indices 1 2 3 4 5 6 
#
# 1 72.1986 21.1615 38.7414 7.9114 14.4629 6.4393
# 2 21.1615 41.5606 10.3520 -11.6421 14.5999 -3.7267
# 3 38.7414 10.3520 136.2151 0.5203 24.9399 1.4297
# 4 7.9114 -11.6421 0.5203 29.9621 -2.9734 6.7136
# 5 14.4629 14.5999 24.9399 -2.9734 37.9046 -4.1333
# 6 6.4393 -3.7267 1.4297 6.7136 -4.1333 14.8389
#
#
#
# Elastic Compliance Matrix: (Units=1/GPa)
#
#
# Indices 1 2 3 4 5 6 
#
# 1 0.022437 -0.012797 -0.004896 -0.009006 -0.002097 -0.008988
# 2 -0.012797 0.038346 0.002377 0.016171 -0.009643 0.004952
# 3 -0.004896 0.002377 0.009506 0.001619 -0.005217 -0.000380
# 4 -0.009006 0.016171 0.001619 0.044728 -0.001757 -0.012912
# 5 -0.002097 -0.009643 -0.005217 -0.001757 0.035238 0.009601
# 6 -0.008988 0.004952 -0.000380 -0.012912 0.009601 0.081088
#
#
# Mechanical properties :
#
#
# Convention : Reuss Voigt Hill
#
# Bulk Modulus (GPa) = 25.21567 43.38713 34.30140
# Shear Modulus (GPa) = 18.16896 28.52242 23.34569
#
# Velocity S-wave (km/s) = 2.75059 3.44630 3.11791
# Velocity P-wave (km/s) = 4.53736 5.82261 5.21969
#
# Compressibility (1/GPa) = 0.03965788
#
# Stress axis : x y z
#
# Youngs Moduli (GPa) = 44.56834 26.07801 105.19525
#
# Poissons Ratio (x) = 0.33372 0.51506
# Poissons Ratio (y) = 0.57034 -0.25007
# Poissons Ratio (z) = 0.21822 -0.06199
#
# Static dielectric constant tensor:
#      x y z
#    x 4.481740 0.144990 0.208550 
#    y 0.144990 4.190040 0.299270 
#    z 0.208550 0.299270 5.011000 
# 
# 
# High freq. dielectric constant tensor:
#      x y z
#    x 1.943440 0.004030 0.000930 
#    y 0.004030 1.912640 0.024190 
#    z 0.000930 0.024190 1.975020 
# 
# From -- ./inp_files/144788.got.cif
#   From: 2010.06.25/outbox.cif.g09.slc.cpg/sg2_73_cif.got.tgz:144788.got - 2010.06.27 13:26:56.
