data_PCOD8019505
_publ_section_title
;
Structure prediction by ZEFSAII (Michael W. Deem and Ramdas Pophale) SiO2 
 PCOD8019505
Probable space group: P -1
;
_chemical_formula_sum "Si O2"
_cell_formula_units_Z 16
_cell_length_a 25.702616
_cell_length_b 11.413553
_cell_length_c 10.877851
_cell_angle_alpha 143.120842
_cell_angle_beta 148.531267
_cell_angle_gamma 29.738015
_cell_volume 804.362633
_symmetry_space_group_name_H-M "P -1"
_symmetry_group_IT_number 2
_symmetry_cell_setting 'triclinic'
loop_
_space_group_symop_operation_xyz
x,y,z
-x,-y,-z
loop_
_atom_site_type_symbol
_atom_site_label
_atom_site_fract_x
_atom_site_fract_y
_atom_site_fract_z
Si Si1 0.198477 0.154414 0.820616
Si Si2 0.145784 0.833377 0.147936
Si Si3 0.235140 0.532271 0.846058
Si Si4 0.498595 0.606856 0.720760
Si Si5 0.403384 0.601987 0.780012
Si Si6 0.004759 0.053748 0.416141
Si Si7 0.196660 0.582095 0.284209
Si Si8 0.255288 0.102886 0.617596
O O1 0.081922 0.159771 0.631992
O O2 0.186291 0.223126 0.709712
O O3 0.325276 0.891970 0.878884
O O4 0.199469 0.349945 0.067817
O O5 0.211197 0.706850 0.301013
O O6 0.192578 0.990316 0.331217
O O7 0.193087 0.615345 0.969419
O O8 0.000000 0.000000 0.000000
O O9 0.237957 0.294489 0.644095
O O10 0.137483 0.745743 0.738102
O O11 0.369264 0.462818 0.033710
O O12 0.500000 0.500000 0.500000
O O13 0.464026 0.512007 0.689751
O O14 0.401359 0.897536 0.760351
O O15 0.313624 0.516483 0.547969
O O16 0.500000 0.500000 0.000000
O O17 0.063715 0.795314 0.252070
O O18 0.000000 0.000000 0.500000
#
# Coordination Sequence:
#
# PCOD8019505 Si02
#       8
#     2   2   2   2   2   2   2   2
#     4  10  22  41  68  91 124 165 211 270 307 375
#     4  12  21  38  64  97 123 157 206 264 318 371
#     4  12  24  37  67  93 127 168 205 263 323 379
#     4  11  22  42  62  95 131 165 207 270 327 370
#     4  10  23  43  67  93 125 173 219 255 315 388
#     4  11  26  43  60  92 133 170 209 258 313 378
#     4  11  21  42  67  91 126 162 210 266 310 367
#     4  11  22  40  63  99 125 158 215 262 324 378
#
# _framework density 19.891524
#
# number of rings (size 3 to 8) (size 9 to 14) (size 15 to 20)
#    0.000    1.000    7.500    0.375    5.250    2.000 
#    0.000    1.250    0.000    0.000    0.000    0.000 
#    0.000    0.000    0.000    0.000    0.000    0.000 
#
# Total GULP energy -198326.550424 kJ/mol
# GULP energy per Si atom -12395.409401 kJ/mol
# Density = 1.984625 g / cm^3
# Si number density = 19.891524 Si / 1000 Ang^3
#
#
#
# Elastic Constant Matrix: (Units=GPa)
#
#
# Indices 1 2 3 4 5 6 
#
# 1 93.9894 42.6536 32.4180 -7.3384 -3.1002 -2.3211
# 2 42.6536 98.5953 60.6907 -1.5701 7.5322 -10.2668
# 3 32.4180 60.6907 119.0422 -6.5710 11.7813 -1.3085
# 4 -7.3384 -1.5701 -6.5710 48.6181 -2.6675 -0.3115
# 5 -3.1002 7.5322 11.7813 -2.6675 36.3482 -7.8213
# 6 -2.3211 -10.2668 -1.3085 -0.3115 -7.8213 19.8316
#
#
#
# Elastic Compliance Matrix: (Units=1/GPa)
#
#
# Indices 1 2 3 4 5 6 
#
# 1 0.013736 -0.005440 -0.001139 0.001895 0.002773 -0.000160
# 2 -0.005440 0.018075 -0.007708 -0.001229 -0.000042 0.008176
# 3 -0.001139 -0.007708 0.013010 0.001108 -0.003644 -0.004685
# 4 0.001895 -0.001229 0.001108 0.021065 0.001749 0.000679
# 5 0.002773 -0.000042 -0.003644 0.001749 0.031783 0.012624
# 6 -0.000160 0.008176 -0.004685 0.000679 0.012624 0.059319
#
#
# Mechanical properties :
#
#
# Convention : Reuss Voigt Hill
#
# Bulk Modulus (GPa) = 61.54124 64.79461 63.16792
# Shear Modulus (GPa) = 26.18099 32.68388 29.43244
#
# Velocity S-wave (km/s) = 3.63187 4.05792 3.85079
# Velocity P-wave (km/s) = 6.97086 7.38920 7.18308
#
# Compressibility (1/GPa) = 0.01624927
#
# Stress axis : x y z
#
# Youngs Moduli (GPa) = 72.79915 55.32401 76.86179
#
# Poissons Ratio (x) = 0.30095 0.08754
# Poissons Ratio (y) = 0.39601 0.59242
# Poissons Ratio (z) = 0.08292 0.42642
#
# Static dielectric constant tensor:
#      x y z
#    x 3.612510 -0.252710 0.024850 
#    y -0.252710 3.905940 0.002400 
#    z 0.024850 0.002400 3.632640 
# 
# 
# High freq. dielectric constant tensor:
#      x y z
#    x 1.767090 -0.013680 0.007540 
#    y -0.013680 1.778150 -0.005330 
#    z 0.007540 -0.005330 1.778980 
# 
# From -- ./inp_files/476572.got.cif
#   From: 2010.06.25/outbox.cif.g09.slc.cpg/sg2_239_cif.got.tgz:476572.got - 2010.06.27 13:26:56.
