data_PCOD8019355
_publ_section_title
;
Structure prediction by ZEFSAII (Michael W. Deem and Ramdas Pophale) SiO2 
 PCOD8019355
Probable space group: P -1
;
_chemical_formula_sum "Si O2"
_cell_formula_units_Z 16
_cell_length_a 11.729064
_cell_length_b 8.800680
_cell_length_c 23.146115
_cell_angle_alpha 48.777032
_cell_angle_beta 148.700619
_cell_angle_gamma 143.429544
_cell_volume 736.665408
_symmetry_space_group_name_H-M "P -1"
_symmetry_group_IT_number 2
_symmetry_cell_setting 'triclinic'
loop_
_space_group_symop_operation_xyz
x,y,z
-x,-y,-z
loop_
_atom_site_type_symbol
_atom_site_label
_atom_site_fract_x
_atom_site_fract_y
_atom_site_fract_z
Si Si1 0.531830 0.464128 0.641672
Si Si2 0.317626 0.812342 0.299136
Si Si3 0.521350 0.333563 0.888015
Si Si4 0.765366 0.267915 0.197027
Si Si5 0.391106 0.064503 0.489762
Si Si6 0.134974 0.764783 0.876763
Si Si7 0.312608 0.152593 0.117997
Si Si8 0.207375 0.176255 0.678854
O O1 0.507137 0.259111 0.640517
O O2 0.513101 0.650550 0.547534
O O3 0.280800 0.326093 0.613095
O O4 0.810881 0.604682 0.765302
O O5 0.477589 0.956353 0.390811
O O6 0.008757 0.562563 0.244301
O O7 0.310639 0.008140 0.208711
O O8 0.549012 0.558526 0.877002
O O9 0.466446 0.338693 0.794961
O O10 0.261651 0.058323 0.870847
O O11 0.800574 0.354819 0.013097
O O12 0.709621 0.244237 0.110008
O O13 0.487335 0.159388 0.139003
O O14 0.868941 0.099782 0.298505
O O15 0.500000 0.000000 0.500000
O O16 0.057576 0.861083 0.399268
O O17 0.000000 0.000000 0.000000
#
# Coordination Sequence:
#
# PCOD8019355 Si02
#       8
#     2   2   2   2   2   2   2   2
#     4  11  22  45  73  95 137 176 236 281 338 413
#     4  11  25  45  72 100 136 191 223 278 352 399
#     4  10  22  41  67 101 142 177 228 273 345 400
#     4  10  22  44  71  97 138 178 230 277 337 415
#     4  12  28  46  67 102 139 178 234 289 340 399
#     4   9  20  44  70  99 134 189 222 275 347 407
#     4  12  26  44  68 109 141 174 231 282 338 407
#     4  11  24  45  70 100 135 181 232 283 336 411
#
# _framework density 21.719494000000001
#
# number of rings (size 3 to 8) (size 9 to 14) (size 15 to 20)
#    0.000    1.250    5.000    1.875    3.500    4.500 
#    4.500    0.000    0.000    0.000    0.000    0.000 
#    0.000    0.000    0.000    0.000    0.000    0.000 
#
# Total GULP energy -198409.608116 kJ/mol
# GULP energy per Si atom -12400.600507 kJ/mol
# Density = 2.167006 g / cm^3
# Si number density = 21.719494 Si / 1000 Ang^3
#
#
#
# Elastic Constant Matrix: (Units=GPa)
#
#
# Indices 1 2 3 4 5 6 
#
# 1 132.2714 48.5494 66.1144 3.5990 8.2552 11.0329
# 2 48.5494 88.3553 40.1907 -0.0448 -1.8822 -13.2863
# 3 66.1144 40.1907 118.3545 -7.4031 -12.5880 2.3495
# 4 3.5990 -0.0448 -7.4031 27.2340 2.1185 -2.1895
# 5 8.2552 -1.8822 -12.5880 2.1185 38.0534 -0.5017
# 6 11.0329 -13.2863 2.3495 -2.1895 -0.5017 36.9934
#
#
#
# Elastic Compliance Matrix: (Units=1/GPa)
#
#
# Indices 1 2 3 4 5 6 
#
# 1 0.013799 -0.005667 -0.006456 -0.003661 -0.005285 -0.006029
# 2 -0.005667 0.016800 -0.002519 0.000629 0.001297 0.007939
# 3 -0.006456 -0.002519 0.013759 0.004191 0.005600 0.000471
# 4 -0.003661 0.000629 0.004191 0.038603 0.000107 0.003338
# 5 -0.005285 0.001297 0.005600 0.000107 0.029364 0.002091
# 6 -0.006029 0.007939 0.000471 0.003338 0.002091 0.031877
#
#
# Mechanical properties :
#
#
# Convention : Reuss Voigt Hill
#
# Bulk Modulus (GPa) = 66.33832 72.07668 69.20750
# Shear Modulus (GPa) = 28.00945 32.73126 30.37036
#
# Velocity S-wave (km/s) = 3.59500 3.88622 3.74344
# Velocity P-wave (km/s) = 6.91676 7.30714 7.11462
#
# Compressibility (1/GPa) = 0.01507424
#
# Stress axis : x y z
#
# Youngs Moduli (GPa) = 72.46707 59.52520 72.67788
#
# Poissons Ratio (x) = 0.33733 0.46917
# Poissons Ratio (y) = 0.41068 0.18311
# Poissons Ratio (z) = 0.46781 0.14997
#
# Static dielectric constant tensor:
#      x y z
#    x 3.826740 0.065230 -0.112250 
#    y 0.065230 4.000810 -0.100450 
#    z -0.112250 -0.100450 3.999040 
# 
# 
# High freq. dielectric constant tensor:
#      x y z
#    x 1.843620 0.003020 -0.010080 
#    y 0.003020 1.857110 -0.003910 
#    z -0.010080 -0.003910 1.854670 
# 
# From -- ./inp_files/609812.got.cif
#   From: 2010.06.25/outbox.cif.g09.slc.cpg/sg2_305_cif.got.tgz:609812.got - 2010.06.27 13:26:56.
