data_PCOD8019033
_publ_section_title
;
Structure prediction by ZEFSAII (Michael W. Deem and Ramdas Pophale) SiO2 
 PCOD8019033
Probable space group: P -1
;
_chemical_formula_sum "Si O2"
_cell_formula_units_Z 16
_cell_length_a 7.326082
_cell_length_b 11.718871
_cell_length_c 20.813533
_cell_angle_alpha 155.294155
_cell_angle_beta 93.264035
_cell_angle_gamma 85.245735
_cell_volume 743.564637
_symmetry_space_group_name_H-M "P -1"
_symmetry_group_IT_number 2
_symmetry_cell_setting 'triclinic'
loop_
_space_group_symop_operation_xyz
x,y,z
-x,-y,-z
loop_
_atom_site_type_symbol
_atom_site_label
_atom_site_fract_x
_atom_site_fract_y
_atom_site_fract_z
Si Si1 0.017005 0.050058 0.099815
Si Si2 0.439367 0.537473 0.590617
Si Si3 0.333704 0.656832 0.932837
Si Si4 0.108952 0.341230 0.553349
Si Si5 0.672156 0.652181 0.105085
Si Si6 0.291107 0.150350 0.925150
Si Si7 0.305035 0.152362 0.587015
Si Si8 0.261120 0.854445 0.559199
O O1 0.976771 0.364352 0.275492
O O2 0.877690 0.858429 0.034630
O O3 0.000000 0.000000 0.000000
O O4 0.226227 0.951653 0.071613
O O5 0.500000 0.500000 0.500000
O O6 0.262633 0.368300 0.516052
O O7 0.391710 0.853471 0.764183
O O8 0.606671 0.425502 0.583054
O O9 0.236896 0.540899 0.936029
O O10 0.312798 0.461265 0.771226
O O11 0.551973 0.672101 0.951909
O O12 0.189767 0.166943 0.526528
O O13 0.941549 0.193230 0.441692
O O14 0.786194 0.713107 0.073973
O O15 0.630770 0.944144 0.289757
O O16 0.500000 0.500000 0.000000
O O17 0.500000 0.000000 0.500000
O O18 0.217116 0.967732 0.544842
#
# Coordination Sequence:
#
# PCOD8019033 Si02
#       8
#     2   2   2   2   2   2   2   2
#     4  11  23  41  62  91 129 165 209 259 305 375
#     4  11  22  41  65  92 130 168 210 265 318 377
#     4  10  22  42  64  89 125 164 209 260 311 370
#     4  11  24  42  64  95 127 166 218 260 318 380
#     4   9  20  42  64  88 123 160 209 259 312 376
#     4  10  22  41  64  91 122 167 211 254 318 370
#     4  11  22  42  66  93 128 168 211 263 320 374
#     4  11  22  40  65  93 126 166 209 267 317 371
#
# _framework density 21.517969000000001
#
# number of rings (size 3 to 8) (size 9 to 14) (size 15 to 20)
#    0.000    1.500    3.750    1.125    0.000    2.500 
#    6.750    0.000    0.000    0.000    0.000    0.000 
#    0.000    0.000    0.000    0.000    0.000    0.000 
#
# Total GULP energy -198267.922447 kJ/mol
# GULP energy per Si atom -12391.745153 kJ/mol
# Density = 2.146899 g / cm^3
# Si number density = 21.517969 Si / 1000 Ang^3
#
#
#
# Elastic Constant Matrix: (Units=GPa)
#
#
# Indices 1 2 3 4 5 6 
#
# 1 102.6606 27.2346 34.9678 -0.6101 1.1495 5.4857
# 2 27.2346 103.1152 35.3804 -3.8139 -1.7722 12.0869
# 3 34.9678 35.3804 65.1194 -3.6999 1.5618 -1.2308
# 4 -0.6101 -3.8139 -3.6999 28.4744 1.0515 -8.3423
# 5 1.1495 -1.7722 1.5618 1.0515 30.5417 3.8826
# 6 5.4857 12.0869 -1.2308 -8.3423 3.8826 39.4260
#
#
#
# Elastic Compliance Matrix: (Units=1/GPa)
#
#
# Indices 1 2 3 4 5 6 
#
# 1 0.012169 -0.000935 -0.006132 -0.001210 0.000080 -0.001862
# 2 -0.000935 0.012697 -0.006543 -0.000470 0.001660 -0.004230
# 3 -0.006132 -0.006543 0.022523 0.003297 -0.001980 0.004455
# 4 -0.001210 -0.000470 0.003297 0.038112 -0.002573 0.008733
# 5 0.000080 0.001660 -0.001980 -0.002573 0.033589 -0.004434
# 6 -0.001862 -0.004230 0.004455 0.008733 -0.004434 0.029343
#
#
# Mechanical properties :
#
#
# Convention : Reuss Voigt Hill
#
# Bulk Modulus (GPa) = 49.58178 51.78454 50.68316
# Shear Modulus (GPa) = 27.41581 31.24258 29.32920
#
# Velocity S-wave (km/s) = 3.57331 3.81455 3.69590
# Velocity P-wave (km/s) = 6.33378 6.59690 6.46668
#
# Compressibility (1/GPa) = 0.02016870
#
# Stress axis : x y z
#
# Youngs Moduli (GPa) = 82.17551 78.76075 44.39895
#
# Poissons Ratio (x) = 0.07365 0.27227
# Poissons Ratio (y) = 0.07685 0.29049
# Poissons Ratio (z) = 0.50392 0.51530
#
# Static dielectric constant tensor:
#      x y z
#    x 3.820980 0.060910 -0.003430 
#    y 0.060910 4.453210 0.186970 
#    z -0.003430 0.186970 3.820970 
# 
# 
# High freq. dielectric constant tensor:
#      x y z
#    x 1.832960 0.000800 0.001060 
#    y 0.000800 1.868370 0.010860 
#    z 0.001060 0.010860 1.832990 
# 
# From -- ./inp_files/70538.got.cif
#   From: 2010.06.25/outbox.cif.g09.slc.cpg/sg2_36_cif.got.tgz:70538.got - 2010.06.27 13:26:56.
