data_PCOD8019461
_publ_section_title
;
Structure prediction by ZEFSAII (Michael W. Deem and Ramdas Pophale) SiO2 
 PCOD8019461
Probable space group: P -1
;
_chemical_formula_sum "Si O2"
_cell_formula_units_Z 16
_cell_length_a 12.012213
_cell_length_b 9.534416
_cell_length_c 8.022321
_cell_angle_alpha 115.175847
_cell_angle_beta 101.762407
_cell_angle_gamma 110.344282
_cell_volume 709.504341
_symmetry_space_group_name_H-M "P -1"
_symmetry_group_IT_number 2
_symmetry_cell_setting 'triclinic'
loop_
_space_group_symop_operation_xyz
x,y,z
-x,-y,-z
loop_
_atom_site_type_symbol
_atom_site_label
_atom_site_fract_x
_atom_site_fract_y
_atom_site_fract_z
Si Si1 0.157509 0.202903 0.818818
Si Si2 0.104076 0.899156 0.421895
Si Si3 0.336568 0.495421 0.589779
Si Si4 0.703623 0.081112 0.745409
Si Si5 0.655374 0.392950 0.986717
Si Si6 0.029981 0.342012 0.433819
Si Si7 0.124048 0.983827 0.988397
Si Si8 0.494017 0.296670 0.559914
O O1 0.001306 0.123212 0.763744
O O2 0.176181 0.102289 0.613563
O O3 0.210956 0.144507 0.965776
O O4 0.226554 0.412384 0.918360
O O5 0.212689 0.850915 0.365667
O O6 0.009640 0.754991 0.451597
O O7 0.181101 0.403264 0.477822
O O8 0.380356 0.346190 0.524964
O O9 0.395912 0.618029 0.506254
O O10 0.389709 0.609341 0.836534
O O11 0.700285 0.244479 0.914929
O O12 0.561217 0.915425 0.580583
O O13 0.777190 0.996385 0.827621
O O14 0.546252 0.352082 0.793164
O O15 0.000000 0.500000 0.500000
O O16 0.931990 0.212012 0.201196
O O17 0.000000 0.000000 0.000000
#
# Coordination Sequence:
#
# PCOD8019461 Si02
#       8
#     2   2   2   2   2   2   2   2
#     4  10  22  41  67  98 135 186 232 282 351 420
#     4  10  22  42  70  99 144 181 225 293 354 429
#     4  11  25  48  74 103 140 187 247 287 342 436
#     4  12  26  45  67 108 143 179 236 297 357 416
#     4  12  26  47  73 103 140 186 243 295 350 414
#     4  11  24  43  69 107 143 180 222 295 371 412
#     4  11  23  38  66  98 139 181 223 285 347 428
#     4  11  28  47  73 100 141 196 241 294 338 417
#
# _framework density 22.550954000000001
#
# number of rings (size 3 to 8) (size 9 to 14) (size 15 to 20)
#    0.000    1.000    2.500    3.000    8.750    1.000 
#    2.250    0.000    0.000    0.000    0.000    0.000 
#    0.000    0.000    0.000    0.000    0.000    0.000 
#
# Total GULP energy -198315.396415 kJ/mol
# GULP energy per Si atom -12394.712276 kJ/mol
# Density = 2.249963 g / cm^3
# Si number density = 22.550954 Si / 1000 Ang^3
#
#
#
# Elastic Constant Matrix: (Units=GPa)
#
#
# Indices 1 2 3 4 5 6 
#
# 1 86.4649 45.4586 9.8803 3.8575 -10.6088 7.5500
# 2 45.4586 91.3389 35.1724 18.1123 -5.7768 -2.5237
# 3 9.8803 35.1724 90.1164 8.0747 -5.4275 7.3166
# 4 3.8575 18.1123 8.0747 35.2960 -10.6199 -5.5539
# 5 -10.6088 -5.7768 -5.4275 -10.6199 35.2270 2.1800
# 6 7.5500 -2.5237 7.3166 -5.5539 2.1800 37.6674
#
#
#
# Elastic Compliance Matrix: (Units=1/GPa)
#
#
# Indices 1 2 3 4 5 6 
#
# 1 0.017504 -0.010142 0.002393 0.003659 0.005354 -0.004423
# 2 -0.010142 0.019978 -0.006459 -0.008133 -0.003450 0.003626
# 3 0.002393 -0.006459 0.013785 -0.000087 0.001989 -0.003718
# 4 0.003659 -0.008133 -0.000087 0.035770 0.010327 0.003415
# 5 0.005354 -0.003450 0.001989 0.010327 0.032982 -0.002077
# 6 -0.004423 0.003626 -0.003718 0.003415 -0.002077 0.029024
#
#
# Mechanical properties :
#
#
# Convention : Reuss Voigt Hill
#
# Bulk Modulus (GPa) = 43.76241 49.88255 46.82248
# Shear Modulus (GPa) = 27.01599 33.46534 30.24067
#
# Velocity S-wave (km/s) = 3.46497 3.85644 3.66593
# Velocity P-wave (km/s) = 5.95450 6.48054 6.22308
#
# Compressibility (1/GPa) = 0.02285066
#
# Stress axis : x y z
#
# Youngs Moduli (GPa) = 57.12945 50.05525 72.54398
#
# Poissons Ratio (x) = 0.50768 -0.17361
# Poissons Ratio (y) = 0.57943 0.46855
# Poissons Ratio (z) = -0.13672 0.32330
#
# Static dielectric constant tensor:
#      x y z
#    x 3.864780 0.119530 -0.171620 
#    y 0.119530 3.925800 -0.213300 
#    z -0.171620 -0.213300 4.172060 
# 
# 
# High freq. dielectric constant tensor:
#      x y z
#    x 1.880770 -0.001960 -0.004290 
#    y -0.001960 1.897960 -0.003890 
#    z -0.004290 -0.003890 1.901430 
# 
# From -- ./inp_files/245142.got.cif
#   From: 2010.06.25/outbox.cif.g09.slc.cpg/sg2_123_cif.got.tgz:245142.got - 2010.06.27 13:26:56.
