data_PCOD8019847
_publ_section_title
;
Structure prediction by ZEFSAII (Michael W. Deem and Ramdas Pophale) SiO2 
 PCOD8019847
Probable space group: P -1
;
_chemical_formula_sum "Si O2"
_cell_formula_units_Z 14
_cell_length_a 28.424900
_cell_length_b 6.933105
_cell_length_c 16.335349
_cell_angle_alpha 131.813240
_cell_angle_beta 163.918835
_cell_angle_gamma 49.161812
_cell_volume 663.243124
_symmetry_space_group_name_H-M "P -1"
_symmetry_group_IT_number 2
_symmetry_cell_setting 'triclinic'
loop_
_space_group_symop_operation_xyz
x,y,z
-x,-y,-z
loop_
_atom_site_type_symbol
_atom_site_label
_atom_site_fract_x
_atom_site_fract_y
_atom_site_fract_z
Si Si1 0.539657 0.844408 0.603181
Si Si2 0.386408 0.635327 0.683637
Si Si3 0.123061 0.346135 0.462124
Si Si4 0.273616 0.697427 0.240895
Si Si5 0.188605 0.941357 0.327441
Si Si6 0.340391 0.030147 0.849747
Si Si7 0.347481 0.815390 0.977156
O O1 0.359194 0.816168 0.338456
O O2 0.626234 0.570507 0.643404
O O3 0.500000 0.000000 0.500000
O O4 0.670114 0.990985 0.920483
O O5 0.212283 0.678024 0.349986
O O6 0.352587 0.744214 0.748940
O O7 0.470281 0.347225 0.751850
O O8 0.501430 0.815022 0.871334
O O9 0.189460 0.633513 0.658377
O O10 0.229370 0.191173 0.522449
O O11 0.168410 0.194054 0.579655
O O12 0.921993 0.356849 0.117542
O O13 0.295593 0.897622 0.409823
O O14 0.000000 0.000000 0.000000
O O15 0.342941 0.996872 0.941550
#
# Coordination Sequence:
#
# PCOD8019847 Si02
#       7
#     2   2   2   2   2   2   2
#     4  11  25  41  60  83 112 159 204 235 277 340
#     4   9  17  31  52  83 120 149 184 232 285 346
#     4   9  21  38  61  92 118 144 187 242 296 345
#     4  10  22  42  60  81 120 159 191 234 287 342
#     4   9  17  35  61  85 116 153 184 229 293 347
#     4   9  18  32  53  84 118 149 181 233 296 341
#     4  11  21  35  59  87 113 148 196 241 285 337
#
# _framework density 21.108398000000001
#
# number of rings (size 3 to 8) (size 9 to 14) (size 15 to 20)
#    0.000    2.286    0.000    3.000    0.000    6.286 
#    0.000    1.429    0.000   12.000    0.000    0.000 
#    0.000    0.000    0.000    0.000    0.000    0.000 
#
# Total GULP energy -173470.328449 kJ/mol
# GULP energy per Si atom -12390.737746 kJ/mol
# Density = 2.106035 g / cm^3
# Si number density = 21.108398 Si / 1000 Ang^3
#
#
#
# Elastic Constant Matrix: (Units=GPa)
#
#
# Indices 1 2 3 4 5 6 
#
# 1 151.7431 60.5263 45.5472 -5.1536 -11.2509 11.2815
# 2 60.5263 82.1919 31.7622 1.1158 4.5259 11.2694
# 3 45.5472 31.7622 92.6136 -3.8793 -5.1187 3.6230
# 4 -5.1536 1.1158 -3.8793 33.4289 0.3285 -8.2317
# 5 -11.2509 4.5259 -5.1187 0.3285 26.9598 -8.6314
# 6 11.2815 11.2694 3.6230 -8.2317 -8.6314 38.2245
#
#
#
# Elastic Compliance Matrix: (Units=1/GPa)
#
#
# Indices 1 2 3 4 5 6 
#
# 1 0.010641 -0.007370 -0.002362 0.001774 0.005489 0.000878
# 2 -0.007370 0.020512 -0.003828 -0.003752 -0.009251 -0.006406
# 3 -0.002362 -0.003828 0.013430 0.001669 0.002672 0.001516
# 4 0.001774 -0.003752 0.001669 0.032517 0.003955 0.008320
# 5 0.005489 -0.009251 0.002672 0.003955 0.045209 0.011915
# 6 0.000878 -0.006406 0.001516 0.008320 0.011915 0.032129
#
#
# Mechanical properties :
#
#
# Convention : Reuss Voigt Hill
#
# Bulk Modulus (GPa) = 57.26411 66.91331 62.08871
# Shear Modulus (GPa) = 26.68394 32.30349 29.49372
#
# Velocity S-wave (km/s) = 3.55933 3.91623 3.74204
# Velocity P-wave (km/s) = 6.63922 7.22619 6.93891
#
# Compressibility (1/GPa) = 0.01746295
#
# Stress axis : x y z
#
# Youngs Moduli (GPa) = 93.97944 48.75286 74.45769
#
# Poissons Ratio (x) = 0.35929 0.17589
# Poissons Ratio (y) = 0.69259 0.28503
# Poissons Ratio (z) = 0.22201 0.18663
#
# Static dielectric constant tensor:
#      x y z
#    x 4.065220 -0.118920 -0.395890 
#    y -0.118920 3.908500 -0.297450 
#    z -0.395890 -0.297450 3.925820 
# 
# 
# High freq. dielectric constant tensor:
#      x y z
#    x 1.826210 -0.001370 -0.026140 
#    y -0.001370 1.824460 -0.018850 
#    z -0.026140 -0.018850 1.817170 
# 
# From -- ./inp_files/108945.got.cif
#   From: 2010.06.25/outbox.cif.g09.slc.cpg/sg2_55_cif.got.tgz:108945.got - 2010.06.27 13:26:56.
