data_PCOD8019863
_publ_section_title
;
Structure prediction by ZEFSAII (Michael W. Deem and Ramdas Pophale) SiO2 
 PCOD8019863
Probable space group: P -1
;
_chemical_formula_sum "Si O2"
_cell_formula_units_Z 16
_cell_length_a 19.885684
_cell_length_b 11.737867
_cell_length_c 9.993694
_cell_angle_alpha 77.962481
_cell_angle_beta 76.104574
_cell_angle_gamma 20.595170
_cell_volume 795.635671
_symmetry_space_group_name_H-M "P -1"
_symmetry_group_IT_number 2
_symmetry_cell_setting 'triclinic'
loop_
_space_group_symop_operation_xyz
x,y,z
-x,-y,-z
loop_
_atom_site_type_symbol
_atom_site_label
_atom_site_fract_x
_atom_site_fract_y
_atom_site_fract_z
Si Si1 0.186031 0.615207 0.246263
Si Si2 0.200282 0.354061 0.423696
Si Si3 0.611104 0.443820 0.479519
Si Si4 0.621493 0.695855 0.044851
Si Si5 0.567742 0.741601 0.541978
Si Si6 0.605085 0.128087 0.747088
Si Si7 0.879127 0.295876 0.280222
Si Si8 0.101569 0.136254 0.352873
O O1 0.119657 0.586886 0.314896
O O2 0.382277 0.323394 0.310078
O O3 0.234759 0.558319 0.081830
O O4 0.019864 0.965747 0.276818
O O5 0.043759 0.560335 0.559193
O O6 0.388348 0.101462 0.484455
O O7 0.255498 0.163588 0.345816
O O8 0.500000 0.500000 0.500000
O O9 0.505335 0.703095 0.563832
O O10 0.597899 0.522239 0.317833
O O11 0.818292 0.089164 0.528751
O O12 0.465676 0.834885 0.101122
O O13 0.741277 0.529238 0.162718
O O14 0.500000 0.000000 0.000000
O O15 0.759761 0.460760 0.431530
O O16 0.730874 0.044754 0.746584
O O17 0.997909 0.230344 0.258444
#
# Coordination Sequence:
#
# PCOD8019863 Si02
#       8
#     2   2   2   2   2   2   2   2
#     4  12  23  37  64  95 124 158 215 254 310 367
#     4  11  21  35  65  95 124 159 210 259 312 360
#     4   9  18  36  62  89 125 158 196 254 315 357
#     4  12  25  44  64  86 130 169 207 251 316 378
#     4  11  20  37  62  98 123 158 208 264 310 356
#     4  10  22  42  61  90 129 170 200 251 321 371
#     4  12  23  40  64  95 120 162 210 266 305 363
#     4  11  22  37  66  95 127 155 211 264 308 366
#
# _framework density 20.109705999999999
#
# number of rings (size 3 to 8) (size 9 to 14) (size 15 to 20)
#    0.000    1.000    6.250    2.250    1.750    0.000 
#    0.000    1.250    0.000    0.000    0.000    0.000 
#    0.000    0.000    0.000    0.000    0.000    0.000 
#
# Total GULP energy -198267.072440 kJ/mol
# GULP energy per Si atom -12391.692028 kJ/mol
# Density = 2.006394 g / cm^3
# Si number density = 20.109706 Si / 1000 Ang^3
#
#
#
# Elastic Constant Matrix: (Units=GPa)
#
#
# Indices 1 2 3 4 5 6 
#
# 1 98.2519 18.6380 40.5683 -9.2179 -8.9438 -6.6393
# 2 18.6380 91.9008 30.2387 -5.5489 -9.4508 5.0552
# 3 40.5683 30.2387 87.2046 -3.1359 -5.4466 -5.4233
# 4 -9.2179 -5.5489 -3.1359 29.1944 0.2897 -2.5450
# 5 -8.9438 -9.4508 -5.4466 0.2897 29.1611 -1.3132
# 6 -6.6393 5.0552 -5.4233 -2.5450 -1.3132 26.9952
#
#
#
# Elastic Compliance Matrix: (Units=1/GPa)
#
#
# Indices 1 2 3 4 5 6 
#
# 1 0.013378 -0.000504 -0.005555 0.003743 0.002989 0.002767
# 2 -0.000504 0.012948 -0.004198 0.001550 0.003103 -0.003095
# 3 -0.005555 -0.004198 0.015638 -0.000654 -0.000025 0.002499
# 4 0.003743 0.001550 -0.000654 0.035991 0.001349 0.003957
# 5 0.002989 0.003103 -0.000025 0.001349 0.036289 0.002042
# 6 0.002767 -0.003095 0.002499 0.003957 0.002042 0.039278
#
#
# Mechanical properties :
#
#
# Convention : Reuss Voigt Hill
#
# Bulk Modulus (GPa) = 46.62382 50.69415 48.65898
# Shear Modulus (GPa) = 27.59614 29.59763 28.59688
#
# Velocity S-wave (km/s) = 3.70845 3.84058 3.77509
# Velocity P-wave (km/s) = 6.44762 6.70300 6.57655
#
# Compressibility (1/GPa) = 0.02144826
#
# Stress axis : x y z
#
# Youngs Moduli (GPa) = 74.75233 77.23324 63.94804
#
# Poissons Ratio (x) = 0.03892 0.35525
# Poissons Ratio (y) = 0.03767 0.26847
# Poissons Ratio (z) = 0.41527 0.32424
#
# Static dielectric constant tensor:
#      x y z
#    x 3.872050 0.242860 -0.016480 
#    y 0.242860 4.031970 -0.364030 
#    z -0.016480 -0.364030 3.805830 
# 
# 
# High freq. dielectric constant tensor:
#      x y z
#    x 1.795710 0.012020 0.002540 
#    y 0.012020 1.795930 -0.015740 
#    z 0.002540 -0.015740 1.752880 
# 
# From -- ./inp_files/239155.got.cif
#   From: 2010.06.25/outbox.cif.g09.slc.cpg/sg2_120_cif.got.tgz:239155.got - 2010.06.27 13:26:56.
