data_PCOD8019240
_publ_section_title
;
Structure prediction by ZEFSAII (Michael W. Deem and Ramdas Pophale) SiO2 
 PCOD8019240
Probable space group: P -1
;
_chemical_formula_sum "Si O2"
_cell_formula_units_Z 16
_cell_length_a 27.914139
_cell_length_b 13.115494
_cell_length_c 9.484072
_cell_angle_alpha 33.531396
_cell_angle_beta 25.803925
_cell_angle_gamma 28.620255
_cell_volume 708.192531
_symmetry_space_group_name_H-M "P -1"
_symmetry_group_IT_number 2
_symmetry_cell_setting 'triclinic'
loop_
_space_group_symop_operation_xyz
x,y,z
-x,-y,-z
loop_
_atom_site_type_symbol
_atom_site_label
_atom_site_fract_x
_atom_site_fract_y
_atom_site_fract_z
Si Si1 0.028972 0.239407 0.637377
Si Si2 0.843103 0.702022 0.529475
Si Si3 0.854702 0.111971 0.703275
Si Si4 0.417688 0.249346 0.873571
Si Si5 0.330723 0.465180 0.147928
Si Si6 0.856191 0.703802 0.173938
Si Si7 0.535413 0.468838 0.777742
Si Si8 0.825325 0.193547 0.384146
O O1 0.138904 0.155459 0.565183
O O2 0.982202 0.472346 0.426600
O O3 0.088780 0.068368 0.550380
O O4 0.894169 0.282524 0.003566
O O5 0.833077 0.785247 0.303121
O O6 0.713089 0.704826 0.908293
O O7 0.760575 0.273012 0.889725
O O8 0.825429 0.260431 0.469824
O O9 0.000000 0.000000 0.500000
O O10 0.827138 0.930107 0.924981
O O11 0.491142 0.312122 0.489066
O O12 0.379371 0.414367 0.916723
O O13 0.500000 0.000000 0.000000
O O14 0.249381 0.352418 0.531697
O O15 0.454359 0.376469 0.025128
O O16 0.000000 0.500000 0.000000
O O17 0.685419 0.285096 0.581750
O O18 0.500000 0.500000 0.000000
#
# Coordination Sequence:
#
# PCOD8019240 Si02
#       8
#     2   2   2   2   2   2   2   2
#     4  10  22  41  69  98 136 179 233 294 373 426
#     4  10  22  41  66 100 131 178 230 299 355 434
#     4  12  24  43  73 106 144 189 236 301 370 438
#     4  11  27  49  72 103 145 196 254 301 365 450
#     4  11  27  45  73 103 144 201 243 303 368 439
#     4  11  23  42  67 106 143 177 241 293 360 436
#     4  12  26  49  71 103 149 193 248 303 370 444
#     4  11  24  43  67 101 140 185 237 300 366 436
#
# _framework density 22.592725000000002
#
# number of rings (size 3 to 8) (size 9 to 14) (size 15 to 20)
#    0.000    1.000    3.750    1.875    7.000    1.000 
#    2.250    1.250    0.000    0.000    0.000    0.000 
#    0.000    0.000    0.000    0.000    0.000    0.000 
#
# Total GULP energy -198276.147327 kJ/mol
# GULP energy per Si atom -12392.259208 kJ/mol
# Density = 2.254130 g / cm^3
# Si number density = 22.592725 Si / 1000 Ang^3
#
#
#
# Elastic Constant Matrix: (Units=GPa)
#
#
# Indices 1 2 3 4 5 6 
#
# 1 132.4832 25.1755 63.1368 13.1101 -21.2865 -6.9497
# 2 25.1755 94.1231 35.8365 -6.0447 6.5376 -2.8527
# 3 63.1368 35.8365 120.1564 5.4791 -9.7390 4.3113
# 4 13.1101 -6.0447 5.4791 21.5449 -0.9767 -5.7823
# 5 -21.2865 6.5376 -9.7390 -0.9767 51.1876 7.5090
# 6 -6.9497 -2.8527 4.3113 -5.7823 7.5090 32.9473
#
#
#
# Elastic Compliance Matrix: (Units=1/GPa)
#
#
# Indices 1 2 3 4 5 6 
#
# 1 0.011494 -0.001784 -0.004973 -0.005778 0.003798 0.001041
# 2 -0.001784 0.013267 -0.003710 0.006448 -0.003486 0.003184
# 3 -0.004973 -0.003710 0.012369 -0.002080 0.001253 -0.003640
# 4 -0.005778 0.006448 -0.002080 0.054811 -0.004067 0.010158
# 5 0.003798 -0.003486 0.001253 -0.004067 0.022531 -0.005513
# 6 0.001041 0.003184 -0.003640 0.010158 -0.005513 0.034362
#
#
# Mechanical properties :
#
#
# Convention : Reuss Voigt Hill
#
# Bulk Modulus (GPa) = 61.74823 66.11781 63.93302
# Shear Modulus (GPa) = 28.54403 35.97688 32.26045
#
# Velocity S-wave (km/s) = 3.55831 3.99483 3.78287
# Velocity P-wave (km/s) = 6.65376 7.11385 6.88765
#
# Compressibility (1/GPa) = 0.01619480
#
# Stress axis : x y z
#
# Youngs Moduli (GPa) = 87.00130 75.37506 80.84439
#
# Poissons Ratio (x) = 0.13448 0.40208
# Poissons Ratio (y) = 0.15522 0.29995
# Poissons Ratio (z) = 0.43270 0.27966
#
# Static dielectric constant tensor:
#      x y z
#    x 4.164810 0.079570 -0.129600 
#    y 0.079570 3.986860 0.044330 
#    z -0.129600 0.044330 4.254950 
# 
# 
# High freq. dielectric constant tensor:
#      x y z
#    x 1.899550 0.002270 -0.005840 
#    y 0.002270 1.880440 0.009480 
#    z -0.005840 0.009480 1.895700 
# 
# From -- ./inp_files/357030.got.cif
#   From: 2010.06.25/outbox.cif.g09.slc.cpg/sg2_179_cif.got.tgz:357030.got - 2010.06.27 13:26:56.
