data_PCOD8019686
_publ_section_title
;
Structure prediction by ZEFSAII (Michael W. Deem and Ramdas Pophale) SiO2 
 PCOD8019686
Probable space group: P -1
;
_chemical_formula_sum "Si O2"
_cell_formula_units_Z 16
_cell_length_a 23.169091
_cell_length_b 10.040140
_cell_length_c 20.790319
_cell_angle_alpha 30.586523
_cell_angle_beta 17.078034
_cell_angle_gamma 33.143618
_cell_volume 719.332462
_symmetry_space_group_name_H-M "P -1"
_symmetry_group_IT_number 2
_symmetry_cell_setting 'triclinic'
loop_
_space_group_symop_operation_xyz
x,y,z
-x,-y,-z
loop_
_atom_site_type_symbol
_atom_site_label
_atom_site_fract_x
_atom_site_fract_y
_atom_site_fract_z
Si Si1 0.215022 0.848676 0.637598
Si Si2 0.986512 0.227849 0.330838
Si Si3 0.703114 0.459029 0.446146
Si Si4 0.725453 0.008807 0.239252
Si Si5 0.895979 0.356540 0.516930
Si Si6 0.462770 0.328801 0.172594
Si Si7 0.742329 0.378377 0.173693
Si Si8 0.160686 0.770995 0.102293
O O1 0.226350 0.620109 0.667626
O O2 0.281801 0.713844 0.689642
O O3 0.363270 0.064568 0.370532
O O4 0.991479 0.976710 0.825780
O O5 0.779041 0.230366 0.511597
O O6 0.947507 0.369106 0.381832
O O7 0.090958 0.937430 0.348542
O O8 0.127453 0.380186 0.071691
O O9 0.812845 0.715747 0.245957
O O10 0.469362 0.516215 0.674161
O O11 0.500000 0.000000 0.500000
O O12 0.829489 0.124870 0.143304
O O13 0.742575 0.206739 0.079725
O O14 0.675449 0.495047 0.703580
O O15 0.049413 0.507708 0.331835
O O16 0.500000 0.500000 0.000000
O O17 0.673442 0.244397 0.014151
#
# Coordination Sequence:
#
# PCOD8019686 Si02
#       8
#     2   2   2   2   2   2   2   2
#     4  11  27  45  68 108 139 180 238 281 343 423
#     4  11  25  43  71 102 139 178 230 287 347 404
#     4  11  26  41  71 101 144 178 228 285 347 413
#     4  10  22  41  70 103 130 179 226 280 346 411
#     4  10  26  45  67 107 134 179 240 282 335 421
#     4  11  27  45  74  96 140 187 229 281 346 411
#     4  11  24  44  73 101 142 181 226 291 350 404
#     4  11  24  45  73  96 140 181 231 288 342 404
#
# _framework density 22.242843000000001
#
# number of rings (size 3 to 8) (size 9 to 14) (size 15 to 20)
#    0.000    1.250    1.250    2.625   12.250    4.000 
#    0.000    2.500    0.000    0.000    0.000    0.000 
#    0.000    0.000    0.000    0.000    0.000    0.000 
#
# Total GULP energy -198440.103455 kJ/mol
# GULP energy per Si atom -12402.506466 kJ/mol
# Density = 2.219222 g / cm^3
# Si number density = 22.242843 Si / 1000 Ang^3
#
#
#
# Elastic Constant Matrix: (Units=GPa)
#
#
# Indices 1 2 3 4 5 6 
#
# 1 120.9996 44.3239 27.0558 -0.0010 -1.6159 -1.6496
# 2 44.3239 99.4379 39.2545 2.3510 -1.2896 14.4274
# 3 27.0558 39.2545 100.1122 -7.3934 5.1218 -5.4741
# 4 -0.0010 2.3510 -7.3934 31.6082 -11.9477 1.7142
# 5 -1.6159 -1.2896 5.1218 -11.9477 37.0682 5.9990
# 6 -1.6496 14.4274 -5.4741 1.7142 5.9990 43.4583
#
#
#
# Elastic Compliance Matrix: (Units=1/GPa)
#
#
# Indices 1 2 3 4 5 6 
#
# 1 0.010102 -0.004386 -0.000920 0.000082 0.000167 0.001697
# 2 -0.004386 0.014981 -0.005199 -0.001420 0.001554 -0.005953
# 3 -0.000920 -0.005199 0.012739 0.002529 -0.001721 0.003433
# 4 0.000082 -0.001420 0.002529 0.036954 0.011889 -0.002305
# 5 0.000167 0.001554 -0.001721 0.011889 0.032017 -0.005615
# 6 0.001697 -0.005953 0.003433 -0.002305 -0.005615 0.026350
#
#
# Mechanical properties :
#
#
# Convention : Reuss Voigt Hill
#
# Bulk Modulus (GPa) = 59.47966 60.20200 59.84083
# Shear Modulus (GPa) = 31.29767 36.42132 33.85950
#
# Velocity S-wave (km/s) = 3.75519 4.05092 3.90585
# Velocity P-wave (km/s) = 6.75285 7.00032 6.87770
#
# Compressibility (1/GPa) = 0.01681247
#
# Stress axis : x y z
#
# Youngs Moduli (GPa) = 98.98859 66.74986 78.50174
#
# Poissons Ratio (x) = 0.29275 0.07223
# Poissons Ratio (y) = 0.43414 0.40812
# Poissons Ratio (z) = 0.09108 0.34702
#
# Static dielectric constant tensor:
#      x y z
#    x 4.066690 0.121180 -0.022420 
#    y 0.121180 4.291090 0.066470 
#    z -0.022420 0.066470 4.038220 
# 
# 
# High freq. dielectric constant tensor:
#      x y z
#    x 1.881150 0.001210 -0.002710 
#    y 0.001210 1.886270 0.007050 
#    z -0.002710 0.007050 1.881060 
# 
# From -- ./inp_files/577540.got.cif
#   From: 2010.06.25/outbox.cif.g09.slc.cpg/sg2_289_cif.got.tgz:577540.got - 2010.06.27 13:26:56.
