data_PCOD8019585
_publ_section_title
;
Structure prediction by ZEFSAII (Michael W. Deem and Ramdas Pophale) SiO2 
 PCOD8019585
Probable space group: P -1
;
_chemical_formula_sum "Si O2"
_cell_formula_units_Z 12
_cell_length_a 8.101513
_cell_length_b 8.709243
_cell_length_c 13.522789
_cell_angle_alpha 135.535181
_cell_angle_beta 118.626354
_cell_angle_gamma 91.720968
_cell_volume 467.128179
_symmetry_space_group_name_H-M "P -1"
_symmetry_group_IT_number 2
_symmetry_cell_setting 'triclinic'
loop_
_space_group_symop_operation_xyz
x,y,z
-x,-y,-z
loop_
_atom_site_type_symbol
_atom_site_label
_atom_site_fract_x
_atom_site_fract_y
_atom_site_fract_z
Si Si1 0.697649 0.603792 0.226525
Si Si2 0.810530 0.656201 0.070742
Si Si3 0.501294 0.782038 0.695996
Si Si4 0.803682 0.318277 0.278217
Si Si5 0.491644 0.083368 0.646340
Si Si6 0.887237 0.836176 0.737408
O O1 0.857353 0.663029 0.203913
O O2 0.802554 0.529552 0.307826
O O3 0.712572 0.873387 0.383029
O O4 0.421240 0.348221 0.009471
O O5 0.748595 0.375574 0.875738
O O6 0.037452 0.924055 0.208590
O O7 0.447833 0.891543 0.830231
O O8 0.772373 0.883230 0.820615
O O9 0.327132 0.451042 0.505053
O O10 0.441670 0.862975 0.613143
O O11 0.000000 0.500000 0.500000
O O12 0.887472 0.159291 0.169142
O O13 0.500000 0.000000 0.500000
#
# Coordination Sequence:
#
# PCOD8019585 Si02
#       6
#     2   2   2   2   2   2
#     4   9  21  43  72 102 139 186 238 295 346 427
#     4   9  21  44  70 103 137 186 242 286 356 424
#     4  10  23  43  65 100 148 176 238 296 343 432
#     4  10  22  42  70 101 142 187 232 290 359 422
#     4  10  22  41  70  97 141 186 230 297 351 405
#     4  10  22  41  69 100 139 186 231 287 362 418
#
# _framework density 25.688879
#
# number of rings (size 3 to 8) (size 9 to 14) (size 15 to 20)
#    1.000    1.333    0.000    1.000    7.000    1.333 
#    6.000   10.000    0.000    0.000    0.000    0.000 
#    0.000    0.000    0.000    0.000    0.000    0.000 
#
# Total GULP energy -148677.670348 kJ/mol
# GULP energy per Si atom -12389.805862 kJ/mol
# Density = 2.563041 g / cm^3
# Si number density = 25.688879 Si / 1000 Ang^3
#
#
#
# Elastic Constant Matrix: (Units=GPa)
#
#
# Indices 1 2 3 4 5 6 
#
# 1 228.1893 77.1665 37.9792 0.3345 -19.4700 16.9717
# 2 77.1665 177.4372 55.4509 6.4107 -8.7207 7.9929
# 3 37.9792 55.4509 54.4846 10.7806 -10.4614 11.7983
# 4 0.3345 6.4107 10.7806 35.6294 5.7082 11.7666
# 5 -19.4700 -8.7207 -10.4614 5.7082 43.8997 2.9634
# 6 16.9717 7.9929 11.7983 11.7666 2.9634 43.2967
#
#
#
# Elastic Compliance Matrix: (Units=1/GPa)
#
#
# Indices 1 2 3 4 5 6 
#
# 1 0.005523 -0.001806 -0.001494 0.001053 0.001721 -0.001829
# 2 -0.001806 0.008929 -0.008487 0.000763 -0.001233 0.001249
# 3 -0.001494 -0.008487 0.031845 -0.007515 0.006550 -0.004931
# 4 0.001053 0.000763 -0.007515 0.033388 -0.005025 -0.007236
# 5 0.001721 -0.001233 0.006550 -0.005025 0.025689 -0.002625
# 6 -0.001829 0.001249 -0.004931 -0.007236 -0.002625 0.027072
#
#
# Mechanical properties :
#
#
# Convention : Reuss Voigt Hill
#
# Bulk Modulus (GPa) = 44.00658 89.03380 66.52019
# Shear Modulus (GPa) = 30.56345 43.86612 37.21478
#
# Velocity S-wave (km/s) = 3.45302 4.13678 3.81027
# Velocity P-wave (km/s) = 5.75027 7.58624 6.73115
#
# Compressibility (1/GPa) = 0.02272387
#
# Stress axis : x y z
#
# Youngs Moduli (GPa) = 181.05914 111.99403 31.40239
#
# Poissons Ratio (x) = 0.20229 0.04690
# Poissons Ratio (y) = 0.32705 0.26650
# Poissons Ratio (z) = 0.27041 0.95046
#
# Static dielectric constant tensor:
#      x y z
#    x 6.133510 -0.009960 -0.113950 
#    y -0.009960 4.337320 0.171670 
#    z -0.113950 0.171670 4.087500 
# 
# 
# High freq. dielectric constant tensor:
#      x y z
#    x 2.051590 0.001410 -0.001860 
#    y 0.001410 2.021420 0.010630 
#    z -0.001860 0.010630 1.994010 
# 
# From -- ./inp_files/493960.got.cif
#   From: 2010.06.25/outbox.cif.g09.slc.cpg/sg2_247_cif.got.tgz:493960.got - 2010.06.27 13:26:56.
