data_PCOD8019360
_publ_section_title
;
Structure prediction by ZEFSAII (Michael W. Deem and Ramdas Pophale) SiO2 
 PCOD8019360
Probable space group: P -1
;
_chemical_formula_sum "Si O2"
_cell_formula_units_Z 16
_cell_length_a 12.457548
_cell_length_b 14.220882
_cell_length_c 8.901136
_cell_angle_alpha 57.859433
_cell_angle_beta 34.084330
_cell_angle_gamma 45.796462
_cell_volume 629.441417
_symmetry_space_group_name_H-M "P -1"
_symmetry_group_IT_number 2
_symmetry_cell_setting 'triclinic'
loop_
_space_group_symop_operation_xyz
x,y,z
-x,-y,-z
loop_
_atom_site_type_symbol
_atom_site_label
_atom_site_fract_x
_atom_site_fract_y
_atom_site_fract_z
Si Si1 0.897716 0.867798 0.827282
Si Si2 0.677274 0.182315 0.476716
Si Si3 0.513747 0.357317 0.041701
Si Si4 0.037986 0.221384 0.494282
Si Si5 0.316591 0.334132 0.013023
Si Si6 0.871289 0.430435 0.159755
Si Si7 0.567703 0.999297 0.594313
Si Si8 0.503463 0.567477 0.701228
O O1 0.912896 0.874213 0.623961
O O2 0.071729 0.902918 0.668798
O O3 0.961506 0.723622 0.935706
O O4 0.643355 0.974773 0.081982
O O5 0.482955 0.226082 0.789815
O O6 0.637320 0.105628 0.456504
O O7 0.662254 0.313705 0.318899
O O8 0.436340 0.285062 0.079104
O O9 0.394056 0.505767 0.984125
O O10 0.786718 0.282741 0.794390
O O11 0.417119 0.368653 0.313361
O O12 0.212297 0.140975 0.495718
O O13 0.085163 0.333578 0.286885
O O14 0.268853 0.480256 0.900484
O O15 0.704430 0.446812 0.475098
O O16 0.000000 0.500000 0.000000
O O17 0.500000 0.000000 0.500000
#
# Coordination Sequence:
#
# PCOD8019360 Si02
#       8
#     2   2   2   2   2   2   2   2
#     4  12  23  45  75 100 135 181 233 280 335 414
#     4  11  24  44  74 100 133 185 228 280 348 401
#     4  11  23  42  67 105 146 178 216 282 343 410
#     4  12  25  46  69  99 134 185 235 276 338 401
#     4  11  22  41  72 106 140 178 222 280 337 420
#     4  11  19  41  72 107 143 178 224 272 345 416
#     4  12  31  49  66  97 138 181 239 296 337 400
#     4  10  22  41  67 106 145 171 220 275 343 418
#
# _framework density 25.419362
#
# number of rings (size 3 to 8) (size 9 to 14) (size 15 to 20)
#    0.000    0.750    5.000    1.875    3.500    4.000 
#    0.000    3.125    0.000    0.000    0.000    0.000 
#    0.000    0.000    0.000    0.000    0.000    0.000 
#
# Total GULP energy -198318.040861 kJ/mol
# GULP energy per Si atom -12394.877554 kJ/mol
# Density = 2.536151 g / cm^3
# Si number density = 25.419362 Si / 1000 Ang^3
#
#
#
# Elastic Constant Matrix: (Units=GPa)
#
#
# Indices 1 2 3 4 5 6 
#
# 1 161.9418 6.7433 19.8823 16.4970 5.2831 -11.5412
# 2 6.7433 56.4859 -1.1812 4.8282 -2.4246 -1.8583
# 3 19.8823 -1.1812 41.0120 14.4345 -4.6481 -7.2571
# 4 16.4970 4.8282 14.4345 27.3614 2.0771 0.8418
# 5 5.2831 -2.4246 -4.6481 2.0771 46.0300 -1.3972
# 6 -11.5412 -1.8583 -7.2571 0.8418 -1.3972 31.2122
#
#
#
# Elastic Compliance Matrix: (Units=1/GPa)
#
#
# Indices 1 2 3 4 5 6 
#
# 1 0.006933 -0.000581 -0.002045 -0.003000 -0.000834 0.002097
# 2 -0.000581 0.018353 0.002921 -0.004604 0.001589 0.001752
# 3 -0.002045 0.002921 0.033609 -0.017622 0.004818 0.007923
# 4 -0.003000 -0.004604 -0.017622 0.048992 -0.004100 -0.006985
# 5 -0.000834 0.001589 0.004818 -0.004100 0.022638 0.002031
# 6 0.002097 0.001752 0.007923 -0.006985 0.002031 0.035040
#
#
# Mechanical properties :
#
#
# Convention : Reuss Voigt Hill
#
# Bulk Modulus (GPa) = 16.81118 34.48094 25.64606
# Shear Modulus (GPa) = 27.05587 36.52040 31.78813
#
# Velocity S-wave (km/s) = 3.26602 3.79452 3.54015
# Velocity P-wave (km/s) = 4.56623 5.72644 5.17892
#
# Compressibility (1/GPa) = 0.05948424
#
# Stress axis : x y z
#
# Youngs Moduli (GPa) = 144.24690 54.48600 29.75387
#
# Poissons Ratio (x) = 0.03165 0.06086
# Poissons Ratio (y) = 0.08378 -0.08690
# Poissons Ratio (z) = 0.29503 -0.15914
#
# Static dielectric constant tensor:
#      x y z
#    x 5.445730 -0.311320 0.125710 
#    y -0.311320 4.621450 -0.033750 
#    z 0.125710 -0.033750 4.238160 
# 
# 
# High freq. dielectric constant tensor:
#      x y z
#    x 2.047650 -0.005060 -0.001940 
#    y -0.005060 2.005870 -0.004200 
#    z -0.001940 -0.004200 1.986030 
# 
# From -- ./inp_files/272308.got.cif
#   From: 2010.06.25/outbox.cif.g09.slc.cpg/sg2_137_cif.got.tgz:272308.got - 2010.06.27 13:26:56.
