data_PCOD8019975
_publ_section_title
;
Structure prediction by ZEFSAII (Michael W. Deem and Ramdas Pophale) SiO2 
 PCOD8019975
Probable space group: P -1
;
_chemical_formula_sum "Si O2"
_cell_formula_units_Z 16
_cell_length_a 12.497807
_cell_length_b 9.414189
_cell_length_c 18.644479
_cell_angle_alpha 128.822596
_cell_angle_beta 39.032084
_cell_angle_gamma 98.709410
_cell_volume 785.208620
_symmetry_space_group_name_H-M "P -1"
_symmetry_group_IT_number 2
_symmetry_cell_setting 'triclinic'
loop_
_space_group_symop_operation_xyz
x,y,z
-x,-y,-z
loop_
_atom_site_type_symbol
_atom_site_label
_atom_site_fract_x
_atom_site_fract_y
_atom_site_fract_z
Si Si1 0.102553 0.015072 0.284640
Si Si2 0.916986 0.491865 0.152479
Si Si3 0.555086 0.747488 0.887031
Si Si4 0.938817 0.729541 0.477732
Si Si5 0.663661 0.891874 0.285926
Si Si6 0.509156 0.578440 0.441903
Si Si7 0.843143 0.853972 0.405390
Si Si8 0.725023 0.528253 0.577447
O O1 0.139072 0.052230 0.359169
O O2 0.978349 0.271347 0.388276
O O3 0.938361 0.959646 0.347424
O O4 0.348863 0.789279 0.047699
O O5 0.759319 0.725939 0.254537
O O6 0.776299 0.416797 0.228023
O O7 0.968889 0.581583 0.222397
O O8 0.156544 0.251275 0.918187
O O9 0.794409 0.523883 0.730865
O O10 0.561597 0.679183 0.779426
O O11 0.500000 0.000000 0.000000
O O12 0.905984 0.831027 0.448008
O O13 0.765406 0.686979 0.565292
O O14 0.625855 0.131132 0.398064
O O15 0.433431 0.955604 0.401111
O O16 0.500000 0.500000 0.500000
O O17 0.397246 0.522156 0.427149
#
# Coordination Sequence:
#
# PCOD8019975 Si02
#       8
#     2   2   2   2   2   2   2   2
#     4  11  22  39  63  87 120 158 204 248 296 362
#     4  10  22  42  64  89 121 163 210 248 300 365
#     4  11  21  41  61  87 119 157 204 249 289 358
#     4  11  23  39  59  89 125 156 198 251 303 360
#     4  10  22  43  65  84 124 162 206 256 294 364
#     4  11  23  40  60  95 129 157 200 256 307 362
#     4  11  23  39  61  92 121 159 197 253 313 354
#     4  11  21  38  65  86 116 165 205 237 302 363
#
# _framework density 20.376750999999999
#
# number of rings (size 3 to 8) (size 9 to 14) (size 15 to 20)
#    0.000    1.250    2.500    5.625    0.000    7.000 
#    2.250    0.000    0.000    0.000    0.000    0.000 
#    0.000    0.000    0.000    0.000    0.000    0.000 
#
# Total GULP energy -198475.433533 kJ/mol
# GULP energy per Si atom -12404.714596 kJ/mol
# Density = 2.033037 g / cm^3
# Si number density = 20.376751 Si / 1000 Ang^3
#
#
#
# Elastic Constant Matrix: (Units=GPa)
#
#
# Indices 1 2 3 4 5 6 
#
# 1 113.0288 31.5992 50.5798 -12.5046 12.0884 11.9231
# 2 31.5992 77.9204 45.9711 -28.2857 -8.8226 14.3439
# 3 50.5798 45.9711 144.0374 -26.5379 4.2682 9.6763
# 4 -12.5046 -28.2857 -26.5379 28.6581 -0.4837 0.9960
# 5 12.0884 -8.8226 4.2682 -0.4837 21.8406 -6.2944
# 6 11.9231 14.3439 9.6763 0.9960 -6.2944 38.3826
#
#
#
# Elastic Compliance Matrix: (Units=1/GPa)
#
#
# Indices 1 2 3 4 5 6 
#
# 1 0.012435 -0.004474 -0.002770 -0.001606 -0.009029 -0.002931
# 2 -0.004474 0.027223 -0.002867 0.022704 0.012641 -0.006577
# 3 -0.002770 -0.002867 0.009892 0.005126 -0.001726 -0.000978
# 4 -0.001606 0.022704 0.005126 0.061814 0.007653 -0.009627
# 5 -0.009029 0.012641 -0.001726 0.007653 0.058685 0.007941
# 6 -0.002931 -0.006577 -0.000978 -0.009627 0.007941 0.031221
#
#
# Mechanical properties :
#
#
# Convention : Reuss Voigt Hill
#
# Bulk Modulus (GPa) = 34.09753 65.69852 49.89803
# Shear Modulus (GPa) = 21.61993 31.56537 26.59265
#
# Velocity S-wave (km/s) = 3.26085 3.94011 3.61646
# Velocity P-wave (km/s) = 5.56304 7.28088 6.47914
#
# Compressibility (1/GPa) = 0.02932763
#
# Stress axis : x y z
#
# Youngs Moduli (GPa) = 80.41901 36.73300 101.09421
#
# Poissons Ratio (x) = 0.16435 0.28003
# Poissons Ratio (y) = 0.35980 0.28986
# Poissons Ratio (z) = 0.22276 0.10532
#
# Static dielectric constant tensor:
#      x y z
#    x 3.504270 0.175580 0.034510 
#    y 0.175580 3.634170 -0.141230 
#    z 0.034510 -0.141230 3.843690 
# 
# 
# High freq. dielectric constant tensor:
#      x y z
#    x 1.802680 0.007470 0.010590 
#    y 0.007470 1.800940 -0.015720 
#    z 0.010590 -0.015720 1.799660 
# 
# From -- ./inp_files/566923.got.cif
#   From: 2010.06.25/outbox.cif.g09.slc.cpg/sg2_284_cif.got.tgz:566923.got - 2010.06.27 13:26:56.
