data_PCOD8019101
_publ_section_title
;
Structure prediction by ZEFSAII (Michael W. Deem and Ramdas Pophale) SiO2 
 PCOD8019101
Probable space group: P -1
;
_chemical_formula_sum "Si O2"
_cell_formula_units_Z 16
_cell_length_a 16.186337
_cell_length_b 22.027154
_cell_length_c 11.243420
_cell_angle_alpha 146.429852
_cell_angle_beta 132.820827
_cell_angle_gamma 22.191733
_cell_volume 752.069758
_symmetry_space_group_name_H-M "P -1"
_symmetry_group_IT_number 2
_symmetry_cell_setting 'triclinic'
loop_
_space_group_symop_operation_xyz
x,y,z
-x,-y,-z
loop_
_atom_site_type_symbol
_atom_site_label
_atom_site_fract_x
_atom_site_fract_y
_atom_site_fract_z
Si Si1 0.265406 0.982760 0.439625
Si Si2 0.792668 0.789137 0.683209
Si Si3 0.032532 0.407554 0.001116
Si Si4 0.697109 0.649229 0.459809
Si Si5 0.500615 0.827455 0.173151
Si Si6 0.503357 0.338874 0.300329
Si Si7 0.892210 0.138489 0.244117
Si Si8 0.441803 0.191061 0.165960
O O1 0.155281 0.182999 0.728417
O O2 0.087606 0.032464 0.344469
O O3 0.518216 0.726107 0.332464
O O4 0.313334 0.970782 0.329784
O O5 0.795044 0.655146 0.471000
O O6 0.063531 0.609880 0.663801
O O7 0.630529 0.970031 0.709760
O O8 0.665971 0.927463 0.908939
O O9 0.187220 0.352084 0.147820
O O10 0.000000 0.500000 0.000000
O O11 0.763055 0.636747 0.169726
O O12 0.527421 0.835989 0.706805
O O13 0.566402 0.662856 0.892597
O O14 0.781624 0.139412 0.223723
O O15 0.326222 0.592522 0.567042
O O16 0.471883 0.287099 0.297788
O O17 0.000000 0.000000 0.000000
#
# Coordination Sequence:
#
# PCOD8019101 Si02
#       8
#     2   2   2   2   2   2   2   2
#     4  12  25  40  63  97 125 166 211 262 317 367
#     4  10  23  39  57  89 130 173 207 241 307 382
#     4  12  22  36  61  97 126 160 211 258 312 373
#     4  11  25  39  57  91 134 176 204 246 310 387
#     4  11  23  38  63  95 124 161 213 266 302 373
#     4  10  22  41  64  98 117 161 214 258 324 366
#     4  11  22  41  68  94 124 154 211 277 318 355
#     4  11  23  41  62  88 134 173 200 254 319 377
#
# _framework density 21.274623999999999
#
# number of rings (size 3 to 8) (size 9 to 14) (size 15 to 20)
#    0.000    1.000    6.250    0.375    7.000    1.000 
#    0.000    0.625    0.000    5.250    0.000    0.000 
#    0.000    0.000    0.000    0.000    0.000    0.000 
#
# Total GULP energy -198262.272106 kJ/mol
# GULP energy per Si atom -12391.392007 kJ/mol
# Density = 2.122620 g / cm^3
# Si number density = 21.274624 Si / 1000 Ang^3
#
#
#
# Elastic Constant Matrix: (Units=GPa)
#
#
# Indices 1 2 3 4 5 6 
#
# 1 91.7454 41.5118 27.0119 -13.4907 -1.3342 -15.6620
# 2 41.5118 117.3215 38.7368 -9.0649 -4.7093 -20.3788
# 3 27.0119 38.7368 53.2481 -2.3385 5.9550 -0.2809
# 4 -13.4907 -9.0649 -2.3385 33.1775 -3.9412 -0.2866
# 5 -1.3342 -4.7093 5.9550 -3.9412 28.6054 -5.9664
# 6 -15.6620 -20.3788 -0.2809 -0.2866 -5.9664 33.9995
#
#
#
# Elastic Compliance Matrix: (Units=1/GPa)
#
#
# Indices 1 2 3 4 5 6 
#
# 1 0.015841 -0.001275 -0.007293 0.006167 0.004420 0.007301
# 2 -0.001275 0.014668 -0.010599 0.003657 0.007022 0.009380
# 3 -0.007293 -0.010599 0.031212 -0.005152 -0.011702 -0.011552
# 4 0.006167 0.003657 -0.005152 0.034303 0.008086 0.006699
# 5 0.004420 0.007022 -0.011702 0.008086 0.042731 0.013715
# 6 0.007301 0.009380 -0.011552 0.006699 0.013715 0.040765
#
#
# Mechanical properties :
#
#
# Convention : Reuss Voigt Hill
#
# Bulk Modulus (GPa) = 42.76013 52.98178 47.87096
# Shear Modulus (GPa) = 22.15799 29.49343 25.82571
#
# Velocity S-wave (km/s) = 3.23076 3.72737 3.48792
# Velocity P-wave (km/s) = 5.83608 6.59410 6.22664
#
# Compressibility (1/GPa) = 0.02338627
#
# Stress axis : x y z
#
# Youngs Moduli (GPa) = 63.12572 68.17520 32.03891
#
# Poissons Ratio (x) = 0.08692 0.23368
# Poissons Ratio (y) = 0.08049 0.33958
# Poissons Ratio (z) = 0.46041 0.72260
#
# Static dielectric constant tensor:
#      x y z
#    x 3.312520 1.229840 -0.599210 
#    y 1.229840 -0.057610 1.307150 
#    z -0.599210 1.307150 3.476330 
# 
# 
# High freq. dielectric constant tensor:
#      x y z
#    x 1.829350 -0.015670 -0.022830 
#    y -0.015670 1.836780 0.004770 
#    z -0.022830 0.004770 1.826030 
# 
# From -- ./inp_files/467477.got.cif
#   From: 2010.06.25/outbox.cif.g09.slc.cpg/sg2_234_cif.got.tgz:467477.got - 2010.06.27 13:26:56.
