data_PCOD8019069
_publ_section_title
;
Structure prediction by ZEFSAII (Michael W. Deem and Ramdas Pophale) SiO2 
 PCOD8019069
Probable space group: P -1
;
_chemical_formula_sum "Si O2"
_cell_formula_units_Z 14
_cell_length_a 9.209035
_cell_length_b 6.354092
_cell_length_c 30.363370
_cell_angle_alpha 130.962229
_cell_angle_beta 152.981134
_cell_angle_gamma 56.137682
_cell_volume 607.635159
_symmetry_space_group_name_H-M "P -1"
_symmetry_group_IT_number 2
_symmetry_cell_setting 'triclinic'
loop_
_space_group_symop_operation_xyz
x,y,z
-x,-y,-z
loop_
_atom_site_type_symbol
_atom_site_label
_atom_site_fract_x
_atom_site_fract_y
_atom_site_fract_z
Si Si1 0.348357 0.819371 0.030680
Si Si2 0.832546 0.573135 0.920599
Si Si3 0.091155 0.511606 0.840486
Si Si4 0.506398 0.832862 0.339574
Si Si5 0.802200 0.722361 0.316848
Si Si6 0.800917 0.749176 0.496078
Si Si7 0.201231 0.402807 0.319054
O O1 0.700309 0.754263 0.133030
O O2 0.333732 0.139366 0.082020
O O3 0.278044 0.770305 0.952779
O O4 0.092882 0.602643 0.956430
O O5 0.564487 0.320923 0.804763
O O6 0.000000 0.500000 0.000000
O O7 0.742527 0.435921 0.756924
O O8 0.047832 0.584057 0.787294
O O9 0.773486 0.739015 0.364432
O O10 0.679896 0.911388 0.443016
O O11 0.327412 0.097745 0.311218
O O12 0.010481 0.472996 0.321770
O O13 0.967037 0.018401 0.383427
O O14 0.501553 0.634841 0.429054
O O15 0.000000 0.500000 0.500000
#
# Coordination Sequence:
#
# PCOD8019069 Si02
#       7
#     2   2   2   2   2   2   2
#     4  10  22  41  64  93 134 174 218 272 323 387
#     4  11  24  40  64 101 128 172 224 266 328 390
#     4  10  22  43  66  94 135 175 216 272 328 387
#     4  11  24  45  69 100 132 173 222 270 331 395
#     4  12  24  45  68  98 134 172 220 279 321 388
#     4  11  25  47  69  98 135 173 218 272 338 394
#     4  11  25  44  68 101 131 175 222 268 335 396
#
# _framework density 23.040141999999999
#
# number of rings (size 3 to 8) (size 9 to 14) (size 15 to 20)
#    0.000    1.143    2.857    2.571    2.000    0.571 
#    7.714    3.571    0.000    0.000    0.000    0.000 
#    0.000    0.000    0.000    0.000    0.000    0.000 
#
# Total GULP energy -173593.957469 kJ/mol
# GULP energy per Si atom -12399.568391 kJ/mol
# Density = 2.298770 g / cm^3
# Si number density = 23.040142 Si / 1000 Ang^3
#
#
#
# Elastic Constant Matrix: (Units=GPa)
#
#
# Indices 1 2 3 4 5 6 
#
# 1 111.8444 30.1571 10.5130 1.9398 8.5068 -18.4771
# 2 30.1571 58.6067 22.1900 -12.1248 -7.8916 3.4152
# 3 10.5130 22.1900 117.4106 5.0698 9.6245 9.0235
# 4 1.9398 -12.1248 5.0698 26.5087 -5.6796 1.4704
# 5 8.5068 -7.8916 9.6245 -5.6796 24.0775 -3.6208
# 6 -18.4771 3.4152 9.0235 1.4704 -3.6208 29.3570
#
#
#
# Elastic Compliance Matrix: (Units=1/GPa)
#
#
# Indices 1 2 3 4 5 6 
#
# 1 0.014537 -0.012020 0.001542 -0.009635 -0.010574 0.009252
# 2 -0.012020 0.034645 -0.007811 0.023599 0.023160 -0.007521
# 3 0.001542 -0.007811 0.011174 -0.007783 -0.009764 -0.002370
# 4 -0.009635 0.023599 -0.007783 0.056772 0.026745 -0.005962
# 5 -0.010574 0.023160 -0.009764 0.026745 0.063085 0.000093
# 6 0.009252 -0.007521 -0.002370 -0.005962 0.000093 0.041800
#
#
# Mechanical properties :
#
#
# Convention : Reuss Voigt Hill
#
# Bulk Modulus (GPa) = 42.05799 45.95355 44.00577
# Shear Modulus (GPa) = 18.76051 30.98875 24.87463
#
# Velocity S-wave (km/s) = 2.85661 3.67139 3.28932
# Velocity P-wave (km/s) = 5.40131 6.16120 5.79373
#
# Compressibility (1/GPa) = 0.02377669
#
# Stress axis : x y z
#
# Youngs Moduli (GPa) = 68.78965 28.86437 89.49478
#
# Poissons Ratio (x) = 0.34696 -0.13799
# Poissons Ratio (y) = 0.82688 0.69904
# Poissons Ratio (z) = -0.10607 0.22546
#
# Static dielectric constant tensor:
#      x y z
#    x 4.287870 -0.033560 0.145320 
#    y -0.033560 3.903690 -0.055280 
#    z 0.145320 -0.055280 4.410150 
# 
# 
# High freq. dielectric constant tensor:
#      x y z
#    x 1.913130 -0.009140 0.012190 
#    y -0.009140 1.891570 0.000410 
#    z 0.012190 0.000410 1.928450 
# 
# From -- ./inp_files/31852.got.cif
#   From: 2010.06.25/outbox.cif.g09.slc.cpg/sg2_16_cif.got.tgz:31852.got - 2010.06.27 13:26:56.
