data_PCOD8019523
_publ_section_title
;
Structure prediction by ZEFSAII (Michael W. Deem and Ramdas Pophale) SiO2 
 PCOD8019523
Probable space group: P -1
;
_chemical_formula_sum "Si O2"
_cell_formula_units_Z 16
_cell_length_a 20.847879
_cell_length_b 8.917140
_cell_length_c 12.249958
_cell_angle_alpha 36.479621
_cell_angle_beta 43.378263
_cell_angle_gamma 70.136552
_cell_volume 744.530166
_symmetry_space_group_name_H-M "P -1"
_symmetry_group_IT_number 2
_symmetry_cell_setting 'triclinic'
loop_
_space_group_symop_operation_xyz
x,y,z
-x,-y,-z
loop_
_atom_site_type_symbol
_atom_site_label
_atom_site_fract_x
_atom_site_fract_y
_atom_site_fract_z
Si Si1 0.946792 0.217325 0.146802
Si Si2 0.474620 0.225920 0.851562
Si Si3 0.695168 0.736594 0.385114
Si Si4 0.738678 0.841985 0.753561
Si Si5 0.673286 0.244001 0.862358
Si Si6 0.110894 0.718384 0.493279
Si Si7 0.366379 0.818203 0.798094
Si Si8 0.054456 0.852675 0.267357
O O1 0.974685 0.966726 0.279058
O O2 0.995364 0.377036 0.874914
O O3 0.806449 0.016054 0.453680
O O4 0.000000 0.500000 0.000000
O O5 0.597745 0.573466 0.502435
O O6 0.378933 0.188959 0.073251
O O7 0.500000 0.000000 0.000000
O O8 0.421747 0.109788 0.862861
O O9 0.665360 0.493884 0.660145
O O10 0.685845 0.004074 0.285056
O O11 0.821912 0.886206 0.093730
O O12 0.826616 0.034365 0.631172
O O13 0.707200 0.498548 0.995214
O O14 0.802918 0.343262 0.633113
O O15 0.647894 0.250675 0.015151
O O16 0.071600 0.861199 0.370828
O O17 0.500000 0.000000 0.500000
O O18 0.000000 0.500000 0.500000
#
# Coordination Sequence:
#
# PCOD8019523 Si02
#       8
#     2   2   2   2   2   2   2   2
#     4  10  23  42  67  93 135 168 215 272 326 375
#     4   9  20  40  68  93 123 170 222 254 308 395
#     4  11  22  42  67  94 129 170 215 264 317 389
#     4  10  22  42  64  96 132 167 211 268 325 379
#     4  10  22  41  68  94 124 171 218 261 319 387
#     4  10  22  44  70  92 126 174 219 262 324 388
#     4  12  24  40  61  96 136 162 208 273 322 374
#     4  12  25  41  69 100 129 168 225 271 318 392
#
# _framework density 21.490064
#
# number of rings (size 3 to 8) (size 9 to 14) (size 15 to 20)
#    0.000    1.500    3.750    0.750    1.750    5.500 
#    0.000    2.500    0.000    0.000    0.000    0.000 
#    0.000    0.000    0.000    0.000    0.000    0.000 
#
# Total GULP energy -198306.910584 kJ/mol
# GULP energy per Si atom -12394.181911 kJ/mol
# Density = 2.144115 g / cm^3
# Si number density = 21.490064 Si / 1000 Ang^3
#
#
#
# Elastic Constant Matrix: (Units=GPa)
#
#
# Indices 1 2 3 4 5 6 
#
# 1 63.0796 29.1685 24.9572 5.8573 13.0055 -1.0959
# 2 29.1685 121.7262 48.6600 -2.1343 4.6555 -11.9835
# 3 24.9572 48.6600 118.9202 7.7140 -5.4137 10.6040
# 4 5.8573 -2.1343 7.7140 39.7779 -1.4149 3.8505
# 5 13.0055 4.6555 -5.4137 -1.4149 34.3222 -0.5754
# 6 -1.0959 -11.9835 10.6040 3.8505 -0.5754 24.7379
#
#
#
# Elastic Compliance Matrix: (Units=1/GPa)
#
#
# Indices 1 2 3 4 5 6 
#
# 1 0.020589 -0.003293 -0.003232 -0.002960 -0.007971 0.000978
# 2 -0.003293 0.011758 -0.004911 0.001315 -0.000943 0.007428
# 3 -0.003232 -0.004911 0.012002 -0.001272 0.003607 -0.007385
# 4 -0.002960 0.001315 -0.001272 0.026245 0.001774 -0.002993
# 5 -0.007971 -0.000943 0.003607 0.001774 0.032895 -0.001867
# 6 0.000978 0.007428 -0.007385 -0.002993 -0.001867 0.047653
#
#
# Mechanical properties :
#
#
# Convention : Reuss Voigt Hill
#
# Bulk Modulus (GPa) = 46.55755 56.58858 51.57307
# Shear Modulus (GPa) = 27.59816 33.16360 30.38088
#
# Velocity S-wave (km/s) = 3.58750 3.93263 3.76402
# Velocity P-wave (km/s) = 6.23474 6.85641 6.55295
#
# Compressibility (1/GPa) = 0.02147879
#
# Stress axis : x y z
#
# Youngs Moduli (GPa) = 48.56888 85.05187 83.32102
#
# Poissons Ratio (x) = 0.28004 0.26927
# Poissons Ratio (y) = 0.15992 0.40915
# Poissons Ratio (z) = 0.15696 0.41765
#
# Static dielectric constant tensor:
#      x y z
#    x 3.608500 0.033210 -0.025870 
#    y 0.033210 4.200120 -0.096500 
#    z -0.025870 -0.096500 4.301240 
# 
# 
# High freq. dielectric constant tensor:
#      x y z
#    x 1.820800 -0.008560 -0.007310 
#    y -0.008560 1.855800 -0.003580 
#    z -0.007310 -0.003580 1.862970 
# 
# From -- ./inp_files/455021.got.cif
#   From: 2010.06.25/outbox.cif.g09.slc.cpg/sg2_228_cif.got.tgz:455021.got - 2010.06.27 13:26:56.
