data_PCOD8019999
_publ_section_title
;
Structure prediction by ZEFSAII (Michael W. Deem and Ramdas Pophale) SiO2 
 PCOD8019999
Probable space group: P -1
;
_chemical_formula_sum "Si O2"
_cell_formula_units_Z 14
_cell_length_a 9.443237
_cell_length_b 21.508092
_cell_length_c 10.200975
_cell_angle_alpha 143.116379
_cell_angle_beta 45.777491
_cell_angle_gamma 145.516903
_cell_volume 699.591153
_symmetry_space_group_name_H-M "P -1"
_symmetry_group_IT_number 2
_symmetry_cell_setting 'triclinic'
loop_
_space_group_symop_operation_xyz
x,y,z
-x,-y,-z
loop_
_atom_site_type_symbol
_atom_site_label
_atom_site_fract_x
_atom_site_fract_y
_atom_site_fract_z
Si Si1 0.801925 0.858436 0.644516
Si Si2 0.395222 0.432261 0.141461
Si Si3 0.404620 0.995180 0.908246
Si Si4 0.567321 0.349313 0.671498
Si Si5 0.856202 0.663796 0.379755
Si Si6 0.718569 0.093857 0.621031
Si Si7 0.043647 0.693938 0.588457
O O1 0.616574 0.785886 0.518066
O O2 0.744500 0.745652 0.594175
O O3 0.094589 0.945177 0.557457
O O4 0.762227 0.955613 0.901236
O O5 0.345749 0.520669 0.242132
O O6 0.657096 0.523172 0.204002
O O7 0.155044 0.337522 0.227262
O O8 0.414655 0.337048 0.877444
O O9 0.244289 0.850383 0.707715
O O10 0.628346 0.087740 0.816576
O O11 0.500000 0.000000 0.000000
O O12 0.820472 0.369620 0.575032
O O13 0.116511 0.753324 0.277563
O O14 0.899460 0.632467 0.441976
O O15 0.500000 0.000000 0.500000
#
# Coordination Sequence:
#
# PCOD8019999 Si02
#       7
#     2   2   2   2   2   2   2
#     4   9  22  42  63  92 128 164 204 259 317 371
#     4  10  23  43  64  87 126 168 208 261 320 365
#     4  12  24  38  66 100 126 164 215 256 322 378
#     4  10  22  42  64  93 123 165 210 262 319 367
#     4   9  22  45  62  89 129 167 210 257 314 379
#     4  10  22  43  63  89 132 170 203 259 314 380
#     4  12  23  39  64  97 124 161 218 259 308 386
#
# _framework density 20.011687999999999
#
# number of rings (size 3 to 8) (size 9 to 14) (size 15 to 20)
#    0.857    0.857    2.857    0.857    2.000    4.571 
#    7.714    0.000    0.000    0.000    0.000    0.000 
#    0.000    0.000    0.000    0.000    0.000    0.000 
#
# Total GULP energy -173557.863353 kJ/mol
# GULP energy per Si atom -12396.990239 kJ/mol
# Density = 1.996614 g / cm^3
# Si number density = 20.011688 Si / 1000 Ang^3
#
#
#
# Elastic Constant Matrix: (Units=GPa)
#
#
# Indices 1 2 3 4 5 6 
#
# 1 119.0766 20.0967 34.5951 -11.2535 13.6885 12.0780
# 2 20.0967 66.8497 28.0644 -27.8637 -7.5980 3.0365
# 3 34.5951 28.0644 82.1501 -18.2787 -2.5121 2.5201
# 4 -11.2535 -27.8637 -18.2787 42.6885 -1.3295 3.4254
# 5 13.6885 -7.5980 -2.5121 -1.3295 20.7292 -12.7051
# 6 12.0780 3.0365 2.5201 3.4254 -12.7051 17.4787
#
#
#
# Elastic Compliance Matrix: (Units=1/GPa)
#
#
# Indices 1 2 3 4 5 6 
#
# 1 0.021231 -0.006275 -0.006567 0.000939 -0.044927 -0.045475
# 2 -0.006275 0.025555 -0.002853 0.013372 0.022733 0.014211
# 3 -0.006567 -0.002853 0.016625 0.003030 0.012177 0.010894
# 4 0.000939 0.013372 0.003030 0.034484 0.001134 -0.009342
# 5 -0.044927 0.022733 0.012177 0.001134 0.186091 0.160386
# 6 -0.045475 0.014211 0.010894 -0.009342 0.160386 0.203010
#
#
# Mechanical properties :
#
#
# Convention : Reuss Voigt Hill
#
# Bulk Modulus (GPa) = 31.22945 48.17654 39.70300
# Shear Modulus (GPa) = 9.45072 28.53395 18.99233
#
# Velocity S-wave (km/s) = 2.17551 3.78016 3.08403
# Velocity P-wave (km/s) = 4.68508 6.57109 5.70654
#
# Compressibility (1/GPa) = 0.03202105
#
# Stress axis : x y z
#
# Youngs Moduli (GPa) = 47.10150 39.13129 60.14864
#
# Poissons Ratio (x) = 0.24555 0.39499
# Poissons Ratio (y) = 0.29556 0.17161
# Poissons Ratio (z) = 0.30931 0.11165
#
# Static dielectric constant tensor:
#      x y z
#    x 3.706520 0.054570 0.042530 
#    y 0.054570 3.480730 -0.085130 
#    z 0.042530 -0.085130 3.508590 
# 
# 
# High freq. dielectric constant tensor:
#      x y z
#    x 1.790330 0.007030 0.006530 
#    y 0.007030 1.773050 -0.004460 
#    z 0.006530 -0.004460 1.772270 
# 
# From -- ./inp_files/222555.got.cif
#   From: 2010.06.25/outbox.cif.g09.slc.cpg/sg2_112_cif.got.tgz:222555.got - 2010.06.27 13:26:56.
