data_PCOD8019570
_publ_section_title
;
Structure prediction by ZEFSAII (Michael W. Deem and Ramdas Pophale) SiO2 
 PCOD8019570
Probable space group: P -1
;
_chemical_formula_sum "Si O2"
_cell_formula_units_Z 14
_cell_length_a 15.204885
_cell_length_b 5.741944
_cell_length_c 24.012065
_cell_angle_alpha 106.289572
_cell_angle_beta 161.618374
_cell_angle_gamma 80.763931
_cell_volume 594.616158
_symmetry_space_group_name_H-M "P -1"
_symmetry_group_IT_number 2
_symmetry_cell_setting 'triclinic'
loop_
_space_group_symop_operation_xyz
x,y,z
-x,-y,-z
loop_
_atom_site_type_symbol
_atom_site_label
_atom_site_fract_x
_atom_site_fract_y
_atom_site_fract_z
Si Si1 0.035019 0.354441 0.575270
Si Si2 0.986129 0.705500 0.956175
Si Si3 0.570281 0.386030 0.591903
Si Si4 0.940675 0.122079 0.733598
Si Si5 0.442873 0.898223 0.863878
Si Si6 0.529881 0.897998 0.218372
Si Si7 0.203154 0.275662 0.793388
O O1 0.162701 0.656125 0.655100
O O2 0.215568 0.226501 0.635341
O O3 0.081366 0.334832 0.666877
O O4 0.680527 0.203893 0.345351
O O5 0.702212 0.582826 0.735973
O O6 0.000000 0.500000 0.000000
O O7 0.276067 0.739169 0.096693
O O8 0.000000 0.000000 0.000000
O O9 0.500000 0.500000 0.500000
O O10 0.813022 0.252913 0.714303
O O11 0.258375 0.179423 0.410737
O O12 0.946316 0.243851 0.683556
O O13 0.290368 0.183486 0.958546
O O14 0.588779 0.107933 0.916634
O O15 0.291882 0.018099 0.828113
O O16 0.500000 0.500000 0.000000
#
# Coordination Sequence:
#
# PCOD8019570 Si02
#       7
#     2   2   2   2   2   2   2
#     4  10  22  41  68  98 140 179 234 284 369 433
#     4  12  31  51  76 109 151 200 254 311 373 438
#     4  11  28  49  76 102 141 199 253 307 372 438
#     4  11  25  42  74  99 144 179 248 296 371 435
#     4  11  22  41  68 103 138 183 226 297 368 434
#     4  10  24  43  69  98 138 185 236 291 360 439
#     4  11  24  38  63 105 136 177 224 293 358 432
#
# _framework density 23.544601
#
# number of rings (size 3 to 8) (size 9 to 14) (size 15 to 20)
#    0.000    1.143    1.429    2.571   14.000    1.143 
#    0.000    0.000    0.000    0.000    0.000    0.000 
#    0.000    0.000    0.000    0.000    0.000    0.000 
#
# Total GULP energy -173451.935481 kJ/mol
# GULP energy per Si atom -12389.423963 kJ/mol
# Density = 2.349101 g / cm^3
# Si number density = 23.544601 Si / 1000 Ang^3
#
#
#
# Elastic Constant Matrix: (Units=GPa)
#
#
# Indices 1 2 3 4 5 6 
#
# 1 114.6667 17.1780 23.9946 17.1982 5.7390 28.5433
# 2 17.1780 87.2398 15.7577 24.3462 -8.4927 9.4216
# 3 23.9946 15.7577 96.9643 30.8146 -6.0879 6.9607
# 4 17.1982 24.3462 30.8146 41.6613 5.7532 -7.0884
# 5 5.7390 -8.4927 -6.0879 5.7532 42.3743 6.7510
# 6 28.5433 9.4216 6.9607 -7.0884 6.7510 45.2905
#
#
#
# Elastic Compliance Matrix: (Units=1/GPa)
#
#
# Indices 1 2 3 4 5 6 
#
# 1 0.011794 0.000573 -0.000245 -0.006601 0.000758 -0.008661
# 2 0.000573 0.016110 0.002493 -0.013618 0.006505 -0.007197
# 3 -0.000245 0.002493 0.015338 -0.014469 0.005629 -0.005825
# 4 -0.006601 -0.013618 -0.014469 0.050564 -0.013837 0.019193
# 5 0.000758 0.006505 0.005629 -0.013837 0.028950 -0.009177
# 6 -0.008661 -0.007197 -0.005825 0.019193 -0.009177 0.034302
#
#
# Mechanical properties :
#
#
# Convention : Reuss Voigt Hill
#
# Bulk Modulus (GPa) = 20.45597 45.85905 33.15751
# Shear Modulus (GPa) = 29.81307 41.99457 35.90382
#
# Velocity S-wave (km/s) = 3.56228 4.22787 3.90927
# Velocity P-wave (km/s) = 5.06230 6.58430 5.87281
#
# Compressibility (1/GPa) = 0.04888548
#
# Stress axis : x y z
#
# Youngs Moduli (GPa) = 84.78705 62.07210 65.19634
#
# Poissons Ratio (x) = -0.03558 0.01594
# Poissons Ratio (y) = -0.04860 -0.16251
# Poissons Ratio (z) = 0.02074 -0.15473
#
# Static dielectric constant tensor:
#      x y z
#    x 3.901500 0.012830 0.076000 
#    y 0.012830 4.381790 0.350860 
#    z 0.076000 0.350860 4.280690 
# 
# 
# High freq. dielectric constant tensor:
#      x y z
#    x 1.946780 0.012040 -0.007190 
#    y 0.012040 1.928800 0.019140 
#    z -0.007190 0.019140 1.937500 
# 
# From -- ./inp_files/65779.got.cif
#   From: 2010.06.25/outbox.cif.g09.slc.cpg/sg2_33_cif.got.tgz:65779.got - 2010.06.27 13:26:56.
