data_PCOD8019057
_publ_section_title
;
Structure prediction by ZEFSAII (Michael W. Deem and Ramdas Pophale) SiO2 
 PCOD8019057
Probable space group: P -1
;
_chemical_formula_sum "Si O2"
_cell_formula_units_Z 16
_cell_length_a 9.389642
_cell_length_b 18.001097
_cell_length_c 6.562567
_cell_angle_alpha 127.767173
_cell_angle_beta 55.637399
_cell_angle_gamma 105.606146
_cell_volume 718.814138
_symmetry_space_group_name_H-M "P -1"
_symmetry_group_IT_number 2
_symmetry_cell_setting 'triclinic'
loop_
_space_group_symop_operation_xyz
x,y,z
-x,-y,-z
loop_
_atom_site_type_symbol
_atom_site_label
_atom_site_fract_x
_atom_site_fract_y
_atom_site_fract_z
Si Si1 0.119164 0.533233 0.779400
Si Si2 0.451545 0.097640 0.812955
Si Si3 0.684396 0.433683 0.952329
Si Si4 0.304352 0.413369 0.102104
Si Si5 0.888795 0.301573 0.254074
Si Si6 0.175394 0.069269 0.319336
Si Si7 0.743147 0.789028 0.173346
Si Si8 0.206027 0.874530 0.178114
O O1 0.168430 0.440604 0.442805
O O2 0.054157 0.620718 0.825575
O O3 0.277972 0.569565 0.841526
O O4 0.000000 0.500000 0.000000
O O5 0.388035 0.181972 0.853836
O O6 0.621111 0.126605 0.832615
O O7 0.500000 0.000000 0.500000
O O8 0.283609 0.087305 0.065475
O O9 0.756003 0.526160 0.948519
O O10 0.776765 0.343484 0.605077
O O11 0.480436 0.443585 0.101748
O O12 0.324225 0.304482 0.834369
O O13 0.776836 0.227962 0.111372
O O14 0.059693 0.241736 0.109125
O O15 0.261469 0.123807 0.522642
O O16 0.971921 0.107795 0.514697
O O17 0.197567 0.957432 0.156503
#
# Coordination Sequence:
#
# PCOD8019057 Si02
#       8
#     2   2   2   2   2   2   2   2
#     4  11  22  40  66  93 131 174 215 267 325 392
#     4  12  26  43  69 100 130 178 225 268 336 394
#     4  10  22  41  64  92 130 173 211 269 330 384
#     4  10  23  39  62  96 131 167 216 272 320 388
#     4  10  24  42  65  98 130 169 224 264 329 390
#     4  10  24  47  67  95 137 170 220 277 330 395
#     4  11  24  43  63 100 128 171 221 270 326 394
#     4  10  23  46  68  96 135 174 216 280 329 387
#
# _framework density 22.258880999999999
#
# number of rings (size 3 to 8) (size 9 to 14) (size 15 to 20)
#    0.000    1.500    1.250    2.250    3.500    7.500 
#    0.000    0.000    0.000    0.000    0.000    0.000 
#    0.000    0.000    0.000    0.000    0.000    0.000 
#
# Total GULP energy -198342.082087 kJ/mol
# GULP energy per Si atom -12396.380130 kJ/mol
# Density = 2.220822 g / cm^3
# Si number density = 22.258881 Si / 1000 Ang^3
#
#
#
# Elastic Constant Matrix: (Units=GPa)
#
#
# Indices 1 2 3 4 5 6 
#
# 1 70.5028 12.2493 4.9204 5.6173 -4.6072 -9.0207
# 2 12.2493 92.0756 35.8235 22.3335 1.2363 7.8770
# 3 4.9204 35.8235 67.9203 0.5632 -8.4277 -4.2316
# 4 5.6173 22.3335 0.5632 33.3455 5.9589 1.1380
# 5 -4.6072 1.2363 -8.4277 5.9589 21.5797 4.2130
# 6 -9.0207 7.8770 -4.2316 1.1380 4.2130 39.6793
#
#
#
# Elastic Compliance Matrix: (Units=1/GPa)
#
#
# Indices 1 2 3 4 5 6 
#
# 1 0.015372 -0.002256 0.000756 -0.001842 0.003491 0.003705
# 2 -0.002256 0.018073 -0.009732 -0.011164 -0.001322 -0.004678
# 3 0.000756 -0.009732 0.020832 0.004690 0.006884 0.003460
# 4 -0.001842 -0.011164 0.004690 0.039265 -0.009183 0.002147
# 5 0.003491 -0.001322 0.006884 -0.009183 0.053085 -0.003583
# 6 0.003705 -0.004678 0.003460 0.002147 -0.003583 0.027661
#
#
# Mechanical properties :
#
#
# Convention : Reuss Voigt Hill
#
# Bulk Modulus (GPa) = 31.43396 37.38720 34.41058
# Shear Modulus (GPa) = 24.11302 30.75460 27.43381
#
# Velocity S-wave (km/s) = 3.29492 3.72113 3.51449
# Velocity P-wave (km/s) = 5.35051 5.94099 5.65347
#
# Compressibility (1/GPa) = 0.03181273
#
# Stress axis : x y z
#
# Youngs Moduli (GPa) = 65.05306 55.33111 48.00295
#
# Poissons Ratio (x) = 0.12484 -0.03628
# Poissons Ratio (y) = 0.14678 0.46715
# Poissons Ratio (z) = -0.04917 0.53847
#
# Static dielectric constant tensor:
#      x y z
#    x 4.090860 0.036810 0.011420 
#    y 0.036810 4.034240 0.138270 
#    z 0.011420 0.138270 4.074920 
# 
# 
# High freq. dielectric constant tensor:
#      x y z
#    x 1.898130 0.008760 -0.006390 
#    y 0.008760 1.875440 0.014360 
#    z -0.006390 0.014360 1.870330 
# 
# From -- ./inp_files/48800.got.cif
#   From: 2010.06.25/outbox.cif.g09.slc.cpg/sg2_25_cif.got.tgz:48800.got - 2010.06.27 13:26:56.
