data_PCOD8019492
_publ_section_title
;
Structure prediction by ZEFSAII (Michael W. Deem and Ramdas Pophale) SiO2 
 PCOD8019492
Probable space group: P -1
;
_chemical_formula_sum "Si O2"
_cell_formula_units_Z 14
_cell_length_a 5.810849
_cell_length_b 10.955025
_cell_length_c 20.307480
_cell_angle_alpha 30.913026
_cell_angle_beta 120.363588
_cell_angle_gamma 115.325724
_cell_volume 572.978558
_symmetry_space_group_name_H-M "P -1"
_symmetry_group_IT_number 2
_symmetry_cell_setting 'triclinic'
loop_
_space_group_symop_operation_xyz
x,y,z
-x,-y,-z
loop_
_atom_site_type_symbol
_atom_site_label
_atom_site_fract_x
_atom_site_fract_y
_atom_site_fract_z
Si Si1 0.680102 0.979438 0.466963
Si Si2 0.194538 0.309758 0.037915
Si Si3 0.475483 0.829373 0.292938
Si Si4 0.515282 0.506640 0.328152
Si Si5 0.367244 0.762838 0.064435
Si Si6 0.530349 0.402461 0.155802
Si Si7 0.082015 0.459440 0.456237
O O1 0.567238 0.163546 0.312546
O O2 0.500000 0.000000 0.500000
O O3 0.634056 0.711526 0.557559
O O4 0.000000 0.000000 0.500000
O O5 0.236194 0.382713 0.087284
O O6 0.427195 0.110166 0.152035
O O7 0.249239 0.544861 0.892962
O O8 0.916064 0.192811 0.032314
O O9 0.545858 0.733208 0.274930
O O10 0.209869 0.700116 0.337611
O O11 0.712674 0.766493 0.408753
O O12 0.340620 0.582003 0.205119
O O13 0.816448 0.414691 0.394599
O O14 0.554754 0.632762 0.099018
O O15 0.500000 0.000000 0.000000
O O16 0.000000 0.500000 0.500000
#
# Coordination Sequence:
#
# PCOD8019492 Si02
#       7
#     2   2   2   2   2   2   2
#     4  12  28  49  77 111 154 204 257 321 389 460
#     4  11  26  47  72 105 148 197 250 310 383 462
#     4  10  22  41  68 105 142 190 246 310 382 452
#     4  11  24  42  69 107 142 191 246 315 376 451
#     4  12  25  46  73 104 143 192 249 312 376 456
#     4  11  27  49  71 107 146 199 251 310 384 460
#     4   9  21  39  63 102 144 185 244 304 377 447
#
# _framework density 24.433724000000002
#
# number of rings (size 3 to 8) (size 9 to 14) (size 15 to 20)
#    0.000    1.143    1.429    3.000    8.000    5.714 
#    2.571    0.000    0.000    0.000    0.000    0.000 
#    0.000    0.000    0.000    0.000    0.000    0.000 
#
# Total GULP energy -173458.534048 kJ/mol
# GULP energy per Si atom -12389.895289 kJ/mol
# Density = 2.437811 g / cm^3
# Si number density = 24.433724 Si / 1000 Ang^3
#
#
#
# Elastic Constant Matrix: (Units=GPa)
#
#
# Indices 1 2 3 4 5 6 
#
# 1 72.1941 14.8315 20.6240 12.9235 -10.3467 24.5243
# 2 14.8315 130.1353 38.6006 3.9881 2.1650 16.4875
# 3 20.6240 38.6006 142.4890 9.4917 -16.2625 7.6125
# 4 12.9235 3.9881 9.4917 43.9885 -0.7679 0.8624
# 5 -10.3467 2.1650 -16.2625 -0.7679 30.4974 4.5233
# 6 24.5243 16.4875 7.6125 0.8624 4.5233 46.3165
#
#
#
# Elastic Compliance Matrix: (Units=1/GPa)
#
#
# Indices 1 2 3 4 5 6 
#
# 1 0.020000 -0.000599 -0.000906 -0.005276 0.007828 -0.010894
# 2 -0.000599 0.008770 -0.002363 -0.000096 -0.001756 -0.002243
# 3 -0.000906 -0.002363 0.008396 -0.001246 0.004375 -0.000463
# 4 -0.005276 -0.000096 -0.001246 0.024467 -0.002246 0.002796
# 5 0.007828 -0.001756 0.004375 -0.002246 0.039034 -0.008009
# 6 -0.010894 -0.002243 -0.000463 0.002796 -0.008009 0.028964
#
#
# Mechanical properties :
#
#
# Convention : Reuss Voigt Hill
#
# Bulk Modulus (GPa) = 33.97805 54.77007 44.37406
# Shear Modulus (GPa) = 33.97245 42.21129 38.09187
#
# Velocity S-wave (km/s) = 3.73284 4.16093 3.95269
# Velocity P-wave (km/s) = 5.70221 6.74899 6.24756
#
# Compressibility (1/GPa) = 0.02943077
#
# Stress axis : x y z
#
# Youngs Moduli (GPa) = 49.99882 114.02656 119.09753
#
# Poissons Ratio (x) = 0.06831 0.10787
# Poissons Ratio (y) = 0.02995 0.28146
# Poissons Ratio (z) = 0.04528 0.26947
#
# Static dielectric constant tensor:
#      x y z
#    x 4.891790 0.008050 0.280030 
#    y 0.008050 4.613640 0.256870 
#    z 0.280030 0.256870 4.647530 
# 
# 
# High freq. dielectric constant tensor:
#      x y z
#    x 1.961350 0.000060 -0.001430 
#    y 0.000060 1.978040 0.007210 
#    z -0.001430 0.007210 1.984840 
# 
# From -- ./inp_files/69731.got.cif
#   From: 2010.06.25/outbox.cif.g09.slc.cpg/sg2_35_cif.got.tgz:69731.got - 2010.06.27 13:26:56.
