data_PCOD8019752
_publ_section_title
;
Structure prediction by ZEFSAII (Michael W. Deem and Ramdas Pophale) SiO2 
 PCOD8019752
Probable space group: P -1
;
_chemical_formula_sum "Si O2"
_cell_formula_units_Z 16
_cell_length_a 8.703196
_cell_length_b 9.542442
_cell_length_c 17.346158
_cell_angle_alpha 65.557363
_cell_angle_beta 141.663221
_cell_angle_gamma 96.289197
_cell_volume 752.210738
_symmetry_space_group_name_H-M "P -1"
_symmetry_group_IT_number 2
_symmetry_cell_setting 'triclinic'
loop_
_space_group_symop_operation_xyz
x,y,z
-x,-y,-z
loop_
_atom_site_type_symbol
_atom_site_label
_atom_site_fract_x
_atom_site_fract_y
_atom_site_fract_z
Si Si1 0.533778 0.646099 0.223376
Si Si2 0.786451 0.864844 0.355768
Si Si3 0.078869 0.525963 0.110965
Si Si4 0.516569 0.767537 0.881331
Si Si5 0.110201 0.654181 0.660912
Si Si6 0.840895 0.069486 0.633201
Si Si7 0.245145 0.257549 0.363461
Si Si8 0.663374 0.115901 0.048408
O O1 0.637925 0.741184 0.305672
O O2 0.337625 0.573795 0.205009
O O3 0.793873 0.501472 0.323350
O O4 0.369157 0.765494 0.063223
O O5 0.931049 0.819180 0.505610
O O6 0.009847 0.849882 0.383637
O O7 0.561119 0.050088 0.227497
O O8 0.152397 0.351944 0.224593
O O9 0.000000 0.500000 0.000000
O O10 0.834289 0.670960 0.023061
O O11 0.371345 0.669490 0.797712
O O12 0.426653 0.776812 0.932948
O O13 0.923591 0.624860 0.660728
O O14 0.559447 0.212220 0.512347
O O15 0.808275 0.912181 0.615119
O O16 0.022841 0.003866 0.795852
O O17 0.500000 0.000000 0.000000
#
# Coordination Sequence:
#
# PCOD8019752 Si02
#       8
#     2   2   2   2   2   2   2   2
#     4  12  25  44  70  97 138 183 216 282 346 395
#     4  11  24  46  66 100 134 179 225 273 346 401
#     4  12  26  43  67 103 139 173 228 283 334 398
#     4  11  24  43  71  99 132 181 228 277 331 409
#     4  12  24  42  71  99 136 176 229 281 332 406
#     4  10  22  41  71  94 133 172 226 271 335 398
#     4  11  24  42  66 102 129 176 226 283 327 392
#     4  11  21  45  70  99 133 177 221 276 337 399
#
# _framework density 21.270634999999999
#
# number of rings (size 3 to 8) (size 9 to 14) (size 15 to 20)
#    0.000    0.750    6.250    3.000    0.000    3.500 
#    2.250    1.250    0.000    0.000    0.000    0.000 
#    0.000    0.000    0.000    0.000    0.000    0.000 
#
# Total GULP energy -198476.898487 kJ/mol
# GULP energy per Si atom -12404.806155 kJ/mol
# Density = 2.122222 g / cm^3
# Si number density = 21.270635 Si / 1000 Ang^3
#
#
#
# Elastic Constant Matrix: (Units=GPa)
#
#
# Indices 1 2 3 4 5 6 
#
# 1 93.5690 17.6243 46.7591 -4.8557 12.7564 8.8775
# 2 17.6243 68.9739 11.1164 2.2376 12.4067 7.6784
# 3 46.7591 11.1164 118.8999 -3.3827 11.3766 -1.7421
# 4 -4.8557 2.2376 -3.3827 30.2042 0.2190 2.5296
# 5 12.7564 12.4067 11.3766 0.2190 47.8896 -3.1133
# 6 8.8775 7.6784 -1.7421 2.5296 -3.1133 28.8684
#
#
#
# Elastic Compliance Matrix: (Units=1/GPa)
#
#
# Indices 1 2 3 4 5 6 
#
# 1 0.014634 -0.001986 -0.005340 0.002318 -0.002435 -0.004760
# 2 -0.001986 0.016260 -0.000466 -0.001209 -0.003830 -0.004049
# 3 -0.005340 -0.000466 0.010674 0.000185 -0.000843 0.002303
# 4 0.002318 -0.001209 0.000185 0.033883 -0.000726 -0.003427
# 5 -0.002435 -0.003830 -0.000843 -0.000726 0.023003 0.004261
# 6 -0.004760 -0.004049 0.002303 -0.003427 0.004261 0.038080
#
#
# Mechanical properties :
#
#
# Convention : Reuss Voigt Hill
#
# Bulk Modulus (GPa) = 38.48732 48.04915 43.26824
# Shear Modulus (GPa) = 31.09861 35.12199 33.11030
#
# Velocity S-wave (km/s) = 3.82782 4.06790 3.94968
# Velocity P-wave (km/s) = 6.13756 6.68597 6.41763
#
# Compressibility (1/GPa) = 0.02598258
#
# Stress axis : x y z
#
# Youngs Moduli (GPa) = 68.33498 61.50119 93.68720
#
# Poissons Ratio (x) = 0.12214 0.50030
# Poissons Ratio (y) = 0.13571 0.04370
# Poissons Ratio (z) = 0.36491 0.02869
#
# Static dielectric constant tensor:
#      x y z
#    x 3.916820 0.110120 0.011940 
#    y 0.110120 3.715480 -0.052230 
#    z 0.011940 -0.052230 4.293350 
# 
# 
# High freq. dielectric constant tensor:
#      x y z
#    x 1.827910 0.008420 0.002630 
#    y 0.008420 1.823530 -0.001280 
#    z 0.002630 -0.001280 1.855280 
# 
# From -- ./inp_files/557059.got.cif
#   From: 2010.06.25/outbox.cif.g09.slc.cpg/sg2_279_cif.got.tgz:557059.got - 2010.06.27 13:26:56.
