data_PCOD8019958
_publ_section_title
;
Structure prediction by ZEFSAII (Michael W. Deem and Ramdas Pophale) SiO2 
 PCOD8019958
Probable space group: P -1
;
_chemical_formula_sum "Si O2"
_cell_formula_units_Z 16
_cell_length_a 17.801938
_cell_length_b 10.578538
_cell_length_c 7.645581
_cell_angle_alpha 137.316240
_cell_angle_beta 49.504669
_cell_angle_gamma 137.969394
_cell_volume 636.368545
_symmetry_space_group_name_H-M "P -1"
_symmetry_group_IT_number 2
_symmetry_cell_setting 'triclinic'
loop_
_space_group_symop_operation_xyz
x,y,z
-x,-y,-z
loop_
_atom_site_type_symbol
_atom_site_label
_atom_site_fract_x
_atom_site_fract_y
_atom_site_fract_z
Si Si1 0.349935 0.767669 0.120396
Si Si2 0.691256 0.122489 0.346226
Si Si3 0.851787 0.545679 0.356117
Si Si4 0.403490 0.103558 0.086832
Si Si5 0.099412 0.700613 0.238866
Si Si6 0.797289 0.857513 0.599476
Si Si7 0.866705 0.713171 0.019162
Si Si8 0.118631 0.893445 0.769678
O O1 0.373748 0.910919 0.405173
O O2 0.335277 0.885431 0.090826
O O3 0.240289 0.530708 0.076578
O O4 0.464690 0.752649 0.903272
O O5 0.741573 0.362648 0.438239
O O6 0.796843 0.081092 0.175149
O O7 0.602121 0.955241 0.169806
O O8 0.824550 0.740284 0.594003
O O9 0.963188 0.605510 0.363694
O O10 0.869013 0.477480 0.061291
O O11 0.339102 0.242648 0.339157
O O12 0.154721 0.805339 0.451612
O O13 0.149396 0.883105 0.192547
O O14 0.866356 0.840659 0.317691
O O15 0.866545 0.867859 0.022578
O O16 0.985942 0.711388 0.831337
#
# Coordination Sequence:
#
# PCOD8019958 Si02
#       8
#     2   2   2   2   2   2   2   2
#     4  11  25  48  75  99 139 183 245 293 348 423
#     4  12  25  43  72 103 139 184 232 294 349 423
#     4  11  24  38  67 102 138 192 238 272 359 430
#     4  11  26  48  71 101 137 190 236 299 354 401
#     4  10  22  42  63  98 147 194 225 290 347 418
#     4  11  23  41  68  98 146 180 236 297 344 418
#     4  10  23  42  69 106 139 189 231 285 355 426
#     4  10  24  42  67 103 148 181 226 287 360 419
#
# _framework density 25.142664
#
# number of rings (size 3 to 8) (size 9 to 14) (size 15 to 20)
#    0.000    1.250    1.250    3.750    5.250    5.500 
#    0.000    3.750    0.000    0.000    0.000    0.000 
#    0.000    0.000    0.000    0.000    0.000    0.000 
#
# Total GULP energy -198353.757297 kJ/mol
# GULP energy per Si atom -12397.109831 kJ/mol
# Density = 2.508544 g / cm^3
# Si number density = 25.142664 Si / 1000 Ang^3
#
#
#
# Elastic Constant Matrix: (Units=GPa)
#
#
# Indices 1 2 3 4 5 6 
#
# 1 111.4229 21.8578 29.1052 0.0030 -5.1313 4.5721
# 2 21.8578 84.9683 12.9551 1.9090 -14.0044 10.6627
# 3 29.1052 12.9551 67.7701 -6.9125 -5.6261 -6.8330
# 4 0.0030 1.9090 -6.9125 31.5597 -4.9796 -1.7975
# 5 -5.1313 -14.0044 -5.6261 -4.9796 48.6939 -8.4924
# 6 4.5721 10.6627 -6.8330 -1.7975 -8.4924 20.9151
#
#
#
# Elastic Compliance Matrix: (Units=1/GPa)
#
#
# Indices 1 2 3 4 5 6 
#
# 1 0.010661 -0.001661 -0.004784 -0.001242 -0.000628 -0.003408
# 2 -0.001661 0.013831 -0.002580 -0.001444 0.002176 -0.006771
# 3 -0.004784 -0.002580 0.019197 0.005488 0.003359 0.010468
# 4 -0.001242 -0.001444 0.005488 0.034195 0.004935 0.007743
# 5 -0.000628 0.002176 0.003359 0.004935 0.023768 0.010200
# 6 -0.003408 -0.006771 0.010468 0.007743 0.010200 0.060236
#
#
# Mechanical properties :
#
#
# Convention : Reuss Voigt Hill
#
# Bulk Modulus (GPa) = 39.00142 43.55525 41.27834
# Shear Modulus (GPa) = 26.52744 33.58331 30.05538
#
# Velocity S-wave (km/s) = 3.25172 3.65870 3.46120
# Velocity P-wave (km/s) = 5.44463 5.93372 5.69442
#
# Compressibility (1/GPa) = 0.02564009
#
# Stress axis : x y z
#
# Youngs Moduli (GPa) = 93.79839 72.30365 52.09050
#
# Poissons Ratio (x) = 0.12011 0.24918
# Poissons Ratio (y) = 0.15581 0.13438
# Poissons Ratio (z) = 0.44869 0.18653
#
# Static dielectric constant tensor:
#      x y z
#    x 4.690190 -0.308690 -0.260200 
#    y -0.308690 4.441900 0.020170 
#    z -0.260200 0.020170 4.724430 
# 
# 
# High freq. dielectric constant tensor:
#      x y z
#    x 2.014740 -0.016740 -0.008550 
#    y -0.016740 1.987280 -0.014380 
#    z -0.008550 -0.014380 2.006610 
# 
# From -- ./inp_files/346431.got.cif
#   From: 2010.06.25/outbox.cif.g09.slc.cpg/sg2_174_cif.got.tgz:346431.got - 2010.06.27 13:26:56.
