data_PCOD8019324
_publ_section_title
;
Structure prediction by ZEFSAII (Michael W. Deem and Ramdas Pophale) SiO2 
 PCOD8019324
Probable space group: P -1
;
_chemical_formula_sum "Si O2"
_cell_formula_units_Z 16
_cell_length_a 17.692528
_cell_length_b 9.501345
_cell_length_c 5.342867
_cell_angle_alpha 64.731776
_cell_angle_beta 100.562905
_cell_angle_gamma 120.190539
_cell_volume 701.480160
_symmetry_space_group_name_H-M "P -1"
_symmetry_group_IT_number 2
_symmetry_cell_setting 'triclinic'
loop_
_space_group_symop_operation_xyz
x,y,z
-x,-y,-z
loop_
_atom_site_type_symbol
_atom_site_label
_atom_site_fract_x
_atom_site_fract_y
_atom_site_fract_z
Si Si1 0.862315 0.442521 0.387449
Si Si2 0.412286 0.016025 0.956052
Si Si3 0.376913 0.497646 0.868867
Si Si4 0.958276 0.350540 0.881583
Si Si5 0.428818 0.233441 0.306522
Si Si6 0.779452 0.638459 0.436379
Si Si7 0.724812 0.350917 0.015084
Si Si8 0.948792 0.996700 0.226799
O O1 0.869850 0.331073 0.709976
O O2 0.806050 0.540934 0.317808
O O3 0.803408 0.320137 0.213918
O O4 0.962136 0.596386 0.302984
O O5 0.400343 0.113509 0.629322
O O6 0.329205 0.818055 0.068777
O O7 0.412484 0.115507 0.135892
O O8 0.500000 0.000000 0.000000
O O9 0.470454 0.622766 0.711437
O O10 0.314729 0.386993 0.683385
O O11 0.346966 0.632134 0.869094
O O12 0.377110 0.348601 0.169586
O O13 0.000000 0.500000 0.000000
O O14 0.932093 0.162319 0.120643
O O15 0.851559 0.840192 0.319203
O O16 0.775595 0.541588 0.766216
O O17 0.000000 0.000000 0.500000
O O18 0.000000 0.000000 0.000000
#
# Coordination Sequence:
#
# PCOD8019324 Si02
#       8
#     2   2   2   2   2   2   2   2
#     4  10  22  41  66  97 135 174 232 280 353 409
#     4  12  25  44  72 104 140 182 239 285 349 415
#     4  10  25  44  71  99 142 184 230 292 350 415
#     4  11  23  43  70  99 132 182 229 289 349 412
#     4  11  26  46  71 106 140 184 239 289 347 418
#     4  11  24  45  69  98 140 185 234 282 360 414
#     4  11  24  42  71  98 140 186 230 291 351 413
#     4  12  26  46  72 101 136 182 232 284 342 422
#
# _framework density 22.808910999999998
#
# number of rings (size 3 to 8) (size 9 to 14) (size 15 to 20)
#    0.000    1.000    2.500    3.375    8.750    2.000 
#    2.250    0.000    0.000    0.000    0.000    0.000 
#    0.000    0.000    0.000    0.000    0.000    0.000 
#
# Total GULP energy -198251.722765 kJ/mol
# GULP energy per Si atom -12390.732673 kJ/mol
# Density = 2.275700 g / cm^3
# Si number density = 22.808911 Si / 1000 Ang^3
#
#
#
# Elastic Constant Matrix: (Units=GPa)
#
#
# Indices 1 2 3 4 5 6 
#
# 1 68.7739 55.0187 37.5380 1.8924 30.5929 22.9489
# 2 55.0187 139.3869 67.4304 -6.6566 20.8758 28.5005
# 3 37.5380 67.4304 153.5029 1.2387 23.9944 10.3549
# 4 1.8924 -6.6566 1.2387 45.6411 1.6213 3.0605
# 5 30.5929 20.8758 23.9944 1.6213 43.7830 5.4042
# 6 22.9489 28.5005 10.3549 3.0605 5.4042 36.7581
#
#
#
# Elastic Compliance Matrix: (Units=1/GPa)
#
#
# Indices 1 2 3 4 5 6 
#
# 1 0.032712 -0.007370 -0.001280 -0.001000 -0.017155 -0.011742
# 2 -0.007370 0.012727 -0.003747 0.002518 0.001617 -0.004658
# 3 -0.001280 -0.003747 0.008724 -0.000760 -0.002275 0.001645
# 4 -0.001000 0.002518 -0.000760 0.022555 -0.000562 -0.002910
# 5 -0.017155 0.001617 -0.002275 -0.000562 0.034701 0.005042
# 6 -0.011742 -0.004658 0.001645 -0.002910 0.005042 0.037185
#
#
# Mechanical properties :
#
#
# Convention : Reuss Voigt Hill
#
# Bulk Modulus (GPa) = 34.05034 75.73757 54.89395
# Shear Modulus (GPa) = 27.29422 38.68155 32.98789
#
# Velocity S-wave (km/s) = 3.46301 4.12259 3.80711
# Velocity P-wave (km/s) = 5.56335 7.47920 6.59125
#
# Compressibility (1/GPa) = 0.02936828
#
# Stress axis : x y z
#
# Youngs Moduli (GPa) = 30.56941 78.57497 114.62128
#
# Poissons Ratio (x) = 0.57913 0.14674
# Poissons Ratio (y) = 0.22531 0.42949
# Poissons Ratio (z) = 0.03914 0.29442
#
# Static dielectric constant tensor:
#      x y z
#    x 2.629670 -0.864530 0.071180 
#    y -0.864530 3.593000 -0.058400 
#    z 0.071180 -0.058400 4.234350 
# 
# 
# High freq. dielectric constant tensor:
#      x y z
#    x 1.906330 0.011440 0.014520 
#    y 0.011440 1.901640 0.004370 
#    z 0.014520 0.004370 1.906500 
# 
# From -- ./inp_files/106302.got.cif
#   From: 2010.06.25/outbox.cif.g09.slc.cpg/sg2_54_cif.got.tgz:106302.got - 2010.06.27 13:26:56.
