data_PCOD8019697
_publ_section_title
;
Structure prediction by ZEFSAII (Michael W. Deem and Ramdas Pophale) SiO2 
 PCOD8019697
Probable space group: P -1
;
_chemical_formula_sum "Si O2"
_cell_formula_units_Z 14
_cell_length_a 9.110410
_cell_length_b 9.864458
_cell_length_c 12.477552
_cell_angle_alpha 60.623201
_cell_angle_beta 66.016564
_cell_angle_gamma 45.643224
_cell_volume 695.027655
_symmetry_space_group_name_H-M "P -1"
_symmetry_group_IT_number 2
_symmetry_cell_setting 'triclinic'
loop_
_space_group_symop_operation_xyz
x,y,z
-x,-y,-z
loop_
_atom_site_type_symbol
_atom_site_label
_atom_site_fract_x
_atom_site_fract_y
_atom_site_fract_z
Si Si1 0.095194 0.985530 0.090314
Si Si2 0.612173 0.588877 0.390479
Si Si3 0.534898 0.659855 0.145394
Si Si4 0.176563 0.270610 0.056551
Si Si5 0.788266 0.202909 0.267406
Si Si6 0.048374 0.223818 0.334425
Si Si7 0.583712 0.090443 0.505923
O O1 0.307652 0.760532 0.127733
O O2 0.139274 0.140518 0.044529
O O3 0.916015 0.035202 0.204011
O O4 0.000000 0.000000 0.000000
O O5 0.500000 0.500000 0.500000
O O6 0.510674 0.697690 0.265297
O O7 0.859032 0.432505 0.363856
O O8 0.575172 0.753566 0.418271
O O9 0.692978 0.422834 0.165574
O O10 0.610915 0.774317 0.023456
O O11 0.173448 0.238362 0.197763
O O12 0.000000 0.500000 0.000000
O O13 0.945768 0.135564 0.344926
O O14 0.604624 0.210981 0.363396
O O15 0.199023 0.085188 0.438209
O O16 0.500000 0.000000 0.500000
#
# Coordination Sequence:
#
# PCOD8019697 Si02
#       7
#     2   2   2   2   2   2   2
#     4  11  25  40  64  99 129 168 204 261 324 374
#     4  11  21  39  69  92 114 172 219 245 308 378
#     4  11  22  42  71  92 125 168 218 259 302 385
#     4  11  20  45  66  95 126 162 220 259 305 373
#     4  10  22  43  63  92 128 167 215 260 309 374
#     4  10  22  41  70  88 125 172 211 257 304 380
#     4  12  26  41  60  99 134 159 208 269 324 365
#
# _framework density 20.143084999999999
#
# number of rings (size 3 to 8) (size 9 to 14) (size 15 to 20)
#    0.000    1.143    7.143    2.571    2.000    3.429 
#    2.571    0.000    0.000    0.000    0.000    0.000 
#    0.000    0.000    0.000    0.000    0.000    0.000 
#
# Total GULP energy -173515.098993 kJ/mol
# GULP energy per Si atom -12393.935642 kJ/mol
# Density = 2.009724 g / cm^3
# Si number density = 20.143085 Si / 1000 Ang^3
#
#
#
# Elastic Constant Matrix: (Units=GPa)
#
#
# Indices 1 2 3 4 5 6 
#
# 1 88.9049 68.8450 54.9739 12.4384 13.4990 1.7482
# 2 68.8450 102.7774 44.0940 20.7681 16.7363 -6.6307
# 3 54.9739 44.0940 105.1854 16.4922 -17.0688 -3.7553
# 4 12.4384 20.7681 16.4922 36.5407 -2.9308 -1.7890
# 5 13.4990 16.7363 -17.0688 -2.9308 37.4617 -2.7347
# 6 1.7482 -6.6307 -3.7553 -1.7890 -2.7347 23.4371
#
#
#
# Elastic Compliance Matrix: (Units=1/GPa)
#
#
# Indices 1 2 3 4 5 6 
#
# 1 0.033613 -0.015933 -0.013519 0.002266 -0.011734 -0.010377
# 2 -0.015933 0.023727 -0.001068 -0.007701 -0.005474 0.006504
# 3 -0.013519 -0.001068 0.019962 -0.002359 0.014656 0.005435
# 4 0.002266 -0.007701 -0.002359 0.032377 0.004098 0.000224
# 5 -0.011734 -0.005474 0.014656 0.004098 0.040859 0.006755
# 6 -0.010377 0.006504 0.005435 0.000224 0.006755 0.046957
#
#
# Mechanical properties :
#
#
# Convention : Reuss Voigt Hill
#
# Bulk Modulus (GPa) = 61.48344 70.29926 65.89135
# Shear Modulus (GPa) = 18.94248 28.08489 23.51368
#
# Velocity S-wave (km/s) = 3.06991 3.73804 3.42033
# Velocity P-wave (km/s) = 6.56928 7.32163 6.95564
#
# Compressibility (1/GPa) = 0.01626454
#
# Stress axis : x y z
#
# Youngs Moduli (GPa) = 29.75001 42.14542 50.09410
#
# Poissons Ratio (x) = 0.67148 0.67720
# Poissons Ratio (y) = 0.47399 0.05351
# Poissons Ratio (z) = 0.40218 0.04502
#
# Static dielectric constant tensor:
#      x y z
#    x 4.932980 0.034110 -2.265270 
#    y 0.034110 3.892720 -0.103650 
#    z -2.265270 -0.103650 6.837000 
# 
# 
# High freq. dielectric constant tensor:
#      x y z
#    x 1.763070 -0.016770 -0.008350 
#    y -0.016770 1.797420 0.010580 
#    z -0.008350 0.010580 1.794960 
# 
# From -- ./inp_files/241408.got.cif
#   From: 2010.06.25/outbox.cif.g09.slc.cpg/sg2_121_cif.got.tgz:241408.got - 2010.06.27 13:26:56.
