data_PCOD8019252
_publ_section_title
;
Structure prediction by ZEFSAII (Michael W. Deem and Ramdas Pophale) SiO2 
 PCOD8019252
Probable space group: P -1
;
_chemical_formula_sum "Si O2"
_cell_formula_units_Z 14
_cell_length_a 17.164468
_cell_length_b 14.499362
_cell_length_c 8.501079
_cell_angle_alpha 123.936762
_cell_angle_beta 45.528060
_cell_angle_gamma 156.053347
_cell_volume 587.726067
_symmetry_space_group_name_H-M "P -1"
_symmetry_group_IT_number 2
_symmetry_cell_setting 'triclinic'
loop_
_space_group_symop_operation_xyz
x,y,z
-x,-y,-z
loop_
_atom_site_type_symbol
_atom_site_label
_atom_site_fract_x
_atom_site_fract_y
_atom_site_fract_z
Si Si1 0.121553 0.868292 0.859977
Si Si2 0.624262 0.376735 0.174068
Si Si3 0.222482 0.122590 0.678272
Si Si4 0.302219 0.781840 0.955858
Si Si5 0.189868 0.687587 0.680694
Si Si6 0.284258 0.348340 0.062638
Si Si7 0.455439 0.741497 0.164109
O O1 0.197174 0.997125 0.716541
O O2 0.144309 0.754617 0.700322
O O3 0.288499 0.059656 0.946634
O O4 0.855031 0.657384 0.081030
O O5 0.682985 0.339721 0.191280
O O6 0.416869 0.271648 0.416490
O O7 0.538776 0.228235 0.001363
O O8 0.968862 0.912738 0.755054
O O9 0.301045 0.305940 0.827654
O O10 0.318467 0.841211 0.809275
O O11 0.051758 0.590911 0.200807
O O12 0.500000 0.000000 0.000000
O O13 0.355550 0.753961 0.416408
O O14 0.288656 0.484873 0.173055
O O15 0.500000 0.500000 0.000000
#
# Coordination Sequence:
#
# PCOD8019252 Si02
#       7
#     2   2   2   2   2   2   2
#     4  11  23  46  69 102 142 179 226 282 342 411
#     4  11  26  42  68 106 135 182 229 280 346 406
#     4  11  25  48  73  97 142 176 232 291 337 410
#     4  10  22  41  66 102 142 186 225 274 339 408
#     4  10  24  41  68 104 143 181 228 276 337 417
#     4  11  25  47  74 100 129 187 233 283 351 399
#     4  12  24  43  70 102 141 184 230 280 344 404
#
# _framework density 23.820622
#
# number of rings (size 3 to 8) (size 9 to 14) (size 15 to 20)
#    0.000    1.143    2.857    2.143    2.000    6.286 
#    0.000    1.429    0.000    0.000    0.000    0.000 
#    0.000    0.000    0.000    0.000    0.000    0.000 
#
# Total GULP energy -173586.359495 kJ/mol
# GULP energy per Si atom -12399.025678 kJ/mol
# Density = 2.376641 g / cm^3
# Si number density = 23.820622 Si / 1000 Ang^3
#
#
#
# Elastic Constant Matrix: (Units=GPa)
#
#
# Indices 1 2 3 4 5 6 
#
# 1 76.9011 29.3702 19.7892 -7.0038 -3.6269 12.9934
# 2 29.3702 132.3172 61.8912 -10.1772 -1.6806 35.1209
# 3 19.7892 61.8912 154.2847 -18.8313 -12.5408 18.4268
# 4 -7.0038 -10.1772 -18.8313 34.8598 3.6191 -13.6160
# 5 -3.6269 -1.6806 -12.5408 3.6191 24.7561 -5.6174
# 6 12.9934 35.1209 18.4268 -13.6160 -5.6174 49.1377
#
#
#
# Elastic Compliance Matrix: (Units=1/GPa)
#
#
# Indices 1 2 3 4 5 6 
#
# 1 0.014488 -0.002546 -0.000417 0.001283 0.001243 -0.001357
# 2 -0.002546 0.011660 -0.003959 -0.001666 -0.002926 -0.006972
# 3 -0.000417 -0.003959 0.008733 0.003500 0.003826 0.001072
# 4 0.001283 -0.001666 0.003500 0.033903 -0.001110 0.008807
# 5 0.001243 -0.002926 0.003826 -0.001110 0.043614 0.005006
# 6 -0.001357 -0.006972 0.001072 0.008807 0.005006 0.028304
#
#
# Mechanical properties :
#
#
# Convention : Reuss Voigt Hill
#
# Bulk Modulus (GPa) = 47.53640 65.06712 56.30176
# Shear Modulus (GPa) = 30.94832 38.58088 34.76460
#
# Velocity S-wave (km/s) = 3.60839 4.02884 3.82440
# Velocity P-wave (km/s) = 6.11227 7.00120 6.57179
#
# Compressibility (1/GPa) = 0.02103651
#
# Stress axis : x y z
#
# Youngs Moduli (GPa) = 69.02139 85.76363 114.50341
#
# Poissons Ratio (x) = 0.21836 0.04778
# Poissons Ratio (y) = 0.17573 0.45335
# Poissons Ratio (z) = 0.02880 0.33956
#
# Static dielectric constant tensor:
#      x y z
#    x 4.682540 0.047980 -0.091270 
#    y 0.047980 4.610710 -0.224790 
#    z -0.091270 -0.224790 4.001600 
# 
# 
# High freq. dielectric constant tensor:
#      x y z
#    x 1.954650 0.003280 -0.013840 
#    y 0.003280 1.965540 -0.014800 
#    z -0.013840 -0.014800 1.917240 
# 
# From -- ./inp_files/348558.got.cif
#   From: 2010.06.25/outbox.cif.g09.slc.cpg/sg2_175_cif.got.tgz:348558.got - 2010.06.27 13:26:56.
