data_PCOD8019534
_publ_section_title
;
Structure prediction by ZEFSAII (Michael W. Deem and Ramdas Pophale) SiO2 
 PCOD8019534
Probable space group: P -1
;
_chemical_formula_sum "Si O2"
_cell_formula_units_Z 14
_cell_length_a 10.953474
_cell_length_b 15.549394
_cell_length_c 5.079330
_cell_angle_alpha 84.970075
_cell_angle_beta 110.670355
_cell_angle_gamma 128.482646
_cell_volume 623.239340
_symmetry_space_group_name_H-M "P -1"
_symmetry_group_IT_number 2
_symmetry_cell_setting 'triclinic'
loop_
_space_group_symop_operation_xyz
x,y,z
-x,-y,-z
loop_
_atom_site_type_symbol
_atom_site_label
_atom_site_fract_x
_atom_site_fract_y
_atom_site_fract_z
Si Si1 0.327207 0.384673 0.478288
Si Si2 0.393294 0.886944 0.612133
Si Si3 0.708843 0.929432 0.972618
Si Si4 0.759952 0.752617 0.070726
Si Si5 0.143391 0.924506 0.474662
Si Si6 0.076400 0.429713 0.298607
Si Si7 0.859320 0.352851 0.661865
O O1 0.500000 0.500000 0.500000
O O2 0.358934 0.338158 0.770073
O O3 0.201122 0.405829 0.472668
O O4 0.250596 0.299663 0.200611
O O5 0.524381 0.894010 0.908377
O O6 0.240788 0.875912 0.637429
O O7 0.309232 0.775940 0.399897
O O8 0.500000 0.000000 0.500000
O O9 0.776029 0.996002 0.735288
O O10 0.695241 0.821863 0.958472
O O11 0.840731 0.005536 0.283247
O O12 0.949380 0.823941 0.303705
O O13 0.181660 0.563815 0.335490
O O14 0.926750 0.371677 0.411569
O O15 0.998502 0.378042 0.966866
#
# Coordination Sequence:
#
# PCOD8019534 Si02
#       7
#     2   2   2   2   2   2   2
#     4  12  26  43  66  95 132 167 223 272 329 386
#     4  10  23  40  65  98 135 166 213 269 335 381
#     4  11  24  41  64  99 132 169 216 263 326 386
#     4  12  25  44  68  93 129 181 214 268 328 385
#     4  11  22  42  67  94 132 170 221 261 314 401
#     4  10  22  43  66  95 125 169 224 263 325 378
#     4  10  22  41  68  95 127 170 213 273 317 395
#
# _framework density 22.463277000000001
#
# number of rings (size 3 to 8) (size 9 to 14) (size 15 to 20)
#    0.000    1.143    0.000    6.000    2.000    5.714 
#    5.143    0.000    0.000    0.000    0.000    0.000 
#    0.000    0.000    0.000    0.000    0.000    0.000 
#
# Total GULP energy -173628.865203 kJ/mol
# GULP energy per Si atom -12402.061800 kJ/mol
# Density = 2.241215 g / cm^3
# Si number density = 22.463277 Si / 1000 Ang^3
#
#
#
# Elastic Constant Matrix: (Units=GPa)
#
#
# Indices 1 2 3 4 5 6 
#
# 1 81.7547 33.7308 25.7341 -9.5938 17.4116 -18.3882
# 2 33.7308 143.3647 33.1834 6.4584 11.1373 -16.5257
# 3 25.7341 33.1834 83.3832 -2.2028 -10.2048 -13.2974
# 4 -9.5938 6.4584 -2.2028 37.1282 -0.2801 -5.9996
# 5 17.4116 11.1373 -10.2048 -0.2801 47.9604 -7.8083
# 6 -18.3882 -16.5257 -13.2974 -5.9996 -7.8083 33.9639
#
#
#
# Elastic Compliance Matrix: (Units=1/GPa)
#
#
# Indices 1 2 3 4 5 6 
#
# 1 0.017862 -0.002310 -0.004073 0.005810 -0.005695 0.006669
# 2 -0.002310 0.008492 -0.002738 -0.002073 -0.001551 0.001086
# 3 -0.004073 -0.002738 0.015805 0.001097 0.006178 0.004265
# 4 0.005810 -0.002073 0.001097 0.030139 0.000069 0.007906
# 5 -0.005695 -0.001551 0.006178 0.000069 0.025311 0.004412
# 6 0.006669 0.001086 0.004265 0.007906 0.004412 0.037663
#
#
# Mechanical properties :
#
#
# Convention : Reuss Voigt Hill
#
# Bulk Modulus (GPa) = 41.81376 54.86656 48.34016
# Shear Modulus (GPa) = 30.96270 38.20079 34.58175
#
# Velocity S-wave (km/s) = 3.71667 4.12829 3.92788
# Velocity P-wave (km/s) = 6.08875 6.87035 6.49133
#
# Compressibility (1/GPa) = 0.02391557
#
# Stress axis : x y z
#
# Youngs Moduli (GPa) = 55.98586 117.76459 63.27303
#
# Poissons Ratio (x) = 0.27208 0.25772
# Poissons Ratio (y) = 0.12935 0.17322
# Poissons Ratio (z) = 0.22804 0.32239
#
# Static dielectric constant tensor:
#      x y z
#    x 4.127340 -0.217350 0.060450 
#    y -0.217350 4.283980 0.022010 
#    z 0.060450 0.022010 4.076030 
# 
# 
# High freq. dielectric constant tensor:
#      x y z
#    x 1.879500 -0.014560 0.001860 
#    y -0.014560 1.902340 0.000670 
#    z 0.001860 0.000670 1.888860 
# 
# From -- ./inp_files/62622.got.cif
#   From: 2010.06.25/outbox.cif.g09.slc.cpg/sg2_32_cif.got.tgz:62622.got - 2010.06.27 13:26:56.
