data_PCOD8019778
_publ_section_title
;
Structure prediction by ZEFSAII (Michael W. Deem and Ramdas Pophale) SiO2 
 PCOD8019778
Probable space group: P -1
;
_chemical_formula_sum "Si O2"
_cell_formula_units_Z 16
_cell_length_a 17.529448
_cell_length_b 11.540001
_cell_length_c 9.343891
_cell_angle_alpha 51.364776
_cell_angle_beta 29.526159
_cell_angle_gamma 47.010228
_cell_volume 678.850457
_symmetry_space_group_name_H-M "P -1"
_symmetry_group_IT_number 2
_symmetry_cell_setting 'triclinic'
loop_
_space_group_symop_operation_xyz
x,y,z
-x,-y,-z
loop_
_atom_site_type_symbol
_atom_site_label
_atom_site_fract_x
_atom_site_fract_y
_atom_site_fract_z
Si Si1 0.896436 0.826305 0.100857
Si Si2 0.264338 0.815205 0.482374
Si Si3 0.356908 0.556795 0.311158
Si Si4 0.818670 0.829047 0.698821
Si Si5 0.302978 0.249900 0.762380
Si Si6 0.659398 0.145248 0.352693
Si Si7 0.194247 0.674033 0.222296
Si Si8 0.154093 0.381409 0.422777
O O1 0.775619 0.836538 0.156235
O O2 0.915595 0.671488 0.280394
O O3 0.808942 0.978227 0.226315
O O4 0.077398 0.819095 0.766520
O O5 0.385883 0.668080 0.303755
O O6 0.331326 0.786205 0.557688
O O7 0.272189 0.981677 0.282660
O O8 0.308438 0.415860 0.568332
O O9 0.201551 0.677204 0.380943
O O10 0.500000 0.500000 0.000000
O O11 0.742250 0.766706 0.734565
O O12 0.013046 0.786083 0.379065
O O13 0.809469 0.726161 0.931059
O O14 0.483077 0.130679 0.615039
O O15 0.672717 0.267321 0.116558
O O16 0.260134 0.486967 0.214954
O O17 0.000000 0.500000 0.500000
#
# Coordination Sequence:
#
# PCOD8019778 Si02
#       8
#     2   2   2   2   2   2   2   2
#     4  12  24  48  76 110 145 190 244 299 357 438
#     4  12  27  45  78 106 145 191 247 299 360 433
#     4  12  28  48  68 104 146 196 240 301 366 433
#     4  11  25  46  70 112 143 190 245 301 357 434
#     4  12  29  45  71 105 149 195 240 298 364 428
#     4  12  26  48  74 111 147 192 236 300 369 433
#     4  11  23  45  76 101 150 190 243 294 365 427
#     4  10  22  41  72 107 147 182 236 304 355 417
#
# _framework density 23.569254999999998
#
# number of rings (size 3 to 8) (size 9 to 14) (size 15 to 20)
#    0.000    0.500    5.000    3.000    7.000    5.000 
#    0.000    0.000    0.000    0.000    0.000    0.000 
#    0.000    0.000    0.000    0.000    0.000    0.000 
#
# Total GULP energy -198347.878081 kJ/mol
# GULP energy per Si atom -12396.742380 kJ/mol
# Density = 2.351561 g / cm^3
# Si number density = 23.569255 Si / 1000 Ang^3
#
#
#
# Elastic Constant Matrix: (Units=GPa)
#
#
# Indices 1 2 3 4 5 6 
#
# 1 130.6796 19.7801 41.3871 3.7352 11.7669 4.8299
# 2 19.7801 92.4776 32.9715 -5.3391 8.5680 12.3432
# 3 41.3871 32.9715 94.1273 -8.0445 10.9680 0.8800
# 4 3.7352 -5.3391 -8.0445 40.9520 -3.7459 8.2754
# 5 11.7669 8.5680 10.9680 -3.7459 37.2769 1.2517
# 6 4.8299 12.3432 0.8800 8.2754 1.2517 37.7301
#
#
#
# Elastic Compliance Matrix: (Units=1/GPa)
#
#
# Indices 1 2 3 4 5 6 
#
# 1 0.009155 -0.000471 -0.003789 -0.001707 -0.001822 -0.000495
# 2 -0.000471 0.013190 -0.004063 0.001749 -0.001361 -0.004499
# 3 -0.003789 -0.004063 0.014106 0.002204 -0.001834 0.001063
# 4 -0.001707 0.001749 0.002204 0.026737 0.002388 -0.006349
# 5 -0.001822 -0.001361 -0.001834 0.002388 0.028519 -0.000749
# 6 -0.000495 -0.004499 0.001063 -0.006349 -0.000749 0.029432
#
#
# Mechanical properties :
#
#
# Convention : Reuss Voigt Hill
#
# Bulk Modulus (GPa) = 50.49568 56.17353 53.33460
# Shear Modulus (GPa) = 34.62931 38.06818 36.34874
#
# Velocity S-wave (km/s) = 3.83725 4.02327 3.93136
# Velocity P-wave (km/s) = 6.41120 6.74295 6.57917
#
# Compressibility (1/GPa) = 0.01980368
#
# Stress axis : x y z
#
# Youngs Moduli (GPa) = 109.23209 75.81314 70.89392
#
# Poissons Ratio (x) = 0.03570 0.26865
# Poissons Ratio (y) = 0.05143 0.28806
# Poissons Ratio (z) = 0.41393 0.30805
#
# Static dielectric constant tensor:
#      x y z
#    x 5.065800 0.453640 -0.088940 
#    y 0.453640 4.409730 -0.279460 
#    z -0.088940 -0.279460 4.166620 
# 
# 
# High freq. dielectric constant tensor:
#      x y z
#    x 1.952400 0.001170 0.006210 
#    y 0.001170 1.929610 -0.013200 
#    z 0.006210 -0.013200 1.931400 
# 
# From -- ./inp_files/278641.got.cif
#   From: 2010.06.25/outbox.cif.g09.slc.cpg/sg2_140_cif.got.tgz:278641.got - 2010.06.27 13:26:56.
