data_PCOD8019854
_publ_section_title
;
Structure prediction by ZEFSAII (Michael W. Deem and Ramdas Pophale) SiO2 
 PCOD8019854
Probable space group: P -1
;
_chemical_formula_sum "Si O2"
_cell_formula_units_Z 16
_cell_length_a 14.181294
_cell_length_b 8.756942
_cell_length_c 14.211808
_cell_angle_alpha 145.182774
_cell_angle_beta 55.114941
_cell_angle_gamma 131.547106
_cell_volume 752.604828
_symmetry_space_group_name_H-M "P -1"
_symmetry_group_IT_number 2
_symmetry_cell_setting 'triclinic'
loop_
_space_group_symop_operation_xyz
x,y,z
-x,-y,-z
loop_
_atom_site_type_symbol
_atom_site_label
_atom_site_fract_x
_atom_site_fract_y
_atom_site_fract_z
Si Si1 0.610355 0.899402 0.410754
Si Si2 0.096490 0.789587 0.648324
Si Si3 0.815809 0.056654 0.122671
Si Si4 0.212657 0.551390 0.106518
Si Si5 0.364858 0.692982 0.712170
Si Si6 0.384646 0.690131 0.907906
Si Si7 0.365084 0.111243 0.393295
Si Si8 0.995860 0.268886 0.964511
O O1 0.577911 0.579311 0.222125
O O2 0.593429 0.845296 0.502234
O O3 0.500000 0.000000 0.500000
O O4 0.756057 0.125195 0.418333
O O5 0.087745 0.764413 0.755939
O O6 0.000000 0.500000 0.500000
O O7 0.055449 0.053914 0.778096
O O8 0.698322 0.144480 0.234394
O O9 0.863936 0.093952 0.005247
O O10 0.756820 0.711054 0.003207
O O11 0.068311 0.438442 0.102451
O O12 0.244272 0.805990 0.294240
O O13 0.285967 0.696895 0.043434
O O14 0.314024 0.635725 0.819392
O O15 0.333758 0.385019 0.520098
O O16 0.515610 0.887018 0.732390
O O17 0.500000 0.000000 0.000000
O O18 0.000000 0.500000 0.000000
#
# Coordination Sequence:
#
# PCOD8019854 Si02
#       8
#     2   2   2   2   2   2   2   2
#     4  11  24  43  66  96 136 175 220 271 331 394
#     4  11  25  46  67  99 136 174 221 276 334 395
#     4  11  24  42  70  92 130 168 222 268 329 388
#     4  11  22  42  63  95 126 169 214 273 319 390
#     4  10  22  42  60  95 129 171 211 268 321 390
#     4  11  21  41  65  93 135 174 217 272 326 388
#     4  10  23  37  65  90 132 167 213 262 329 383
#     4  11  25  46  69  94 128 173 221 273 330 394
#
# _framework density 21.259497
#
# number of rings (size 3 to 8) (size 9 to 14) (size 15 to 20)
#    0.000    1.250    3.750    3.000    5.250    2.500 
#    2.250    1.250    0.000    0.000    0.000    0.000 
#    0.000    0.000    0.000    0.000    0.000    0.000 
#
# Total GULP energy -198223.678566 kJ/mol
# GULP energy per Si atom -12388.979910 kJ/mol
# Density = 2.121111 g / cm^3
# Si number density = 21.259497 Si / 1000 Ang^3
#
#
#
# Elastic Constant Matrix: (Units=GPa)
#
#
# Indices 1 2 3 4 5 6 
#
# 1 90.0284 25.8606 49.8332 26.5342 -18.7298 -2.6461
# 2 25.8606 105.3168 27.6687 3.8320 -4.1376 -3.1102
# 3 49.8332 27.6687 81.3307 22.7336 -0.4061 8.7097
# 4 26.5342 3.8320 22.7336 43.2687 3.8228 5.1101
# 5 -18.7298 -4.1376 -0.4061 3.8228 36.4389 5.7679
# 6 -2.6461 -3.1102 8.7097 5.1101 5.7679 36.3940
#
#
#
# Elastic Compliance Matrix: (Units=1/GPa)
#
#
# Indices 1 2 3 4 5 6 
#
# 1 0.023416 -0.001831 -0.011335 -0.009752 0.012139 0.003704
# 2 -0.001831 0.010743 -0.003145 0.001680 -0.000142 0.001324
# 3 -0.011335 -0.003145 0.021713 -0.003153 -0.004806 -0.005085
# 4 -0.009752 0.001680 -0.003153 0.031638 -0.007696 -0.003033
# 5 0.012139 -0.000142 -0.004806 -0.007696 0.034802 -0.002415
# 6 0.003704 0.001324 -0.005085 -0.003033 -0.002415 0.029885
#
#
# Mechanical properties :
#
#
# Convention : Reuss Voigt Hill
#
# Bulk Modulus (GPa) = 43.01041 53.71120 48.36080
# Shear Modulus (GPa) = 25.96463 34.77455 30.36959
#
# Velocity S-wave (km/s) = 3.49853 4.04879 3.78368
# Velocity P-wave (km/s) = 6.04935 6.86850 6.47190
#
# Compressibility (1/GPa) = 0.02325019
#
# Stress axis : x y z
#
# Youngs Moduli (GPa) = 42.70543 93.08004 46.05628
#
# Poissons Ratio (x) = 0.17042 0.52205
# Poissons Ratio (y) = 0.07819 0.14486
# Poissons Ratio (z) = 0.48406 0.29276
#
# Static dielectric constant tensor:
#      x y z
#    x 3.907620 0.194720 0.011220 
#    y 0.194720 4.399610 0.091160 
#    z 0.011220 0.091160 4.276750 
# 
# 
# High freq. dielectric constant tensor:
#      x y z
#    x 1.817690 -0.007970 -0.001420 
#    y -0.007970 1.847280 -0.006950 
#    z -0.001420 -0.006950 1.834900 
# 
# From -- ./inp_files/530295.got.cif
#   From: 2010.06.25/outbox.cif.g09.slc.cpg/sg2_266_cif.got.tgz:530295.got - 2010.06.27 13:26:56.
