data_PCOD8019516
_publ_section_title
;
Structure prediction by ZEFSAII (Michael W. Deem and Ramdas Pophale) SiO2 
 PCOD8019516
Probable space group: P -1
;
_chemical_formula_sum "Si O2"
_cell_formula_units_Z 14
_cell_length_a 9.732721
_cell_length_b 9.962359
_cell_length_c 11.225064
_cell_angle_alpha 117.235959
_cell_angle_beta 108.614966
_cell_angle_gamma 40.628806
_cell_volume 629.393147
_symmetry_space_group_name_H-M "P -1"
_symmetry_group_IT_number 2
_symmetry_cell_setting 'triclinic'
loop_
_space_group_symop_operation_xyz
x,y,z
-x,-y,-z
loop_
_atom_site_type_symbol
_atom_site_label
_atom_site_fract_x
_atom_site_fract_y
_atom_site_fract_z
Si Si1 0.309689 0.539163 0.003908
Si Si2 0.933463 0.919084 0.206379
Si Si3 0.255557 0.100199 0.631874
Si Si4 0.673532 0.668278 0.672157
Si Si5 0.062044 0.747852 0.575575
Si Si6 0.079480 0.551110 0.741474
Si Si7 0.531646 0.152634 0.071674
O O1 0.153071 0.619368 0.884993
O O2 0.500000 0.500000 0.000000
O O3 0.417846 0.304446 0.985865
O O4 0.172823 0.722049 0.144872
O O5 0.883625 0.836974 0.263934
O O6 0.885891 0.120892 0.325111
O O7 0.780202 0.004289 0.085328
O O8 0.243465 0.288527 0.682889
O O9 0.166140 0.083840 0.483221
O O10 0.498981 0.871628 0.618986
O O11 0.769194 0.445138 0.550344
O O12 0.568267 0.696148 0.777039
O O13 0.845841 0.665798 0.750048
O O14 0.072094 0.632025 0.643994
O O15 0.500000 0.000000 0.000000
#
# Coordination Sequence:
#
# PCOD8019516 Si02
#       7
#     2   2   2   2   2   2   2
#     4  12  26  43  65  93 129 170 208 259 324 375
#     4  11  25  43  64  95 129 164 213 264 311 375
#     4  10  22  41  68  93 122 166 210 260 316 372
#     4  10  22  41  68  95 125 166 213 260 313 372
#     4  11  24  40  62  95 133 167 207 259 313 375
#     4  11  24  41  62  94 128 164 214 262 308 374
#     4  11  24  43  69  96 125 167 215 262 311 371
#
# _framework density 22.243646999999999
#
# number of rings (size 3 to 8) (size 9 to 14) (size 15 to 20)
#    0.000    1.143    0.000    7.286    0.000   13.143 
#    0.000    0.000    0.000    0.000    0.000    0.000 
#    0.000    0.000    0.000    0.000    0.000    0.000 
#
# Total GULP energy -173634.266160 kJ/mol
# GULP energy per Si atom -12402.447583 kJ/mol
# Density = 2.219302 g / cm^3
# Si number density = 22.243647 Si / 1000 Ang^3
#
#
#
# Elastic Constant Matrix: (Units=GPa)
#
#
# Indices 1 2 3 4 5 6 
#
# 1 101.7030 49.5482 47.2599 7.3971 13.7427 -7.3521
# 2 49.5482 127.6322 43.4653 -13.0022 10.1727 -13.9502
# 3 47.2599 43.4653 102.5025 -4.3987 20.1292 -11.0764
# 4 7.3971 -13.0022 -4.3987 38.5386 1.5536 5.4484
# 5 13.7427 10.1727 20.1292 1.5536 36.2386 -7.7410
# 6 -7.3521 -13.9502 -11.0764 5.4484 -7.7410 29.5666
#
#
#
# Elastic Compliance Matrix: (Units=1/GPa)
#
#
# Indices 1 2 3 4 5 6 
#
# 1 0.014823 -0.004457 -0.004846 -0.004888 -0.001405 0.000300
# 2 -0.004457 0.010979 -0.002194 0.003936 0.000209 0.002579
# 3 -0.004846 -0.002194 0.014168 0.001823 -0.005202 0.001370
# 4 -0.004888 0.003936 0.001823 0.029191 -0.002523 -0.004715
# 5 -0.001405 0.000209 -0.005202 -0.002523 0.032514 0.006778
# 6 0.000300 0.002579 0.001370 -0.004715 0.006778 0.038270
#
#
# Mechanical properties :
#
#
# Convention : Reuss Voigt Hill
#
# Bulk Modulus (GPa) = 58.90613 68.04272 63.47442
# Shear Modulus (GPa) = 29.65656 33.63972 31.64814
#
# Velocity S-wave (km/s) = 3.65534 3.89309 3.77609
# Velocity P-wave (km/s) = 6.65996 7.13192 6.89998
#
# Compressibility (1/GPa) = 0.01697616
#
# Stress axis : x y z
#
# Youngs Moduli (GPa) = 67.46366 91.08536 70.58157
#
# Poissons Ratio (x) = 0.40600 0.34201
# Poissons Ratio (y) = 0.30071 0.15484
# Poissons Ratio (z) = 0.32690 0.19982
#
# Static dielectric constant tensor:
#      x y z
#    x 3.919080 -0.132250 0.014100 
#    y -0.132250 4.291500 -0.300790 
#    z 0.014100 -0.300790 4.123560 
# 
# 
# High freq. dielectric constant tensor:
#      x y z
#    x 1.868490 -0.004250 0.004700 
#    y -0.004250 1.892920 -0.012250 
#    z 0.004700 -0.012250 1.879080 
# 
# From -- ./inp_files/381433.got.cif
#   From: 2010.06.25/outbox.cif.g09.slc.cpg/sg2_191_cif.got.tgz:381433.got - 2010.06.27 13:26:56.
