data_PCOD8019163
_publ_section_title
;
Structure prediction by ZEFSAII (Michael W. Deem and Ramdas Pophale) SiO2 
 PCOD8019163
Probable space group: P -1
;
_chemical_formula_sum "Si O2"
_cell_formula_units_Z 14
_cell_length_a 8.882224
_cell_length_b 26.371640
_cell_length_c 5.401450
_cell_angle_alpha 66.644506
_cell_angle_beta 80.814739
_cell_angle_gamma 32.354746
_cell_volume 580.723976
_symmetry_space_group_name_H-M "P -1"
_symmetry_group_IT_number 2
_symmetry_cell_setting 'triclinic'
loop_
_space_group_symop_operation_xyz
x,y,z
-x,-y,-z
loop_
_atom_site_type_symbol
_atom_site_label
_atom_site_fract_x
_atom_site_fract_y
_atom_site_fract_z
Si Si1 0.106301 0.936366 0.847277
Si Si2 0.846448 0.895342 0.045796
Si Si3 0.974446 0.792859 0.700999
Si Si4 0.596248 0.592769 0.786015
Si Si5 0.262503 0.538911 0.342688
Si Si6 0.728513 0.754798 0.825196
Si Si7 0.824737 0.636283 0.661474
O O1 0.473570 0.820437 0.971571
O O2 0.000000 0.000000 0.500000
O O3 0.969755 0.918000 0.925830
O O4 0.000000 0.000000 0.000000
O O5 0.010438 0.817570 0.391640
O O6 0.879961 0.853457 0.856860
O O7 0.500000 0.000000 0.000000
O O8 0.732292 0.819787 0.655200
O O9 0.319587 0.664368 0.903158
O O10 0.553070 0.572067 0.583520
O O11 0.595239 0.658846 0.611236
O O12 0.913684 0.471405 0.032001
O O13 0.500000 0.500000 0.500000
O O14 0.966351 0.613932 0.420181
O O15 0.086876 0.630910 0.010735
O O16 0.644451 0.743039 0.632805
#
# Coordination Sequence:
#
# PCOD8019163 Si02
#       7
#     2   2   2   2   2   2   2
#     4  12  27  49  78 105 142 183 240 297 357 426
#     4  12  27  48  72 104 140 182 233 294 357 420
#     4  12  26  43  73 101 144 181 235 284 355 422
#     4  10  23  40  62 102 132 191 229 296 347 416
#     4  11  23  39  67  96 145 181 242 288 351 423
#     4  11  26  42  69 105 136 193 234 294 357 419
#     4  10  22  41  65  92 145 175 245 283 351 419
#
# _framework density 24.107838000000001
#
# number of rings (size 3 to 8) (size 9 to 14) (size 15 to 20)
#    0.000    0.857    0.000    6.000   10.000    2.286 
#    0.000    0.000    0.000    0.000    0.000    0.000 
#    0.000    0.000    0.000    0.000    0.000    0.000 
#
# Total GULP energy -173454.515902 kJ/mol
# GULP energy per Si atom -12389.608279 kJ/mol
# Density = 2.405297 g / cm^3
# Si number density = 24.107838 Si / 1000 Ang^3
#
#
#
# Elastic Constant Matrix: (Units=GPa)
#
#
# Indices 1 2 3 4 5 6 
#
# 1 213.1030 93.5340 52.6217 6.6637 -21.1257 20.6884
# 2 93.5340 185.0103 28.3361 27.8605 1.4218 17.0698
# 3 52.6217 28.3361 85.0273 26.2901 -6.7881 19.0006
# 4 6.6637 27.8605 26.2901 26.1786 -3.6582 8.9562
# 5 -21.1257 1.4218 -6.7881 -3.6582 38.1099 8.2526
# 6 20.6884 17.0698 19.0006 8.9562 8.2526 56.8590
#
#
#
# Elastic Compliance Matrix: (Units=1/GPa)
#
#
# Indices 1 2 3 4 5 6 
#
# 1 0.008829 -0.004982 -0.006233 0.010807 0.005469 -0.002130
# 2 -0.004982 0.009311 0.003575 -0.012901 -0.003799 0.000406
# 3 -0.006233 0.003575 0.022226 -0.023972 -0.001444 -0.002247
# 4 0.010807 -0.012901 -0.023972 0.076711 0.010800 -0.005699
# 5 0.005469 -0.003799 -0.001444 0.010800 0.031635 -0.006659
# 6 -0.002130 0.000406 -0.002247 -0.005699 -0.006659 0.020856
#
#
# Mechanical properties :
#
#
# Convention : Reuss Voigt Hill
#
# Bulk Modulus (GPa) = 39.86207 92.45825 66.16016
# Shear Modulus (GPa) = 25.87885 44.80610 35.34247
#
# Velocity S-wave (km/s) = 3.27993 4.31579 3.83301
# Velocity P-wave (km/s) = 5.56010 7.95424 6.86238
#
# Compressibility (1/GPa) = 0.02508650
#
# Stress axis : x y z
#
# Youngs Moduli (GPa) = 113.25881 107.40339 44.99307
#
# Poissons Ratio (x) = 0.53509 0.28044
# Poissons Ratio (y) = 0.56426 -0.16086
# Poissons Ratio (z) = 0.70593 -0.38400
#
# Static dielectric constant tensor:
#      x y z
#    x 4.767660 0.101230 -0.042200 
#    y 0.101230 4.537140 -0.052710 
#    z -0.042200 -0.052710 4.404370 
# 
# 
# High freq. dielectric constant tensor:
#      x y z
#    x 1.981780 -0.001120 -0.002820 
#    y -0.001120 1.975760 0.001200 
#    z -0.002820 0.001200 1.942380 
# 
# From -- ./inp_files/52825.got.cif
#   From: 2010.06.25/outbox.cif.g09.slc.cpg/sg2_27_cif.got.tgz:52825.got - 2010.06.27 13:26:56.
