data_PCOD8019411
_publ_section_title
;
Structure prediction by ZEFSAII (Michael W. Deem and Ramdas Pophale) SiO2 
 PCOD8019411
Probable space group: P -1
;
_chemical_formula_sum "Si O2"
_cell_formula_units_Z 14
_cell_length_a 6.418777
_cell_length_b 11.839204
_cell_length_c 11.153361
_cell_angle_alpha 112.049870
_cell_angle_beta 81.214881
_cell_angle_gamma 63.591175
_cell_volume 649.332270
_symmetry_space_group_name_H-M "P -1"
_symmetry_group_IT_number 2
_symmetry_cell_setting 'triclinic'
loop_
_space_group_symop_operation_xyz
x,y,z
-x,-y,-z
loop_
_atom_site_type_symbol
_atom_site_label
_atom_site_fract_x
_atom_site_fract_y
_atom_site_fract_z
Si Si1 0.076310 0.358547 0.626969
Si Si2 0.400076 0.490324 0.133782
Si Si3 0.028047 0.787609 0.627177
Si Si4 0.156247 0.609450 0.774016
Si Si5 0.808995 0.657535 0.015792
Si Si6 0.639610 0.109827 0.475288
Si Si7 0.544568 0.052157 0.701569
O O1 0.085628 0.502464 0.678222
O O2 0.349467 0.224822 0.582580
O O3 0.882736 0.372830 0.753500
O O4 0.993614 0.329373 0.494627
O O5 0.565903 0.477427 0.227569
O O6 0.500000 0.500000 0.000000
O O7 0.377012 0.352182 0.065003
O O8 0.138549 0.719694 0.720199
O O9 0.224595 0.815890 0.558207
O O10 0.753846 0.937233 0.731645
O O11 0.971295 0.699491 0.937919
O O12 0.628188 0.783084 0.173287
O O13 0.000000 0.500000 0.000000
O O14 0.732043 0.035976 0.569068
O O15 0.646740 0.996891 0.334974
#
# Coordination Sequence:
#
# PCOD8019411 Si02
#       7
#     2   2   2   2   2   2   2
#     4  10  23  40  67  97 130 167 218 273 323 374
#     4  11  23  38  64  97 127 168 215 267 321 380
#     4  11  24  42  65  95 133 175 217 261 329 393
#     4  11  24  41  63  98 134 171 216 269 325 383
#     4  11  23  43  67  94 128 165 219 274 324 379
#     4  10  22  41  67  95 129 170 219 270 322 380
#     4  10  23  42  64  94 128 172 216 272 322 385
#
# _framework density 21.560608999999999
#
# number of rings (size 3 to 8) (size 9 to 14) (size 15 to 20)
#    0.000    1.429    1.429    3.429    2.000    8.571 
#    0.000    1.429    0.000    0.000    0.000    0.000 
#    0.000    0.000    0.000    0.000    0.000    0.000 
#
# Total GULP energy -173463.041544 kJ/mol
# GULP energy per Si atom -12390.217253 kJ/mol
# Density = 2.151154 g / cm^3
# Si number density = 21.560609 Si / 1000 Ang^3
#
#
#
# Elastic Constant Matrix: (Units=GPa)
#
#
# Indices 1 2 3 4 5 6 
#
# 1 116.2169 45.8974 50.1803 0.4485 4.2078 5.0524
# 2 45.8974 100.9788 45.0241 -8.2432 3.4152 -2.9070
# 3 50.1803 45.0241 113.1844 15.8744 -2.6693 -8.3452
# 4 0.4485 -8.2432 15.8744 35.3075 -2.4938 -0.9738
# 5 4.2078 3.4152 -2.6693 -2.4938 29.8952 0.7024
# 6 5.0524 -2.9070 -8.3452 -0.9738 0.7024 28.1160
#
#
#
# Elastic Compliance Matrix: (Units=1/GPa)
#
#
# Indices 1 2 3 4 5 6 
#
# 1 0.012115 -0.003545 -0.004385 0.000777 -0.001538 -0.003780
# 2 -0.003545 0.014155 -0.004783 0.005447 -0.001112 0.000897
# 3 -0.004385 -0.004783 0.014030 -0.007132 0.001723 0.004168
# 4 0.000777 0.005447 -0.007132 0.032873 0.001388 -0.000590
# 5 -0.001538 -0.001112 0.001723 0.001388 0.034066 -0.000130
# 6 -0.003780 0.000897 0.004168 -0.000590 -0.000130 0.037559
#
#
# Mechanical properties :
#
#
# Convention : Reuss Voigt Hill
#
# Bulk Modulus (GPa) = 67.23014 68.06486 67.64750
# Shear Modulus (GPa) = 28.54174 31.28230 29.91202
#
# Velocity S-wave (km/s) = 3.64234 3.81320 3.72875
# Velocity P-wave (km/s) = 6.99560 7.14318 7.06978
#
# Compressibility (1/GPa) = 0.01487428
#
# Stress axis : x y z
#
# Youngs Moduli (GPa) = 82.54314 70.64648 71.27456
#
# Poissons Ratio (x) = 0.25042 0.31254
# Poissons Ratio (y) = 0.29259 0.34092
# Poissons Ratio (z) = 0.36195 0.33792
#
# Static dielectric constant tensor:
#      x y z
#    x 4.302160 0.006160 0.078350 
#    y 0.006160 3.596590 0.050940 
#    z 0.078350 0.050940 4.023070 
# 
# 
# High freq. dielectric constant tensor:
#      x y z
#    x 1.862120 -0.000810 0.000100 
#    y -0.000810 1.820670 0.000270 
#    z 0.000100 0.000270 1.847520 
# 
# From -- ./inp_files/82075.got.cif
#   From: 2010.06.25/outbox.cif.g09.slc.cpg/sg2_42_cif.got.tgz:82075.got - 2010.06.27 13:26:56.
