data_PCOD8019588
_publ_section_title
;
Structure prediction by ZEFSAII (Michael W. Deem and Ramdas Pophale) SiO2 
 PCOD8019588
Probable space group: P -1
;
_chemical_formula_sum "Si O2"
_cell_formula_units_Z 16
_cell_length_a 19.318204
_cell_length_b 8.684775
_cell_length_c 21.047277
_cell_angle_alpha 39.544098
_cell_angle_beta 19.561010
_cell_angle_gamma 38.217835
_cell_volume 723.281590
_symmetry_space_group_name_H-M "P -1"
_symmetry_group_IT_number 2
_symmetry_cell_setting 'triclinic'
loop_
_space_group_symop_operation_xyz
x,y,z
-x,-y,-z
loop_
_atom_site_type_symbol
_atom_site_label
_atom_site_fract_x
_atom_site_fract_y
_atom_site_fract_z
Si Si1 0.938480 0.131457 0.320278
Si Si2 0.926423 0.282486 0.423721
Si Si3 0.760097 0.093087 0.237308
Si Si4 0.382279 0.798056 0.998510
Si Si5 0.624292 0.766059 0.548441
Si Si6 0.508755 0.003737 0.696375
Si Si7 0.133108 0.304458 0.838518
Si Si8 0.640033 0.982600 0.821403
O O1 0.975033 0.129877 0.364793
O O2 0.943111 0.395554 0.200800
O O3 0.701033 0.105537 0.523224
O O4 0.126498 0.892989 0.206445
O O5 0.840777 0.578244 0.394007
O O6 0.145444 0.248586 0.284314
O O7 0.736654 0.219101 0.650349
O O8 0.639612 0.037004 0.422691
O O9 0.837717 0.838631 0.208737
O O10 0.586023 0.295221 0.280571
O O11 0.939248 0.220343 0.066244
O O12 0.500000 0.500000 0.000000
O O13 0.400264 0.884313 0.883705
O O14 0.501256 0.950226 0.891881
O O15 0.608580 0.772664 0.635790
O O16 0.335609 0.221360 0.737770
O O17 0.500000 0.000000 0.000000
#
# Coordination Sequence:
#
# PCOD8019588 Si02
#       8
#     2   2   2   2   2   2   2   2
#     4  12  25  47  71 104 141 186 225 288 348 410
#     4  11  24  43  74  99 130 177 233 288 338 402
#     4   9  20  39  68 105 139 175 227 279 331 409
#     4  12  30  48  68 101 141 184 234 289 347 414
#     4  10  22  41  69 101 138 181 220 283 342 405
#     4  11  27  46  67 105 144 186 223 280 356 416
#     4  10  22  43  71 105 142 180 230 279 343 419
#     4  11  25  46  68 100 129 176 241 289 338 396
#
# _framework density 22.121399
#
# number of rings (size 3 to 8) (size 9 to 14) (size 15 to 20)
#    0.000    1.250    3.750    0.375    7.000    1.000 
#    0.000    0.000    0.000    0.000    0.000    0.000 
#    0.000    0.000    0.000    0.000    0.000    0.000 
#
# Total GULP energy -198279.016398 kJ/mol
# GULP energy per Si atom -12392.438525 kJ/mol
# Density = 2.207105 g / cm^3
# Si number density = 22.121399 Si / 1000 Ang^3
#
#
#
# Elastic Constant Matrix: (Units=GPa)
#
#
# Indices 1 2 3 4 5 6 
#
# 1 99.4952 13.2337 28.6802 2.7361 16.6066 -9.3235
# 2 13.2337 102.8678 14.4200 12.5220 7.9578 -12.1474
# 3 28.6802 14.4200 107.6990 2.9750 6.5727 -8.5590
# 4 2.7361 12.5220 2.9750 21.5633 -3.5360 -0.4588
# 5 16.6066 7.9578 6.5727 -3.5360 46.0159 6.9952
# 6 -9.3235 -12.1474 -8.5590 -0.4588 6.9952 23.4426
#
#
#
# Elastic Compliance Matrix: (Units=1/GPa)
#
#
# Indices 1 2 3 4 5 6 
#
# 1 0.012149 0.000044 -0.002451 -0.001936 -0.005015 0.005418
# 2 0.000044 0.011755 -0.000631 -0.007181 -0.003543 0.006795
# 3 -0.002451 -0.000631 0.010322 -0.000846 -0.000962 0.002737
# 4 -0.001936 -0.007181 -0.000846 0.051921 0.006941 -0.005855
# 5 -0.005015 -0.003543 -0.000962 0.006941 0.026649 -0.011998
# 6 0.005418 0.006795 0.002737 -0.005855 -0.011998 0.052798
#
#
# Mechanical properties :
#
#
# Convention : Reuss Voigt Hill
#
# Bulk Modulus (GPa) = 35.52431 46.96998 41.24715
# Shear Modulus (GPa) = 27.61619 35.11956 31.36788
#
# Velocity S-wave (km/s) = 3.53709 3.98877 3.76970
# Velocity P-wave (km/s) = 5.72495 6.51864 6.13464
#
# Compressibility (1/GPa) = 0.02814974
#
# Stress axis : x y z
#
# Youngs Moduli (GPa) = 82.30863 85.07289 96.88088
#
# Poissons Ratio (x) = -0.00375 0.23747
# Poissons Ratio (y) = -0.00362 0.06113
# Poissons Ratio (z) = 0.20175 0.05368
#
# Static dielectric constant tensor:
#      x y z
#    x 4.047940 -0.152230 -0.000040 
#    y -0.152230 3.918940 0.223350 
#    z -0.000040 0.223350 4.154140 
# 
# 
# High freq. dielectric constant tensor:
#      x y z
#    x 1.877510 -0.016610 0.002760 
#    y -0.016610 1.854750 0.015880 
#    z 0.002760 0.015880 1.883660 
# 
# From -- ./inp_files/599689.got.cif
#   From: 2010.06.25/outbox.cif.g09.slc.cpg/sg2_300_cif.got.tgz:599689.got - 2010.06.27 13:26:56.
