data_PCOD8019956
_publ_section_title
;
Structure prediction by ZEFSAII (Michael W. Deem and Ramdas Pophale) SiO2 
 PCOD8019956
Probable space group: P -1
;
_chemical_formula_sum "Si O2"
_cell_formula_units_Z 16
_cell_length_a 12.620131
_cell_length_b 8.979271
_cell_length_c 9.341631
_cell_angle_alpha 85.323012
_cell_angle_beta 45.052562
_cell_angle_gamma 88.734824
_cell_volume 745.780074
_symmetry_space_group_name_H-M "P -1"
_symmetry_group_IT_number 2
_symmetry_cell_setting 'triclinic'
loop_
_space_group_symop_operation_xyz
x,y,z
-x,-y,-z
loop_
_atom_site_type_symbol
_atom_site_label
_atom_site_fract_x
_atom_site_fract_y
_atom_site_fract_z
Si Si1 0.344697 0.414065 0.620841
Si Si2 0.341644 0.571439 0.122050
Si Si3 0.833183 0.570101 0.934649
Si Si4 0.415857 0.897742 0.971705
Si Si5 0.835805 0.905085 0.803896
Si Si6 0.139159 0.435350 0.564624
Si Si7 0.406042 0.102600 0.479428
Si Si8 0.868238 0.911820 0.440425
O O1 0.500000 0.500000 0.500000
O O2 0.283143 0.469422 0.524572
O O3 0.375602 0.240226 0.599369
O O4 0.209238 0.438259 0.858058
O O5 0.291156 0.542362 0.009890
O O6 0.199288 0.498556 0.351045
O O7 0.500000 0.500000 0.000000
O O8 0.354814 0.748623 0.124706
O O9 0.811044 0.735079 0.884535
O O10 0.000984 0.523803 0.748490
O O11 0.511372 0.844992 0.749923
O O12 0.500000 0.000000 0.000000
O O13 0.286771 0.992513 0.016827
O O14 0.808952 0.919501 0.658270
O O15 0.991818 0.971076 0.712438
O O16 0.090788 0.259196 0.617266
O O17 0.248439 0.030831 0.572189
O O18 0.500000 0.000000 0.500000
#
# Coordination Sequence:
#
# PCOD8019956 Si02
#       8
#     2   2   2   2   2   2   2   2
#     4  11  25  46  65  94 135 176 221 274 330 398
#     4  12  24  41  66  98 133 171 222 277 329 392
#     4  12  24  42  68  99 129 176 226 269 333 396
#     4  12  24  41  66  99 131 173 223 274 335 394
#     4  11  23  39  67  98 135 165 223 269 331 393
#     4  11  24  43  67  97 134 176 219 275 334 392
#     4  11  24  45  67  93 134 175 220 273 334 399
#     4  10  22  42  63  97 133 173 210 276 329 391
#
# _framework density 21.454046000000002
#
# number of rings (size 3 to 8) (size 9 to 14) (size 15 to 20)
#    0.000    0.750    2.500    6.000    3.500    2.000 
#    0.000    6.875    0.000    0.000    0.000    0.000 
#    0.000    0.000    0.000    0.000    0.000    0.000 
#
# Total GULP energy -198380.243953 kJ/mol
# GULP energy per Si atom -12398.765247 kJ/mol
# Density = 2.140522 g / cm^3
# Si number density = 21.454046 Si / 1000 Ang^3
#
#
#
# Elastic Constant Matrix: (Units=GPa)
#
#
# Indices 1 2 3 4 5 6 
#
# 1 119.1135 49.9086 11.4948 4.5245 -1.5370 4.2445
# 2 49.9086 118.3758 20.1016 4.8974 -8.7810 2.5485
# 3 11.4948 20.1016 92.8080 17.8510 -7.4731 3.2851
# 4 4.5245 4.8974 17.8510 34.5966 -4.3804 -5.7719
# 5 -1.5370 -8.7810 -7.4731 -4.3804 30.6463 7.9741
# 6 4.2445 2.5485 3.2851 -5.7719 7.9741 39.6391
#
#
#
# Elastic Compliance Matrix: (Units=1/GPa)
#
#
# Indices 1 2 3 4 5 6 
#
# 1 0.010265 -0.004291 -0.000206 -0.000847 -0.000680 -0.000793
# 2 -0.004291 0.010730 -0.001574 0.000086 0.002649 -0.000620
# 3 -0.000206 -0.001574 0.012633 -0.006362 0.002312 -0.002315
# 4 -0.000847 0.000086 -0.006362 0.033373 0.001875 0.005095
# 5 -0.000680 0.002649 0.002312 0.001875 0.036080 -0.007274
# 6 -0.000793 -0.000620 -0.002315 0.005095 -0.007274 0.027749
#
#
# Mechanical properties :
#
#
# Convention : Reuss Voigt Hill
#
# Bulk Modulus (GPa) = 46.53982 54.81192 50.67587
# Shear Modulus (GPa) = 33.30330 37.56255 35.43293
#
# Velocity S-wave (km/s) = 3.94421 4.18884 4.06836
# Velocity P-wave (km/s) = 6.51784 6.99994 6.76319
#
# Compressibility (1/GPa) = 0.02148698
#
# Stress axis : x y z
#
# Youngs Moduli (GPa) = 97.41973 93.19265 79.15653
#
# Poissons Ratio (x) = 0.39990 0.01628
# Poissons Ratio (y) = 0.41804 0.12459
# Poissons Ratio (z) = 0.02003 0.14668
#
# Static dielectric constant tensor:
#      x y z
#    x 3.333950 -0.045740 0.127000 
#    y -0.045740 3.868920 0.296860 
#    z 0.127000 0.296860 3.984440 
# 
# 
# High freq. dielectric constant tensor:
#      x y z
#    x 1.856530 0.006390 -0.007200 
#    y 0.006390 1.845020 0.015330 
#    z -0.007200 0.015330 1.842200 
# 
# From -- ./inp_files/158712.got.cif
#   From: 2010.06.25/outbox.cif.g09.slc.cpg/sg2_80_cif.got.tgz:158712.got - 2010.06.27 13:26:56.
