data_PCOD8019868
_publ_section_title
;
Structure prediction by ZEFSAII (Michael W. Deem and Ramdas Pophale) SiO2 
 PCOD8019868
Probable space group: P -1
;
_chemical_formula_sum "Si O2"
_cell_formula_units_Z 16
_cell_length_a 11.704835
_cell_length_b 10.724143
_cell_length_c 14.426305
_cell_angle_alpha 116.394066
_cell_angle_beta 149.966737
_cell_angle_gamma 81.674069
_cell_volume 685.675184
_symmetry_space_group_name_H-M "P -1"
_symmetry_group_IT_number 2
_symmetry_cell_setting 'triclinic'
loop_
_space_group_symop_operation_xyz
x,y,z
-x,-y,-z
loop_
_atom_site_type_symbol
_atom_site_label
_atom_site_fract_x
_atom_site_fract_y
_atom_site_fract_z
Si Si1 0.662905 0.494831 0.816395
Si Si2 0.946116 0.081027 0.574667
Si Si3 0.848609 0.272420 0.091278
Si Si4 0.581597 0.759599 0.913751
Si Si5 0.795263 0.433224 0.695058
Si Si6 0.455086 0.101428 0.242753
Si Si7 0.356195 0.243746 0.660841
Si Si8 0.929760 0.320042 0.376932
O O1 0.497616 0.581555 0.754800
O O2 0.678900 0.487977 0.715102
O O3 0.479321 0.310171 0.667206
O O4 0.962519 0.586278 0.103136
O O5 0.745831 0.138541 0.423460
O O6 0.223865 0.222954 0.860284
O O7 0.000000 0.000000 0.500000
O O8 0.812942 0.953242 0.524944
O O9 0.923254 0.272263 0.249831
O O10 0.099421 0.419154 0.258244
O O11 0.604872 0.305188 0.927740
O O12 0.738303 0.084769 0.912677
O O13 0.699774 0.885039 0.950970
O O14 0.354925 0.787519 0.806637
O O15 0.544710 0.254113 0.426525
O O16 0.160381 0.301660 0.581386
O O17 0.000000 0.500000 0.500000
#
# Coordination Sequence:
#
# PCOD8019868 Si02
#       8
#     2   2   2   2   2   2   2   2
#     4  10  22  44  67  94 127 169 220 269 318 386
#     4  11  23  41  63  94 134 171 211 262 323 385
#     4  10  24  43  64  98 129 166 220 262 318 390
#     4  12  23  40  64  97 131 166 214 264 325 385
#     4  10  22  46  70  90 131 172 218 272 321 378
#     4  11  23  42  66  96 129 173 216 263 326 385
#     4  10  22  42  61  92 130 167 209 264 316 380
#     4  12  23  38  64  97 131 169 210 260 324 389
#
# _framework density 23.334665000000001
#
# number of rings (size 3 to 8) (size 9 to 14) (size 15 to 20)
#    0.000    1.250    2.500    3.750    0.000    2.500 
#    2.250    3.125    0.000    0.000    0.000    0.000 
#    0.000    0.000    0.000    0.000    0.000    0.000 
#
# Total GULP energy -198232.967328 kJ/mol
# GULP energy per Si atom -12389.560458 kJ/mol
# Density = 2.328155 g / cm^3
# Si number density = 23.334665 Si / 1000 Ang^3
#
#
#
# Elastic Constant Matrix: (Units=GPa)
#
#
# Indices 1 2 3 4 5 6 
#
# 1 104.3910 29.4462 29.4535 10.4898 -11.8387 5.1596
# 2 29.4462 88.6137 27.5691 13.0438 -9.3548 10.1020
# 3 29.4535 27.5691 81.2035 12.3072 -12.9312 -2.9333
# 4 10.4898 13.0438 12.3072 41.3048 -1.5247 4.9301
# 5 -11.8387 -9.3548 -12.9312 -1.5247 31.8470 0.0119
# 6 5.1596 10.1020 -2.9333 4.9301 0.0119 27.9608
#
#
#
# Elastic Compliance Matrix: (Units=1/GPa)
#
#
# Indices 1 2 3 4 5 6 
#
# 1 0.011502 -0.002361 -0.002883 -0.001064 0.002361 -0.001385
# 2 -0.002361 0.014210 -0.003521 -0.002215 0.001763 -0.004678
# 3 -0.002883 -0.003521 0.015852 -0.003206 0.004176 0.004031
# 4 -0.001064 -0.002215 -0.003206 0.026576 -0.001074 -0.004025
# 5 0.002361 0.001763 0.004176 -0.001074 0.034440 -0.000460
# 6 -0.001385 -0.004678 0.004031 -0.004025 -0.000460 0.038843
#
#
# Mechanical properties :
#
#
# Convention : Reuss Voigt Hill
#
# Bulk Modulus (GPa) = 41.60652 49.68288 45.64470
# Shear Modulus (GPa) = 29.94642 32.73848 31.34245
#
# Velocity S-wave (km/s) = 3.58627 3.74972 3.66891
# Velocity P-wave (km/s) = 5.91756 6.33127 6.12790
#
# Compressibility (1/GPa) = 0.02403469
#
# Stress axis : x y z
#
# Youngs Moduli (GPa) = 86.94124 70.37119 63.08263
#
# Poissons Ratio (x) = 0.16617 0.18187
# Poissons Ratio (y) = 0.20530 0.22208
# Poissons Ratio (z) = 0.25066 0.24774
#
# Static dielectric constant tensor:
#      x y z
#    x 5.644710 -0.902310 2.193050 
#    y -0.902310 4.950930 -1.142670 
#    z 2.193050 -1.142670 5.694340 
# 
# 
# High freq. dielectric constant tensor:
#      x y z
#    x 1.897890 0.007930 0.005550 
#    y 0.007930 1.934770 -0.012330 
#    z 0.005550 -0.012330 1.923280 
# 
# From -- ./inp_files/390124.got.cif
#   From: 2010.06.25/outbox.cif.g09.slc.cpg/sg2_196_cif.got.tgz:390124.got - 2010.06.27 13:26:56.
