data_PCOD8019183
_publ_section_title
;
Structure prediction by ZEFSAII (Michael W. Deem and Ramdas Pophale) SiO2 
 PCOD8019183
Probable space group: P -1
;
_chemical_formula_sum "Si O2"
_cell_formula_units_Z 16
_cell_length_a 13.947569
_cell_length_b 15.814059
_cell_length_c 14.521792
_cell_angle_alpha 135.930669
_cell_angle_beta 159.534120
_cell_angle_gamma 40.717472
_cell_volume 730.074382
_symmetry_space_group_name_H-M "P -1"
_symmetry_group_IT_number 2
_symmetry_cell_setting 'triclinic'
loop_
_space_group_symop_operation_xyz
x,y,z
-x,-y,-z
loop_
_atom_site_type_symbol
_atom_site_label
_atom_site_fract_x
_atom_site_fract_y
_atom_site_fract_z
Si Si1 0.265007 0.808992 0.432640
Si Si2 0.160299 0.585832 0.254941
Si Si3 0.660472 0.586601 0.259981
Si Si4 0.679814 0.089670 0.255048
Si Si5 0.090880 0.901528 0.715760
Si Si6 0.848590 0.552112 0.116531
Si Si7 0.446429 0.392934 0.611877
Si Si8 0.595596 0.778149 0.196685
O O1 0.085783 0.719218 0.236287
O O2 0.448322 0.821624 0.700078
O O3 0.472872 0.737448 0.479277
O O4 0.049183 0.945030 0.307544
O O5 0.500000 0.500000 0.500000
O O6 0.006427 0.621251 0.243294
O O7 0.000000 0.500000 0.000000
O O8 0.518417 0.633544 0.268556
O O9 0.598320 0.723437 0.258825
O O10 0.000000 0.500000 0.500000
O O11 0.500000 0.500000 0.000000
O O12 0.707186 0.165177 0.244424
O O13 0.000000 0.000000 0.500000
O O14 0.500000 0.000000 0.000000
O O15 0.847385 0.838140 0.461294
O O16 0.285622 0.884351 0.970236
O O17 0.104173 0.464485 0.343909
O O18 0.625423 0.660090 0.062748
O O19 0.661049 0.471889 0.837387
#
# Coordination Sequence:
#
# PCOD8019183 Si02
#       8
#     2   2   2   2   2   2   2   2
#     4  11  25  45  69  99 150 181 233 278 346 415
#     4  12  24  40  63  99 142 183 224 275 344 411
#     4  12  23  45  73 102 133 176 230 295 358 416
#     4  10  22  41  65  94 131 185 233 265 319 403
#     4  11  25  43  66  99 135 193 225 278 342 411
#     4  12  23  42  65 101 137 174 227 286 340 406
#     4  12  24  43  70 103 134 176 226 287 362 405
#     4  12  24  43  70  98 137 172 243 284 339 414
#
# _framework density 21.915575
#
# number of rings (size 3 to 8) (size 9 to 14) (size 15 to 20)
#    0.000    0.500    5.000    3.750    0.000    8.000 
#    0.000    1.250    0.000    0.000    0.000    0.000 
#    0.000    0.000    0.000    0.000    0.000    0.000 
#
# Total GULP energy -198324.156047 kJ/mol
# GULP energy per Si atom -12395.259753 kJ/mol
# Density = 2.186569 g / cm^3
# Si number density = 21.915575 Si / 1000 Ang^3
#
#
#
# Elastic Constant Matrix: (Units=GPa)
#
#
# Indices 1 2 3 4 5 6 
#
# 1 130.7703 52.8349 31.0568 14.3092 -12.5539 8.2766
# 2 52.8349 109.5405 41.3456 9.1027 -2.3711 22.3228
# 3 31.0568 41.3456 158.0881 12.0982 6.9202 10.9430
# 4 14.3092 9.1027 12.0982 37.4333 0.9806 -6.9031
# 5 -12.5539 -2.3711 6.9202 0.9806 32.8310 3.9338
# 6 8.2766 22.3228 10.9430 -6.9031 3.9338 40.2340
#
#
#
# Elastic Compliance Matrix: (Units=1/GPa)
#
#
# Indices 1 2 3 4 5 6 
#
# 1 0.010266 -0.004236 -0.000839 -0.002799 0.003928 -0.000398
# 2 -0.004236 0.013482 -0.002106 -0.002189 0.000639 -0.006474
# 3 -0.000839 -0.002106 0.007298 -0.001612 -0.001875 -0.000737
# 4 -0.002799 -0.002189 -0.001612 0.030329 -0.002717 0.007698
# 5 0.003928 0.000639 -0.001875 -0.002717 0.033004 -0.004346
# 6 -0.000398 -0.006474 -0.000737 0.007698 -0.004346 0.030474
#
#
# Mechanical properties :
#
#
# Convention : Reuss Voigt Hill
#
# Bulk Modulus (GPa) = 59.94050 72.09706 66.01878
# Shear Modulus (GPa) = 34.53557 40.31044 37.42301
#
# Velocity S-wave (km/s) = 3.97400 4.29342 4.13679
# Velocity P-wave (km/s) = 6.96182 7.58597 7.28059
#
# Compressibility (1/GPa) = 0.01668321
#
# Stress axis : x y z
#
# Youngs Moduli (GPa) = 97.40448 74.17039 137.02857
#
# Poissons Ratio (x) = 0.31422 0.11498
# Poissons Ratio (y) = 0.41265 0.28861
# Poissons Ratio (z) = 0.08173 0.15622
#
# Static dielectric constant tensor:
#      x y z
#    x 4.079400 -0.033980 -0.190030 
#    y -0.033980 3.892740 0.077280 
#    z -0.190030 0.077280 4.137630 
# 
# 
# High freq. dielectric constant tensor:
#      x y z
#    x 1.862900 0.012170 -0.003590 
#    y 0.012170 1.848810 -0.001240 
#    z -0.003590 -0.001240 1.879360 
# 
# From -- ./inp_files/534479.got.cif
#   From: 2010.06.25/outbox.cif.g09.slc.cpg/sg2_268_cif.got.tgz:534479.got - 2010.06.27 13:26:56.
