data_PCOD8019046
_publ_section_title
;
Structure prediction by ZEFSAII (Michael W. Deem and Ramdas Pophale) SiO2 
 PCOD8019046
Probable space group: P -1
;
_chemical_formula_sum "Si O2"
_cell_formula_units_Z 16
_cell_length_a 7.974173
_cell_length_b 13.196616
_cell_length_c 13.801623
_cell_angle_alpha 106.924047
_cell_angle_beta 147.584211
_cell_angle_gamma 71.332902
_cell_volume 736.976671
_symmetry_space_group_name_H-M "P -1"
_symmetry_group_IT_number 2
_symmetry_cell_setting 'triclinic'
loop_
_space_group_symop_operation_xyz
x,y,z
-x,-y,-z
loop_
_atom_site_type_symbol
_atom_site_label
_atom_site_fract_x
_atom_site_fract_y
_atom_site_fract_z
Si Si1 0.771832 0.419118 0.975327
Si Si2 0.732830 0.214611 0.628234
Si Si3 0.734670 0.085590 0.938664
Si Si4 0.394560 0.253808 0.680388
Si Si5 0.824807 0.646807 0.031221
Si Si6 0.190978 0.770295 0.704344
Si Si7 0.121702 0.007525 0.672598
Si Si8 0.918114 0.732209 0.756992
O O1 0.686995 0.546848 0.987216
O O2 0.989103 0.367534 0.154306
O O3 0.462964 0.360847 0.798632
O O4 0.931326 0.399415 0.943620
O O5 0.563075 0.224545 0.651788
O O6 0.464615 0.248875 0.425590
O O7 0.006613 0.291529 0.785597
O O8 0.892280 0.095547 0.645851
O O9 0.513905 0.148570 0.768764
O O10 0.484771 0.030449 0.864408
O O11 0.930085 0.163248 0.112874
O O12 0.000000 0.000000 0.000000
O O13 0.012662 0.268726 0.494358
O O14 0.562119 0.728200 0.868515
O O15 0.060070 0.709075 0.713927
O O16 0.121950 0.898799 0.703688
O O17 0.000000 0.000000 0.500000
#
# Coordination Sequence:
#
# PCOD8019046 Si02
#       8
#     2   2   2   2   2   2   2   2
#     4   9  21  42  66  88 122 159 205 253 310 354
#     4  10  23  40  62  89 127 161 201 250 297 363
#     4  11  23  37  60  87 121 164 199 243 307 359
#     4   9  21  41  60  90 125 159 202 245 302 366
#     4  10  22  41  64  92 119 162 206 255 300 359
#     4  11  24  39  60  91 124 159 208 247 301 362
#     4  12  25  39  61  92 125 162 203 249 299 362
#     4  10  23  39  61  89 123 162 201 253 302 360
#
# _framework density 21.710322000000001
#
# number of rings (size 3 to 8) (size 9 to 14) (size 15 to 20)
#    0.000    1.750    1.250    1.500    8.750    3.500 
#    0.000    0.000    0.000    0.000    0.000    0.000 
#    0.000    0.000    0.000    0.000    0.000    0.000 
#
# Total GULP energy -198258.022368 kJ/mol
# GULP energy per Si atom -12391.126398 kJ/mol
# Density = 2.166091 g / cm^3
# Si number density = 21.710322 Si / 1000 Ang^3
#
#
#
# Elastic Constant Matrix: (Units=GPa)
#
#
# Indices 1 2 3 4 5 6 
#
# 1 20.4361 9.4231 8.8424 0.5869 3.2163 5.5929
# 2 9.4231 131.1687 66.0117 4.9091 0.7304 15.3148
# 3 8.8424 66.0117 179.7691 -0.1624 14.0968 2.1724
# 4 0.5869 4.9091 -0.1624 24.4138 2.0694 -0.0895
# 5 3.2163 0.7304 14.0968 2.0694 25.2991 -4.5000
# 6 5.5929 15.3148 2.1724 -0.0895 -4.5000 29.4095
#
#
#
# Elastic Compliance Matrix: (Units=1/GPa)
#
#
# Indices 1 2 3 4 5 6 
#
# 1 0.054520 -0.002054 -0.001170 -0.000261 -0.008057 -0.010446
# 2 -0.002054 0.010235 -0.003717 -0.002170 0.001422 -0.004454
# 3 -0.001170 -0.003717 0.007263 0.001141 -0.003696 0.001060
# 4 -0.000261 -0.002170 0.001141 0.041739 -0.003841 0.000635
# 5 -0.008057 0.001422 -0.003696 -0.003841 0.044276 0.007828
# 6 -0.010446 -0.004454 0.001060 0.000635 0.007828 0.039430
#
#
# Mechanical properties :
#
#
# Convention : Reuss Voigt Hill
#
# Bulk Modulus (GPa) = 17.20053 55.54759 36.37406
# Shear Modulus (GPa) = 21.67089 32.29759 26.98424
#
# Velocity S-wave (km/s) = 3.16283 3.86120 3.52933
# Velocity P-wave (km/s) = 4.61280 6.74684 5.77918
#
# Compressibility (1/GPa) = 0.05813774
#
# Stress axis : x y z
#
# Youngs Moduli (GPa) = 18.34173 97.70148 137.68062
#
# Poissons Ratio (x) = 0.20065 0.16106
# Poissons Ratio (y) = 0.03767 0.51177
# Poissons Ratio (z) = 0.02146 0.36316
#
# Static dielectric constant tensor:
#      x y z
#    x 3.751030 0.126700 -0.031460 
#    y 0.126700 4.066990 0.299220 
#    z -0.031460 0.299220 4.777750 
# 
# 
# High freq. dielectric constant tensor:
#      x y z
#    x 1.836420 0.010690 0.002570 
#    y 0.010690 1.849680 0.004830 
#    z 0.002570 0.004830 1.875080 
# 
# From -- ./inp_files/179957.got.cif
#   From: 2010.06.25/outbox.cif.g09.slc.cpg/sg2_90_cif.got.tgz:179957.got - 2010.06.27 13:26:56.
