data_PCOD8019515
_publ_section_title
;
Structure prediction by ZEFSAII (Michael W. Deem and Ramdas Pophale) SiO2 
 PCOD8019515
Probable space group: P -1
;
_chemical_formula_sum "Si O2"
_cell_formula_units_Z 14
_cell_length_a 21.425879
_cell_length_b 9.149068
_cell_length_c 12.091484
_cell_angle_alpha 117.880065
_cell_angle_beta 145.341021
_cell_angle_gamma 36.723812
_cell_volume 665.771630
_symmetry_space_group_name_H-M "P -1"
_symmetry_group_IT_number 2
_symmetry_cell_setting 'triclinic'
loop_
_space_group_symop_operation_xyz
x,y,z
-x,-y,-z
loop_
_atom_site_type_symbol
_atom_site_label
_atom_site_fract_x
_atom_site_fract_y
_atom_site_fract_z
Si Si1 0.438471 0.266743 0.514543
Si Si2 0.030271 0.236883 0.358464
Si Si3 0.820437 0.302760 0.909015
Si Si4 0.305374 0.148497 0.801700
Si Si5 0.279259 0.784611 0.055486
Si Si6 0.853112 0.263763 0.559156
Si Si7 0.573418 0.565759 0.069208
O O1 0.352555 0.431278 0.330352
O O2 0.616643 0.168252 0.766910
O O3 0.281364 0.473698 0.456212
O O4 0.500000 0.000000 0.500000
O O5 0.204155 0.153786 0.564273
O O6 0.861987 0.513824 0.292377
O O7 0.123935 0.955347 0.447806
O O8 0.918296 0.343873 0.118939
O O9 0.730404 0.294470 0.868115
O O10 0.000000 0.000000 0.000000
O O11 0.500000 0.000000 0.000000
O O12 0.390911 0.921600 0.941482
O O13 0.383183 0.529920 0.029899
O O14 0.061938 0.094255 0.802673
O O15 0.765044 0.392544 0.352736
O O16 0.500000 0.500000 0.000000
#
# Coordination Sequence:
#
# PCOD8019515 Si02
#       7
#     2   2   2   2   2   2   2
#     4  12  26  45  71 101 139 175 230 285 337 400
#     4  10  22  41  68  92 137 172 220 274 329 392
#     4  11  23  47  72  94 133 185 230 275 327 414
#     4  11  23  41  64 103 131 170 225 276 331 398
#     4  11  24  45  75  95 132 189 228 268 349 403
#     4  11  23  47  68  99 133 182 225 275 341 405
#     4  12  23  43  74  97 141 176 222 282 343 399
#
# _framework density 21.028230000000001
#
# number of rings (size 3 to 8) (size 9 to 14) (size 15 to 20)
#    0.000    0.857    5.714    2.571    2.000    0.571 
#    5.143    0.000    0.000    0.000    0.000    0.000 
#    0.000    0.000    0.000    0.000    0.000    0.000 
#
# Total GULP energy -173497.360435 kJ/mol
# GULP energy per Si atom -12392.668603 kJ/mol
# Density = 2.098037 g / cm^3
# Si number density = 21.028230 Si / 1000 Ang^3
#
#
#
# Elastic Constant Matrix: (Units=GPa)
#
#
# Indices 1 2 3 4 5 6 
#
# 1 73.9126 33.1429 19.6583 0.9583 2.0874 -9.8423
# 2 33.1429 137.8714 44.0398 -2.6466 2.0046 -2.2360
# 3 19.6583 44.0398 145.9037 20.6752 13.8110 3.8820
# 4 0.9583 -2.6466 20.6752 41.3349 3.4649 0.4454
# 5 2.0874 2.0046 13.8110 3.4649 45.5394 1.6435
# 6 -9.8423 -2.2360 3.8820 0.4454 1.6435 28.0984
#
#
#
# Elastic Compliance Matrix: (Units=1/GPa)
#
#
# Indices 1 2 3 4 5 6 
#
# 1 0.016135 -0.003377 -0.001267 0.000017 -0.000410 0.005582
# 2 -0.003377 0.008901 -0.002531 0.001883 0.000394 -0.000178
# 3 -0.001267 -0.002531 0.008631 -0.004259 -0.002065 -0.001649
# 4 0.000017 0.001883 -0.004259 0.026508 -0.000822 0.000372
# 5 -0.000410 0.000394 -0.002065 -0.000822 0.022690 -0.001141
# 6 0.005582 -0.000178 -0.001649 0.000372 -0.001141 0.037819
#
#
# Mechanical properties :
#
#
# Convention : Reuss Voigt Hill
#
# Bulk Modulus (GPa) = 51.76661 61.26331 56.51496
# Shear Modulus (GPa) = 35.34197 40.38431 37.86314
#
# Velocity S-wave (km/s) = 4.10407 4.38708 4.24794
# Velocity P-wave (km/s) = 6.86506 7.40669 7.14101
#
# Compressibility (1/GPa) = 0.01931747
#
# Stress axis : x y z
#
# Youngs Moduli (GPa) = 61.97530 112.34649 115.85665
#
# Poissons Ratio (x) = 0.37943 0.14677
# Poissons Ratio (y) = 0.20931 0.29324
# Poissons Ratio (z) = 0.07851 0.28435
#
# Static dielectric constant tensor:
#      x y z
#    x 3.189080 0.003670 0.396510 
#    y 0.003670 3.845760 0.193390 
#    z 0.396510 0.193390 4.034450 
# 
# 
# High freq. dielectric constant tensor:
#      x y z
#    x 1.804810 -0.001960 0.008750 
#    y -0.001960 1.829040 0.000570 
#    z 0.008750 0.000570 1.853250 
# 
# From -- ./inp_files/470058.got.cif
#   From: 2010.06.25/outbox.cif.g09.slc.cpg/sg2_236_cif.got.tgz:470058.got - 2010.06.27 13:26:56.
