data_PCOD8019527
_publ_section_title
;
Structure prediction by ZEFSAII (Michael W. Deem and Ramdas Pophale) SiO2 
 PCOD8019527
Probable space group: P -1
;
_chemical_formula_sum "Si O2"
_cell_formula_units_Z 16
_cell_length_a 6.680574
_cell_length_b 16.771365
_cell_length_c 15.972913
_cell_angle_alpha 145.834470
_cell_angle_beta 62.424968
_cell_angle_gamma 132.816595
_cell_volume 715.422828
_symmetry_space_group_name_H-M "P -1"
_symmetry_group_IT_number 2
_symmetry_cell_setting 'triclinic'
loop_
_space_group_symop_operation_xyz
x,y,z
-x,-y,-z
loop_
_atom_site_type_symbol
_atom_site_label
_atom_site_fract_x
_atom_site_fract_y
_atom_site_fract_z
Si Si1 0.999370 0.002335 0.260648
Si Si2 0.184159 0.766998 0.042019
Si Si3 0.895770 0.607601 0.579570
Si Si4 0.452036 0.834102 0.321832
Si Si5 0.410175 0.524312 0.129328
Si Si6 0.169873 0.997515 0.890212
Si Si7 0.854282 0.541254 0.168429
Si Si8 0.276657 0.403245 0.577476
O O1 0.681992 0.896419 0.261114
O O2 0.958165 0.977007 0.146470
O O3 0.188905 0.205047 0.428778
O O4 0.149906 0.921161 0.204121
O O5 0.139916 0.626947 0.000542
O O6 0.911824 0.634435 0.920132
O O7 0.499348 0.854924 0.024806
O O8 0.610050 0.542854 0.625402
O O9 0.863981 0.579516 0.461687
O O10 0.000000 0.500000 0.500000
O O11 0.127210 0.813035 0.733405
O O12 0.458420 0.711731 0.283846
O O13 0.147444 0.719772 0.236485
O O14 0.500000 0.000000 0.500000
O O15 0.596701 0.524367 0.163613
O O16 0.500000 0.500000 0.000000
O O17 0.000000 0.000000 0.000000
O O18 0.827194 0.548623 0.280534
#
# Coordination Sequence:
#
# PCOD8019527 Si02
#       8
#     2   2   2   2   2   2   2   2
#     4  11  23  43  66 100 135 171 225 271 334 401
#     4  11  24  42  68  96 132 178 217 276 329 396
#     4  10  22  41  68  94 129 171 216 275 336 390
#     4  11  24  44  67  99 134 178 219 276 330 399
#     4  11  25  44  64 100 134 180 225 272 332 397
#     4  11  25  43  68  99 132 174 222 277 336 399
#     4  11  25  42  67  97 136 179 221 274 330 401
#     4  10  22  43  63  95 133 167 220 277 326 398
#
# _framework density 22.364395999999999
#
# number of rings (size 3 to 8) (size 9 to 14) (size 15 to 20)
#    0.000    1.250    2.500    2.250    1.750    5.000 
#    2.250    0.000    0.000    0.000    0.000    0.000 
#    0.000    0.000    0.000    0.000    0.000    0.000 
#
# Total GULP energy -198272.412419 kJ/mol
# GULP energy per Si atom -12392.025776 kJ/mol
# Density = 2.231349 g / cm^3
# Si number density = 22.364396 Si / 1000 Ang^3
#
#
#
# Elastic Constant Matrix: (Units=GPa)
#
#
# Indices 1 2 3 4 5 6 
#
# 1 130.9742 22.6173 59.1770 18.2983 -5.1982 8.9048
# 2 22.6173 89.4215 40.7563 12.9869 18.3548 21.1313
# 3 59.1770 40.7563 98.3646 17.4411 -16.7040 -8.0306
# 4 18.2983 12.9869 17.4411 51.5672 -5.8238 0.6783
# 5 -5.1982 18.3548 -16.7040 -5.8238 32.3385 12.1349
# 6 8.9048 21.1313 -8.0306 0.6783 12.1349 39.5714
#
#
#
# Elastic Compliance Matrix: (Units=1/GPa)
#
#
# Indices 1 2 3 4 5 6 
#
# 1 0.011640 0.003308 -0.008925 -0.002222 -0.003057 -0.005221
# 2 0.003308 0.024050 -0.015135 -0.003931 -0.017423 -0.011248
# 3 -0.008925 -0.015135 0.025418 0.000109 0.016479 0.010193
# 4 -0.002222 -0.003931 0.000109 0.021766 0.005658 0.000513
# 5 -0.003057 -0.017423 0.016479 0.005658 0.050720 -0.002314
# 6 -0.005221 -0.011248 0.010193 0.000513 -0.002314 0.035222
#
#
# Mechanical properties :
#
#
# Convention : Reuss Voigt Hill
#
# Bulk Modulus (GPa) = 51.00988 62.65128 56.83058
# Shear Modulus (GPa) = 23.05684 37.77605 30.41645
#
# Velocity S-wave (km/s) = 3.21434 4.11434 3.69187
# Velocity P-wave (km/s) = 6.05261 7.11654 6.60603
#
# Compressibility (1/GPa) = 0.01960404
#
# Stress axis : x y z
#
# Youngs Moduli (GPa) = 85.90711 41.58034 39.34231
#
# Poissons Ratio (x) = -0.13753 0.35113
# Poissons Ratio (y) = -0.28415 0.59543
# Poissons Ratio (z) = 0.76672 0.62931
#
# Static dielectric constant tensor:
#      x y z
#    x 4.278680 0.097740 -0.000140 
#    y 0.097740 4.282140 0.415470 
#    z -0.000140 0.415470 4.223300 
# 
# 
# High freq. dielectric constant tensor:
#      x y z
#    x 1.884540 0.014930 -0.012940 
#    y 0.014930 1.890210 0.025520 
#    z -0.012940 0.025520 1.882110 
# 
# From -- ./inp_files/550568.got.cif
#   From: 2010.06.25/outbox.cif.g09.slc.cpg/sg2_276_cif.got.tgz:550568.got - 2010.06.27 13:26:56.
