data_PCOD8019430
_publ_section_title
;
Structure prediction by ZEFSAII (Michael W. Deem and Ramdas Pophale) SiO2 
 PCOD8019430
Probable space group: P -1
;
_chemical_formula_sum "Si O2"
_cell_formula_units_Z 16
_cell_length_a 7.886462
_cell_length_b 16.561184
_cell_length_c 9.111737
_cell_angle_alpha 51.515722
_cell_angle_beta 128.675785
_cell_angle_gamma 101.052689
_cell_volume 688.374887
_symmetry_space_group_name_H-M "P -1"
_symmetry_group_IT_number 2
_symmetry_cell_setting 'triclinic'
loop_
_space_group_symop_operation_xyz
x,y,z
-x,-y,-z
loop_
_atom_site_type_symbol
_atom_site_label
_atom_site_fract_x
_atom_site_fract_y
_atom_site_fract_z
Si Si1 0.261577 0.320300 0.314604
Si Si2 0.418147 0.148914 0.003457
Si Si3 0.034664 0.166787 0.002136
Si Si4 0.393422 0.378154 0.622006
Si Si5 0.868363 0.391417 0.810102
Si Si6 0.697924 0.902250 0.312606
Si Si7 0.146209 0.959297 0.451797
Si Si8 0.353786 0.865058 0.362783
O O1 0.352439 0.383625 0.417031
O O2 0.179475 0.228180 0.457689
O O3 0.470094 0.258676 0.384283
O O4 0.053006 0.400791 0.019802
O O5 0.346735 0.278163 0.789963
O O6 0.433297 0.081012 0.936218
O O7 0.226748 0.130228 0.023989
O O8 0.668990 0.105073 0.258273
O O9 0.985532 0.291769 0.876723
O O10 0.814577 0.140105 0.854458
O O11 0.126762 0.087280 0.282859
O O12 0.655724 0.370057 0.802068
O O13 0.220114 0.493898 0.456664
O O14 0.504839 0.940312 0.298180
O O15 0.898145 0.956079 0.373306
O O16 0.215982 0.905545 0.390261
#
# Coordination Sequence:
#
# PCOD8019430 Si02
#       8
#     2   2   2   2   2   2   2   2
#     4   9  19  40  66  96 128 170 219 268 332 399
#     4  11  23  43  66  99 134 169 228 274 331 396
#     4  12  24  42  66  93 140 177 219 272 328 398
#     4  10  22  41  67  96 130 167 221 284 323 393
#     4  11  21  41  67  95 129 173 221 272 335 384
#     4   9  22  42  66  94 134 173 217 278 314 399
#     4  12  24  44  67  97 138 182 216 269 333 396
#     4  10  22  43  66  97 135 178 222 265 336 390
#
# _framework density 23.243147
#
# number of rings (size 3 to 8) (size 9 to 14) (size 15 to 20)
#    0.750    0.750    2.500    2.625    0.000    1.000 
#    2.250    3.125    0.000    1.500    0.000    0.000 
#    0.000    0.000    0.000    0.000    0.000    0.000 
#
# Total GULP energy -198361.240902 kJ/mol
# GULP energy per Si atom -12397.577556 kJ/mol
# Density = 2.319024 g / cm^3
# Si number density = 23.243147 Si / 1000 Ang^3
#
#
#
# Elastic Constant Matrix: (Units=GPa)
#
#
# Indices 1 2 3 4 5 6 
#
# 1 116.9766 24.0028 32.7384 -4.2297 11.1581 3.4751
# 2 24.0028 97.0292 36.7649 -15.9198 5.0106 -4.7064
# 3 32.7384 36.7649 134.0424 2.9053 16.8827 4.2093
# 4 -4.2297 -15.9198 2.9053 37.8279 8.6378 8.7671
# 5 11.1581 5.0106 16.8827 8.6378 31.3150 -1.5974
# 6 3.4751 -4.7064 4.2093 8.7671 -1.5974 35.2705
#
#
#
# Elastic Compliance Matrix: (Units=1/GPa)
#
#
# Indices 1 2 3 4 5 6 
#
# 1 0.009667 -0.001452 -0.001589 0.001591 -0.002870 -0.001482
# 2 -0.001452 0.012894 -0.003158 0.005637 -0.001359 0.000778
# 3 -0.001589 -0.003158 0.009241 -0.001084 -0.003676 -0.001265
# 4 0.001591 0.005637 -0.001084 0.033325 -0.010486 -0.008034
# 5 -0.002870 -0.001359 -0.003676 -0.010486 0.038297 0.004881
# 6 -0.001482 0.000778 -0.001265 -0.008034 0.004881 0.030971
#
#
# Mechanical properties :
#
#
# Convention : Reuss Voigt Hill
#
# Bulk Modulus (GPa) = 51.53432 59.45115 55.49274
# Shear Modulus (GPa) = 32.62417 37.85214 35.23815
#
# Velocity S-wave (km/s) = 3.75053 4.03988 3.89789
# Velocity P-wave (km/s) = 6.40120 6.88435 6.64717
#
# Compressibility (1/GPa) = 0.01940454
#
# Stress axis : x y z
#
# Youngs Moduli (GPa) = 103.44807 77.55266 108.21649
#
# Poissons Ratio (x) = 0.11259 0.17199
# Poissons Ratio (y) = 0.15019 0.34170
# Poissons Ratio (z) = 0.16441 0.24488
#
# Static dielectric constant tensor:
#      x y z
#    x 3.944060 -0.042590 0.132000 
#    y -0.042590 4.271470 -0.094500 
#    z 0.132000 -0.094500 4.343660 
# 
# 
# High freq. dielectric constant tensor:
#      x y z
#    x 1.901070 -0.001810 0.018490 
#    y -0.001810 1.930170 -0.003550 
#    z 0.018490 -0.003550 1.936710 
# 
# From -- ./inp_files/217164.got.cif
#   From: 2010.06.25/outbox.cif.g09.slc.cpg/sg2_109_cif.got.tgz:217164.got - 2010.06.27 13:26:56.
