data_PCOD8019569
_publ_section_title
;
Structure prediction by ZEFSAII (Michael W. Deem and Ramdas Pophale) SiO2 
 PCOD8019569
Probable space group: P -1
;
_chemical_formula_sum "Si O2"
_cell_formula_units_Z 14
_cell_length_a 12.821196
_cell_length_b 12.808838
_cell_length_c 9.882542
_cell_angle_alpha 42.947515
_cell_angle_beta 50.968043
_cell_angle_gamma 34.752285
_cell_volume 628.638621
_symmetry_space_group_name_H-M "P -1"
_symmetry_group_IT_number 2
_symmetry_cell_setting 'triclinic'
loop_
_space_group_symop_operation_xyz
x,y,z
-x,-y,-z
loop_
_atom_site_type_symbol
_atom_site_label
_atom_site_fract_x
_atom_site_fract_y
_atom_site_fract_z
Si Si1 0.425296 0.426442 0.536337
Si Si2 0.851738 0.968988 0.380542
Si Si3 0.061391 0.623491 0.311135
Si Si4 0.190751 0.441892 0.903375
Si Si5 0.982488 0.209803 0.093811
Si Si6 0.273113 0.057084 0.224777
Si Si7 0.534643 0.609252 0.765148
O O1 0.500000 0.500000 0.500000
O O2 0.230699 0.514363 0.668425
O O3 0.419170 0.493029 0.325561
O O4 0.549267 0.180871 0.676351
O O5 0.643888 0.141965 0.325923
O O6 0.921319 0.082887 0.254685
O O7 0.855223 0.864443 0.612318
O O8 0.991141 0.786340 0.334240
O O9 0.282166 0.445522 0.286527
O O10 0.000000 0.500000 0.500000
O O11 0.971213 0.759823 0.119704
O O12 0.186434 0.561410 0.920503
O O13 0.335042 0.188937 0.041822
O O14 0.000000 0.500000 0.000000
O O15 0.163047 0.085476 0.155850
O O16 0.500000 0.500000 0.000000
#
# Coordination Sequence:
#
# PCOD8019569 Si02
#       7
#     2   2   2   2   2   2   2
#     4  11  25  42  69 103 133 181 228 280 343 403
#     4  11  24  47  68 102 135 183 231 286 340 412
#     4  12  28  45  72 100 141 186 228 284 350 406
#     4  10  22  41  68  98 137 172 223 287 339 399
#     4  11  23  42  69 101 131 179 229 273 345 405
#     4  10  23  40  68 100 138 171 229 287 339 401
#     4  11  26  46  70 101 140 180 234 282 338 415
#
# _framework density 22.270347000000001
#
# number of rings (size 3 to 8) (size 9 to 14) (size 15 to 20)
#    0.000    1.143    1.429    3.857   10.000    0.571 
#    0.000    0.000    0.000    0.000    0.000    0.000 
#    0.000    0.000    0.000    0.000    0.000    0.000 
#
# Total GULP energy -173543.555654 kJ/mol
# GULP energy per Si atom -12395.968261 kJ/mol
# Density = 2.221966 g / cm^3
# Si number density = 22.270347 Si / 1000 Ang^3
#
#
#
# Elastic Constant Matrix: (Units=GPa)
#
#
# Indices 1 2 3 4 5 6 
#
# 1 100.4617 35.0320 53.6905 8.3820 -8.7591 4.3210
# 2 35.0320 75.6543 4.3938 12.7650 -13.7003 16.6159
# 3 53.6905 4.3938 148.0697 34.6281 -9.7571 15.9702
# 4 8.3820 12.7650 34.6281 35.8872 4.3330 -4.4209
# 5 -8.7591 -13.7003 -9.7571 4.3330 47.5221 -2.3163
# 6 4.3210 16.6159 15.9702 -4.4209 -2.3163 47.2948
#
#
#
# Elastic Compliance Matrix: (Units=1/GPa)
#
#
# Indices 1 2 3 4 5 6 
#
# 1 0.017262 -0.010823 -0.008962 0.009492 -0.002350 0.006024
# 2 -0.010823 0.024751 0.009113 -0.017520 0.008023 -0.012029
# 3 -0.008962 0.009113 0.015117 -0.017460 0.005239 -0.008863
# 4 0.009492 -0.017520 -0.017460 0.051950 -0.010867 0.015508
# 5 -0.002350 0.008023 0.005239 -0.010867 0.024786 -0.004175
# 6 0.006024 -0.012029 -0.008863 0.015508 -0.004175 0.029058
#
#
# Mechanical properties :
#
#
# Convention : Reuss Voigt Hill
#
# Bulk Modulus (GPa) = 27.94322 56.71311 42.32817
# Shear Modulus (GPa) = 25.48470 41.54546 33.51508
#
# Velocity S-wave (km/s) = 3.38647 4.32384 3.88354
# Velocity P-wave (km/s) = 5.27877 7.10271 6.25755
#
# Compressibility (1/GPa) = 0.03578685
#
# Stress axis : x y z
#
# Youngs Moduli (GPa) = 57.93087 40.40187 66.14947
#
# Poissons Ratio (x) = 0.43726 0.59286
# Poissons Ratio (y) = 0.62698 -0.60285
# Poissons Ratio (z) = 0.51920 -0.36820
#
# Static dielectric constant tensor:
#      x y z
#    x 3.867960 0.080350 0.007700 
#    y 0.080350 5.268230 -0.259350 
#    z 0.007700 -0.259350 4.678150 
# 
# 
# High freq. dielectric constant tensor:
#      x y z
#    x 1.864680 0.001420 -0.003520 
#    y 0.001420 1.886530 0.006390 
#    z -0.003520 0.006390 1.900990 
# 
# From -- ./inp_files/181369.got.cif
#   From: 2010.06.25/outbox.cif.g09.slc.cpg/sg2_91_cif.got.tgz:181369.got - 2010.06.27 13:26:56.
