data_PCOD8019787
_publ_section_title
;
Structure prediction by ZEFSAII (Michael W. Deem and Ramdas Pophale) SiO2 
 PCOD8019787
Probable space group: P -1
;
_chemical_formula_sum "Si O2"
_cell_formula_units_Z 16
_cell_length_a 9.115883
_cell_length_b 8.828830
_cell_length_c 15.144300
_cell_angle_alpha 140.704067
_cell_angle_beta 77.551336
_cell_angle_gamma 110.397351
_cell_volume 720.511963
_symmetry_space_group_name_H-M "P -1"
_symmetry_group_IT_number 2
_symmetry_cell_setting 'triclinic'
loop_
_space_group_symop_operation_xyz
x,y,z
-x,-y,-z
loop_
_atom_site_type_symbol
_atom_site_label
_atom_site_fract_x
_atom_site_fract_y
_atom_site_fract_z
Si Si1 0.474610 0.754014 0.950513
Si Si2 0.328995 0.573837 0.296884
Si Si3 0.282517 0.949996 0.326118
Si Si4 0.019327 0.291900 0.278304
Si Si5 0.187395 0.574039 0.018931
Si Si6 0.279546 0.109989 0.865347
Si Si7 0.115316 0.305555 0.464140
Si Si8 0.621633 0.233297 0.429551
O O1 0.528576 0.536677 0.795798
O O2 0.288143 0.634579 0.942065
O O3 0.571892 0.832035 0.063360
O O4 0.500000 0.000000 0.000000
O O5 0.291103 0.748948 0.306482
O O6 0.177113 0.329123 0.217855
O O7 0.365386 0.742783 0.455792
O O8 0.244999 0.826919 0.180284
O O9 0.146740 0.086353 0.421328
O O10 0.441517 0.176445 0.400335
O O11 0.034398 0.194024 0.331563
O O12 0.998137 0.570336 0.411552
O O13 0.871443 0.092660 0.161896
O O14 0.234359 0.360472 0.969309
O O15 0.000000 0.500000 0.000000
O O16 0.320562 0.000327 0.717617
O O17 0.279389 0.515222 0.517026
#
# Coordination Sequence:
#
# PCOD8019787 Si02
#       8
#     2   2   2   2   2   2   2   2
#     4  12  28  46  70 103 142 181 236 292 345 414
#     4  11  25  42  66 105 142 174 230 293 356 394
#     4  12  22  40  67  99 135 181 229 287 340 417
#     4   9  21  40  65  99 136 184 224 285 340 414
#     4  12  27  45  72 103 140 191 232 282 351 422
#     4  11  22  47  74  95 141 189 238 275 346 424
#     4   9  20  38  64  99 135 178 233 273 346 414
#     4  10  22  41  72  96 133 185 230 283 343 413
#
# _framework density 22.206430999999998
#
# number of rings (size 3 to 8) (size 9 to 14) (size 15 to 20)
#    0.000    1.250    2.500    3.375    5.250    4.000 
#    0.000    0.000    0.000    0.000    0.000    0.000 
#    0.000    0.000    0.000    0.000    0.000    0.000 
#
# Total GULP energy -198350.894941 kJ/mol
# GULP energy per Si atom -12396.930934 kJ/mol
# Density = 2.215589 g / cm^3
# Si number density = 22.206431 Si / 1000 Ang^3
#
#
#
# Elastic Constant Matrix: (Units=GPa)
#
#
# Indices 1 2 3 4 5 6 
#
# 1 138.4526 53.1377 36.4438 1.0147 -7.5605 3.7089
# 2 53.1377 79.7534 19.0852 -0.4493 -17.6605 -4.5305
# 3 36.4438 19.0852 85.5763 -9.6395 -1.3964 -0.7805
# 4 1.0147 -0.4493 -9.6395 22.0381 -1.7015 -10.8883
# 5 -7.5605 -17.6605 -1.3964 -1.7015 36.3520 12.8822
# 6 3.7089 -4.5305 -0.7805 -10.8883 12.8822 50.3370
#
#
#
# Elastic Compliance Matrix: (Units=1/GPa)
#
#
# Indices 1 2 3 4 5 6 
#
# 1 0.010697 -0.006543 -0.003480 -0.003167 -0.000534 -0.001979
# 2 -0.006543 0.018914 -0.001195 0.000959 0.007683 0.000407
# 3 -0.003480 -0.001195 0.014270 0.007413 -0.001219 0.002285
# 4 -0.003167 0.000959 0.007413 0.054965 -0.001873 0.012803
# 5 -0.000534 0.007683 -0.001219 -0.001873 0.033967 -0.008386
# 6 -0.001979 0.000407 0.002285 0.012803 -0.008386 0.025000
#
#
# Mechanical properties :
#
#
# Convention : Reuss Voigt Hill
#
# Bulk Modulus (GPa) = 46.62968 57.90174 52.26571
# Shear Modulus (GPa) = 26.68160 34.75313 30.71736
#
# Velocity S-wave (km/s) = 3.47006 3.96030 3.72326
# Velocity P-wave (km/s) = 6.09089 6.85878 6.48621
#
# Compressibility (1/GPa) = 0.02144557
#
# Stress axis : x y z
#
# Youngs Moduli (GPa) = 93.48543 52.87178 70.07845
#
# Poissons Ratio (x) = 0.34594 0.24385
# Poissons Ratio (y) = 0.61167 0.08372
# Poissons Ratio (z) = 0.32530 0.06316
#
# Static dielectric constant tensor:
#      x y z
#    x 4.314710 0.195100 0.002850 
#    y 0.195100 3.784340 0.082540 
#    z 0.002850 0.082540 4.145790 
# 
# 
# High freq. dielectric constant tensor:
#      x y z
#    x 1.888980 0.009200 -0.005030 
#    y 0.009200 1.854910 0.014130 
#    z -0.005030 0.014130 1.876370 
# 
# From -- ./inp_files/381762.got.cif
#   From: 2010.06.25/outbox.cif.g09.slc.cpg/sg2_191_cif.got.tgz:381762.got - 2010.06.27 13:26:56.
