data_PCOD8019580
_publ_section_title
;
Structure prediction by ZEFSAII (Michael W. Deem and Ramdas Pophale) SiO2 
 PCOD8019580
Probable space group: P -1
;
_chemical_formula_sum "Si O2"
_cell_formula_units_Z 16
_cell_length_a 5.242646
_cell_length_b 9.322121
_cell_length_c 18.865397
_cell_angle_alpha 46.255156
_cell_angle_beta 77.383913
_cell_angle_gamma 85.082458
_cell_volume 647.200724
_symmetry_space_group_name_H-M "P -1"
_symmetry_group_IT_number 2
_symmetry_cell_setting 'triclinic'
loop_
_space_group_symop_operation_xyz
x,y,z
-x,-y,-z
loop_
_atom_site_type_symbol
_atom_site_label
_atom_site_fract_x
_atom_site_fract_y
_atom_site_fract_z
Si Si1 0.668791 0.595718 0.129669
Si Si2 0.153664 0.711665 0.684179
Si Si3 0.595357 0.214575 0.804967
Si Si4 0.142850 0.180654 0.092852
Si Si5 0.758688 0.630390 0.467133
Si Si6 0.677924 0.948900 0.256890
Si Si7 0.719238 0.669316 0.616314
Si Si8 0.703694 0.767670 0.784027
O O1 0.862376 0.514349 0.205186
O O2 0.547132 0.782251 0.110590
O O3 0.439132 0.420434 0.184996
O O4 0.833578 0.669195 0.025699
O O5 0.465457 0.767519 0.631892
O O6 0.990286 0.753430 0.608935
O O7 0.004332 0.822595 0.718543
O O8 0.399465 0.181303 0.762665
O O9 0.731706 0.434436 0.707476
O O10 0.786582 0.040408 0.856839
O O11 0.310977 0.277577 0.115184
O O12 0.847137 0.148174 0.150396
O O13 0.500000 0.500000 0.500000
O O14 0.832401 0.811199 0.346628
O O15 0.717415 0.723493 0.515283
O O16 0.000000 0.500000 0.500000
O O17 0.438075 0.029648 0.287740
#
# Coordination Sequence:
#
# PCOD8019580 Si02
#       8
#     2   2   2   2   2   2   2   2
#     4  11  24  43  71 103 142 199 241 284 364 427
#     4  11  23  44  72 101 139 187 238 293 345 422
#     4  10  22  41  68  99 146 178 238 294 355 415
#     4  11  25  41  69 106 146 188 239 303 352 425
#     4  12  25  45  78 108 145 189 235 289 369 431
#     4  11  26  44  67 110 144 183 235 304 354 425
#     4  11  23  43  72 107 136 184 238 294 354 423
#     4  11  24  46  70  96 152 189 243 290 356 420
#
# _framework density 24.721851999999998
#
# number of rings (size 3 to 8) (size 9 to 14) (size 15 to 20)
#    0.000    1.000    3.750    3.000    7.000    4.500 
#    0.000    1.250    0.000    0.000    0.000    0.000 
#    0.000    0.000    0.000    0.000    0.000    0.000 
#
# Total GULP energy -198237.946083 kJ/mol
# GULP energy per Si atom -12389.871630 kJ/mol
# Density = 2.466558 g / cm^3
# Si number density = 24.721852 Si / 1000 Ang^3
#
#
#
# Elastic Constant Matrix: (Units=GPa)
#
#
# Indices 1 2 3 4 5 6 
#
# 1 108.2690 28.8245 7.9138 5.7960 12.6909 -28.7337
# 2 28.8245 124.5556 9.4496 23.8138 6.3708 -16.8193
# 3 7.9138 9.4496 82.3507 24.8574 7.3735 -9.1369
# 4 5.7960 23.8138 24.8574 34.9358 1.6508 -2.1630
# 5 12.6909 6.3708 7.3735 1.6508 29.7642 3.5445
# 6 -28.7337 -16.8193 -9.1369 -2.1630 3.5445 23.0400
#
#
#
# Elastic Compliance Matrix: (Units=1/GPa)
#
#
# Indices 1 2 3 4 5 6 
#
# 1 0.016486 0.000179 0.002761 -0.002902 -0.010342 0.023104
# 2 0.000179 0.010812 0.002639 -0.008554 -0.003632 0.008919
# 3 0.002761 0.002639 0.017687 -0.013768 -0.006805 0.012137
# 4 -0.002902 -0.008554 -0.013768 0.043726 0.005491 -0.012063
# 5 -0.010342 -0.003632 -0.006805 0.005491 0.043066 -0.024358
# 6 0.023104 0.008919 0.012137 -0.012063 -0.024358 0.086155
#
#
# Mechanical properties :
#
#
# Convention : Reuss Voigt Hill
#
# Bulk Modulus (GPa) = 17.81191 45.28346 31.54769
# Shear Modulus (GPa) = 22.17392 35.48050 28.82721
#
# Velocity S-wave (km/s) = 2.99814 3.79250 3.41847
# Velocity P-wave (km/s) = 4.38243 6.12653 5.32635
#
# Compressibility (1/GPa) = 0.05614222
#
# Stress axis : x y z
#
# Youngs Moduli (GPa) = 60.65731 92.48677 56.53873
#
# Poissons Ratio (x) = -0.01656 -0.15608
# Poissons Ratio (y) = -0.01086 -0.14919
# Poissons Ratio (z) = -0.16745 -0.24404
#
# Static dielectric constant tensor:
#      x y z
#    x 4.374640 -0.103650 0.179090 
#    y -0.103650 4.701850 0.463670 
#    z 0.179090 0.463670 4.475410 
# 
# 
# High freq. dielectric constant tensor:
#      x y z
#    x 1.980480 -0.011170 0.015860 
#    y -0.011170 1.995960 0.025510 
#    z 0.015860 0.025510 1.971720 
# 
# From -- ./inp_files/547749.got.cif
#   From: 2010.06.25/outbox.cif.g09.slc.cpg/sg2_274_cif.got.tgz:547749.got - 2010.06.27 13:26:56.
