data_PCOD8019584
_publ_section_title
;
Structure prediction by ZEFSAII (Michael W. Deem and Ramdas Pophale) SiO2 
 PCOD8019584
Probable space group: P -1
;
_chemical_formula_sum "Si O2"
_cell_formula_units_Z 16
_cell_length_a 9.758183
_cell_length_b 11.407596
_cell_length_c 9.392534
_cell_angle_alpha 81.064604
_cell_angle_beta 45.743052
_cell_angle_gamma 77.862819
_cell_volume 732.048874
_symmetry_space_group_name_H-M "P -1"
_symmetry_group_IT_number 2
_symmetry_cell_setting 'triclinic'
loop_
_space_group_symop_operation_xyz
x,y,z
-x,-y,-z
loop_
_atom_site_type_symbol
_atom_site_label
_atom_site_fract_x
_atom_site_fract_y
_atom_site_fract_z
Si Si1 0.295911 0.007762 0.571894
Si Si2 0.222575 0.993313 0.307111
Si Si3 0.232551 0.252670 0.187605
Si Si4 0.006189 0.369206 0.580813
Si Si5 0.293075 0.782515 0.771497
Si Si6 0.661529 0.236919 0.926650
Si Si7 0.270159 0.261884 0.631815
Si Si8 0.041111 0.360695 0.029977
O O1 0.330601 0.986696 0.382475
O O2 0.187229 0.140393 0.662625
O O3 0.500000 0.000000 0.500000
O O4 0.193225 0.903687 0.739930
O O5 0.262794 0.109267 0.164928
O O6 0.292994 0.878399 0.183897
O O7 0.000000 0.000000 0.500000
O O8 0.114215 0.269447 0.416414
O O9 0.440992 0.296728 0.045984
O O10 0.102619 0.333770 0.152602
O O11 0.136538 0.368844 0.627447
O O12 0.000000 0.500000 0.500000
O O13 0.792972 0.338578 0.775062
O O14 0.504161 0.738605 0.559990
O O15 0.311291 0.805060 0.921734
O O16 0.160554 0.682777 0.854101
O O17 0.222449 0.288378 0.826330
O O18 0.000000 0.500000 0.000000
#
# Coordination Sequence:
#
# PCOD8019584 Si02
#       8
#     2   2   2   2   2   2   2   2
#     4  10  22  41  69 100 136 173 216 274 346 405
#     4  12  23  44  70 105 142 176 224 284 346 411
#     4  12  26  44  70 105 137 179 231 289 342 401
#     4  12  25  46  70  96 138 182 233 289 333 406
#     4  11  25  45  73 100 136 182 222 280 351 407
#     4  12  26  44  73 106 136 181 231 278 351 415
#     4  11  23  47  69  99 139 174 228 284 337 409
#     4  12  29  46  67 100 137 182 238 280 339 405
#
# _framework density 21.856465
#
# number of rings (size 3 to 8) (size 9 to 14) (size 15 to 20)
#    0.000    0.500    5.000    2.625    5.250    2.500 
#    0.000    0.000    0.000    0.000    0.000    0.000 
#    0.000    0.000    0.000    0.000    0.000    0.000 
#
# Total GULP energy -198420.599278 kJ/mol
# GULP energy per Si atom -12401.287455 kJ/mol
# Density = 2.180672 g / cm^3
# Si number density = 21.856465 Si / 1000 Ang^3
#
#
#
# Elastic Constant Matrix: (Units=GPa)
#
#
# Indices 1 2 3 4 5 6 
#
# 1 124.8073 30.5892 42.1348 -10.3025 -2.4600 -6.2788
# 2 30.5892 117.2191 35.7145 -27.5853 -0.3471 -2.1377
# 3 42.1348 35.7145 123.4501 -6.1639 -17.0829 9.6672
# 4 -10.3025 -27.5853 -6.1639 33.9662 -1.0340 4.7716
# 5 -2.4600 -0.3471 -17.0829 -1.0340 34.3826 -2.8514
# 6 -6.2788 -2.1377 9.6672 4.7716 -2.8514 27.4243
#
#
#
# Elastic Compliance Matrix: (Units=1/GPa)
#
#
# Indices 1 2 3 4 5 6 
#
# 1 0.009613 -0.001283 -0.003191 0.000853 -0.000635 0.003012
# 2 -0.001283 0.011696 -0.002656 0.008603 -0.001039 -0.000051
# 3 -0.003191 -0.002656 0.010935 -0.000401 0.004816 -0.004222
# 4 0.000853 0.008603 -0.000401 0.037396 0.000623 -0.005435
# 5 -0.000635 -0.001039 0.004816 0.000623 0.031543 0.001247
# 6 0.003012 -0.000051 -0.004222 -0.005435 0.001247 0.039713
#
#
# Mechanical properties :
#
#
# Convention : Reuss Voigt Hill
#
# Bulk Modulus (GPa) = 55.60468 64.70594 60.15531
# Shear Modulus (GPa) = 31.02680 36.29049 33.65864
#
# Velocity S-wave (km/s) = 3.77181 4.07922 3.92852
# Velocity P-wave (km/s) = 6.66819 7.20111 6.93977
#
# Compressibility (1/GPa) = 0.01798410
#
# Stress axis : x y z
#
# Youngs Moduli (GPa) = 104.02083 85.50290 91.44927
#
# Poissons Ratio (x) = 0.10967 0.29184
# Poissons Ratio (y) = 0.13343 0.24289
# Poissons Ratio (z) = 0.33196 0.22710
#
# Static dielectric constant tensor:
#      x y z
#    x 4.031620 -0.124180 -0.065810 
#    y -0.124180 4.427860 -0.306480 
#    z -0.065810 -0.306480 3.834480 
# 
# 
# High freq. dielectric constant tensor:
#      x y z
#    x 1.869360 -0.001610 0.005030 
#    y -0.001610 1.857470 -0.006340 
#    z 0.005030 -0.006340 1.869040 
# 
# From -- ./inp_files/186364.got.cif
#   From: 2010.06.25/outbox.cif.g09.slc.cpg/sg2_94_cif.got.tgz:186364.got - 2010.06.27 13:26:56.
