data_PCOD8019833
_publ_section_title
;
Structure prediction by ZEFSAII (Michael W. Deem and Ramdas Pophale) SiO2 
 PCOD8019833
Probable space group: P -1
;
_chemical_formula_sum "Si O2"
_cell_formula_units_Z 14
_cell_length_a 20.915842
_cell_length_b 8.966470
_cell_length_c 9.297085
_cell_angle_alpha 130.454565
_cell_angle_beta 151.099190
_cell_angle_gamma 50.337420
_cell_volume 629.401676
_symmetry_space_group_name_H-M "P -1"
_symmetry_group_IT_number 2
_symmetry_cell_setting 'triclinic'
loop_
_space_group_symop_operation_xyz
x,y,z
-x,-y,-z
loop_
_atom_site_type_symbol
_atom_site_label
_atom_site_fract_x
_atom_site_fract_y
_atom_site_fract_z
Si Si1 0.305584 0.044515 0.335451
Si Si2 0.386660 0.596052 0.230041
Si Si3 0.930033 0.850086 0.859930
Si Si4 0.850038 0.601756 0.295787
Si Si5 0.621321 0.557096 0.188281
Si Si6 0.093235 0.731243 0.373284
Si Si7 0.141756 0.159345 0.811998
O O1 0.177095 0.021225 0.163763
O O2 0.384160 0.207719 0.655481
O O3 0.398035 0.826271 0.377401
O O4 0.263651 0.107683 0.130736
O O5 0.500000 0.500000 0.500000
O O6 0.239407 0.567896 0.974637
O O7 0.417754 0.475323 0.070443
O O8 0.847169 0.728131 0.516269
O O9 0.033729 0.702645 0.077831
O O10 0.000000 0.000000 0.000000
O O11 0.801640 0.731095 0.140284
O O12 0.000000 0.500000 0.500000
O O13 0.768717 0.428987 0.439267
O O14 0.500000 0.500000 0.000000
O O15 0.989236 0.706211 0.282549
O O16 0.111049 0.957831 0.557978
#
# Coordination Sequence:
#
# PCOD8019833 Si02
#       7
#     2   2   2   2   2   2   2
#     4  11  26  49  72 101 144 189 243 297 358 437
#     4  12  29  52  72 104 149 191 244 303 368 436
#     4  11  22  40  71 109 144 185 231 304 363 423
#     4  12  25  42  72 112 147 186 242 303 367 426
#     4  12  28  47  72 106 143 195 246 293 359 444
#     4  10  22  43  69 109 143 183 243 297 358 431
#     4  10  22  41  77 102 143 190 234 299 367 426
#
# _framework density 22.243345999999999
#
# number of rings (size 3 to 8) (size 9 to 14) (size 15 to 20)
#    0.000    0.857    4.286    1.714    6.000    4.571 
#    0.000    0.000    0.000    0.000    0.000    0.000 
#    0.000    0.000    0.000    0.000    0.000    0.000 
#
# Total GULP energy -173601.189253 kJ/mol
# GULP energy per Si atom -12400.084947 kJ/mol
# Density = 2.219272 g / cm^3
# Si number density = 22.243346 Si / 1000 Ang^3
#
#
#
# Elastic Constant Matrix: (Units=GPa)
#
#
# Indices 1 2 3 4 5 6 
#
# 1 102.4106 32.0967 64.0978 6.3384 -23.1050 15.1065
# 2 32.0967 118.4567 83.0156 15.0367 -14.0531 2.4898
# 3 64.0978 83.0156 138.7083 -0.5336 -17.5110 1.3784
# 4 6.3384 15.0367 -0.5336 41.2394 10.3336 3.8856
# 5 -23.1050 -14.0531 -17.5110 10.3336 44.7164 -4.2864
# 6 15.1065 2.4898 1.3784 3.8856 -4.2864 22.4460
#
#
#
# Elastic Compliance Matrix: (Units=1/GPa)
#
#
# Indices 1 2 3 4 5 6 
#
# 1 0.017773 0.003287 -0.009246 -0.004845 0.006793 -0.009622
# 2 0.003287 0.016826 -0.011060 -0.007752 0.004328 -0.001231
# 3 -0.009246 -0.011060 0.017805 0.005753 -0.002135 0.004952
# 4 -0.004845 -0.007752 0.005753 0.030762 -0.010131 -0.003492
# 5 0.006793 0.004328 -0.002135 -0.010131 0.028965 0.002364
# 6 -0.009622 -0.001231 0.004952 -0.003492 0.002364 0.051916
#
#
# Mechanical properties :
#
#
# Convention : Reuss Voigt Hill
#
# Bulk Modulus (GPa) = 54.44941 79.77729 67.11335
# Shear Modulus (GPa) = 24.48515 33.70471 29.09493
#
# Velocity S-wave (km/s) = 3.32141 3.89687 3.62059
# Velocity P-wave (km/s) = 6.26427 7.49607 6.90768
#
# Compressibility (1/GPa) = 0.01836567
#
# Stress axis : x y z
#
# Youngs Moduli (GPa) = 56.26481 59.43297 56.16557
#
# Poissons Ratio (x) = -0.19535 0.51929
# Poissons Ratio (y) = -0.18494 0.62119
# Poissons Ratio (z) = 0.52020 0.65733
#
# Static dielectric constant tensor:
#      x y z
#    x 3.958270 -0.409580 -0.259310 
#    y -0.409580 3.046140 0.076430 
#    z -0.259310 0.076430 4.063330 
# 
# 
# High freq. dielectric constant tensor:
#      x y z
#    x 1.885740 0.010180 -0.016090 
#    y 0.010180 1.873720 0.013220 
#    z -0.016090 0.013220 1.881150 
# 
# From -- ./inp_files/241849.got.cif
#   From: 2010.06.25/outbox.cif.g09.slc.cpg/sg2_121_cif.got.tgz:241849.got - 2010.06.27 13:26:56.
