data_PCOD8019558
_publ_section_title
;
Structure prediction by ZEFSAII (Michael W. Deem and Ramdas Pophale) SiO2 
 PCOD8019558
Probable space group: P -1
;
_chemical_formula_sum "Si O2"
_cell_formula_units_Z 16
_cell_length_a 11.129555
_cell_length_b 18.973844
_cell_length_c 16.808257
_cell_angle_alpha 157.388178
_cell_angle_beta 133.623540
_cell_angle_gamma 35.568152
_cell_volume 763.726251
_symmetry_space_group_name_H-M "P -1"
_symmetry_group_IT_number 2
_symmetry_cell_setting 'triclinic'
loop_
_space_group_symop_operation_xyz
x,y,z
-x,-y,-z
loop_
_atom_site_type_symbol
_atom_site_label
_atom_site_fract_x
_atom_site_fract_y
_atom_site_fract_z
Si Si1 0.454762 0.405527 0.629548
Si Si2 0.159739 0.982801 0.692783
Si Si3 0.745848 0.355189 0.479882
Si Si4 0.746119 0.775861 0.892781
Si Si5 0.104390 0.438474 0.600693
Si Si6 0.416317 0.250929 0.690548
Si Si7 0.897750 0.214361 0.236302
Si Si8 0.689970 0.352412 0.829906
O O1 0.641151 0.141789 0.407085
O O2 0.251403 0.442579 0.610785
O O3 0.351279 0.586185 0.696624
O O4 0.561553 0.464352 0.804942
O O5 0.179700 0.787555 0.552799
O O6 0.939362 0.132836 0.698890
O O7 0.153243 0.164709 0.933853
O O8 0.500000 0.500000 0.500000
O O9 0.784571 0.544084 0.699905
O O10 0.883983 0.167832 0.274805
O O11 0.881093 0.701681 0.794503
O O12 0.500000 0.000000 0.000000
O O13 0.227285 0.327851 0.624829
O O14 0.046722 0.289208 0.376138
O O15 0.600491 0.239410 0.718997
O O16 0.500000 0.000000 0.500000
O O17 0.330120 0.439654 0.918539
O O18 0.000000 0.000000 0.000000
#
# Coordination Sequence:
#
# PCOD8019558 Si02
#       8
#     2   2   2   2   2   2   2   2
#     4  11  24  44  61  94 138 168 215 264 326 395
#     4  12  23  43  67  93 134 171 218 269 318 393
#     4  11  23  41  62  98 125 166 223 263 322 384
#     4  11  22  39  67  94 127 168 214 269 321 381
#     4  10  23  43  63  97 125 171 220 260 330 385
#     4  10  22  41  68  97 129 166 221 271 313 389
#     4  11  25  38  65  96 128 169 208 275 332 379
#     4  10  24  40  68  97 126 178 213 262 332 381
#
# _framework density 20.949915000000001
#
# number of rings (size 3 to 8) (size 9 to 14) (size 15 to 20)
#    0.000    1.250    3.750    1.500    7.000    1.000 
#    0.000    0.000    0.000    3.750    0.000    0.000 
#    0.000    0.000    0.000    0.000    0.000    0.000 
#
# Total GULP energy -198338.582304 kJ/mol
# GULP energy per Si atom -12396.161394 kJ/mol
# Density = 2.090223 g / cm^3
# Si number density = 20.949915 Si / 1000 Ang^3
#
#
#
# Elastic Constant Matrix: (Units=GPa)
#
#
# Indices 1 2 3 4 5 6 
#
# 1 86.7434 30.0608 44.0858 8.8494 -17.1131 -14.4146
# 2 30.0608 117.6187 39.4988 -4.3460 1.1673 -13.8551
# 3 44.0858 39.4988 145.8996 -7.4400 -8.5804 -10.7746
# 4 8.8494 -4.3460 -7.4400 32.9270 -2.4670 -8.2047
# 5 -17.1131 1.1673 -8.5804 -2.4670 33.3369 9.4487
# 6 -14.4146 -13.8551 -10.7746 -8.2047 9.4487 36.7217
#
#
#
# Elastic Compliance Matrix: (Units=1/GPa)
#
#
# Indices 1 2 3 4 5 6 
#
# 1 0.016681 -0.003020 -0.003967 -0.004920 0.006895 0.001371
# 2 -0.003020 0.010391 -0.001696 0.002460 -0.003191 0.003608
# 3 -0.003967 -0.001696 0.008757 0.003088 0.000220 0.001005
# 4 -0.004920 0.002460 0.003088 0.034600 -0.001532 0.008028
# 5 0.006895 -0.003191 0.000220 -0.001532 0.035859 -0.008002
# 6 0.001371 0.003608 0.001005 0.008028 -0.008002 0.033279
#
#
# Mechanical properties :
#
#
# Convention : Reuss Voigt Hill
#
# Bulk Modulus (GPa) = 54.16454 64.17249 59.16852
# Shear Modulus (GPa) = 30.65827 36.37152 33.51489
#
# Velocity S-wave (km/s) = 3.82960 4.17119 4.00404
# Velocity P-wave (km/s) = 6.74277 7.34141 7.04845
#
# Compressibility (1/GPa) = 0.01846226
#
# Stress axis : x y z
#
# Youngs Moduli (GPa) = 59.94860 96.23586 114.19877
#
# Poissons Ratio (x) = 0.29061 0.45303
# Poissons Ratio (y) = 0.18103 0.19373
# Poissons Ratio (z) = 0.23782 0.16326
#
# Static dielectric constant tensor:
#      x y z
#    x 4.416250 -0.358170 0.262090 
#    y -0.358170 4.121990 -0.274750 
#    z 0.262090 -0.274750 4.134480 
# 
# 
# High freq. dielectric constant tensor:
#      x y z
#    x 1.816180 -0.015000 -0.016700 
#    y -0.015000 1.833950 -0.009520 
#    z -0.016700 -0.009520 1.820020 
# 
# From -- ./inp_files/460949.got.cif
#   From: 2010.06.25/outbox.cif.g09.slc.cpg/sg2_231_cif.got.tgz:460949.got - 2010.06.27 13:26:56.
