data_PCOD8019650
_publ_section_title
;
Structure prediction by ZEFSAII (Michael W. Deem and Ramdas Pophale) SiO2 
 PCOD8019650
Probable space group: P -1
;
_chemical_formula_sum "Si O2"
_cell_formula_units_Z 16
_cell_length_a 8.597319
_cell_length_b 15.106529
_cell_length_c 17.559980
_cell_angle_alpha 40.785540
_cell_angle_beta 43.079434
_cell_angle_gamma 32.502953
_cell_volume 772.623832
_symmetry_space_group_name_H-M "P -1"
_symmetry_group_IT_number 2
_symmetry_cell_setting 'triclinic'
loop_
_space_group_symop_operation_xyz
x,y,z
-x,-y,-z
loop_
_atom_site_type_symbol
_atom_site_label
_atom_site_fract_x
_atom_site_fract_y
_atom_site_fract_z
Si Si1 0.297620 0.139489 0.264130
Si Si2 0.142483 0.523623 0.539257
Si Si3 0.193172 0.122147 0.483594
Si Si4 0.661642 0.140389 0.669235
Si Si5 0.784616 0.409296 0.696961
Si Si6 0.438659 0.868513 0.116559
Si Si7 0.810567 0.511668 0.129160
Si Si8 0.074146 0.029738 0.872087
O O1 0.283427 0.084157 0.388584
O O2 0.007990 0.341386 0.222768
O O3 0.330068 0.008035 0.276775
O O4 0.577842 0.133714 0.161330
O O5 0.447761 0.329713 0.579074
O O6 0.220063 0.584259 0.397759
O O7 0.018986 0.669051 0.554546
O O8 0.869682 0.524607 0.621492
O O9 0.003086 0.059723 0.604244
O O10 0.500000 0.000000 0.500000
O O11 0.541827 0.174866 0.774375
O O12 0.471975 0.474685 0.801707
O O13 0.037285 0.207060 0.767246
O O14 0.699021 0.684365 0.102602
O O15 0.119262 0.961299 0.131816
O O16 0.500000 0.000000 0.000000
O O17 0.000000 0.500000 0.000000
O O18 0.000000 0.000000 0.000000
#
# Coordination Sequence:
#
# PCOD8019650 Si02
#       8
#     2   2   2   2   2   2   2   2
#     4  12  24  42  65  98 130 171 218 271 338 382
#     4  11  23  42  69  95 134 176 225 266 331 403
#     4  12  26  40  63 101 137 165 210 283 335 383
#     4  12  24  43  68  93 132 179 222 263 328 409
#     4  10  22  41  69  97 129 179 224 265 327 409
#     4  11  24  44  68  96 128 176 227 267 323 400
#     4  11  23  42  66  97 134 167 219 280 335 380
#     4  11  22  44  69  95 130 176 223 268 319 401
#
# _framework density 20.708655
#
# number of rings (size 3 to 8) (size 9 to 14) (size 15 to 20)
#    0.000    0.750    1.250    8.250    3.500    0.000 
#    2.250    0.625    0.000    0.000    0.000    0.000 
#    0.000    0.000    0.000    0.000    0.000    0.000 
#
# Total GULP energy -198431.487137 kJ/mol
# GULP energy per Si atom -12401.967946 kJ/mol
# Density = 2.066152 g / cm^3
# Si number density = 20.708655 Si / 1000 Ang^3
#
#
#
# Elastic Constant Matrix: (Units=GPa)
#
#
# Indices 1 2 3 4 5 6 
#
# 1 103.6669 54.3568 41.3466 4.0696 0.8125 6.2635
# 2 54.3568 105.8525 33.9208 3.4149 -10.6281 -5.4499
# 3 41.3466 33.9208 134.4565 15.2735 5.2548 3.1077
# 4 4.0696 3.4149 15.2735 43.3295 -2.2222 4.4246
# 5 0.8125 -10.6281 5.2548 -2.2222 42.4607 1.6267
# 6 6.2635 -5.4499 3.1077 4.4246 1.6267 40.3678
#
#
#
# Elastic Compliance Matrix: (Units=1/GPa)
#
#
# Indices 1 2 3 4 5 6 
#
# 1 0.014501 -0.006926 -0.002620 0.000330 -0.001556 -0.002957
# 2 -0.006926 0.014053 -0.001631 0.000009 0.003739 0.002946
# 3 -0.002620 -0.001631 0.009049 -0.002885 -0.001624 -0.000129
# 4 0.000330 0.000009 -0.002885 0.024416 0.001729 -0.002574
# 5 -0.001556 0.003739 -0.001624 0.001729 0.024821 -0.000318
# 6 -0.002957 0.002946 -0.000129 -0.002574 -0.000318 0.025933
#
#
# Mechanical properties :
#
#
# Convention : Reuss Voigt Hill
#
# Bulk Modulus (GPa) = 65.57831 67.02492 66.30162
# Shear Modulus (GPa) = 35.66113 39.52173 37.59143
#
# Velocity S-wave (km/s) = 4.15425 4.37334 4.26520
# Velocity P-wave (km/s) = 7.39907 7.61166 7.50612
#
# Compressibility (1/GPa) = 0.01524894
#
# Stress axis : x y z
#
# Youngs Moduli (GPa) = 68.96231 71.15904 110.51373
#
# Poissons Ratio (x) = 0.49283 0.28956
# Poissons Ratio (y) = 0.47762 0.18022
# Poissons Ratio (z) = 0.18069 0.11604
#
# Static dielectric constant tensor:
#      x y z
#    x 3.931600 -0.121940 -0.044340 
#    y -0.121940 3.767370 -0.023850 
#    z -0.044340 -0.023850 3.873990 
# 
# 
# High freq. dielectric constant tensor:
#      x y z
#    x 1.819730 -0.009970 -0.003210 
#    y -0.009970 1.813060 0.001470 
#    z -0.003210 0.001470 1.827420 
# 
# From -- ./inp_files/185406.got.cif
#   From: 2010.06.25/outbox.cif.g09.slc.cpg/sg2_93_cif.got.tgz:185406.got - 2010.06.27 13:26:56.
