data_PCOD8019619
_publ_section_title
;
Structure prediction by ZEFSAII (Michael W. Deem and Ramdas Pophale) SiO2 
 PCOD8019619
Probable space group: P -1
;
_chemical_formula_sum "Si O2"
_cell_formula_units_Z 14
_cell_length_a 17.016799
_cell_length_b 9.012338
_cell_length_c 9.819843
_cell_angle_alpha 31.111393
_cell_angle_beta 128.220217
_cell_angle_gamma 123.891020
_cell_volume 609.894431
_symmetry_space_group_name_H-M "P -1"
_symmetry_group_IT_number 2
_symmetry_cell_setting 'triclinic'
loop_
_space_group_symop_operation_xyz
x,y,z
-x,-y,-z
loop_
_atom_site_type_symbol
_atom_site_label
_atom_site_fract_x
_atom_site_fract_y
_atom_site_fract_z
Si Si1 0.033949 0.658730 0.049240
Si Si2 0.429196 0.671967 0.966544
Si Si3 0.734128 0.286779 0.698137
Si Si4 0.695142 0.394997 0.866584
Si Si5 0.245209 0.977319 0.554569
Si Si6 0.362746 0.311032 0.931204
Si Si7 0.961452 0.289986 0.504347
O O1 0.150335 0.613972 0.235473
O O2 0.967272 0.488595 0.222961
O O3 0.000000 0.500000 0.000000
O O4 0.019738 0.000779 0.770806
O O5 0.406771 0.578809 0.173706
O O6 0.544418 0.791754 0.979954
O O7 0.351488 0.909391 0.653942
O O8 0.406867 0.404046 0.052009
O O9 0.671004 0.348769 0.718598
O O10 0.689721 0.441649 0.399688
O O11 0.719865 0.946175 0.926056
O O12 0.767865 0.685234 0.730916
O O13 0.755386 0.133983 0.199925
O O14 0.154228 0.808948 0.509246
O O15 0.000000 0.500000 0.500000
#
# Coordination Sequence:
#
# PCOD8019619 Si02
#       7
#     2   2   2   2   2   2   2
#     4  12  27  46  69  98 141 182 221 278 344 401
#     4   9  26  43  71  92 138 174 218 262 346 392
#     4  12  26  43  68  99 136 167 226 275 327 383
#     4  10  23  42  68  92 131 177 214 263 329 397
#     4  10  22  41  69  92 132 171 223 264 330 396
#     4  11  26  43  68 102 131 172 218 278 329 395
#     4  12  26  43  70 101 132 176 235 279 334 395
#
# _framework density 22.954794
#
# number of rings (size 3 to 8) (size 9 to 14) (size 15 to 20)
#    0.857    0.286    0.000    5.143    8.000    2.286 
#    0.000    0.000    0.000    0.000    0.000    0.000 
#    0.000    0.000    0.000    0.000    0.000    0.000 
#
# Total GULP energy -173507.585570 kJ/mol
# GULP energy per Si atom -12393.398969 kJ/mol
# Density = 2.290255 g / cm^3
# Si number density = 22.954794 Si / 1000 Ang^3
#
#
#
# Elastic Constant Matrix: (Units=GPa)
#
#
# Indices 1 2 3 4 5 6 
#
# 1 51.2224 8.1064 22.0160 0.9437 3.7097 1.7152
# 2 8.1064 68.9733 16.3895 -9.8852 5.3552 2.8878
# 3 22.0160 16.3895 106.6157 -10.1470 -7.7601 0.0244
# 4 0.9437 -9.8852 -10.1470 34.3322 3.7661 4.6805
# 5 3.7097 5.3552 -7.7601 3.7661 29.4207 0.5566
# 6 1.7152 2.8878 0.0244 4.6805 0.5566 41.4903
#
#
#
# Elastic Compliance Matrix: (Units=1/GPa)
#
#
# Indices 1 2 3 4 5 6 
#
# 1 0.022121 -0.001449 -0.004790 -0.001981 -0.003525 -0.000540
# 2 -0.001449 0.016194 -0.002021 0.004742 -0.003876 -0.001549
# 3 -0.004790 -0.002021 0.011175 0.002456 0.003605 0.000007
# 4 -0.001981 0.004742 0.002456 0.032236 -0.004019 -0.003832
# 5 -0.003525 -0.003876 0.003605 -0.004019 0.036598 0.000376
# 6 -0.000540 -0.001549 0.000007 -0.003832 0.000376 0.024659
#
#
# Mechanical properties :
#
#
# Convention : Reuss Voigt Hill
#
# Bulk Modulus (GPa) = 30.33011 35.53724 32.93367
# Shear Modulus (GPa) = 29.32657 33.06861 31.19759
#
# Velocity S-wave (km/s) = 3.57820 3.79964 3.69058
# Velocity P-wave (km/s) = 5.50573 5.89616 5.70428
#
# Compressibility (1/GPa) = 0.03297054
#
# Stress axis : x y z
#
# Youngs Moduli (GPa) = 45.20634 61.75067 89.48202
#
# Poissons Ratio (x) = 0.08949 0.42863
# Poissons Ratio (y) = 0.06551 0.18081
# Poissons Ratio (z) = 0.21654 0.12478
#
# Static dielectric constant tensor:
#      x y z
#    x 4.167480 0.083970 -0.025520 
#    y 0.083970 3.981840 -0.044040 
#    z -0.025520 -0.044040 4.024690 
# 
# 
# High freq. dielectric constant tensor:
#      x y z
#    x 1.907760 0.004140 -0.007790 
#    y 0.004140 1.907370 -0.005560 
#    z -0.007790 -0.005560 1.903480 
# 
# From -- ./inp_files/124445.got.cif
#   From: 2010.06.25/outbox.cif.g09.slc.cpg/sg2_63_cif.got.tgz:124445.got - 2010.06.27 13:26:56.
