data_PCOD8019476
_publ_section_title
;
Structure prediction by ZEFSAII (Michael W. Deem and Ramdas Pophale) SiO2 
 PCOD8019476
Probable space group: P -1
;
_chemical_formula_sum "Si O2"
_cell_formula_units_Z 16
_cell_length_a 11.893629
_cell_length_b 12.721854
_cell_length_c 12.411522
_cell_angle_alpha 34.364943
_cell_angle_beta 92.996069
_cell_angle_gamma 117.869323
_cell_volume 696.894162
_symmetry_space_group_name_H-M "P -1"
_symmetry_group_IT_number 2
_symmetry_cell_setting 'triclinic'
loop_
_space_group_symop_operation_xyz
x,y,z
-x,-y,-z
loop_
_atom_site_type_symbol
_atom_site_label
_atom_site_fract_x
_atom_site_fract_y
_atom_site_fract_z
Si Si1 0.672319 0.634788 0.117927
Si Si2 0.443263 0.236250 0.268310
Si Si3 0.814582 0.510002 0.355523
Si Si4 0.080400 0.870640 0.882078
Si Si5 0.061292 0.772868 0.731695
Si Si6 0.805034 0.391104 0.866021
Si Si7 0.547918 0.876858 0.866018
Si Si8 0.050946 0.221043 0.644478
O O1 0.582510 0.373457 0.253032
O O2 0.691360 0.539401 0.310075
O O3 0.556664 0.677285 0.082957
O O4 0.859490 0.937670 0.833117
O O5 0.457414 0.111056 0.275105
O O6 0.252929 0.005867 0.499999
O O7 0.500000 0.500000 0.000000
O O8 0.947235 0.713864 0.286139
O O9 0.711734 0.195981 0.645200
O O10 0.911305 0.603905 0.166887
O O11 0.043976 0.879514 0.746979
O O12 0.158121 0.159550 0.689928
O O13 0.203583 0.843198 0.917044
O O14 0.928735 0.661258 0.724906
O O15 0.000000 0.500000 0.000000
O O16 0.870548 0.513624 0.645199
O O17 0.616422 0.232848 0.000004
#
# Coordination Sequence:
#
# PCOD8019476 Si02
#       8
#     2   2   2   2   2   2   2   2
#     4  10  23  43  68  98 132 172 228 278 334 403
#     4  10  22  41  68 101 140 177 220 276 349 413
#     4  11  25  45  71  95 129 187 235 274 333 401
#     4  10  23  43  68  98 132 172 228 278 334 403
#     4  10  22  41  68 101 140 177 220 276 349 413
#     4  11  25  41  67 103 138 176 219 281 342 404
#     4  11  25  41  67 103 138 176 219 281 342 404
#     4  11  25  45  71  95 129 187 235 274 333 401
#
# _framework density 22.959008000000001
#
# number of rings (size 3 to 8) (size 9 to 14) (size 15 to 20)
#    0.000    1.500    0.000    5.250   10.500    4.500 
#    0.000    1.250    0.000    0.000    0.000    0.000 
#    0.000    0.000    0.000    0.000    0.000    0.000 
#
# Total GULP energy -198255.434933 kJ/mol
# GULP energy per Si atom -12390.964683 kJ/mol
# Density = 2.290675 g / cm^3
# Si number density = 22.959008 Si / 1000 Ang^3
#
#
#
# Elastic Constant Matrix: (Units=GPa)
#
#
# Indices 1 2 3 4 5 6 
#
# 1 82.0841 3.6141 -10.2426 0.7195 6.8414 -2.6146
# 2 3.6141 81.6318 1.8590 1.3588 -9.0067 2.4047
# 3 -10.2426 1.8590 69.7119 0.2901 -5.2308 1.7221
# 4 0.7195 1.3588 0.2901 32.7203 -0.7227 2.5419
# 5 6.8414 -9.0067 -5.2308 -0.7227 39.6647 -2.0288
# 6 -2.6146 2.4047 1.7221 2.5419 -2.0288 27.4328
#
#
#
# Elastic Compliance Matrix: (Units=1/GPa)
#
#
# Indices 1 2 3 4 5 6 
#
# 1 0.012645 -0.000855 0.001698 -0.000386 -0.002104 0.001054
# 2 -0.000855 0.012650 -0.000218 -0.000368 0.002937 -0.000925
# 3 0.001698 -0.000218 0.014733 -0.000076 0.001567 -0.000621
# 4 -0.000386 -0.000368 -0.000076 0.030815 0.000390 -0.002826
# 5 -0.002104 0.002937 0.001567 0.000390 0.026525 0.001369
# 6 0.001054 -0.000925 -0.000621 -0.002826 0.001369 0.037036
#
#
# Mechanical properties :
#
#
# Convention : Reuss Voigt Hill
#
# Bulk Modulus (GPa) = 24.22600 24.87653 24.55127
# Shear Modulus (GPa) = 34.03349 35.84338 34.93843
#
# Velocity S-wave (km/s) = 3.85432 3.95548 3.90522
# Velocity P-wave (km/s) = 5.51203 5.63203 5.57235
#
# Compressibility (1/GPa) = 0.04127796
#
# Stress axis : x y z
#
# Youngs Moduli (GPa) = 79.08557 79.04873 67.87315
#
# Poissons Ratio (x) = 0.06761 -0.11527
# Poissons Ratio (y) = 0.06764 0.01481
# Poissons Ratio (z) = -0.13431 0.01725
#
# Static dielectric constant tensor:
#      x y z
#    x 4.221450 0.102910 0.245640 
#    y 0.102910 5.582400 0.080590 
#    z 0.245640 0.080590 4.053400 
# 
# 
# High freq. dielectric constant tensor:
#      x y z
#    x 1.896330 -0.000200 0.014610 
#    y -0.000200 1.905310 -0.001330 
#    z 0.014610 -0.001330 1.906170 
# 
# From -- ./inp_files/427408.got.cif
#   From: 2010.06.25/outbox.cif.g09.slc.cpg/sg2_214_cif.got.tgz:427408.got - 2010.06.27 13:26:56.
