data_PCOD8019194
_publ_section_title
;
Structure prediction by ZEFSAII (Michael W. Deem and Ramdas Pophale) SiO2 
 PCOD8019194
Probable space group: P -1
;
_chemical_formula_sum "Si O2"
_cell_formula_units_Z 16
_cell_length_a 5.153698
_cell_length_b 21.103226
_cell_length_c 8.588420
_cell_angle_alpha 129.295775
_cell_angle_beta 114.887697
_cell_angle_gamma 84.855357
_cell_volume 634.587650
_symmetry_space_group_name_H-M "P -1"
_symmetry_group_IT_number 2
_symmetry_cell_setting 'triclinic'
loop_
_space_group_symop_operation_xyz
x,y,z
-x,-y,-z
loop_
_atom_site_type_symbol
_atom_site_label
_atom_site_fract_x
_atom_site_fract_y
_atom_site_fract_z
Si Si1 0.741742 0.193773 0.243286
Si Si2 0.182917 0.137014 0.824333
Si Si3 0.938664 0.449219 0.247730
Si Si4 0.360999 0.498946 0.147972
Si Si5 0.115685 0.641733 0.306569
Si Si6 0.788206 0.983187 0.621544
Si Si7 0.173614 0.732448 0.149413
Si Si8 0.340348 0.145187 0.362140
O O1 0.827910 0.296196 0.434610
O O2 0.567385 0.151756 0.287918
O O3 0.041575 0.164772 0.254156
O O4 0.533494 0.168647 0.999463
O O5 0.114521 0.088352 0.567412
O O6 0.033353 0.214911 0.901726
O O7 0.041011 0.070854 0.822970
O O8 0.664861 0.477760 0.151127
O O9 0.000000 0.500000 0.500000
O O10 0.227774 0.472439 0.246414
O O11 0.832942 0.347192 0.089644
O O12 0.396957 0.600457 0.290286
O O13 0.148206 0.443026 0.874560
O O14 0.046680 0.694868 0.225352
O O15 0.732773 0.949644 0.732392
O O16 0.500000 0.000000 0.500000
O O17 0.504774 0.791133 0.358851
#
# Coordination Sequence:
#
# PCOD8019194 Si02
#       8
#     2   2   2   2   2   2   2   2
#     4  11  26  43  69 107 137 176 231 294 337 396
#     4  11  26  45  70 105 138 180 230 289 344 412
#     4  11  24  41  65  99 138 174 227 281 336 387
#     4  10  22  41  65  95 129 186 224 275 333 405
#     4   9  21  42  69  93 135 178 230 271 340 401
#     4  11  24  46  73  97 139 185 229 274 355 423
#     4  10  22  45  71  96 138 186 227 272 345 418
#     4  11  24  46  70  98 139 183 228 281 346 413
#
# _framework density 25.213222999999999
#
# number of rings (size 3 to 8) (size 9 to 14) (size 15 to 20)
#    0.000    1.500    1.250    2.625    5.250    8.500 
#    2.250    0.000    0.000    0.000    0.000    0.000 
#    0.000    0.000    0.000    0.000    0.000    0.000 
#
# Total GULP energy -198295.655484 kJ/mol
# GULP energy per Si atom -12393.478468 kJ/mol
# Density = 2.515584 g / cm^3
# Si number density = 25.213223 Si / 1000 Ang^3
#
#
#
# Elastic Constant Matrix: (Units=GPa)
#
#
# Indices 1 2 3 4 5 6 
#
# 1 83.4662 19.7684 5.6872 -2.9616 1.0242 -6.9335
# 2 19.7684 119.3693 21.2927 15.6285 3.6442 -17.0458
# 3 5.6872 21.2927 96.6362 4.3871 10.7617 -10.2638
# 4 -2.9616 15.6285 4.3871 20.0012 -8.9991 4.0788
# 5 1.0242 3.6442 10.7617 -8.9991 37.6087 -7.7600
# 6 -6.9335 -17.0458 -10.2638 4.0788 -7.7600 46.4697
#
#
#
# Elastic Compliance Matrix: (Units=1/GPa)
#
#
# Indices 1 2 3 4 5 6 
#
# 1 0.012816 -0.002557 -0.000454 0.004405 0.001226 0.000692
# 2 -0.002557 0.011030 -0.001108 -0.010646 -0.002414 0.003951
# 3 -0.000454 -0.001108 0.011381 -0.003702 -0.003661 0.001753
# 4 0.004405 -0.010646 -0.003702 0.068893 0.016954 -0.007281
# 5 0.001226 -0.002414 -0.003661 0.016954 0.032392 0.002410
# 6 0.000692 0.003951 0.001753 -0.007281 0.002410 0.024501
#
#
# Mechanical properties :
#
#
# Convention : Reuss Voigt Hill
#
# Bulk Modulus (GPa) = 37.05103 43.66314 40.35708
# Shear Modulus (GPa) = 28.05100 37.66416 32.85758
#
# Velocity S-wave (km/s) = 3.33911 3.86920 3.61389
# Velocity P-wave (km/s) = 5.43996 6.10869 5.78400
#
# Compressibility (1/GPa) = 0.02698981
#
# Stress axis : x y z
#
# Youngs Moduli (GPa) = 78.02646 90.65984 87.86621
#
# Poissons Ratio (x) = 0.23180 0.03988
# Poissons Ratio (y) = 0.19950 0.09736
# Poissons Ratio (z) = 0.03541 0.10046
#
# Static dielectric constant tensor:
#      x y z
#    x 4.817690 -0.404710 0.274450 
#    y -0.404710 5.098820 0.280510 
#    z 0.274450 0.280510 4.863840 
# 
# 
# High freq. dielectric constant tensor:
#      x y z
#    x 1.998700 -0.001340 0.003400 
#    y -0.001340 2.013300 0.013930 
#    z 0.003400 0.013930 2.002800 
# 
# From -- ./inp_files/141659.got.cif
#   From: 2010.06.25/outbox.cif.g09.slc.cpg/sg2_71_cif.got.tgz:141659.got - 2010.06.27 13:26:56.
