data_PCOD8019428
_publ_section_title
;
Structure prediction by ZEFSAII (Michael W. Deem and Ramdas Pophale) SiO2 
 PCOD8019428
Probable space group: P -1
;
_chemical_formula_sum "Si O2"
_cell_formula_units_Z 16
_cell_length_a 24.515234
_cell_length_b 19.440519
_cell_length_c 6.797190
_cell_angle_alpha 56.708775
_cell_angle_beta 67.456553
_cell_angle_gamma 18.341284
_cell_volume 726.150171
_symmetry_space_group_name_H-M "P -1"
_symmetry_group_IT_number 2
_symmetry_cell_setting 'triclinic'
loop_
_space_group_symop_operation_xyz
x,y,z
-x,-y,-z
loop_
_atom_site_type_symbol
_atom_site_label
_atom_site_fract_x
_atom_site_fract_y
_atom_site_fract_z
Si Si1 0.790856 0.774713 0.616952
Si Si2 0.221846 0.690213 0.268953
Si Si3 0.865486 0.562547 0.186743
Si Si4 0.947622 0.804252 0.817279
Si Si5 0.573660 0.625370 0.903936
Si Si6 0.084770 0.795687 0.653308
Si Si7 0.501355 0.403110 0.614517
Si Si8 0.730740 0.705157 0.564791
O O1 0.829519 0.660220 0.564993
O O2 0.979137 0.581524 0.703391
O O3 0.617771 0.062504 0.322396
O O4 0.730908 0.797552 0.853825
O O5 0.386318 0.453740 0.248674
O O6 0.204189 0.638302 0.527207
O O7 0.318450 0.636573 0.343375
O O8 0.000000 0.000000 0.000000
O O9 0.731147 0.701782 0.329863
O O10 0.978887 0.338274 0.261500
O O11 0.925617 0.933495 0.630391
O O12 0.719637 0.077204 0.749847
O O13 0.111577 0.571572 0.130125
O O14 0.757723 0.435976 0.028041
O O15 0.547894 0.578606 0.144763
O O16 0.000000 0.000000 0.500000
O O17 0.500000 0.500000 0.500000
O O18 0.500000 0.000000 0.500000
#
# Coordination Sequence:
#
# PCOD8019428 Si02
#       8
#     2   2   2   2   2   2   2   2
#     4  10  22  41  67  96 127 176 221 273 337 401
#     4  11  24  43  67  93 129 179 229 274 342 401
#     4  10  23  43  66  94 137 168 224 279 334 402
#     4  11  24  43  67  99 133 177 225 279 340 401
#     4  11  23  41  67  95 130 175 228 272 337 409
#     4  11  23  43  65  92 134 174 222 281 334 398
#     4  11  26  44  67  98 138 174 226 284 339 400
#     4  11  24  42  67 100 136 176 218 277 343 405
#
# _framework density 22.034013000000002
#
# number of rings (size 3 to 8) (size 9 to 14) (size 15 to 20)
#    0.000    1.250    1.250    4.125    0.000    9.500 
#    2.250    0.000    0.000    0.000    0.000    0.000 
#    0.000    0.000    0.000    0.000    0.000    0.000 
#
# Total GULP energy -198246.257138 kJ/mol
# GULP energy per Si atom -12390.391071 kJ/mol
# Density = 2.198386 g / cm^3
# Si number density = 22.034013 Si / 1000 Ang^3
#
#
#
# Elastic Constant Matrix: (Units=GPa)
#
#
# Indices 1 2 3 4 5 6 
#
# 1 117.8697 21.8191 28.1012 7.3125 -4.9496 0.7828
# 2 21.8191 97.5678 37.0374 21.6057 -4.2973 -5.0886
# 3 28.1012 37.0374 105.9456 3.4226 8.9629 6.7460
# 4 7.3125 21.6057 3.4226 50.0803 1.6894 7.3258
# 5 -4.9496 -4.2973 8.9629 1.6894 26.9104 -6.8350
# 6 0.7828 -5.0886 6.7460 7.3258 -6.8350 29.7914
#
#
#
# Elastic Compliance Matrix: (Units=1/GPa)
#
#
# Indices 1 2 3 4 5 6 
#
# 1 0.009398 -0.000706 -0.002519 -0.001156 0.002815 0.001133
# 2 -0.000706 0.014829 -0.005758 -0.007153 0.006404 0.007084
# 3 -0.002519 -0.005758 0.013063 0.003148 -0.007552 -0.006382
# 4 -0.001156 -0.007153 0.003148 0.024597 -0.006337 -0.009406
# 5 0.002815 0.006404 -0.007552 -0.006337 0.045345 0.014692
# 6 0.001133 0.007084 -0.006382 -0.009406 0.014692 0.041876
#
#
# Mechanical properties :
#
#
# Convention : Reuss Voigt Hill
#
# Bulk Modulus (GPa) = 51.75174 55.03317 53.39245
# Shear Modulus (GPa) = 28.81581 36.98478 32.90029
#
# Velocity S-wave (km/s) = 3.62026 4.10143 3.86833
# Velocity P-wave (km/s) = 6.40416 6.88910 6.65105
#
# Compressibility (1/GPa) = 0.01932302
#
# Stress axis : x y z
#
# Youngs Moduli (GPa) = 106.41065 67.43716 76.54925
#
# Poissons Ratio (x) = 0.04764 0.19279
# Poissons Ratio (y) = 0.07518 0.44079
# Poissons Ratio (z) = 0.26800 0.38832
#
# Static dielectric constant tensor:
#      x y z
#    x 4.199700 -0.013450 0.052280 
#    y -0.013450 4.115370 0.150250 
#    z 0.052280 0.150250 4.177950 
# 
# 
# High freq. dielectric constant tensor:
#      x y z
#    x 1.871580 -0.003540 0.009190 
#    y -0.003540 1.866300 0.004380 
#    z 0.009190 0.004380 1.875630 
# 
# From -- ./inp_files/124677.got.cif
#   From: 2010.06.25/outbox.cif.g09.slc.cpg/sg2_63_cif.got.tgz:124677.got - 2010.06.27 13:26:56.
