data_PCOD8019591
_publ_section_title
;
Structure prediction by ZEFSAII (Michael W. Deem and Ramdas Pophale) SiO2 
 PCOD8019591
Probable space group: P -1
;
_chemical_formula_sum "Si O2"
_cell_formula_units_Z 14
_cell_length_a 11.535082
_cell_length_b 9.239489
_cell_length_c 11.655302
_cell_angle_alpha 142.761993
_cell_angle_beta 123.794507
_cell_angle_gamma 61.495404
_cell_volume 623.218979
_symmetry_space_group_name_H-M "P -1"
_symmetry_group_IT_number 2
_symmetry_cell_setting 'triclinic'
loop_
_space_group_symop_operation_xyz
x,y,z
-x,-y,-z
loop_
_atom_site_type_symbol
_atom_site_label
_atom_site_fract_x
_atom_site_fract_y
_atom_site_fract_z
Si Si1 0.150910 0.537496 0.154588
Si Si2 0.654056 0.850673 0.109089
Si Si3 0.773546 0.708001 0.554007
Si Si4 0.819566 0.915600 0.467729
Si Si5 0.846355 0.131994 0.997443
Si Si6 0.347872 0.754879 0.827570
Si Si7 0.975714 0.479228 0.695619
O O1 0.145211 0.467961 0.242497
O O2 0.182575 0.810809 0.324197
O O3 0.270203 0.373000 0.055849
O O4 0.000000 0.500000 0.000000
O O5 0.707009 0.881699 0.285893
O O6 0.677143 0.092958 0.205672
O O7 0.491315 0.806149 0.000774
O O8 0.785964 0.753208 0.455121
O O9 0.649531 0.526700 0.384643
O O10 0.912371 0.562572 0.590603
O O11 0.744927 0.965021 0.764486
O O12 0.975549 0.804997 0.447451
O O13 0.781009 0.176675 0.114856
O O14 0.879785 0.384171 0.114644
O O15 0.000000 0.000000 0.000000
#
# Coordination Sequence:
#
# PCOD8019591 Si02
#       7
#     2   2   2   2   2   2   2
#     4  12  25  43  69 102 139 171 223 279 335 395
#     4  11  27  47  68  97 136 181 224 272 337 395
#     4  11  24  40  71  99 136 176 222 274 336 394
#     4  12  25  42  67 104 138 173 219 281 336 394
#     4  10  22  41  69 102 130 168 225 275 326 389
#     4  11  25  48  71  94 134 182 226 274 327 406
#     4  11  22  43  67 102 137 174 222 277 333 394
#
# _framework density 22.464015
#
# number of rings (size 3 to 8) (size 9 to 14) (size 15 to 20)
#    0.000    0.857    2.857    4.286    4.000    1.714 
#    0.000    5.000    0.000    0.000    0.000    0.000 
#    0.000    0.000    0.000    0.000    0.000    0.000 
#
# Total GULP energy -173542.343246 kJ/mol
# GULP energy per Si atom -12395.881660 kJ/mol
# Density = 2.241289 g / cm^3
# Si number density = 22.464015 Si / 1000 Ang^3
#
#
#
# Elastic Constant Matrix: (Units=GPa)
#
#
# Indices 1 2 3 4 5 6 
#
# 1 85.6589 39.2462 32.0815 4.9769 4.6248 6.6423
# 2 39.2462 131.0185 67.2107 -6.2045 2.3190 14.5746
# 3 32.0815 67.2107 131.4005 12.3543 -1.9669 16.8979
# 4 4.9769 -6.2045 12.3543 44.2453 4.4959 2.3594
# 5 4.6248 2.3190 -1.9669 4.4959 26.8102 2.7964
# 6 6.6423 14.5746 16.8979 2.3594 2.7964 24.5226
#
#
#
# Elastic Compliance Matrix: (Units=1/GPa)
#
#
# Indices 1 2 3 4 5 6 
#
# 1 0.014025 -0.003407 -0.001532 -0.001409 -0.001963 -0.000359
# 2 -0.003407 0.011850 -0.005251 0.003776 -0.001171 -0.002732
# 3 -0.001532 -0.005251 0.011641 -0.003851 0.002679 -0.004421
# 4 -0.001409 0.003776 -0.003851 0.024872 -0.004422 -0.001098
# 5 -0.001963 -0.001171 0.002679 -0.004422 0.039163 -0.004659
# 6 -0.000359 -0.002732 -0.004421 -0.001098 -0.004659 0.046182
#
#
# Mechanical properties :
#
#
# Convention : Reuss Voigt Hill
#
# Bulk Modulus (GPa) = 58.35813 69.46166 63.90990
# Shear Modulus (GPa) = 28.76450 33.08493 30.92471
#
# Velocity S-wave (km/s) = 3.58225 3.84187 3.71433
# Velocity P-wave (km/s) = 6.56848 7.11817 6.84884
#
# Compressibility (1/GPa) = 0.01713557
#
# Stress axis : x y z
#
# Youngs Moduli (GPa) = 71.30231 84.38839 85.90551
#
# Poissons Ratio (x) = 0.28752 0.13163
# Poissons Ratio (y) = 0.24294 0.45105
# Poissons Ratio (z) = 0.10925 0.44309
#
# Static dielectric constant tensor:
#      x y z
#    x 4.170100 0.167430 -0.062110 
#    y 0.167430 4.213880 0.439070 
#    z -0.062110 0.439070 4.768150 
# 
# 
# High freq. dielectric constant tensor:
#      x y z
#    x 1.864560 0.022410 -0.008240 
#    y 0.022410 1.888340 0.016590 
#    z -0.008240 0.016590 1.904590 
# 
# From -- ./inp_files/420201.got.cif
#   From: 2010.06.25/outbox.cif.g09.slc.cpg/sg2_211_cif.got.tgz:420201.got - 2010.06.27 13:26:56.
