data_PCOD8019538
_publ_section_title
;
Structure prediction by ZEFSAII (Michael W. Deem and Ramdas Pophale) SiO2 
 PCOD8019538
Probable space group: P -1
;
_chemical_formula_sum "Si O2"
_cell_formula_units_Z 16
_cell_length_a 18.929233
_cell_length_b 11.563328
_cell_length_c 6.704519
_cell_angle_alpha 83.513023
_cell_angle_beta 80.596856
_cell_angle_gamma 31.411560
_cell_volume 753.567073
_symmetry_space_group_name_H-M "P -1"
_symmetry_group_IT_number 2
_symmetry_cell_setting 'triclinic'
loop_
_space_group_symop_operation_xyz
x,y,z
-x,-y,-z
loop_
_atom_site_type_symbol
_atom_site_label
_atom_site_fract_x
_atom_site_fract_y
_atom_site_fract_z
Si Si1 0.852725 0.887896 0.704875
Si Si2 0.180670 0.920830 0.708311
Si Si3 0.508083 0.173270 0.010630
Si Si4 0.619572 0.250794 0.052838
Si Si5 0.779882 0.727593 0.765890
Si Si6 0.629064 0.765068 0.590412
Si Si7 0.281286 0.523264 0.735974
Si Si8 0.946787 0.322254 0.016966
O O1 0.834934 0.778256 0.669123
O O2 0.990710 0.713828 0.800947
O O3 0.865002 0.951779 0.494960
O O4 0.724346 0.106318 0.850102
O O5 0.311681 0.805207 0.761837
O O6 0.217788 0.736710 0.678146
O O7 0.056976 0.094923 0.887817
O O8 0.422293 0.339996 0.829178
O O9 0.642311 0.921143 0.923238
O O10 0.556455 0.211031 0.123700
O O11 0.414551 0.218757 0.175141
O O12 0.500000 0.500000 0.000000
O O13 0.745251 0.702646 0.585577
O O14 0.898622 0.500052 0.878566
O O15 0.691746 0.574450 0.469337
O O16 0.500000 0.000000 0.500000
O O17 0.177909 0.590513 0.900491
#
# Coordination Sequence:
#
# PCOD8019538 Si02
#       8
#     2   2   2   2   2   2   2   2
#     4  10  26  44  67 100 130 173 226 270 324 394
#     4  11  26  45  67 101 132 176 223 267 330 395
#     4  11  23  43  67 100 135 170 214 277 334 387
#     4  10  22  41  68  95 132 171 208 268 334 389
#     4  11  23  47  68  97 137 171 222 275 330 389
#     4  12  25  39  67 105 131 174 219 272 337 388
#     4  12  25  43  69  99 136 173 222 273 328 395
#     4  11  25  47  67  93 133 183 220 272 327 386
#
# _framework density 21.23235
#
# number of rings (size 3 to 8) (size 9 to 14) (size 15 to 20)
#    0.000    1.000    3.750    1.875    5.250    1.500 
#    2.250    0.000    0.000    0.000    0.000    0.000 
#    0.000    0.000    0.000    0.000    0.000    0.000 
#
# Total GULP energy -198486.405794 kJ/mol
# GULP energy per Si atom -12405.400362 kJ/mol
# Density = 2.118402 g / cm^3
# Si number density = 21.232350 Si / 1000 Ang^3
#
#
#
# Elastic Constant Matrix: (Units=GPa)
#
#
# Indices 1 2 3 4 5 6 
#
# 1 112.7973 43.3316 31.9521 -0.3641 17.2003 14.9901
# 2 43.3316 122.9358 30.7242 -11.7881 17.5121 14.8070
# 3 31.9521 30.7242 79.7756 -16.8067 15.8380 13.1327
# 4 -0.3641 -11.7881 -16.8067 33.8470 0.4360 7.9333
# 5 17.2003 17.5121 15.8380 0.4360 31.9902 -6.1884
# 6 14.9901 14.8070 13.1327 7.9333 -6.1884 38.1170
#
#
#
# Elastic Compliance Matrix: (Units=1/GPa)
#
#
# Indices 1 2 3 4 5 6 
#
# 1 0.011640 -0.002625 -0.002613 -0.001319 -0.004099 -0.003048
# 2 -0.002625 0.010993 -0.000185 0.004979 -0.005572 -0.005115
# 3 -0.002613 -0.000185 0.019992 0.012328 -0.010505 -0.010060
# 4 -0.001319 0.004979 0.012328 0.041331 -0.011813 -0.016183
# 5 -0.004099 -0.005572 -0.010505 -0.011813 0.045202 0.017194
# 6 -0.003048 -0.005115 -0.010060 -0.016183 0.017194 0.039046
#
#
# Mechanical properties :
#
#
# Convention : Reuss Voigt Hill
#
# Bulk Modulus (GPa) = 31.46822 58.61382 45.04102
# Shear Modulus (GPa) = 26.36507 34.75756 30.56131
#
# Velocity S-wave (km/s) = 3.52766 4.05039 3.79803
# Velocity P-wave (km/s) = 5.60763 7.03847 6.36339
#
# Compressibility (1/GPa) = 0.03177809
#
# Stress axis : x y z
#
# Youngs Moduli (GPa) = 85.90925 90.96560 50.02022
#
# Poissons Ratio (x) = 0.23879 0.13072
# Poissons Ratio (y) = 0.22552 0.00926
# Poissons Ratio (z) = 0.22452 0.01684
#
# Static dielectric constant tensor:
#      x y z
#    x 2.896380 -0.128800 -0.284150 
#    y -0.128800 3.969920 -0.000110 
#    z -0.284150 -0.000110 3.602670 
# 
# 
# High freq. dielectric constant tensor:
#      x y z
#    x 1.847980 0.000300 0.012590 
#    y 0.000300 1.846950 -0.001510 
#    z 0.012590 -0.001510 1.823350 
# 
# From -- ./inp_files/69759.got.cif
#   From: 2010.06.25/outbox.cif.g09.slc.cpg/sg2_35_cif.got.tgz:69759.got - 2010.06.27 13:26:56.
