data_PCOD8019507
_publ_section_title
;
Structure prediction by ZEFSAII (Michael W. Deem and Ramdas Pophale) SiO2 
 PCOD8019507
Probable space group: P -1
;
_chemical_formula_sum "Si O2"
_cell_formula_units_Z 14
_cell_length_a 16.702880
_cell_length_b 19.592565
_cell_length_c 8.431991
_cell_angle_alpha 138.204557
_cell_angle_beta 124.756227
_cell_angle_gamma 22.838956
_cell_volume 636.643427
_symmetry_space_group_name_H-M "P -1"
_symmetry_group_IT_number 2
_symmetry_cell_setting 'triclinic'
loop_
_space_group_symop_operation_xyz
x,y,z
-x,-y,-z
loop_
_atom_site_type_symbol
_atom_site_label
_atom_site_fract_x
_atom_site_fract_y
_atom_site_fract_z
Si Si1 0.525589 0.332317 0.681021
Si Si2 0.265128 0.180947 0.317591
Si Si3 0.609128 0.297165 0.346597
Si Si4 0.999311 0.591049 0.888349
Si Si5 0.891200 0.137808 0.782123
Si Si6 0.463757 0.234521 0.902700
Si Si7 0.416340 0.940115 0.593925
O O1 0.536595 0.355756 0.550075
O O2 0.743490 0.180473 0.752776
O O3 0.546131 0.190249 0.468952
O O4 0.288502 0.594945 0.955077
O O5 0.097446 0.381368 0.617256
O O6 0.367410 0.188892 0.372886
O O7 0.118579 0.261723 0.157487
O O8 0.469129 0.916438 0.155870
O O9 0.500000 0.500000 0.500000
O O10 0.501536 0.307506 0.145950
O O11 0.884266 0.041438 0.175884
O O12 0.198773 0.479606 0.972093
O O13 0.806776 0.779442 0.131943
O O14 0.000000 0.000000 0.500000
O O15 0.622886 0.067894 0.639300
#
# Coordination Sequence:
#
# PCOD8019507 Si02
#       7
#     2   2   2   2   2   2   2
#     4  10  23  43  68  97 124 176 225 267 337 396
#     4  10  23  44  64  98 135 170 219 268 330 399
#     4  11  26  43  66  96 136 175 220 279 334 392
#     4  10  22  41  68  91 133 176 213 268 331 389
#     4   9  22  42  68  91 130 168 221 276 328 391
#     4  11  26  42  63 101 135 172 223 272 331 392
#     4  11  23  39  71  98 129 171 221 268 327 401
#
# _framework density 21.990331000000001
#
# number of rings (size 3 to 8) (size 9 to 14) (size 15 to 20)
#    0.000    1.714    0.000    3.000    8.000   10.857 
#    0.000    0.000    0.000    0.000    0.000    0.000 
#    0.000    0.000    0.000    0.000    0.000    0.000 
#
# Total GULP energy -173493.711916 kJ/mol
# GULP energy per Si atom -12392.407994 kJ/mol
# Density = 2.194028 g / cm^3
# Si number density = 21.990331 Si / 1000 Ang^3
#
#
#
# Elastic Constant Matrix: (Units=GPa)
#
#
# Indices 1 2 3 4 5 6 
#
# 1 105.3178 56.2438 40.8216 7.4988 20.0370 7.6672
# 2 56.2438 148.1723 61.4443 -7.4601 7.9333 -19.5524
# 3 40.8216 61.4443 134.1083 5.7965 -2.5747 -17.2863
# 4 7.4988 -7.4601 5.7965 41.3321 -5.4749 -3.2211
# 5 20.0370 7.9333 -2.5747 -5.4749 38.6890 2.2300
# 6 7.6672 -19.5524 -17.2863 -3.2211 2.2300 25.5271
#
#
#
# Elastic Compliance Matrix: (Units=1/GPa)
#
#
# Indices 1 2 3 4 5 6 
#
# 1 0.017366 -0.006568 -0.003838 -0.005860 -0.007989 -0.012887
# 2 -0.006568 0.011651 -0.002244 0.004501 0.000932 0.009864
# 3 -0.003838 -0.002244 0.010530 -0.000333 0.002739 0.006283
# 4 -0.005860 0.004501 -0.000333 0.027468 0.005518 0.007967
# 5 -0.007989 0.000932 0.002739 0.005518 0.030584 0.002992
# 6 -0.012887 0.009864 0.006283 0.007967 0.002992 0.055598
#
#
# Mechanical properties :
#
#
# Convention : Reuss Voigt Hill
#
# Bulk Modulus (GPa) = 70.19327 78.29086 74.24207
# Shear Modulus (GPa) = 27.28568 36.38222 31.83395
#
# Velocity S-wave (km/s) = 3.52633 4.07192 3.80891
# Velocity P-wave (km/s) = 6.96917 7.60178 7.29234
#
# Compressibility (1/GPa) = 0.01424638
#
# Stress axis : x y z
#
# Youngs Moduli (GPa) = 57.58513 85.82980 94.96744
#
# Poissons Ratio (x) = 0.56374 0.36447
# Poissons Ratio (y) = 0.37822 0.21312
# Poissons Ratio (z) = 0.22100 0.19261
#
# Static dielectric constant tensor:
#      x y z
#    x 3.787480 -0.283870 -0.103320 
#    y -0.283870 4.243430 0.010820 
#    z -0.103320 0.010820 4.246360 
# 
# 
# High freq. dielectric constant tensor:
#      x y z
#    x 1.840340 -0.015930 -0.001700 
#    y -0.015930 1.868990 0.000580 
#    z -0.001700 0.000580 1.884820 
# 
# From -- ./inp_files/337948.got.cif
#   From: 2010.06.25/outbox.cif.g09.slc.cpg/sg2_169_cif.got.tgz:337948.got - 2010.06.27 13:26:56.
