data_PCOD8019498
_publ_section_title
;
Structure prediction by ZEFSAII (Michael W. Deem and Ramdas Pophale) SiO2 
 PCOD8019498
Probable space group: P -1
;
_chemical_formula_sum "Si O2"
_cell_formula_units_Z 16
_cell_length_a 23.991295
_cell_length_b 8.254261
_cell_length_c 11.754578
_cell_angle_alpha 38.258200
_cell_angle_beta 28.815417
_cell_angle_gamma 43.392106
_cell_volume 688.866949
_symmetry_space_group_name_H-M "P -1"
_symmetry_group_IT_number 2
_symmetry_cell_setting 'triclinic'
loop_
_space_group_symop_operation_xyz
x,y,z
-x,-y,-z
loop_
_atom_site_type_symbol
_atom_site_label
_atom_site_fract_x
_atom_site_fract_y
_atom_site_fract_z
Si Si1 0.584831 0.583897 0.443436
Si Si2 0.118353 0.999682 0.353443
Si Si3 0.272552 0.968719 0.464549
Si Si4 0.117818 0.510243 0.217850
Si Si5 0.100843 0.711600 0.770232
Si Si6 0.636138 0.654469 0.061352
Si Si7 0.155155 0.080148 0.826869
Si Si8 0.746420 0.832361 0.167874
O O1 0.602582 0.731453 0.210332
O O2 0.449758 0.545495 0.722854
O O3 0.622336 0.747333 0.395868
O O4 0.664877 0.302909 0.444300
O O5 0.129333 0.290965 0.221082
O O6 0.128527 0.770523 0.555943
O O7 0.219462 0.952543 0.103027
O O8 0.000000 0.000000 0.500000
O O9 0.223864 0.167972 0.544855
O O10 0.159806 0.932444 0.610478
O O11 0.371084 0.085489 0.148281
O O12 0.000000 0.500000 0.500000
O O13 0.229538 0.472047 0.122544
O O14 0.114457 0.803094 0.012012
O O15 0.156220 0.423664 0.866355
O O16 0.961611 0.728955 0.033027
O O17 0.250713 0.050204 0.775102
#
# Coordination Sequence:
#
# PCOD8019498 Si02
#       8
#     2   2   2   2   2   2   2   2
#     4  10  22  41  68  87 118 164 215 261 296 374
#     4  12  22  39  63  90 127 163 206 251 310 374
#     4  11  21  39  62  90 121 155 212 261 308 365
#     4  12  21  40  63  95 128 158 201 257 311 372
#     4  11  22  40  60  89 124 171 205 249 315 375
#     4  11  21  40  67  91 118 162 215 251 313 366
#     4  12  23  39  58  93 130 165 203 259 315 368
#     4  11  23  42  59  89 128 165 214 254 310 370
#
# _framework density 23.226545999999999
#
# number of rings (size 3 to 8) (size 9 to 14) (size 15 to 20)
#    0.000    0.750    6.250    1.875    0.000    1.000 
#    2.250    1.250    0.000    0.000    0.000    0.000 
#    0.000    0.000    0.000    0.000    0.000    0.000 
#
# Total GULP energy -198315.450452 kJ/mol
# GULP energy per Si atom -12394.715653 kJ/mol
# Density = 2.317368 g / cm^3
# Si number density = 23.226546 Si / 1000 Ang^3
#
#
#
# Elastic Constant Matrix: (Units=GPa)
#
#
# Indices 1 2 3 4 5 6 
#
# 1 142.6035 2.0930 77.6226 11.2178 -7.4450 9.6678
# 2 2.0930 15.6762 14.8644 -0.0037 0.8932 -4.1206
# 3 77.6226 14.8644 141.3792 7.8634 -1.4447 7.4278
# 4 11.2178 -0.0037 7.8634 27.6139 -5.1861 -3.2738
# 5 -7.4450 0.8932 -1.4447 -5.1861 60.2998 0.9178
# 6 9.6678 -4.1206 7.4278 -3.2738 0.9178 23.5422
#
#
#
# Elastic Compliance Matrix: (Units=1/GPa)
#
#
# Indices 1 2 3 4 5 6 
#
# 1 0.010592 0.003534 -0.005907 -0.002719 0.000915 -0.002281
# 2 0.003534 0.078324 -0.011239 0.003536 -0.000938 0.016332
# 3 -0.005907 -0.011239 0.011754 -0.001422 -0.000351 -0.003434
# 4 -0.002719 0.003536 -0.001422 0.039146 0.002830 0.007518
# 5 0.000915 -0.000938 -0.000351 0.002830 0.016956 -0.000696
# 6 -0.002281 0.016332 -0.003434 0.007518 -0.000696 0.048429
#
#
# Mechanical properties :
#
#
# Convention : Reuss Voigt Hill
#
# Bulk Modulus (GPa) = 13.61555 54.31323 33.96439
# Shear Modulus (GPa) = 19.46234 35.96312 27.71273
#
# Velocity S-wave (km/s) = 2.89785 3.93919 3.45795
# Velocity P-wave (km/s) = 4.13177 6.64263 5.53155
#
# Compressibility (1/GPa) = 0.07344545
#
# Stress axis : x y z
#
# Youngs Moduli (GPa) = 94.41128 12.76753 85.07945
#
# Poissons Ratio (x) = -0.04512 0.50252
# Poissons Ratio (y) = -0.33365 0.95625
# Poissons Ratio (z) = 0.55764 0.14350
#
# Static dielectric constant tensor:
#      x y z
#    x 4.639760 0.054930 -0.073480 
#    y 0.054930 3.770270 -0.196200 
#    z -0.073480 -0.196200 4.558380 
# 
# 
# High freq. dielectric constant tensor:
#      x y z
#    x 1.937590 -0.000010 -0.003390 
#    y -0.000010 1.870810 -0.011260 
#    z -0.003390 -0.011260 1.927900 
# 
# From -- ./inp_files/259249.got.cif
#   From: 2010.06.25/outbox.cif.g09.slc.cpg/sg2_130_cif.got.tgz:259249.got - 2010.06.27 13:26:56.
