data_PCOD8019823
_publ_section_title
;
Structure prediction by ZEFSAII (Michael W. Deem and Ramdas Pophale) SiO2 
 PCOD8019823
Probable space group: P -1
;
_chemical_formula_sum "Si O2"
_cell_formula_units_Z 14
_cell_length_a 8.566400
_cell_length_b 17.196982
_cell_length_c 9.140862
_cell_angle_alpha 50.245640
_cell_angle_beta 66.757003
_cell_angle_gamma 38.595803
_cell_volume 630.093135
_symmetry_space_group_name_H-M "P -1"
_symmetry_group_IT_number 2
_symmetry_cell_setting 'triclinic'
loop_
_space_group_symop_operation_xyz
x,y,z
-x,-y,-z
loop_
_atom_site_type_symbol
_atom_site_label
_atom_site_fract_x
_atom_site_fract_y
_atom_site_fract_z
Si Si1 0.270671 0.137567 0.817843
Si Si2 0.782245 0.382050 0.409592
Si Si3 0.592709 0.712109 0.540926
Si Si4 0.177857 0.869510 0.289305
Si Si5 0.802197 0.671331 0.815343
Si Si6 0.254796 0.563385 0.317830
Si Si7 0.657518 0.087442 0.100235
O O1 0.281431 0.247474 0.629581
O O2 0.991248 0.259151 0.855914
O O3 0.275263 0.061063 0.769049
O O4 0.500000 0.000000 0.000000
O O5 0.798174 0.258758 0.598869
O O6 0.516911 0.512043 0.257447
O O7 0.768461 0.451981 0.480887
O O8 0.029536 0.305970 0.317542
O O9 0.294705 0.841216 0.441153
O O10 0.617942 0.712498 0.705120
O O11 0.739726 0.544966 0.639642
O O12 0.345156 0.854988 0.124140
O O13 0.879156 0.035300 0.186688
O O14 0.621777 0.780306 0.885914
O O15 0.000000 0.500000 0.000000
#
# Coordination Sequence:
#
# PCOD8019823 Si02
#       7
#     2   2   2   2   2   2   2
#     4  12  23  39  71 110 131 175 232 294 329 396
#     4  10  22  42  72  95 134 184 229 275 347 406
#     4  11  24  43  70 103 142 181 230 284 343 409
#     4  10  22  45  74 100 128 192 231 282 335 410
#     4  12  29  44  66 103 143 185 226 287 358 402
#     4  10  22  41  74  96 132 179 241 268 330 416
#     4  11  25  43  70 102 145 171 235 284 345 412
#
# _framework density 22.218938000000001
#
# number of rings (size 3 to 8) (size 9 to 14) (size 15 to 20)
#    0.000    1.143    4.286    0.429    8.000    2.857 
#    0.000    4.286    0.000    0.000    0.000    0.000 
#    0.000    0.000    0.000    0.000    0.000    0.000 
#
# Total GULP energy -173505.980211 kJ/mol
# GULP energy per Si atom -12393.284301 kJ/mol
# Density = 2.216837 g / cm^3
# Si number density = 22.218938 Si / 1000 Ang^3
#
#
#
# Elastic Constant Matrix: (Units=GPa)
#
#
# Indices 1 2 3 4 5 6 
#
# 1 126.5163 58.7789 45.9501 -6.2926 11.2467 -12.7843
# 2 58.7789 126.1164 28.1137 -3.7949 -7.2526 -25.0475
# 3 45.9501 28.1137 58.4431 -4.3519 11.3225 -13.1243
# 4 -6.2926 -3.7949 -4.3519 33.1885 -13.3712 0.8167
# 5 11.2467 -7.2526 11.3225 -13.3712 41.6022 -11.8019
# 6 -12.7843 -25.0475 -13.1243 0.8167 -11.8019 40.9203
#
#
#
# Elastic Compliance Matrix: (Units=1/GPa)
#
#
# Indices 1 2 3 4 5 6 
#
# 1 0.013100 -0.005007 -0.007854 -0.000285 -0.003038 -0.002362
# 2 -0.005007 0.012633 -0.001578 0.002964 0.007109 0.007653
# 3 -0.007854 -0.001578 0.025653 -0.000057 -0.004125 0.003619
# 4 -0.000285 0.002964 -0.000057 0.035717 0.013473 0.004880
# 5 -0.003038 0.007109 -0.004125 0.013473 0.034922 0.011882
# 6 -0.002362 0.007653 0.003619 0.004880 0.011882 0.032875
#
#
# Mechanical properties :
#
#
# Convention : Reuss Voigt Hill
#
# Bulk Modulus (GPa) = 44.43071 64.08458 54.25765
# Shear Modulus (GPa) = 26.13971 35.02438 30.58204
#
# Velocity S-wave (km/s) = 3.43368 3.97461 3.71401
# Velocity P-wave (km/s) = 5.98000 7.06883 6.54709
#
# Compressibility (1/GPa) = 0.02250696
#
# Stress axis : x y z
#
# Youngs Moduli (GPa) = 76.33399 79.16011 38.98225
#
# Poissons Ratio (x) = 0.39637 0.30618
# Poissons Ratio (y) = 0.38222 0.06151
# Poissons Ratio (z) = 0.59955 0.12491
#
# Static dielectric constant tensor:
#      x y z
#    x 4.813830 -0.409600 0.137690 
#    y -0.409600 3.997770 -0.279430 
#    z 0.137690 -0.279430 3.840740 
# 
# 
# High freq. dielectric constant tensor:
#      x y z
#    x 1.902380 -0.015660 0.004790 
#    y -0.015660 1.861830 -0.029940 
#    z 0.004790 -0.029940 1.847180 
# 
# From -- ./inp_files/214286.got.cif
#   From: 2010.06.25/outbox.cif.g09.slc.cpg/sg2_108_cif.got.tgz:214286.got - 2010.06.27 13:26:56.
