data_PCOD8019858
_publ_section_title
;
Structure prediction by ZEFSAII (Michael W. Deem and Ramdas Pophale) SiO2 
 PCOD8019858
Probable space group: P -1
;
_chemical_formula_sum "Si O2"
_cell_formula_units_Z 14
_cell_length_a 10.268323
_cell_length_b 21.997845
_cell_length_c 9.933033
_cell_angle_alpha 150.731292
_cell_angle_beta 138.404174
_cell_angle_gamma 45.303226
_cell_volume 719.194915
_symmetry_space_group_name_H-M "P -1"
_symmetry_group_IT_number 2
_symmetry_cell_setting 'triclinic'
loop_
_space_group_symop_operation_xyz
x,y,z
-x,-y,-z
loop_
_atom_site_type_symbol
_atom_site_label
_atom_site_fract_x
_atom_site_fract_y
_atom_site_fract_z
Si Si1 0.062587 0.023439 0.243464
Si Si2 0.759027 0.768111 0.303779
Si Si3 0.500997 0.558442 0.260213
Si Si4 0.008336 0.758335 0.742250
Si Si5 0.100227 0.356356 0.289014
Si Si6 0.425737 0.609133 0.756331
Si Si7 0.917588 0.275408 0.726413
O O1 0.901310 0.128396 0.398286
O O2 0.260381 0.091149 0.507677
O O3 0.000000 0.000000 0.000000
O O4 0.086420 0.892102 0.088073
O O5 0.837219 0.768520 0.518054
O O6 0.924635 0.678138 0.167123
O O7 0.547640 0.723643 0.049422
O O8 0.668207 0.648179 0.575975
O O9 0.545521 0.439945 0.164686
O O10 0.293421 0.640285 0.297461
O O11 0.500000 0.500000 0.000000
O O12 0.195396 0.658521 0.646297
O O13 0.914622 0.716204 0.724232
O O14 0.000000 0.500000 0.500000
O O15 0.991785 0.286801 0.957564
O O16 0.500000 0.500000 0.500000
#
# Coordination Sequence:
#
# PCOD8019858 Si02
#       7
#     2   2   2   2   2   2   2
#     4   8  20  43  63  86 119 164 205 253 299 350
#     4   9  22  40  61  87 121 161 198 253 307 345
#     4  12  23  38  59  87 127 161 193 244 305 366
#     4  11  22  41  62  86 125 159 206 253 293 364
#     4  12  23  39  59  93 125 160 199 248 308 362
#     4  12  24  34  61  97 116 157 206 245 313 362
#     4  10  22  42  61  86 127 156 203 253 299 357
#
# _framework density 19.466211000000001
#
# number of rings (size 3 to 8) (size 9 to 14) (size 15 to 20)
#    0.857    0.571    2.857    2.571    0.000    2.286 
#    0.000    2.143    0.000    0.000    0.000    0.000 
#    0.000    0.000    0.000    0.000    0.000    0.000 
#
# Total GULP energy -173492.350064 kJ/mol
# GULP energy per Si atom -12392.310719 kJ/mol
# Density = 1.942191 g / cm^3
# Si number density = 19.466211 Si / 1000 Ang^3
#
#
#
# Elastic Constant Matrix: (Units=GPa)
#
#
# Indices 1 2 3 4 5 6 
#
# 1 86.4993 7.0535 15.5216 3.3810 12.8036 12.8603
# 2 7.0535 38.6887 5.6892 6.1239 0.7153 8.0913
# 3 15.5216 5.6892 86.7569 7.9750 -3.0018 5.5052
# 4 3.3810 6.1239 7.9750 30.1205 -0.3100 4.9698
# 5 12.8036 0.7153 -3.0018 -0.3100 43.2843 1.8139
# 6 12.8603 8.0913 5.5052 4.9698 1.8139 40.1122
#
#
#
# Elastic Compliance Matrix: (Units=1/GPa)
#
#
# Indices 1 2 3 4 5 6 
#
# 1 0.013148 -0.001262 -0.002173 -0.000111 -0.003874 -0.003474
# 2 -0.001262 0.027876 -0.000897 -0.004540 0.000008 -0.004533
# 3 -0.002173 -0.000897 0.012312 -0.002728 0.001515 -0.000543
# 4 -0.000111 -0.004540 -0.002728 0.035368 0.000301 -0.003070
# 5 -0.003874 0.000008 0.001515 0.000301 0.024361 -0.000106
# 6 -0.003474 -0.004533 -0.000543 -0.003070 -0.000106 0.027418
#
#
# Mechanical properties :
#
#
# Convention : Reuss Voigt Hill
#
# Bulk Modulus (GPa) = 22.38548 29.83038 26.10793
# Shear Modulus (GPa) = 30.48121 34.94876 32.71499
#
# Velocity S-wave (km/s) = 3.96138 4.24176 4.10396
# Velocity P-wave (km/s) = 5.69631 6.27276 5.99147
#
# Compressibility (1/GPa) = 0.04467181
#
# Stress axis : x y z
#
# Youngs Moduli (GPa) = 76.05810 35.87331 81.22365
#
# Poissons Ratio (x) = 0.04527 0.17650
# Poissons Ratio (y) = 0.09598 0.07285
# Poissons Ratio (z) = 0.16527 0.03218
#
# Static dielectric constant tensor:
#      x y z
#    x 3.932730 0.246910 0.153400 
#    y 0.246910 3.634240 0.230810 
#    z 0.153400 0.230810 3.940520 
# 
# 
# High freq. dielectric constant tensor:
#      x y z
#    x 1.765670 0.009820 -0.001650 
#    y 0.009820 1.740380 -0.002940 
#    z -0.001650 -0.002940 1.762220 
# 
# From -- ./inp_files/68109.got.cif
#   From: 2010.06.25/outbox.cif.g09.slc.cpg/sg2_35_cif.got.tgz:68109.got - 2010.06.27 13:26:56.
