data_PCOD8019081
_publ_section_title
;
Structure prediction by ZEFSAII (Michael W. Deem and Ramdas Pophale) SiO2 
 PCOD8019081
Probable space group: P -1
;
_chemical_formula_sum "Si O2"
_cell_formula_units_Z 16
_cell_length_a 11.388902
_cell_length_b 14.463485
_cell_length_c 9.158064
_cell_angle_alpha 72.029588
_cell_angle_beta 120.111603
_cell_angle_gamma 148.241168
_cell_volume 663.378131
_symmetry_space_group_name_H-M "P -1"
_symmetry_group_IT_number 2
_symmetry_cell_setting 'triclinic'
loop_
_space_group_symop_operation_xyz
x,y,z
-x,-y,-z
loop_
_atom_site_type_symbol
_atom_site_label
_atom_site_fract_x
_atom_site_fract_y
_atom_site_fract_z
Si Si1 0.644012 0.362202 0.887406
Si Si2 0.561523 0.652363 0.719510
Si Si3 0.718408 0.034692 0.780694
Si Si4 0.737205 0.851334 0.011274
Si Si5 0.262360 0.661778 0.506071
Si Si6 0.132064 0.257650 0.706943
Si Si7 0.792973 0.272585 0.864010
Si Si8 0.216439 0.209833 0.516500
O O1 0.627866 0.238424 0.889177
O O2 0.477848 0.329019 0.692961
O O3 0.543270 0.306514 0.018365
O O4 0.930311 0.575679 0.965478
O O5 0.751032 0.809785 0.881382
O O6 0.362720 0.614099 0.567505
O O7 0.411466 0.474267 0.795680
O O8 0.726860 0.721603 0.647358
O O9 0.668521 0.093786 0.831227
O O10 0.918271 0.185324 0.701534
O O11 0.839572 0.022613 0.963204
O O12 0.459806 0.847258 0.630348
O O13 0.891483 0.872049 0.202874
O O14 0.196246 0.660269 0.308349
O O15 0.000000 0.500000 0.500000
O O16 0.105810 0.237498 0.522895
O O17 0.000000 0.000000 0.500000
#
# Coordination Sequence:
#
# PCOD8019081 Si02
#       8
#     2   2   2   2   2   2   2   2
#     4  10  23  43  66  98 136 184 214 290 344 402
#     4  11  22  41  67  98 130 176 229 275 346 405
#     4  11  23  40  68 103 129 182 232 283 346 403
#     4  10  22  41  64  94 135 172 227 276 347 398
#     4  11  22  40  64  96 137 176 225 284 338 408
#     4  11  23  40  67  97 132 172 227 289 342 406
#     4  11  22  41  68  93 142 174 232 275 344 411
#     4  11  23  44  68  99 139 178 224 284 344 411
#
# _framework density 24.118974000000001
#
# number of rings (size 3 to 8) (size 9 to 14) (size 15 to 20)
#    0.000    1.250    1.250    6.000    0.000    2.500 
#    0.000    2.500    0.000    0.000    0.000    0.000 
#    0.000    0.000    0.000    0.000    0.000    0.000 
#
# Total GULP energy -198217.998173 kJ/mol
# GULP energy per Si atom -12388.624886 kJ/mol
# Density = 2.406408 g / cm^3
# Si number density = 24.118974 Si / 1000 Ang^3
#
#
#
# Elastic Constant Matrix: (Units=GPa)
#
#
# Indices 1 2 3 4 5 6 
#
# 1 88.8427 24.3007 25.6529 3.5707 -31.0691 -5.2098
# 2 24.3007 79.7377 9.9717 -12.1275 -8.3750 9.3629
# 3 25.6529 9.9717 94.6154 -3.9563 -8.9823 3.9867
# 4 3.5707 -12.1275 -3.9563 28.5214 4.8882 -4.2184
# 5 -31.0691 -8.3750 -8.9823 4.8882 39.5916 2.9317
# 6 -5.2098 9.3629 3.9867 -4.2184 2.9317 34.7923
#
#
#
# Elastic Compliance Matrix: (Units=1/GPa)
#
#
# Indices 1 2 3 4 5 6 
#
# 1 0.018967 -0.005278 -0.003703 -0.007067 0.013601 0.002682
# 2 -0.005278 0.015513 0.000123 0.006917 -0.001389 -0.004023
# 3 -0.003703 0.000123 0.011679 0.001950 -0.000348 -0.001660
# 4 -0.007067 0.006917 0.001950 0.041066 -0.008902 0.002586
# 5 0.013601 -0.001389 -0.000348 -0.008902 0.036786 -0.001729
# 6 0.002682 -0.004023 -0.001660 0.002586 -0.001729 0.030876
#
#
# Mechanical properties :
#
#
# Convention : Reuss Voigt Hill
#
# Bulk Modulus (GPa) = 35.16050 42.56072 38.86061
# Shear Modulus (GPa) = 27.45997 34.13242 30.79619
#
# Velocity S-wave (km/s) = 3.37786 3.76595 3.57717
# Velocity P-wave (km/s) = 5.46103 6.04933 5.76269
#
# Compressibility (1/GPa) = 0.02844101
#
# Stress axis : x y z
#
# Youngs Moduli (GPa) = 52.72395 64.46227 85.62639
#
# Poissons Ratio (x) = 0.34025 0.31711
# Poissons Ratio (y) = 0.27829 -0.01054
# Poissons Ratio (z) = 0.19526 -0.00793
#
# Static dielectric constant tensor:
#      x y z
#    x 4.809090 -0.027870 -0.300830 
#    y -0.027870 4.402150 -0.189750 
#    z -0.300830 -0.189750 4.421520 
# 
# 
# High freq. dielectric constant tensor:
#      x y z
#    x 1.968740 0.006940 -0.019870 
#    y 0.006940 1.951690 -0.002610 
#    z -0.019870 -0.002610 1.951780 
# 
# From -- ./inp_files/272969.got.cif
#   From: 2010.06.25/outbox.cif.g09.slc.cpg/sg2_137_cif.got.tgz:272969.got - 2010.06.27 13:26:56.
