data_PCOD8019254
_publ_section_title
;
Structure prediction by ZEFSAII (Michael W. Deem and Ramdas Pophale) SiO2 
 PCOD8019254
Probable space group: P -1
;
_chemical_formula_sum "Si O2"
_cell_formula_units_Z 14
_cell_length_a 9.707016
_cell_length_b 20.624090
_cell_length_c 6.740382
_cell_angle_alpha 56.102514
_cell_angle_beta 119.707692
_cell_angle_gamma 142.503887
_cell_volume 678.016120
_symmetry_space_group_name_H-M "P -1"
_symmetry_group_IT_number 2
_symmetry_cell_setting 'triclinic'
loop_
_space_group_symop_operation_xyz
x,y,z
-x,-y,-z
loop_
_atom_site_type_symbol
_atom_site_label
_atom_site_fract_x
_atom_site_fract_y
_atom_site_fract_z
Si Si1 0.267506 0.952472 0.835501
Si Si2 0.940881 0.491522 0.249726
Si Si3 0.429910 0.320294 0.187128
Si Si4 0.883519 0.329201 0.213554
Si Si5 0.399509 0.144755 0.340555
Si Si6 0.074593 0.239750 0.374430
Si Si7 0.103950 0.156905 0.926616
O O1 0.127194 0.841056 0.792814
O O2 0.307589 0.039501 0.573536
O O3 0.130940 0.928533 0.974448
O O4 0.500000 0.000000 0.000000
O O5 0.687922 0.439362 0.133415
O O6 0.973694 0.418646 0.296626
O O7 0.000000 0.500000 0.500000
O O8 0.117503 0.617713 0.075401
O O9 0.436973 0.228410 0.383177
O O10 0.317797 0.321769 0.296109
O O11 0.277902 0.280432 0.947476
O O12 0.633744 0.207203 0.288523
O O13 0.051942 0.315327 0.335409
O O14 0.216372 0.109546 0.103412
O O15 0.061535 0.166840 0.653810
#
# Coordination Sequence:
#
# PCOD8019254 Si02
#       7
#     2   2   2   2   2   2   2
#     4  11  23  40  60  92 128 161 208 251 299 358
#     4  10  22  41  66  88 120 162 203 245 314 368
#     4   8  21  39  59  88 123 156 206 245 306 360
#     4  10  23  40  60  95 121 152 212 252 301 366
#     4   9  20  42  61  83 129 163 198 252 295 361
#     4  11  23  39  63  93 123 162 202 255 309 347
#     4   9  21  39  60  86 126 159 203 248 296 366
#
# _framework density 20.648477
#
# number of rings (size 3 to 8) (size 9 to 14) (size 15 to 20)
#    0.857    1.429    0.000    1.286    2.000    8.000 
#    0.000    1.429    0.000    0.000    0.000    0.000 
#    0.000    0.000    0.000    0.000    0.000    0.000 
#
# Total GULP energy -173496.550962 kJ/mol
# GULP energy per Si atom -12392.610783 kJ/mol
# Density = 2.060148 g / cm^3
# Si number density = 20.648477 Si / 1000 Ang^3
#
#
#
# Elastic Constant Matrix: (Units=GPa)
#
#
# Indices 1 2 3 4 5 6 
#
# 1 130.6738 17.5461 21.7825 -0.6280 -1.5729 5.4555
# 2 17.5461 42.5291 5.8972 2.9863 -2.8171 11.8372
# 3 21.7825 5.8972 93.2613 13.7011 -7.4087 -9.1946
# 4 -0.6280 2.9863 13.7011 20.4978 4.2685 7.4121
# 5 -1.5729 -2.8171 -7.4087 4.2685 32.4522 -7.2299
# 6 5.4555 11.8372 -9.1946 7.4121 -7.2299 22.6119
#
#
#
# Elastic Compliance Matrix: (Units=1/GPa)
#
#
# Indices 1 2 3 4 5 6 
#
# 1 0.008683 -0.002403 -0.003171 0.004750 -0.002107 -0.004357
# 2 -0.002403 0.030190 -0.004780 0.007124 -0.004166 -0.020835
# 3 -0.003171 -0.004780 0.017808 -0.021156 0.010945 0.020943
# 4 0.004750 0.007124 -0.021156 0.085595 -0.026372 -0.049968
# 5 -0.002107 -0.004166 0.010945 -0.026372 0.042890 0.029498
# 6 -0.004357 -0.020835 0.020943 -0.049968 0.029498 0.090510
#
#
# Mechanical properties :
#
#
# Convention : Reuss Voigt Hill
#
# Bulk Modulus (GPa) = 27.79764 39.65732 33.72748
# Shear Modulus (GPa) = 16.21405 29.86161 23.03783
#
# Velocity S-wave (km/s) = 2.80526 3.80701 3.34386
# Velocity P-wave (km/s) = 4.89736 6.21064 5.59268
#
# Compressibility (1/GPa) = 0.03597428
#
# Stress axis : x y z
#
# Youngs Moduli (GPa) = 115.16406 33.12306 56.15557
#
# Poissons Ratio (x) = 0.07960 0.17806
# Poissons Ratio (y) = 0.27675 0.26840
# Poissons Ratio (z) = 0.36518 0.15831
#
# Static dielectric constant tensor:
#      x y z
#    x 3.977680 0.423240 -0.044890 
#    y 0.423240 3.851400 0.016600 
#    z -0.044890 0.016600 3.530800 
# 
# 
# High freq. dielectric constant tensor:
#      x y z
#    x 1.815190 0.016010 -0.007850 
#    y 0.016010 1.793390 -0.004550 
#    z -0.007850 -0.004550 1.795470 
# 
# From -- ./inp_files/52604.got.cif
#   From: 2010.06.25/outbox.cif.g09.slc.cpg/sg2_27_cif.got.tgz:52604.got - 2010.06.27 13:26:56.
