data_PCOD8019380
_publ_section_title
;
Structure prediction by ZEFSAII (Michael W. Deem and Ramdas Pophale) SiO2 
 PCOD8019380
Probable space group: P -1
;
_chemical_formula_sum "Si O2"
_cell_formula_units_Z 16
_cell_length_a 11.923853
_cell_length_b 8.701521
_cell_length_c 11.554804
_cell_angle_alpha 125.686418
_cell_angle_beta 89.387154
_cell_angle_gamma 58.186222
_cell_volume 734.270039
_symmetry_space_group_name_H-M "P -1"
_symmetry_group_IT_number 2
_symmetry_cell_setting 'triclinic'
loop_
_space_group_symop_operation_xyz
x,y,z
-x,-y,-z
loop_
_atom_site_type_symbol
_atom_site_label
_atom_site_fract_x
_atom_site_fract_y
_atom_site_fract_z
Si Si1 0.954844 0.839378 0.688143
Si Si2 0.385084 0.781653 0.078208
Si Si3 0.606575 0.791978 0.185230
Si Si4 0.035861 0.395655 0.639377
Si Si5 0.811642 0.117046 0.253971
Si Si6 0.676710 0.063328 0.443002
Si Si7 0.867556 0.650755 0.977601
Si Si8 0.398639 0.515972 0.764860
O O1 0.997175 0.729567 0.509397
O O2 0.023137 0.615579 0.679499
O O3 0.028952 0.959774 0.765527
O O4 0.777883 0.054780 0.793831
O O5 0.454065 0.908210 0.169465
O O6 0.500000 0.500000 0.000000
O O7 0.380882 0.744640 0.924177
O O8 0.657179 0.579035 0.184809
O O9 0.580495 0.019731 0.350524
O O10 0.735020 0.667823 0.033662
O O11 0.912990 0.515061 0.793943
O O12 0.199544 0.190298 0.600024
O O13 0.749624 0.136778 0.390157
O O14 0.698626 0.383507 0.306592
O O15 0.824802 0.918325 0.085573
O O16 0.570756 0.286757 0.632445
O O17 0.000000 0.500000 0.000000
#
# Coordination Sequence:
#
# PCOD8019380 Si02
#       8
#     2   2   2   2   2   2   2   2
#     4  11  26  43  67 100 130 173 223 268 325 382
#     4  10  23  40  63  95 128 165 217 268 321 381
#     4  10  22  41  67  93 127 174 215 260 332 388
#     4  11  23  44  66  96 136 170 216 271 322 393
#     4  11  25  41  67  97 132 171 220 274 323 385
#     4  11  23  42  65  97 130 172 214 267 334 385
#     4  11  23  43  66  96 129 169 217 264 329 386
#     4  11  23  41  66  97 129 170 222 270 319 391
#
# _framework density 21.790348000000002
#
# number of rings (size 3 to 8) (size 9 to 14) (size 15 to 20)
#    0.000    1.250    2.500    3.750    3.500    4.500 
#    0.000    5.625    0.000    0.000    0.000    0.000 
#    0.000    0.000    0.000    0.000    0.000    0.000 
#
# Total GULP energy -198394.086217 kJ/mol
# GULP energy per Si atom -12399.630389 kJ/mol
# Density = 2.174075 g / cm^3
# Si number density = 21.790348 Si / 1000 Ang^3
#
#
#
# Elastic Constant Matrix: (Units=GPa)
#
#
# Indices 1 2 3 4 5 6 
#
# 1 162.8225 63.5971 51.8124 -3.7525 -14.8619 -2.3297
# 2 63.5971 100.8809 56.9006 -8.3945 -9.4217 -0.8797
# 3 51.8124 56.9006 139.0052 -13.8597 -29.2833 4.4055
# 4 -3.7525 -8.3945 -13.8597 32.5456 -1.5030 -1.8539
# 5 -14.8619 -9.4217 -29.2833 -1.5030 28.1898 1.5948
# 6 -2.3297 -0.8797 4.4055 -1.8539 1.5948 20.1101
#
#
#
# Elastic Compliance Matrix: (Units=1/GPa)
#
#
# Indices 1 2 3 4 5 6 
#
# 1 0.008420 -0.004652 -0.000915 -0.000488 0.001864 0.000780
# 2 -0.004652 0.015615 -0.005124 0.001281 -0.002577 0.001589
# 3 -0.000915 -0.005124 0.012539 0.004229 0.011259 -0.003580
# 4 -0.000488 0.001281 0.004229 0.033182 0.006240 0.001637
# 5 0.001864 -0.002577 0.011259 0.006240 0.047939 -0.005590
# 6 0.000780 0.001589 -0.003580 0.001637 -0.005590 0.051265
#
#
# Mechanical properties :
#
#
# Convention : Reuss Voigt Hill
#
# Bulk Modulus (GPa) = 65.81858 83.03654 74.42756
# Shear Modulus (GPa) = 25.58789 31.52900 28.55844
#
# Velocity S-wave (km/s) = 3.43049 3.80797 3.62415
# Velocity P-wave (km/s) = 6.77953 7.58446 7.19326
#
# Compressibility (1/GPa) = 0.01519328
#
# Stress axis : x y z
#
# Youngs Moduli (GPa) = 118.76875 64.04204 79.74945
#
# Poissons Ratio (x) = 0.29790 0.07297
# Poissons Ratio (y) = 0.55247 0.40860
# Poissons Ratio (z) = 0.10868 0.32813
#
# Static dielectric constant tensor:
#      x y z
#    x 4.092700 -0.088810 0.039510 
#    y -0.088810 4.016190 -0.204440 
#    z 0.039510 -0.204440 4.493600 
# 
# 
# High freq. dielectric constant tensor:
#      x y z
#    x 1.847970 -0.007520 -0.001320 
#    y -0.007520 1.857860 -0.006810 
#    z -0.001320 -0.006810 1.867210 
# 
# From -- ./inp_files/420025.got.cif
#   From: 2010.06.25/outbox.cif.g09.slc.cpg/sg2_211_cif.got.tgz:420025.got - 2010.06.27 13:26:56.
