data_PCOD8019743
_publ_section_title
;
Structure prediction by ZEFSAII (Michael W. Deem and Ramdas Pophale) SiO2 
 PCOD8019743
Probable space group: P -1
;
_chemical_formula_sum "Si O2"
_cell_formula_units_Z 16
_cell_length_a 11.360500
_cell_length_b 11.591214
_cell_length_c 5.626181
_cell_angle_alpha 87.039939
_cell_angle_beta 59.539699
_cell_angle_gamma 89.299109
_cell_volume 637.676976
_symmetry_space_group_name_H-M "P -1"
_symmetry_group_IT_number 2
_symmetry_cell_setting 'triclinic'
loop_
_space_group_symop_operation_xyz
x,y,z
-x,-y,-z
loop_
_atom_site_type_symbol
_atom_site_label
_atom_site_fract_x
_atom_site_fract_y
_atom_site_fract_z
Si Si1 0.354710 0.913590 0.418499
Si Si2 0.859294 0.929444 0.627742
Si Si3 0.405582 0.337890 0.529757
Si Si4 0.614612 0.486634 0.078243
Si Si5 0.817139 0.523030 0.508821
Si Si6 0.844041 0.284500 0.321477
Si Si7 0.007624 0.728474 0.324954
Si Si8 0.645277 0.904498 0.211514
O O1 0.301084 0.781542 0.510986
O O2 0.512812 0.909004 0.169238
O O3 0.259361 0.984885 0.335457
O O4 0.346282 0.973496 0.677774
O O5 0.885173 0.821955 0.436373
O O6 0.792645 0.879935 0.944823
O O7 0.000000 0.000000 0.500000
O O8 0.562641 0.379689 0.307707
O O9 0.366984 0.392189 0.817051
O O10 0.298774 0.385971 0.444172
O O11 0.390778 0.200221 0.559186
O O12 0.500000 0.500000 0.000000
O O13 0.762738 0.458531 0.813198
O O14 0.830775 0.423676 0.306313
O O15 0.956746 0.594902 0.396576
O O16 0.920689 0.249673 0.493468
O O17 0.913606 0.246356 0.005683
#
# Coordination Sequence:
#
# PCOD8019743 Si02
#       8
#     2   2   2   2   2   2   2   2
#     4  11  27  48  73 110 149 202 255 324 387 457
#     4  12  25  48  77 107 150 199 258 320 383 461
#     4  10  22  41  71 107 147 197 247 314 384 464
#     4   9  21  39  63 105 142 194 242 298 382 447
#     4  11  25  43  72 106 152 195 248 316 381 463
#     4  12  29  49  74 113 155 203 254 317 386 457
#     4  12  28  48  78 110 151 205 258 316 384 462
#     4  11  26  47  76 110 149 196 262 319 387 461
#
# _framework density 25.091072
#
# number of rings (size 3 to 8) (size 9 to 14) (size 15 to 20)
#    0.000    1.000    1.250    3.375   12.250    2.000 
#    2.250    0.000    0.000    0.000    0.000    0.000 
#    0.000    0.000    0.000    0.000    0.000    0.000 
#
# Total GULP energy -198275.070750 kJ/mol
# GULP energy per Si atom -12392.191922 kJ/mol
# Density = 2.503396 g / cm^3
# Si number density = 25.091072 Si / 1000 Ang^3
#
#
#
# Elastic Constant Matrix: (Units=GPa)
#
#
# Indices 1 2 3 4 5 6 
#
# 1 82.4536 25.2294 34.0414 -9.3090 -6.9778 19.9697
# 2 25.2294 140.4737 21.2907 -4.6037 -11.1506 19.7294
# 3 34.0414 21.2907 137.8218 1.7558 -14.1256 17.8652
# 4 -9.3090 -4.6037 1.7558 29.9481 0.0973 -1.1760
# 5 -6.9778 -11.1506 -14.1256 0.0973 40.2004 -5.0809
# 6 19.9697 19.7294 17.8652 -1.1760 -5.0809 47.5882
#
#
#
# Elastic Compliance Matrix: (Units=1/GPa)
#
#
# Indices 1 2 3 4 5 6 
#
# 1 0.015502 -0.001485 -0.002999 0.004584 0.000635 -0.004582
# 2 -0.001485 0.007916 -0.000409 0.000683 0.001498 -0.002328
# 3 -0.002999 -0.000409 0.008505 -0.001562 0.002159 -0.001573
# 4 0.004584 0.000683 -0.001562 0.034983 0.000259 -0.000728
# 5 0.000635 0.001498 0.002159 0.000259 0.026300 0.001116
# 6 -0.004582 -0.002328 -0.001573 -0.000728 0.001116 0.024593
#
#
# Mechanical properties :
#
#
# Convention : Reuss Voigt Hill
#
# Bulk Modulus (GPa) = 45.17672 57.98579 51.58125
# Shear Modulus (GPa) = 37.04681 42.22653 39.63667
#
# Velocity S-wave (km/s) = 3.84669 4.10680 3.97887
# Velocity P-wave (km/s) = 6.14602 6.75634 6.45839
#
# Compressibility (1/GPa) = 0.02213529
#
# Stress axis : x y z
#
# Youngs Moduli (GPa) = 64.50925 126.32875 117.58147
#
# Poissons Ratio (x) = 0.18765 0.35259
# Poissons Ratio (y) = 0.09582 0.04813
# Poissons Ratio (z) = 0.19344 0.05171
#
# Static dielectric constant tensor:
#      x y z
#    x 4.634970 0.100180 -0.233460 
#    y 0.100180 4.653430 -0.234600 
#    z -0.233460 -0.234600 4.886070 
# 
# 
# High freq. dielectric constant tensor:
#      x y z
#    x 2.005540 0.007000 -0.008750 
#    y 0.007000 2.007450 -0.005090 
#    z -0.008750 -0.005090 1.996290 
# 
# From -- ./inp_files/70317.got.cif
#   From: 2010.06.25/outbox.cif.g09.slc.cpg/sg2_36_cif.got.tgz:70317.got - 2010.06.27 13:26:56.
