data_PCOD8019042
_publ_section_title
;
Structure prediction by ZEFSAII (Michael W. Deem and Ramdas Pophale) SiO2 
 PCOD8019042
Probable space group: P -1
;
_chemical_formula_sum "Si O2"
_cell_formula_units_Z 14
_cell_length_a 9.735538
_cell_length_b 28.555462
_cell_length_c 9.834788
_cell_angle_alpha 27.374509
_cell_angle_beta 135.163025
_cell_angle_gamma 145.274849
_cell_volume 713.875072
_symmetry_space_group_name_H-M "P -1"
_symmetry_group_IT_number 2
_symmetry_cell_setting 'triclinic'
loop_
_space_group_symop_operation_xyz
x,y,z
-x,-y,-z
loop_
_atom_site_type_symbol
_atom_site_label
_atom_site_fract_x
_atom_site_fract_y
_atom_site_fract_z
Si Si1 0.434104 0.494562 0.123602
Si Si2 0.285556 0.240950 0.668934
Si Si3 0.622215 0.142057 0.770599
Si Si4 0.769884 0.121688 0.216735
Si Si5 0.556774 0.159290 0.212003
Si Si6 0.924593 0.286245 0.359679
Si Si7 0.709934 0.777041 0.600433
O O1 0.468746 0.387822 0.474454
O O2 0.151044 0.433874 0.114854
O O3 0.500000 0.500000 0.000000
O O4 0.594926 0.633837 0.941993
O O5 0.320127 0.222096 0.584649
O O6 0.011088 0.198069 0.603521
O O7 0.331761 0.158704 0.008566
O O8 0.831172 0.249885 0.541243
O O9 0.416913 0.164679 0.573805
O O10 0.759111 0.168745 0.940131
O O11 0.500000 0.000000 0.000000
O O12 0.737505 0.198504 0.110403
O O13 0.017397 0.137851 0.373956
O O14 0.544829 0.976062 0.448489
O O15 0.710178 0.259074 0.181853
#
# Coordination Sequence:
#
# PCOD8019042 Si02
#       7
#     2   2   2   2   2   2   2
#     4   8  18  41  65  90 120 160 207 258 299 356
#     4   9  20  38  67  91 120 160 205 259 300 355
#     4  12  26  42  59  94 131 166 198 252 320 365
#     4  11  24  37  64  92 125 161 213 247 309 370
#     4  11  20  38  65  96 115 166 212 251 301 368
#     4  10  22  41  64  91 129 152 213 252 304 369
#     4  11  22  42  62  89 130 159 203 259 304 362
#
# _framework density 19.611274999999999
#
# number of rings (size 3 to 8) (size 9 to 14) (size 15 to 20)
#    0.857    0.857    4.286    0.000    2.000    2.857 
#    2.571    2.857    0.000    0.000    0.000    0.000 
#    0.000    0.000    0.000    0.000    0.000    0.000 
#
# Total GULP energy -173435.855749 kJ/mol
# GULP energy per Si atom -12388.275411 kJ/mol
# Density = 1.956664 g / cm^3
# Si number density = 19.611275 Si / 1000 Ang^3
#
#
#
# Elastic Constant Matrix: (Units=GPa)
#
#
# Indices 1 2 3 4 5 6 
#
# 1 107.5306 32.4916 33.8366 2.9557 -6.3943 6.7797
# 2 32.4916 68.8200 31.1408 6.2695 -13.9307 6.7130
# 3 33.8366 31.1408 65.6016 13.1700 -8.4413 -3.7128
# 4 2.9557 6.2695 13.1700 32.2650 -1.4313 2.4940
# 5 -6.3943 -13.9307 -8.4413 -1.4313 40.3462 1.0520
# 6 6.7797 6.7130 -3.7128 2.4940 1.0520 27.8149
#
#
#
# Elastic Compliance Matrix: (Units=1/GPa)
#
#
# Indices 1 2 3 4 5 6 
#
# 1 0.012058 -0.003220 -0.005263 0.001897 -0.000156 -0.003029
# 2 -0.003220 0.021349 -0.008139 0.000143 0.005311 -0.005668
# 3 -0.005263 -0.008139 0.023998 -0.008245 0.000897 0.007156
# 4 0.001897 0.000143 -0.008245 0.034519 -0.000028 -0.004691
# 5 -0.000156 0.005311 0.000897 -0.000028 0.026837 -0.002137
# 6 -0.003029 -0.005668 0.007156 -0.004691 -0.002137 0.039515
#
#
# Mechanical properties :
#
#
# Convention : Reuss Voigt Hill
#
# Bulk Modulus (GPa) = 41.39164 48.54334 44.96749
# Shear Modulus (GPa) = 25.05334 29.71743 27.38539
#
# Velocity S-wave (km/s) = 3.57809 3.89694 3.74091
# Velocity P-wave (km/s) = 6.18241 6.71228 6.45278
#
# Compressibility (1/GPa) = 0.02415947
#
# Stress axis : x y z
#
# Youngs Moduli (GPa) = 82.92929 46.84062 41.67088
#
# Poissons Ratio (x) = 0.15085 0.21932
# Poissons Ratio (y) = 0.26707 0.33917
# Poissons Ratio (z) = 0.43647 0.38125
#
# Static dielectric constant tensor:
#      x y z
#    x 3.603230 0.027300 -0.032930 
#    y 0.027300 3.307060 -0.117410 
#    z -0.032930 -0.117410 3.631700 
# 
# 
# High freq. dielectric constant tensor:
#      x y z
#    x 1.765360 0.007980 -0.004740 
#    y 0.007980 1.743170 -0.001410 
#    z -0.004740 -0.001410 1.757990 
# 
# From -- ./inp_files/227281.got.cif
#   From: 2010.06.25/outbox.cif.g09.slc.cpg/sg2_114_cif.got.tgz:227281.got - 2010.06.27 13:26:56.
