data_PCOD8019535
_publ_section_title
;
Structure prediction by ZEFSAII (Michael W. Deem and Ramdas Pophale) SiO2 
 PCOD8019535
Probable space group: P -1
;
_chemical_formula_sum "Si O2"
_cell_formula_units_Z 16
_cell_length_a 9.370741
_cell_length_b 17.586993
_cell_length_c 20.641404
_cell_angle_alpha 150.400579
_cell_angle_beta 150.473969
_cell_angle_gamma 32.393820
_cell_volume 772.307670
_symmetry_space_group_name_H-M "P -1"
_symmetry_group_IT_number 2
_symmetry_cell_setting 'triclinic'
loop_
_space_group_symop_operation_xyz
x,y,z
-x,-y,-z
loop_
_atom_site_type_symbol
_atom_site_label
_atom_site_fract_x
_atom_site_fract_y
_atom_site_fract_z
Si Si1 0.286873 0.959744 0.833151
Si Si2 0.357408 0.966876 0.609582
Si Si3 0.573233 0.044595 0.890790
Si Si4 0.736074 0.609190 0.522564
Si Si5 0.577277 0.571446 0.649407
Si Si6 0.294057 0.472915 0.842465
Si Si7 0.120664 0.730429 0.860589
Si Si8 0.568027 0.092124 0.657150
O O1 0.387383 0.765575 0.718542
O O2 0.305334 0.048780 0.838275
O O3 0.933502 0.034199 0.772037
O O4 0.500000 0.000000 0.000000
O O5 0.530727 0.771827 0.523348
O O6 0.478935 0.028651 0.767692
O O7 0.409055 0.059600 0.635308
O O8 0.000000 0.000000 0.500000
O O9 0.647253 0.213334 0.051229
O O10 0.886193 0.894358 0.924997
O O11 0.522452 0.510463 0.389027
O O12 0.000000 0.500000 0.500000
O O13 0.900909 0.652974 0.680986
O O14 0.500000 0.500000 0.500000
O O15 0.941335 0.530008 0.769356
O O16 0.330067 0.593007 0.889915
O O17 0.419757 0.286444 0.727953
O O18 0.500000 0.500000 0.000000
O O19 0.500000 0.000000 0.500000
#
# Coordination Sequence:
#
# PCOD8019535 Si02
#       8
#     2   2   2   2   2   2   2   2
#     4  12  26  42  67 105 138 173 222 284 346 394
#     4  11  23  44  68  95 130 182 224 263 337 413
#     4  10  22  43  70  93 132 177 226 269 331 407
#     4  11  24  39  67  99 129 166 222 283 327 382
#     4  12  22  44  71  95 132 178 231 273 325 414
#     4  12  24  43  68 100 134 182 226 271 334 409
#     4  10  22  41  68  95 129 177 224 270 323 407
#     4  12  27  43  67 101 143 172 219 288 346 389
#
# _framework density 20.717131999999999
#
# number of rings (size 3 to 8) (size 9 to 14) (size 15 to 20)
#    0.000    0.750    2.500    5.250    8.750    0.000 
#    0.000    0.625    0.000    0.000    0.000    0.000 
#    0.000    0.000    0.000    0.000    0.000    0.000 
#
# Total GULP energy -198451.348591 kJ/mol
# GULP energy per Si atom -12403.209287 kJ/mol
# Density = 2.066998 g / cm^3
# Si number density = 20.717132 Si / 1000 Ang^3
#
#
#
# Elastic Constant Matrix: (Units=GPa)
#
#
# Indices 1 2 3 4 5 6 
#
# 1 120.5222 47.8994 48.3915 6.9709 14.4834 6.4501
# 2 47.8994 143.1178 44.1935 5.4828 12.1608 5.3923
# 3 48.3915 44.1935 89.4867 -0.5167 17.1681 11.3013
# 4 6.9709 5.4828 -0.5167 41.7016 1.9132 7.4057
# 5 14.4834 12.1608 17.1681 1.9132 38.4244 -5.2714
# 6 6.4501 5.3923 11.3013 7.4057 -5.2714 38.9515
#
#
#
# Elastic Compliance Matrix: (Units=1/GPa)
#
#
# Indices 1 2 3 4 5 6 
#
# 1 0.011338 -0.002126 -0.004818 -0.001600 -0.001378 -0.000068
# 2 -0.002126 0.008721 -0.003076 -0.000827 -0.000526 0.000124
# 3 -0.004818 -0.003076 0.017020 0.002560 -0.005623 -0.004962
# 4 -0.001600 -0.000827 0.002560 0.025474 -0.002304 -0.005518
# 5 -0.001378 -0.000526 -0.005623 -0.002304 0.030224 0.006461
# 6 -0.000068 0.000124 -0.004962 -0.005518 0.006461 0.029030
#
#
# Mechanical properties :
#
#
# Convention : Reuss Voigt Hill
#
# Bulk Modulus (GPa) = 58.69267 70.45504 64.57386
# Shear Modulus (GPa) = 33.89215 37.99166 35.94191
#
# Velocity S-wave (km/s) = 4.04907 4.28697 4.16972
# Velocity P-wave (km/s) = 7.08886 7.65415 7.37693
#
# Compressibility (1/GPa) = 0.01703790
#
# Stress axis : x y z
#
# Youngs Moduli (GPa) = 88.19586 114.67193 58.75564
#
# Poissons Ratio (x) = 0.24381 0.28307
# Poissons Ratio (y) = 0.18752 0.18076
# Poissons Ratio (z) = 0.42491 0.35278
#
# Static dielectric constant tensor:
#      x y z
#    x 3.557170 0.374040 0.222860 
#    y 0.374040 3.042940 -0.067410 
#    z 0.222860 -0.067410 3.784430 
# 
# 
# High freq. dielectric constant tensor:
#      x y z
#    x 1.815060 0.007820 0.014220 
#    y 0.007820 1.816140 0.002890 
#    z 0.014220 0.002890 1.824880 
# 
# From -- ./inp_files/591243.got.cif
#   From: 2010.06.25/outbox.cif.g09.slc.cpg/sg2_296_cif.got.tgz:591243.got - 2010.06.27 13:26:56.
