data_PCOD8019164
_publ_section_title
;
Structure prediction by ZEFSAII (Michael W. Deem and Ramdas Pophale) SiO2 
 PCOD8019164
Probable space group: P -1
;
_chemical_formula_sum "Si O2"
_cell_formula_units_Z 16
_cell_length_a 8.589440
_cell_length_b 13.468817
_cell_length_c 9.178692
_cell_angle_alpha 59.996842
_cell_angle_beta 71.792185
_cell_angle_gamma 107.901453
_cell_volume 721.594003
_symmetry_space_group_name_H-M "P -1"
_symmetry_group_IT_number 2
_symmetry_cell_setting 'triclinic'
loop_
_space_group_symop_operation_xyz
x,y,z
-x,-y,-z
loop_
_atom_site_type_symbol
_atom_site_label
_atom_site_fract_x
_atom_site_fract_y
_atom_site_fract_z
Si Si1 0.652363 0.247476 0.651173
Si Si2 0.623824 0.479535 0.363288
Si Si3 0.956550 0.276618 0.027314
Si Si4 0.939495 0.206656 0.415186
Si Si5 0.649342 0.981982 0.283843
Si Si6 0.641946 0.572847 0.771831
Si Si7 0.635749 0.917258 0.646721
Si Si8 0.667841 0.323851 0.915551
O O1 0.699795 0.391223 0.470807
O O2 0.822688 0.232745 0.551249
O O3 0.658963 0.249667 0.822046
O O4 0.432680 0.118382 0.759253
O O5 0.500000 0.500000 0.500000
O O6 0.476484 0.399167 0.331231
O O7 0.812014 0.628673 0.148057
O O8 0.846066 0.345673 0.946651
O O9 0.924014 0.263233 0.221241
O O10 0.867820 0.124228 0.093011
O O11 0.164674 0.279818 0.346617
O O12 0.850764 0.042635 0.551523
O O13 0.510071 0.034148 0.320107
O O14 0.646981 0.895110 0.487071
O O15 0.705005 0.472408 0.764989
O O16 0.500000 0.500000 0.000000
O O17 0.544515 0.773505 0.866605
#
# Coordination Sequence:
#
# PCOD8019164 Si02
#       8
#     2   2   2   2   2   2   2   2
#     4  11  23  39  63  91 122 158 200 245 300 357
#     4  12  26  44  58  84 129 163 195 252 302 349
#     4  10  22  41  66  90 119 156 203 250 292 356
#     4  10  22  41  65  93 116 156 205 246 297 357
#     4   8  17  36  62  90 116 152 197 248 299 346
#     4  12  26  42  62  86 121 163 205 246 297 355
#     4   8  17  36  62  89 119 148 198 253 292 346
#     4  11  23  39  62  94 121 155 201 249 296 356
#
# _framework density 22.173133
#
# number of rings (size 3 to 8) (size 9 to 14) (size 15 to 20)
#    0.000    1.750    2.500    3.000    5.250    6.500 
#    0.000    2.500    0.000    0.000    0.000    0.000 
#    0.000    0.000    0.000    0.000    0.000    0.000 
#
# Total GULP energy -198381.360432 kJ/mol
# GULP energy per Si atom -12398.835027 kJ/mol
# Density = 2.212267 g / cm^3
# Si number density = 22.173133 Si / 1000 Ang^3
#
#
#
# Elastic Constant Matrix: (Units=GPa)
#
#
# Indices 1 2 3 4 5 6 
#
# 1 53.0352 17.8803 26.7719 -1.6871 -11.2494 27.9937
# 2 17.8803 74.5926 12.7851 -5.2681 -15.1676 34.0361
# 3 26.7719 12.7851 70.9196 -13.5238 -7.6454 24.8882
# 4 -1.6871 -5.2681 -13.5238 39.3117 9.6013 -5.3294
# 5 -11.2494 -15.1676 -7.6454 9.6013 31.7659 -5.0394
# 6 27.9937 34.0361 24.8882 -5.3294 -5.0394 40.7065
#
#
#
# Elastic Compliance Matrix: (Units=1/GPa)
#
#
# Indices 1 2 3 4 5 6 
#
# 1 0.035159 0.005977 -0.005342 -0.005823 0.011779 -0.025214
# 2 0.005977 0.025659 0.003315 -0.001536 0.011446 -0.026376
# 3 -0.005342 0.003315 0.020472 0.005495 0.001253 -0.010740
# 4 -0.005823 -0.001536 0.005495 0.029887 -0.009771 0.004632
# 5 0.011779 0.011446 0.001253 -0.009771 0.042070 -0.014508
# 6 -0.025214 -0.026376 -0.010740 0.004632 -0.014508 0.069336
#
#
# Mechanical properties :
#
#
# Convention : Reuss Voigt Hill
#
# Bulk Modulus (GPa) = 11.21201 34.82469 23.01835
# Shear Modulus (GPa) = 20.45713 31.76416 26.11064
#
# Velocity S-wave (km/s) = 3.04074 3.78901 3.43531
# Velocity P-wave (km/s) = 4.17082 5.90610 5.11262
#
# Compressibility (1/GPa) = 0.08919004
#
# Stress axis : x y z
#
# Youngs Moduli (GPa) = 28.44223 38.97205 48.84830
#
# Poissons Ratio (x) = -0.23292 0.26095
# Poissons Ratio (y) = -0.16999 -0.16195
# Poissons Ratio (z) = 0.15194 -0.12921
#
# Static dielectric constant tensor:
#      x y z
#    x 3.768420 0.143530 -0.033020 
#    y 0.143530 4.442380 -0.441770 
#    z -0.033020 -0.441770 4.300490 
# 
# 
# High freq. dielectric constant tensor:
#      x y z
#    x 1.851070 0.019380 0.001260 
#    y 0.019380 1.877780 -0.008360 
#    z 0.001260 -0.008360 1.874160 
# 
# From -- ./inp_files/205912.got.cif
#   From: 2010.06.25/outbox.cif.g09.slc.cpg/sg2_103_cif.got.tgz:205912.got - 2010.06.27 13:26:56.
