data_PCOD8019627
_publ_section_title
;
Structure prediction by ZEFSAII (Michael W. Deem and Ramdas Pophale) SiO2 
 PCOD8019627
Probable space group: P -1
;
_chemical_formula_sum "Si O2"
_cell_formula_units_Z 14
_cell_length_a 13.335142
_cell_length_b 9.041838
_cell_length_c 15.730569
_cell_angle_alpha 48.598941
_cell_angle_beta 153.792194
_cell_angle_gamma 123.032024
_cell_volume 621.614345
_symmetry_space_group_name_H-M "P -1"
_symmetry_group_IT_number 2
_symmetry_cell_setting 'triclinic'
loop_
_space_group_symop_operation_xyz
x,y,z
-x,-y,-z
loop_
_atom_site_type_symbol
_atom_site_label
_atom_site_fract_x
_atom_site_fract_y
_atom_site_fract_z
Si Si1 0.400049 0.855600 0.854161
Si Si2 0.311505 0.246419 0.734631
Si Si3 0.393049 0.178908 0.153275
Si Si4 0.126256 0.465457 0.245572
Si Si5 0.070508 0.536367 0.727269
Si Si6 0.401859 0.441518 0.215752
Si Si7 0.546734 0.241567 0.572614
O O1 0.437154 0.889165 0.769577
O O2 0.279398 0.661172 0.846156
O O3 0.260486 0.054094 0.714377
O O4 0.636476 0.811092 0.105692
O O5 0.521452 0.339870 0.814740
O O6 0.078417 0.405517 0.492827
O O7 0.477938 0.333396 0.225562
O O8 0.350595 0.989624 0.248872
O O9 0.160821 0.299238 0.888864
O O10 0.282297 0.279557 0.389983
O O11 0.278008 0.645094 0.283526
O O12 0.099760 0.405267 0.345656
O O13 0.873633 0.528167 0.987854
O O14 0.541113 0.307356 0.445093
#
# Coordination Sequence:
#
# PCOD8019627 Si02
#       7
#     2   2   2   2   2   2   2
#     4  11  24  45  66  95 132 166 223 262 315 388
#     4  11  23  42  70  93 127 173 216 265 314 378
#     4  11  25  43  65  97 136 169 206 269 327 380
#     4  10  22  41  69  94 127 172 214 269 313 375
#     4  11  22  43  67  94 135 169 210 265 326 379
#     4  11  23  44  66  97 133 164 217 268 321 379
#     4  11  23  43  67  95 131 169 219 261 320 384
#
# _framework density 22.522003999999999
#
# number of rings (size 3 to 8) (size 9 to 14) (size 15 to 20)
#    0.000    1.143    4.286    2.571    2.000    2.857 
#    2.571    0.000    0.000    0.000    0.000    0.000 
#    0.000    0.000    0.000    0.000    0.000    0.000 
#
# Total GULP energy -173512.802031 kJ/mol
# GULP energy per Si atom -12393.771574 kJ/mol
# Density = 2.247074 g / cm^3
# Si number density = 22.522004 Si / 1000 Ang^3
#
#
#
# Elastic Constant Matrix: (Units=GPa)
#
#
# Indices 1 2 3 4 5 6 
#
# 1 74.6213 11.1052 1.9407 -5.9150 -6.6239 -3.5830
# 2 11.1052 81.1462 48.5446 -8.8628 -4.3106 9.6843
# 3 1.9407 48.5446 123.5414 -11.4204 -16.8891 1.5657
# 4 -5.9150 -8.8628 -11.4204 33.1197 13.4396 -3.3740
# 5 -6.6239 -4.3106 -16.8891 13.4396 21.5451 -8.1651
# 6 -3.5830 9.6843 1.5657 -3.3740 -8.1651 24.1227
#
#
#
# Elastic Compliance Matrix: (Units=1/GPa)
#
#
# Indices 1 2 3 4 5 6 
#
# 1 0.014899 -0.003717 0.002234 -0.000210 0.008096 0.006271
# 2 -0.003717 0.019052 -0.008340 0.004932 -0.010997 -0.010692
# 3 0.002234 -0.008340 0.012836 -0.001944 0.012927 0.006951
# 4 -0.000210 0.004932 -0.001944 0.041978 -0.028996 -0.005828
# 5 0.008096 -0.010997 0.012927 -0.028996 0.086263 0.029921
# 6 0.006271 -0.010692 0.006951 -0.005828 0.029921 0.055540
#
#
# Mechanical properties :
#
#
# Convention : Reuss Voigt Hill
#
# Bulk Modulus (GPa) = 36.84314 44.72110 40.78212
# Shear Modulus (GPa) = 19.28565 30.27206 24.77886
#
# Velocity S-wave (km/s) = 2.92944 3.67019 3.32053
# Velocity P-wave (km/s) = 5.27602 6.15306 5.73134
#
# Compressibility (1/GPa) = 0.02714210
#
# Stress axis : x y z
#
# Youngs Moduli (GPa) = 67.11764 52.48842 77.90679
#
# Poissons Ratio (x) = 0.19510 -0.17408
# Poissons Ratio (y) = 0.24948 0.64973
# Poissons Ratio (z) = -0.14997 0.43774
#
# Static dielectric constant tensor:
#      x y z
#    x 3.936300 0.037410 -0.208520 
#    y 0.037410 4.005010 -0.050010 
#    z -0.208520 -0.050010 4.180240 
# 
# 
# High freq. dielectric constant tensor:
#      x y z
#    x 1.874460 0.004770 -0.020610 
#    y 0.004770 1.878670 -0.006780 
#    z -0.020610 -0.006780 1.894950 
# 
# From -- ./inp_files/199229.got.cif
#   From: 2010.06.25/outbox.cif.g09.slc.cpg/sg2_100_cif.got.tgz:199229.got - 2010.06.27 13:26:56.
