data_PCOD8019352
_publ_section_title
;
Structure prediction by ZEFSAII (Michael W. Deem and Ramdas Pophale) SiO2 
 PCOD8019352
Probable space group: P -1
;
_chemical_formula_sum "Si O2"
_cell_formula_units_Z 14
_cell_length_a 4.926989
_cell_length_b 6.067593
_cell_length_c 27.063881
_cell_angle_alpha 133.459107
_cell_angle_beta 92.013766
_cell_angle_gamma 94.067646
_cell_volume 581.850174
_symmetry_space_group_name_H-M "P -1"
_symmetry_group_IT_number 2
_symmetry_cell_setting 'triclinic'
loop_
_space_group_symop_operation_xyz
x,y,z
-x,-y,-z
loop_
_atom_site_type_symbol
_atom_site_label
_atom_site_fract_x
_atom_site_fract_y
_atom_site_fract_z
Si Si1 0.056913 0.800386 0.143911
Si Si2 0.594805 0.208977 0.199537
Si Si3 0.695494 0.644854 0.981206
Si Si4 0.577067 0.662567 0.450123
Si Si5 0.322925 0.693320 0.892259
Si Si6 0.809945 0.823648 0.576157
Si Si7 0.648923 0.760500 0.359169
O O1 0.066179 0.573074 0.060706
O O2 0.927458 0.585368 0.154706
O O3 0.358573 0.968048 0.185402
O O4 0.873536 0.063967 0.171954
O O5 0.512695 0.293128 0.156329
O O6 0.650660 0.510087 0.278721
O O7 0.532526 0.627270 0.925752
O O8 0.500000 0.500000 0.000000
O O9 0.808891 0.994143 0.048851
O O10 0.788497 0.650989 0.495664
O O11 0.307241 0.417250 0.419598
O O12 0.710388 0.606031 0.388818
O O13 0.500000 0.000000 0.500000
O O14 0.642468 0.115125 0.620932
O O15 0.124810 0.951411 0.608308
#
# Coordination Sequence:
#
# PCOD8019352 Si02
#       7
#     2   2   2   2   2   2   2
#     4  12  25  47  66 100 129 175 222 281 328 403
#     4  12  28  44  68  96 139 177 228 267 333 405
#     4  11  23  47  71 101 129 169 225 282 342 397
#     4   9  21  40  70 100 134 170 219 276 324 376
#     4  11  25  43  71  98 133 174 218 281 346 395
#     4  10  22  41  67 101 131 172 225 268 322 386
#     4  11  24  43  64  96 135 180 216 269 325 389
#
# _framework density 24.061178999999999
#
# number of rings (size 3 to 8) (size 9 to 14) (size 15 to 20)
#    0.000    1.143    2.857    1.714    2.000   12.000 
#    0.000    0.000    0.000    0.000    0.000    0.000 
#    0.000    0.000    0.000    0.000    0.000    0.000 
#
# Total GULP energy -173610.626928 kJ/mol
# GULP energy per Si atom -12400.759066 kJ/mol
# Density = 2.400642 g / cm^3
# Si number density = 24.061179 Si / 1000 Ang^3
#
#
#
# Elastic Constant Matrix: (Units=GPa)
#
#
# Indices 1 2 3 4 5 6 
#
# 1 66.1514 10.3359 27.2957 -0.3166 -3.9426 19.0575
# 2 10.3359 120.8151 58.5133 4.1649 1.2917 25.9657
# 3 27.2957 58.5133 156.9286 -1.6226 -5.5935 10.2406
# 4 -0.3166 4.1649 -1.6226 29.0691 6.3948 7.2044
# 5 -3.9426 1.2917 -5.5935 6.3948 33.8808 13.7154
# 6 19.0575 25.9657 10.2406 7.2044 13.7154 36.4553
#
#
#
# Elastic Compliance Matrix: (Units=1/GPa)
#
#
# Indices 1 2 3 4 5 6 
#
# 1 0.020977 0.003064 -0.003497 0.001724 0.007650 -0.015385
# 2 0.003064 0.012317 -0.004326 -0.000143 0.003417 -0.010417
# 3 -0.003497 -0.004326 0.008443 0.000434 0.000092 0.002417
# 4 0.001724 -0.000143 0.000434 0.037010 -0.003980 -0.006738
# 5 0.007650 0.003417 0.000092 -0.003980 0.039327 -0.020468
# 6 -0.015385 -0.010417 0.002417 -0.006738 -0.020468 0.051247
#
#
# Mechanical properties :
#
#
# Convention : Reuss Voigt Hill
#
# Bulk Modulus (GPa) = 31.03478 59.57610 45.30544
# Shear Modulus (GPa) = 26.37432 36.39772 31.38602
#
# Velocity S-wave (km/s) = 3.31439 3.89358 3.61560
# Velocity P-wave (km/s) = 5.25101 6.71024 6.02497
#
# Compressibility (1/GPa) = 0.03222191
#
# Stress axis : x y z
#
# Youngs Moduli (GPa) = 47.67027 81.18753 118.43508
#
# Poissons Ratio (x) = -0.24879 0.41415
# Poissons Ratio (y) = -0.14608 0.51230
# Poissons Ratio (z) = 0.16670 0.35118
#
# Static dielectric constant tensor:
#      x y z
#    x 4.163460 0.062650 -0.154240 
#    y 0.062650 4.843860 -0.099840 
#    z -0.154240 -0.099840 4.455810 
# 
# 
# High freq. dielectric constant tensor:
#      x y z
#    x 1.946460 0.009930 -0.011890 
#    y 0.009930 1.971250 0.013510 
#    z -0.011890 0.013510 1.940450 
# 
# From -- ./inp_files/125621.got.cif
#   From: 2010.06.25/outbox.cif.g09.slc.cpg/sg2_63_cif.got.tgz:125621.got - 2010.06.27 13:26:56.
