data_PCOD8019106
_publ_section_title
;
Structure prediction by ZEFSAII (Michael W. Deem and Ramdas Pophale) SiO2 
 PCOD8019106
Probable space group: P -1
;
_chemical_formula_sum "Si O2"
_cell_formula_units_Z 16
_cell_length_a 22.047646
_cell_length_b 6.022482
_cell_length_c 5.205511
_cell_angle_alpha 81.645619
_cell_angle_beta 88.706354
_cell_angle_gamma 90.307723
_cell_volume 683.660632
_symmetry_space_group_name_H-M "P -1"
_symmetry_group_IT_number 2
_symmetry_cell_setting 'triclinic'
loop_
_space_group_symop_operation_xyz
x,y,z
-x,-y,-z
loop_
_atom_site_type_symbol
_atom_site_label
_atom_site_fract_x
_atom_site_fract_y
_atom_site_fract_z
Si Si1 0.765147 0.970478 0.943778
Si Si2 0.070258 0.951801 0.505965
Si Si3 0.840015 0.679310 0.651550
Si Si4 0.877066 0.256886 0.980191
Si Si5 0.338468 0.788414 0.874344
Si Si6 0.431568 0.421430 0.000586
Si Si7 0.735519 0.558877 0.367153
Si Si8 0.381511 0.216191 0.525519
O O1 0.753957 0.743940 0.132662
O O2 0.699258 0.091327 0.910137
O O3 0.793999 0.883511 0.691109
O O4 0.812749 0.133831 0.053419
O O5 0.088755 0.844335 0.251687
O O6 0.104705 0.191017 0.515804
O O7 0.083025 0.777098 0.763401
O O8 0.000000 0.000000 0.500000
O O9 0.867087 0.525479 0.902924
O O10 0.798312 0.504341 0.520059
O O11 0.387803 0.630797 0.027472
O O12 0.287721 0.663277 0.731531
O O13 0.372131 0.958905 0.649199
O O14 0.419274 0.332286 0.732184
O O15 0.500000 0.500000 0.000000
O O16 0.418661 0.232727 0.251898
O O17 0.682230 0.657877 0.535899
#
# Coordination Sequence:
#
# PCOD8019106 Si02
#       8
#     2   2   2   2   2   2   2   2
#     4  10  22  42  63 100 140 172 230 280 351 416
#     4  11  26  48  68 101 141 182 237 286 335 413
#     4  11  25  41  70 101 139 180 231 286 349 418
#     4  11  25  41  73  98 133 183 225 286 353 397
#     4  10  24  43  68 102 138 185 222 288 354 405
#     4  11  25  48  70 100 139 184 236 283 335 411
#     4  10  22  41  64  98 140 175 223 284 348 419
#     4  10  25  42  68 101 134 177 229 283 344 407
#
# _framework density 23.403426
#
# number of rings (size 3 to 8) (size 9 to 14) (size 15 to 20)
#    0.000    1.500    1.250    1.500   10.500    5.000 
#    2.250    0.000    0.000    0.000    0.000    0.000 
#    0.000    0.000    0.000    0.000    0.000    0.000 
#
# Total GULP energy -198351.165556 kJ/mol
# GULP energy per Si atom -12396.947847 kJ/mol
# Density = 2.335016 g / cm^3
# Si number density = 23.403426 Si / 1000 Ang^3
#
#
#
# Elastic Constant Matrix: (Units=GPa)
#
#
# Indices 1 2 3 4 5 6 
#
# 1 160.4100 45.7770 53.6383 -12.8249 4.9918 10.4505
# 2 45.7770 93.8028 23.9593 -24.0431 -0.3260 -2.3593
# 3 53.6383 23.9593 88.3575 -12.9164 1.9517 3.3885
# 4 -12.8249 -24.0431 -12.9164 21.0309 -2.6132 -2.8469
# 5 4.9918 -0.3260 1.9517 -2.6132 35.5356 -5.6411
# 6 10.4505 -2.3593 3.3885 -2.8469 -5.6411 29.0352
#
#
#
# Elastic Compliance Matrix: (Units=1/GPa)
#
#
# Indices 1 2 3 4 5 6 
#
# 1 0.008985 -0.003979 -0.004576 -0.002597 -0.001815 -0.003631
# 2 -0.003979 0.017517 0.000142 0.018760 0.002924 0.005247
# 3 -0.004576 0.000142 0.015006 0.006728 0.000418 0.000648
# 4 -0.002597 0.018760 0.006728 0.073841 0.007236 0.010320
# 5 -0.001815 0.002924 0.000418 0.007236 0.030106 0.007401
# 6 -0.003631 0.005247 0.000648 0.010320 0.007401 0.038548
#
#
# Mechanical properties :
#
#
# Convention : Reuss Voigt Hill
#
# Bulk Modulus (GPa) = 40.51408 65.47996 52.99702
# Shear Modulus (GPa) = 23.91694 31.73338 27.82516
#
# Velocity S-wave (km/s) = 3.20025 3.68629 3.45183
# Velocity P-wave (km/s) = 5.56814 6.79396 6.21136
#
# Compressibility (1/GPa) = 0.02468278
#
# Stress axis : x y z
#
# Youngs Moduli (GPa) = 111.29595 57.08745 66.63862
#
# Poissons Ratio (x) = 0.22718 0.30492
# Poissons Ratio (y) = 0.44290 -0.00949
# Poissons Ratio (z) = 0.50927 -0.00813
#
# Static dielectric constant tensor:
#      x y z
#    x 4.559900 0.007950 -0.061430 
#    y 0.007950 4.307990 -0.061180 
#    z -0.061430 -0.061180 4.160810 
# 
# 
# High freq. dielectric constant tensor:
#      x y z
#    x 1.924620 0.005740 -0.007570 
#    y 0.005740 1.928810 -0.011480 
#    z -0.007570 -0.011480 1.920770 
# 
# From -- ./inp_files/11009.got.cif
#   From: 2010.06.25/outbox.cif.g09.slc.cpg/sg2_6_cif.got.tgz:11009.got - 2010.06.27 13:26:56.
