data_PCOD8019980
_publ_section_title
;
Structure prediction by ZEFSAII (Michael W. Deem and Ramdas Pophale) SiO2 
 PCOD8019980
Probable space group: P -1
;
_chemical_formula_sum "Si O2"
_cell_formula_units_Z 16
_cell_length_a 8.937858
_cell_length_b 8.391002
_cell_length_c 15.334576
_cell_angle_alpha 101.758432
_cell_angle_beta 62.105314
_cell_angle_gamma 132.426861
_cell_volume 739.157941
_symmetry_space_group_name_H-M "P -1"
_symmetry_group_IT_number 2
_symmetry_cell_setting 'triclinic'
loop_
_space_group_symop_operation_xyz
x,y,z
-x,-y,-z
loop_
_atom_site_type_symbol
_atom_site_label
_atom_site_fract_x
_atom_site_fract_y
_atom_site_fract_z
Si Si1 0.245341 0.079393 0.940657
Si Si2 0.529864 0.650913 0.260038
Si Si3 0.388728 0.086792 0.080546
Si Si4 0.033956 0.295325 0.395523
Si Si5 0.148318 0.472370 0.570116
Si Si6 0.580353 0.877671 0.432391
Si Si7 0.802551 0.334323 0.102666
Si Si8 0.088790 0.331318 0.761209
O O1 0.226275 0.876417 0.900105
O O2 0.405185 0.268463 0.847593
O O3 0.352234 0.183008 0.018752
O O4 0.000000 0.000000 0.000000
O O5 0.279837 0.406830 0.300772
O O6 0.522452 0.812050 0.338256
O O7 0.710514 0.652503 0.257682
O O8 0.568996 0.269496 0.122995
O O9 0.149847 0.894512 0.168597
O O10 0.500000 0.000000 0.000000
O O11 0.037050 0.307480 0.500587
O O12 0.952703 0.410781 0.386112
O O13 0.852206 0.035501 0.392240
O O14 0.424934 0.650534 0.504119
O O15 0.084573 0.334366 0.658692
O O16 0.500000 0.000000 0.500000
O O17 0.868476 0.459294 0.190156
O O18 0.000000 0.500000 0.000000
#
# Coordination Sequence:
#
# PCOD8019980 Si02
#       8
#     2   2   2   2   2   2   2   2
#     4  11  22  44  66  92 133 167 207 269 312 372
#     4  11  24  40  63  96 131 163 209 267 313 371
#     4  10  22  42  64  89 132 167 212 262 316 370
#     4   9  20  40  64  92 124 161 217 253 320 380
#     4   9  21  38  64  89 125 165 205 269 309 378
#     4   9  20  41  62  92 125 160 211 259 313 377
#     4  11  23  41  65  89 124 170 216 254 315 381
#     4  12  24  42  62  97 130 165 213 260 324 379
#
# _framework density 21.646255
#
# number of rings (size 3 to 8) (size 9 to 14) (size 15 to 20)
#    0.000    1.750    3.750    0.750    7.000    4.000 
#    0.000    2.500    0.000    0.000    0.000    0.000 
#    0.000    0.000    0.000    0.000    0.000    0.000 
#
# Total GULP energy -198338.808158 kJ/mol
# GULP energy per Si atom -12396.175510 kJ/mol
# Density = 2.159699 g / cm^3
# Si number density = 21.646255 Si / 1000 Ang^3
#
#
#
# Elastic Constant Matrix: (Units=GPa)
#
#
# Indices 1 2 3 4 5 6 
#
# 1 117.6790 29.6041 57.2348 -26.2496 5.6524 25.1981
# 2 29.6041 61.8254 32.7133 -7.2536 1.2976 32.0180
# 3 57.2348 32.7133 151.8736 -30.5602 16.5053 18.7756
# 4 -26.2496 -7.2536 -30.5602 25.9034 5.0245 -9.0036
# 5 5.6524 1.2976 16.5053 5.0245 43.8515 -8.5806
# 6 25.1981 32.0180 18.7756 -9.0036 -8.5806 40.2677
#
#
#
# Elastic Compliance Matrix: (Units=1/GPa)
#
#
# Indices 1 2 3 4 5 6 
#
# 1 0.013040 -0.001924 -0.001683 0.009771 -0.002949 -0.004289
# 2 -0.001924 0.030503 -0.003671 -0.005172 -0.003216 -0.023180
# 3 -0.001683 -0.003671 0.010699 0.010974 -0.004881 0.000397
# 4 0.009771 -0.005172 0.010974 0.063892 -0.011641 0.004686
# 5 -0.002949 -0.003216 -0.004881 -0.011641 0.028434 0.010135
# 6 -0.004289 -0.023180 0.000397 0.004686 0.010135 0.048972
#
#
# Mechanical properties :
#
#
# Convention : Reuss Voigt Hill
#
# Bulk Modulus (GPa) = 25.19708 63.38693 44.29200
# Shear Modulus (GPa) = 22.38905 36.12625 29.25765
#
# Velocity S-wave (km/s) = 3.21957 4.08970 3.68044
# Velocity P-wave (km/s) = 5.04841 7.18662 6.21023
#
# Compressibility (1/GPa) = 0.03968714
#
# Stress axis : x y z
#
# Youngs Moduli (GPa) = 76.68833 32.78315 93.46800
#
# Poissons Ratio (x) = 0.06307 0.15729
# Poissons Ratio (y) = 0.14754 0.34310
# Poissons Ratio (z) = 0.12905 0.12034
#
# Static dielectric constant tensor:
#      x y z
#    x 4.218610 0.705920 0.016980 
#    y 0.705920 4.097690 0.123380 
#    z 0.016980 0.123380 4.099540 
# 
# 
# High freq. dielectric constant tensor:
#      x y z
#    x 1.846660 0.023900 -0.010650 
#    y 0.023900 1.841450 -0.002120 
#    z -0.010650 -0.002120 1.858700 
# 
# From -- ./inp_files/216869.got.cif
#   From: 2010.06.25/outbox.cif.g09.slc.cpg/sg2_109_cif.got.tgz:216869.got - 2010.06.27 13:26:56.
