data_PCOD8019302
_publ_section_title
;
Structure prediction by ZEFSAII (Michael W. Deem and Ramdas Pophale) SiO2 
 PCOD8019302
Probable space group: P -1
;
_chemical_formula_sum "Si O2"
_cell_formula_units_Z 14
_cell_length_a 10.968368
_cell_length_b 8.666387
_cell_length_c 7.481457
_cell_angle_alpha 78.237140
_cell_angle_beta 121.652075
_cell_angle_gamma 122.454181
_cell_volume 507.826646
_symmetry_space_group_name_H-M "P -1"
_symmetry_group_IT_number 2
_symmetry_cell_setting 'triclinic'
loop_
_space_group_symop_operation_xyz
x,y,z
-x,-y,-z
loop_
_atom_site_type_symbol
_atom_site_label
_atom_site_fract_x
_atom_site_fract_y
_atom_site_fract_z
Si Si1 0.891320 0.266507 0.816908
Si Si2 0.637321 0.972778 0.418375
Si Si3 0.240611 0.254021 0.591789
Si Si4 0.258633 0.367179 0.976358
Si Si5 0.476663 0.632873 0.591257
Si Si6 0.029007 0.670335 0.747104
Si Si7 0.668891 0.291801 0.211254
O O1 0.065254 0.281560 0.890994
O O2 0.896314 0.457506 0.742294
O O3 0.737574 0.103476 0.631126
O O4 0.864608 0.224501 0.018679
O O5 0.759630 0.932339 0.403818
O O6 0.484590 0.780486 0.421029
O O7 0.558178 0.068895 0.209145
O O8 0.286980 0.300880 0.823049
O O9 0.382127 0.412389 0.521836
O O10 0.061640 0.223766 0.414906
O O11 0.355794 0.596404 0.996855
O O12 0.341109 0.297648 0.199256
O O13 0.341737 0.609781 0.642773
O O14 0.144702 0.675806 0.671577
#
# Coordination Sequence:
#
# PCOD8019302 Si02
#       7
#     2   2   2   2   2   2   2
#     4  10  22  41  66  95 125 164 212 261 313 369
#     4  12  25  40  65  97 129 162 211 266 308 368
#     4  11  23  40  65  93 127 168 209 256 317 374
#     4  10  22  44  68  89 125 169 209 255 316 379
#     4  11  24  44  64  91 130 172 207 254 316 376
#     4  10  22  42  67  92 126 168 208 257 318 378
#     4  10  22  42  65  93 122 163 212 257 309 369
#
# _framework density 27.568460999999999
#
# number of rings (size 3 to 8) (size 9 to 14) (size 15 to 20)
#    0.000    1.429    0.000    6.000    0.000    9.714 
#    0.000   12.143    0.000    0.000    0.000    0.000 
#    0.000    0.000    0.000    0.000    0.000    0.000 
#
# Total GULP energy -173487.867750 kJ/mol
# GULP energy per Si atom -12391.990554 kJ/mol
# Density = 2.750571 g / cm^3
# Si number density = 27.568461 Si / 1000 Ang^3
#
#
#
# Elastic Constant Matrix: (Units=GPa)
#
#
# Indices 1 2 3 4 5 6 
#
# 1 52.2461 4.0460 10.8788 11.2905 -8.5115 -8.4391
# 2 4.0460 99.4956 12.9622 -10.3441 -18.9446 -16.8806
# 3 10.8788 12.9622 82.2504 1.0917 -13.6653 -14.5098
# 4 11.2905 -10.3441 1.0917 32.7831 -5.8246 -3.2216
# 5 -8.5115 -18.9446 -13.6653 -5.8246 23.9541 -5.6642
# 6 -8.4391 -16.8806 -14.5098 -3.2216 -5.6642 47.0605
#
#
#
# Elastic Compliance Matrix: (Units=1/GPa)
#
#
# Indices 1 2 3 4 5 6 
#
# 1 0.022510 0.000939 -0.000900 -0.005548 0.007985 0.004677
# 2 0.000939 0.015656 0.001909 0.008662 0.018073 0.009141
# 3 -0.000900 0.001909 0.015193 0.003268 0.012286 0.006910
# 4 -0.005548 0.008662 0.003268 0.039042 0.018123 0.007974
# 5 0.007985 0.018073 0.012286 0.018123 0.075501 0.022030
# 6 0.004677 0.009141 0.006910 0.007974 0.022030 0.030695
#
#
# Mechanical properties :
#
#
# Convention : Reuss Voigt Hill
#
# Bulk Modulus (GPa) = 17.46579 32.19622 24.83100
# Shear Modulus (GPa) = 23.38773 34.49989 28.94381
#
# Velocity S-wave (km/s) = 2.91581 3.54139 3.24371
# Velocity P-wave (km/s) = 4.20536 5.33159 4.80161
#
# Compressibility (1/GPa) = 0.05725478
#
# Stress axis : x y z
#
# Youngs Moduli (GPa) = 44.42462 63.87139 65.81977
#
# Poissons Ratio (x) = -0.05997 0.05923
# Poissons Ratio (y) = -0.04171 -0.12563
# Poissons Ratio (z) = 0.03998 -0.12191
#
# Static dielectric constant tensor:
#      x y z
#    x 5.442390 -0.313710 -0.311570 
#    y -0.313710 5.174210 -0.449020 
#    z -0.311570 -0.449020 4.616850 
# 
# 
# High freq. dielectric constant tensor:
#      x y z
#    x 2.145920 -0.018220 -0.016920 
#    y -0.018220 2.109860 -0.025850 
#    z -0.016920 -0.025850 2.087380 
# 
# From -- ./inp_files/198666.got.cif
#   From: 2010.06.25/outbox.cif.g09.slc.cpg/sg2_100_cif.got.tgz:198666.got - 2010.06.27 13:26:56.
