data_PCOD8019236
_publ_section_title
;
Structure prediction by ZEFSAII (Michael W. Deem and Ramdas Pophale) SiO2 
 PCOD8019236
Probable space group: P -1
;
_chemical_formula_sum "Si O2"
_cell_formula_units_Z 16
_cell_length_a 12.362960
_cell_length_b 15.057951
_cell_length_c 9.021220
_cell_angle_alpha 67.086079
_cell_angle_beta 107.306745
_cell_angle_gamma 49.613091
_cell_volume 731.989855
_symmetry_space_group_name_H-M "P -1"
_symmetry_group_IT_number 2
_symmetry_cell_setting 'triclinic'
loop_
_space_group_symop_operation_xyz
x,y,z
-x,-y,-z
loop_
_atom_site_type_symbol
_atom_site_label
_atom_site_fract_x
_atom_site_fract_y
_atom_site_fract_z
Si Si1 0.089976 0.430625 0.416291
Si Si2 0.423540 0.954866 0.069207
Si Si3 0.377718 0.500625 0.521648
Si Si4 0.199809 0.732310 0.577624
Si Si5 0.578092 0.583971 0.930809
Si Si6 0.051468 0.271680 0.949670
Si Si7 0.312291 0.857087 0.926090
Si Si8 0.972146 0.413987 0.110660
O O1 0.355049 0.261118 0.635025
O O2 0.000000 0.500000 0.500000
O O3 0.947171 0.616777 0.156392
O O4 0.057635 0.354641 0.357073
O O5 0.325005 0.962569 0.891612
O O6 0.500000 0.000000 0.000000
O O7 0.250929 0.080283 0.056010
O O8 0.500000 0.500000 0.500000
O O9 0.220431 0.649767 0.496749
O O10 0.198206 0.588330 0.275062
O O11 0.580295 0.278708 0.800832
O O12 0.391202 0.674828 0.686771
O O13 0.243982 0.631841 0.804946
O O14 0.955122 0.967180 0.325982
O O15 0.452727 0.724580 0.926498
O O16 0.709245 0.571955 0.905350
O O17 0.099877 0.239540 0.169591
O O18 0.000000 0.500000 0.000000
#
# Coordination Sequence:
#
# PCOD8019236 Si02
#       8
#     2   2   2   2   2   2   2   2
#     4  11  22  41  67  93 126 171 219 268 327 390
#     4  12  24  37  68 100 129 171 221 269 326 397
#     4  11  23  41  67  90 133 177 220 275 338 395
#     4  10  22  41  66 100 124 173 228 276 335 397
#     4  10  22  42  67  92 137 171 219 283 336 392
#     4  11  23  43  60  94 136 167 219 271 329 400
#     4  11  23  40  67 102 125 172 230 276 327 403
#     4  10  24  41  64  93 134 177 215 273 339 394
#
# _framework density 21.858228
#
# number of rings (size 3 to 8) (size 9 to 14) (size 15 to 20)
#    0.000    1.250    3.750    1.875    5.250    1.000 
#    0.000    2.500    0.000    0.000    0.000    0.000 
#    0.000    0.000    0.000    0.000    0.000    0.000 
#
# Total GULP energy -198217.436643 kJ/mol
# GULP energy per Si atom -12388.589790 kJ/mol
# Density = 2.180848 g / cm^3
# Si number density = 21.858228 Si / 1000 Ang^3
#
#
#
# Elastic Constant Matrix: (Units=GPa)
#
#
# Indices 1 2 3 4 5 6 
#
# 1 116.1670 23.4734 32.4613 -0.2873 19.6132 -1.7653
# 2 23.4734 131.1166 57.0096 11.9257 14.4659 2.2832
# 3 32.4613 57.0096 93.7456 -6.4783 23.0201 -7.1644
# 4 -0.2873 11.9257 -6.4783 47.5532 4.3774 10.5529
# 5 19.6132 14.4659 23.0201 4.3774 31.0224 -0.5104
# 6 -1.7653 2.2832 -7.1644 10.5529 -0.5104 26.0954
#
#
#
# Elastic Compliance Matrix: (Units=1/GPa)
#
#
# Indices 1 2 3 4 5 6 
#
# 1 0.010059 -0.000416 -0.002063 0.000332 -0.004683 -0.000075
# 2 -0.000416 0.011060 -0.007158 -0.003493 0.000885 -0.001531
# 3 -0.002063 -0.007158 0.018731 0.004429 -0.009822 0.003646
# 4 0.000332 -0.003493 0.004429 0.024939 -0.005529 -0.008649
# 5 -0.004683 0.000885 -0.009822 -0.005529 0.042851 -0.000017
# 6 -0.000075 -0.001531 0.003646 -0.008649 -0.000017 0.042948
#
#
# Mechanical properties :
#
#
# Convention : Reuss Voigt Hill
#
# Bulk Modulus (GPa) = 48.59820 62.99087 55.79453
# Shear Modulus (GPa) = 28.29317 36.13988 32.21652
#
# Velocity S-wave (km/s) = 3.60167 4.07058 3.84329
# Velocity P-wave (km/s) = 6.29108 7.13956 6.72871
#
# Compressibility (1/GPa) = 0.02057690
#
# Stress axis : x y z
#
# Youngs Moduli (GPa) = 99.41172 90.41444 53.38749
#
# Poissons Ratio (x) = 0.03762 0.11014
# Poissons Ratio (y) = 0.04136 0.38213
# Poissons Ratio (z) = 0.20510 0.64715
#
# Static dielectric constant tensor:
#      x y z
#    x 3.794960 0.209580 0.247910 
#    y 0.209580 4.121840 0.123370 
#    z 0.247910 0.123370 4.056830 
# 
# 
# High freq. dielectric constant tensor:
#      x y z
#    x 1.853280 0.006070 0.023790 
#    y 0.006070 1.878280 0.014470 
#    z 0.023790 0.014470 1.844820 
# 
# From -- ./inp_files/272612.got.cif
#   From: 2010.06.25/outbox.cif.g09.slc.cpg/sg2_137_cif.got.tgz:272612.got - 2010.06.27 13:26:56.
