data_PCOD8019716
_publ_section_title
;
Structure prediction by ZEFSAII (Michael W. Deem and Ramdas Pophale) SiO2 
 PCOD8019716
Probable space group: P -1
;
_chemical_formula_sum "Si O2"
_cell_formula_units_Z 16
_cell_length_a 15.866957
_cell_length_b 11.800597
_cell_length_c 18.735530
_cell_angle_alpha 145.452905
_cell_angle_beta 156.948828
_cell_angle_gamma 34.626256
_cell_volume 744.833516
_symmetry_space_group_name_H-M "P -1"
_symmetry_group_IT_number 2
_symmetry_cell_setting 'triclinic'
loop_
_space_group_symop_operation_xyz
x,y,z
-x,-y,-z
loop_
_atom_site_type_symbol
_atom_site_label
_atom_site_fract_x
_atom_site_fract_y
_atom_site_fract_z
Si Si1 0.692313 0.635285 0.524264
Si Si2 0.606947 0.865251 0.944928
Si Si3 0.139971 0.292182 0.461404
Si Si4 0.828194 0.220490 0.493575
Si Si5 0.526870 0.987330 0.685484
Si Si6 0.290327 0.675425 0.398541
Si Si7 0.837909 0.984749 0.053262
Si Si8 0.208180 0.583342 0.135834
O O1 0.802505 0.658010 0.547480
O O2 0.849079 0.413441 0.561898
O O3 0.695498 0.827181 0.678896
O O4 0.432626 0.640081 0.315513
O O5 0.422562 0.796482 0.719493
O O6 0.779048 0.651522 0.999874
O O7 0.500000 0.000000 0.000000
O O8 0.726037 0.983908 0.044013
O O9 0.000000 0.500000 0.500000
O O10 0.993160 0.133379 0.260911
O O11 0.376413 0.192609 0.634216
O O12 0.883551 0.262869 0.640176
O O13 0.000000 0.000000 0.500000
O O14 0.356373 0.878120 0.530861
O O15 0.659370 0.065655 0.892644
O O16 0.500000 0.500000 0.500000
O O17 0.179093 0.587951 0.201589
O O18 0.987265 0.754967 0.023433
#
# Coordination Sequence:
#
# PCOD8019716 Si02
#       8
#     2   2   2   2   2   2   2   2
#     4  10  23  46  68  99 134 183 233 277 336 409
#     4  11  25  39  61 104 145 172 220 283 345 417
#     4  12  29  47  71  96 141 188 228 281 345 405
#     4  11  24  38  70 101 139 176 220 283 355 403
#     4  11  23  45  72  98 132 173 239 285 322 416
#     4  11  17  40  68  99 129 173 222 280 336 404
#     4  12  25  44  73 100 131 187 232 279 346 400
#     4  10  22  41  70  97 137 179 225 281 348 406
#
# _framework density 21.481310000000001
#
# number of rings (size 3 to 8) (size 9 to 14) (size 15 to 20)
#    0.000    1.000    7.500    0.750    7.000    2.000 
#    0.000    0.000    0.000    0.000    0.000    0.000 
#    0.000    0.000    0.000    0.000    0.000    0.000 
#
# Total GULP energy -198351.137026 kJ/mol
# GULP energy per Si atom -12396.946064 kJ/mol
# Density = 2.143242 g / cm^3
# Si number density = 21.481310 Si / 1000 Ang^3
#
#
#
# Elastic Constant Matrix: (Units=GPa)
#
#
# Indices 1 2 3 4 5 6 
#
# 1 177.9215 66.0864 45.8435 10.2435 4.8983 -2.4024
# 2 66.0864 158.5258 32.7523 -1.4314 -3.3881 -14.4050
# 3 45.8435 32.7523 71.7845 0.2881 -11.0613 1.1266
# 4 10.2435 -1.4314 0.2881 21.7420 -0.1298 -1.9811
# 5 4.8983 -3.3881 -11.0613 -0.1298 25.7098 4.9697
# 6 -2.4024 -14.4050 1.1266 -1.9811 4.9697 35.6943
#
#
#
# Elastic Compliance Matrix: (Units=1/GPa)
#
#
# Indices 1 2 3 4 5 6 
#
# 1 0.008076 -0.002541 -0.004577 -0.003936 -0.003859 -0.000019
# 2 -0.002541 0.008128 -0.002145 0.002061 0.000007 0.003290
# 3 -0.004577 -0.002145 0.019337 0.001540 0.009501 -0.003021
# 4 -0.003936 0.002061 0.001540 0.048246 0.001346 0.003008
# 5 -0.003859 0.000007 0.009501 0.001346 0.045031 -0.006752
# 6 -0.000019 0.003290 -0.003021 0.003008 -0.006752 0.030545
#
#
# Mechanical properties :
#
#
# Convention : Reuss Voigt Hill
#
# Bulk Modulus (GPa) = 58.76608 77.51068 68.13838
# Shear Modulus (GPa) = 27.23893 34.19918 30.71906
#
# Velocity S-wave (km/s) = 3.56480 3.99437 3.78568
# Velocity P-wave (km/s) = 6.66033 7.57856 7.13423
#
# Compressibility (1/GPa) = 0.01701662
#
# Stress axis : x y z
#
# Youngs Moduli (GPa) = 123.82153 123.02809 51.71364
#
# Poissons Ratio (x) = 0.31260 0.23669
# Poissons Ratio (y) = 0.31462 0.11091
# Poissons Ratio (z) = 0.56672 0.26386
#
# Static dielectric constant tensor:
#      x y z
#    x 3.383610 2.353150 0.998540 
#    y 2.353150 -9.400570 -5.950520 
#    z 0.998540 -5.950520 1.612960 
# 
# 
# High freq. dielectric constant tensor:
#      x y z
#    x 1.846380 -0.002320 -0.004860 
#    y -0.002320 1.850730 -0.004140 
#    z -0.004860 -0.004140 1.836270 
# 
# From -- ./inp_files/600138.got.cif
#   From: 2010.06.25/outbox.cif.g09.slc.cpg/sg2_301_cif.got.tgz:600138.got - 2010.06.27 13:26:56.
