data_PCOD8019735
_publ_section_title
;
Structure prediction by ZEFSAII (Michael W. Deem and Ramdas Pophale) SiO2 
 PCOD8019735
Probable space group: P -1
;
_chemical_formula_sum "Si O2"
_cell_formula_units_Z 14
_cell_length_a 9.974530
_cell_length_b 5.145364
_cell_length_c 14.539084
_cell_angle_alpha 49.291370
_cell_angle_beta 82.669921
_cell_angle_gamma 89.188642
_cell_volume 558.640198
_symmetry_space_group_name_H-M "P -1"
_symmetry_group_IT_number 2
_symmetry_cell_setting 'triclinic'
loop_
_space_group_symop_operation_xyz
x,y,z
-x,-y,-z
loop_
_atom_site_type_symbol
_atom_site_label
_atom_site_fract_x
_atom_site_fract_y
_atom_site_fract_z
Si Si1 0.930178 0.316397 0.195069
Si Si2 0.104817 0.813048 0.186603
Si Si3 0.682619 0.551792 0.663718
Si Si4 0.714813 0.552898 0.019001
Si Si5 0.564958 0.388175 0.900918
Si Si6 0.545197 0.740649 0.358084
Si Si7 0.698764 0.185939 0.378452
O O1 0.832342 0.393073 0.101928
O O2 0.852181 0.199364 0.323373
O O3 0.023831 0.654501 0.141690
O O4 0.018000 0.030805 0.211693
O O5 0.162153 0.527760 0.314719
O O6 0.240308 0.034877 0.083403
O O7 0.607821 0.583808 0.759007
O O8 0.592614 0.233436 0.694640
O O9 0.678153 0.907731 0.526340
O O10 0.565545 0.415917 0.101298
O O11 0.700514 0.427567 0.943634
O O12 0.500000 0.000000 0.000000
O O13 0.500000 0.500000 0.500000
O O14 0.660011 0.557862 0.330877
O O15 0.608093 0.093818 0.316676
#
# Coordination Sequence:
#
# PCOD8019735 Si02
#       7
#     2   2   2   2   2   2   2
#     4  12  28  46  72  98 143 191 242 273 334 413
#     4  12  27  45  69 102 138 197 231 282 337 399
#     4  11  24  44  72 100 147 169 234 288 349 423
#     4  11  26  45  72 102 142 175 237 291 347 417
#     4  11  24  43  72 108 132 176 221 294 371 399
#     4  10  22  41  71 103 136 176 223 281 362 404
#     4  11  25  45  71 106 136 186 225 288 350 409
#
# _framework density 25.060852000000001
#
# number of rings (size 3 to 8) (size 9 to 14) (size 15 to 20)
#    0.000    0.857    1.429    5.143    4.000    8.000 
#    0.000    0.000    0.000    0.000    0.000    0.000 
#    0.000    0.000    0.000    0.000    0.000    0.000 
#
# Total GULP energy -173446.141597 kJ/mol
# GULP energy per Si atom -12389.010114 kJ/mol
# Density = 2.500381 g / cm^3
# Si number density = 25.060852 Si / 1000 Ang^3
#
#
#
# Elastic Constant Matrix: (Units=GPa)
#
#
# Indices 1 2 3 4 5 6 
#
# 1 142.6876 46.8181 49.1951 20.8133 12.8912 15.2542
# 2 46.8181 112.1636 25.5587 25.3226 13.9578 13.1236
# 3 49.1951 25.5587 110.1416 22.5507 14.0090 16.2144
# 4 20.8133 25.3226 22.5507 34.3811 -1.1960 2.9049
# 5 12.8912 13.9578 14.0090 -1.1960 44.6247 0.6342
# 6 15.2542 13.1236 16.2144 2.9049 0.6342 46.6315
#
#
#
# Elastic Compliance Matrix: (Units=1/GPa)
#
#
# Indices 1 2 3 4 5 6 
#
# 1 0.009330 -0.002563 -0.002901 -0.001792 -0.001014 -0.001197
# 2 -0.002563 0.012321 0.000693 -0.007903 -0.003510 -0.002330
# 3 -0.002901 0.000693 0.012507 -0.006814 -0.003443 -0.003124
# 4 -0.001792 -0.007903 -0.006814 0.040458 0.006177 0.002575
# 5 -0.001014 -0.003510 -0.003443 0.006177 0.025021 0.001792
# 6 -0.001197 -0.002330 -0.003124 0.002575 0.001792 0.023393
#
#
# Mechanical properties :
#
#
# Convention : Reuss Voigt Hill
#
# Bulk Modulus (GPa) = 40.62108 67.57072 54.09590
# Shear Modulus (GPa) = 35.51727 41.35551 38.43639
#
# Velocity S-wave (km/s) = 3.76871 4.06668 3.92053
# Velocity P-wave (km/s) = 5.93142 7.00512 6.49051
#
# Compressibility (1/GPa) = 0.02461776
#
# Stress axis : x y z
#
# Youngs Moduli (GPa) = 107.17840 81.16256 79.95657
#
# Poissons Ratio (x) = 0.20799 0.23191
# Poissons Ratio (y) = 0.27466 -0.05541
# Poissons Ratio (z) = 0.31087 -0.05625
#
# Static dielectric constant tensor:
#      x y z
#    x 2.888330 -3.685180 -0.307710 
#    y -3.685180 -1.139210 -0.179300 
#    z -0.307710 -0.179300 4.580040 
# 
# 
# High freq. dielectric constant tensor:
#      x y z
#    x 2.011970 0.003700 0.002390 
#    y 0.003700 2.006560 0.015120 
#    z 0.002390 0.015120 2.002410 
# 
# From -- ./inp_files/488052.got.cif
#   From: 2010.06.25/outbox.cif.g09.slc.cpg/sg2_245_cif.got.tgz:488052.got - 2010.06.27 13:26:56.
