data_PCOD8019395
_publ_section_title
;
Structure prediction by ZEFSAII (Michael W. Deem and Ramdas Pophale) SiO2 
 PCOD8019395
Probable space group: P -1
;
_chemical_formula_sum "Si O2"
_cell_formula_units_Z 16
_cell_length_a 14.707871
_cell_length_b 9.142269
_cell_length_c 11.761482
_cell_angle_alpha 87.038355
_cell_angle_beta 150.479411
_cell_angle_gamma 81.456976
_cell_volume 715.514538
_symmetry_space_group_name_H-M "P -1"
_symmetry_group_IT_number 2
_symmetry_cell_setting 'triclinic'
loop_
_space_group_symop_operation_xyz
x,y,z
-x,-y,-z
loop_
_atom_site_type_symbol
_atom_site_label
_atom_site_fract_x
_atom_site_fract_y
_atom_site_fract_z
Si Si1 0.440979 0.416332 0.337805
Si Si2 0.470994 0.927520 0.589628
Si Si3 0.659514 0.460615 0.372638
Si Si4 0.971601 0.490132 0.194858
Si Si5 0.792025 0.873636 0.515546
Si Si6 0.145841 0.851679 0.540175
Si Si7 0.469007 0.228958 0.921396
Si Si8 0.775214 0.772777 0.123493
O O1 0.500000 0.500000 0.500000
O O2 0.574650 0.227332 0.486969
O O3 0.471304 0.494774 0.249324
O O4 0.205728 0.450984 0.093196
O O5 0.500000 0.000000 0.500000
O O6 0.282332 0.062230 0.441318
O O7 0.663804 0.872484 0.886259
O O8 0.722663 0.286495 0.396826
O O9 0.610647 0.589335 0.214048
O O10 0.840743 0.471371 0.645989
O O11 0.894212 0.587775 0.224757
O O12 0.039002 0.302866 0.295285
O O13 0.596395 0.880761 0.230447
O O14 0.900618 0.979519 0.575712
O O15 0.936434 0.839688 0.345618
O O16 0.288119 0.838793 0.805210
O O17 0.382861 0.221413 0.952848
#
# Coordination Sequence:
#
# PCOD8019395 Si02
#       8
#     2   2   2   2   2   2   2   2
#     4  11  24  45  70  94 125 175 227 267 322 394
#     4  11  25  47  69  93 136 175 214 279 332 379
#     4  10  22  41  67  94 131 174 217 263 324 389
#     4   9  23  43  65  97 133 167 221 269 322 389
#     4  11  23  43  64 100 137 169 215 274 334 377
#     4  11  21  40  65  98 132 174 213 266 323 391
#     4  11  23  40  69  96 139 172 213 271 324 394
#     4  10  23  45  68  95 133 177 221 257 331 390
#
# _framework density 22.361530999999999
#
# number of rings (size 3 to 8) (size 9 to 14) (size 15 to 20)
#    0.000    1.500    2.500    1.500    3.500    8.500 
#    4.500    1.250    0.000    0.000    0.000    0.000 
#    0.000    0.000    0.000    0.000    0.000    0.000 
#
# Total GULP energy -198363.215009 kJ/mol
# GULP energy per Si atom -12397.700938 kJ/mol
# Density = 2.231064 g / cm^3
# Si number density = 22.361531 Si / 1000 Ang^3
#
#
#
# Elastic Constant Matrix: (Units=GPa)
#
#
# Indices 1 2 3 4 5 6 
#
# 1 86.9169 44.8818 37.8984 -6.1396 -13.8924 6.3059
# 2 44.8818 154.7506 32.6217 -2.0429 -4.9046 1.3971
# 3 37.8984 32.6217 86.7266 10.8650 -1.3352 5.2285
# 4 -6.1396 -2.0429 10.8650 38.5464 1.7741 1.6285
# 5 -13.8924 -4.9046 -1.3352 1.7741 26.6869 1.1857
# 6 6.3059 1.3971 5.2285 1.6285 1.1857 31.7649
#
#
#
# Elastic Compliance Matrix: (Units=1/GPa)
#
#
# Indices 1 2 3 4 5 6 
#
# 1 0.018131 -0.003464 -0.006869 0.004379 0.008294 -0.002850
# 2 -0.003464 0.007762 -0.001484 0.000276 -0.000496 0.000595
# 3 -0.006869 -0.001484 0.015782 -0.005465 -0.002661 -0.000789
# 4 0.004379 0.000276 -0.005465 0.028245 0.000243 -0.001439
# 5 0.008294 -0.000496 -0.002661 0.000243 0.041671 -0.002755
# 6 -0.002850 0.000595 -0.000789 -0.001439 -0.002755 0.032327
#
#
# Mechanical properties :
#
#
# Convention : Reuss Voigt Hill
#
# Bulk Modulus (GPa) = 55.43084 62.13311 58.78197
# Shear Modulus (GPa) = 28.80760 33.59913 31.20336
#
# Velocity S-wave (km/s) = 3.59314 3.88047 3.73956
# Velocity P-wave (km/s) = 6.48510 6.92267 6.70745
#
# Compressibility (1/GPa) = 0.01804050
#
# Stress axis : x y z
#
# Youngs Moduli (GPa) = 55.15476 128.83206 63.36476
#
# Poissons Ratio (x) = 0.44628 0.43525
# Poissons Ratio (y) = 0.19106 0.09403
# Poissons Ratio (z) = 0.37886 0.19118
#
# Static dielectric constant tensor:
#      x y z
#    x 3.742540 -0.018040 0.145690 
#    y -0.018040 4.334170 0.162650 
#    z 0.145690 0.162650 4.087380 
# 
# 
# High freq. dielectric constant tensor:
#      x y z
#    x 1.859080 -0.004090 0.011970 
#    y -0.004090 1.907720 0.007250 
#    z 0.011970 0.007250 1.873450 
# 
# From -- ./inp_files/447558.got.cif
#   From: 2010.06.25/outbox.cif.g09.slc.cpg/sg2_224_cif.got.tgz:447558.got - 2010.06.27 13:26:56.
