data_PCOD8019309
_publ_section_title
;
Structure prediction by ZEFSAII (Michael W. Deem and Ramdas Pophale) SiO2 
 PCOD8019309
Probable space group: P -1
;
_chemical_formula_sum "Si O2"
_cell_formula_units_Z 16
_cell_length_a 22.167039
_cell_length_b 28.187255
_cell_length_c 11.522079
_cell_angle_alpha 31.750391
_cell_angle_beta 31.204758
_cell_angle_gamma 11.309518
_cell_volume 726.664685
_symmetry_space_group_name_H-M "P -1"
_symmetry_group_IT_number 2
_symmetry_cell_setting 'triclinic'
loop_
_space_group_symop_operation_xyz
x,y,z
-x,-y,-z
loop_
_atom_site_type_symbol
_atom_site_label
_atom_site_fract_x
_atom_site_fract_y
_atom_site_fract_z
Si Si1 0.391036 0.053278 0.733712
Si Si2 0.323019 0.297231 0.333977
Si Si3 0.379526 0.595449 0.368994
Si Si4 0.647880 0.233404 0.556920
Si Si5 0.671147 0.150563 0.433083
Si Si6 0.666150 0.550146 0.854215
Si Si7 0.276149 0.350888 0.043186
Si Si8 0.417935 0.138414 0.932568
O O1 0.627494 0.823582 0.746305
O O2 0.523879 0.060336 0.489796
O O3 0.401790 0.009212 0.938491
O O4 0.038981 0.295789 0.761084
O O5 0.490887 0.251560 0.232165
O O6 0.247369 0.400482 0.121318
O O7 0.000000 0.500000 0.500000
O O8 0.500000 0.500000 0.500000
O O9 0.410519 0.479629 0.486798
O O10 0.595621 0.510113 0.122489
O O11 0.024225 0.885571 0.356433
O O12 0.642202 0.227905 0.438713
O O13 0.549350 0.209087 0.824512
O O14 0.000000 0.000000 0.500000
O O15 0.480483 0.348098 0.243993
O O16 0.520767 0.160053 0.667545
O O17 0.957592 0.592016 0.993210
O O18 0.500000 0.000000 0.000000
#
# Coordination Sequence:
#
# PCOD8019309 Si02
#       8
#     2   2   2   2   2   2   2   2
#     4  11  22  41  66 102 139 180 224 290 355 424
#     4  10  22  41  66  95 136 181 223 281 350 417
#     4  12  24  46  74  98 137 191 241 290 355 415
#     4  12  26  47  74 105 142 188 242 296 351 421
#     4  12  26  46  71 104 146 181 241 299 348 431
#     4  11  24  46  66 101 141 183 236 289 356 423
#     4  12  24  44  70 103 139 181 235 289 357 422
#     4  12  23  43  72 101 139 182 233 289 356 424
#
# _framework density 22.018408000000001
#
# number of rings (size 3 to 8) (size 9 to 14) (size 15 to 20)
#    0.000    0.500    2.500    7.875    0.000    0.500 
#    2.250    0.000    0.000    0.000    0.000    0.000 
#    0.000    0.000    0.000    0.000    0.000    0.000 
#
# Total GULP energy -198429.904748 kJ/mol
# GULP energy per Si atom -12401.869047 kJ/mol
# Density = 2.196829 g / cm^3
# Si number density = 22.018408 Si / 1000 Ang^3
#
#
#
# Elastic Constant Matrix: (Units=GPa)
#
#
# Indices 1 2 3 4 5 6 
#
# 1 150.7278 47.3201 38.2502 -12.1105 14.3207 9.7204
# 2 47.3201 113.0573 10.4735 -10.8602 3.8030 -3.6099
# 3 38.2502 10.4735 86.0165 -9.8919 7.6827 -5.3090
# 4 -12.1105 -10.8602 -9.8919 33.5966 1.2614 -2.3773
# 5 14.3207 3.8030 7.6827 1.2614 49.0336 -8.9528
# 6 9.7204 -3.6099 -5.3090 -2.3773 -8.9528 41.5095
#
#
#
# Elastic Compliance Matrix: (Units=1/GPa)
#
#
# Indices 1 2 3 4 5 6 
#
# 1 0.009137 -0.003426 -0.003515 0.001007 -0.002493 -0.003367
# 2 -0.003426 0.010510 0.000617 0.002473 0.000394 0.002022
# 3 -0.003515 0.000617 0.013712 0.003186 -0.000768 0.002647
# 4 0.001007 0.002473 0.003186 0.032055 -0.001461 0.001907
# 5 -0.002493 0.000394 -0.000768 -0.001461 0.022204 0.005225
# 6 -0.003367 0.002022 0.002647 0.001907 0.005225 0.026630
#
#
# Mechanical properties :
#
#
# Convention : Reuss Voigt Hill
#
# Bulk Modulus (GPa) = 48.27980 60.20992 54.24486
# Shear Modulus (GPa) = 37.36952 41.74512 39.55732
#
# Velocity S-wave (km/s) = 4.12417 4.35894 4.24318
# Velocity P-wave (km/s) = 6.68229 7.26212 6.97823
#
# Compressibility (1/GPa) = 0.02071260
#
# Stress axis : x y z
#
# Youngs Moduli (GPa) = 109.44708 95.14324 72.92826
#
# Poissons Ratio (x) = 0.32592 0.25637
# Poissons Ratio (y) = 0.37492 -0.04503
# Poissons Ratio (z) = 0.38474 -0.05875
#
# Static dielectric constant tensor:
#      x y z
#    x 4.519110 0.494980 -0.423980 
#    y 0.494980 4.046860 -0.161930 
#    z -0.423980 -0.161930 4.073410 
# 
# 
# High freq. dielectric constant tensor:
#      x y z
#    x 1.882580 0.010270 0.002480 
#    y 0.010270 1.861850 -0.005570 
#    z 0.002480 -0.005570 1.875010 
# 
# From -- ./inp_files/475771.got.cif
#   From: 2010.06.25/outbox.cif.g09.slc.cpg/sg2_238_cif.got.tgz:475771.got - 2010.06.27 13:26:56.
