data_PCOD8019882
_publ_section_title
;
Structure prediction by ZEFSAII (Michael W. Deem and Ramdas Pophale) SiO2 
 PCOD8019882
Probable space group: P -1
;
_chemical_formula_sum "Si O2"
_cell_formula_units_Z 16
_cell_length_a 12.140645
_cell_length_b 7.970808
_cell_length_c 24.764959
_cell_angle_alpha 129.500656
_cell_angle_beta 154.946095
_cell_angle_gamma 53.388496
_cell_volume 781.591588
_symmetry_space_group_name_H-M "P -1"
_symmetry_group_IT_number 2
_symmetry_cell_setting 'triclinic'
loop_
_space_group_symop_operation_xyz
x,y,z
-x,-y,-z
loop_
_atom_site_type_symbol
_atom_site_label
_atom_site_fract_x
_atom_site_fract_y
_atom_site_fract_z
Si Si1 0.600635 0.392522 0.782288
Si Si2 0.404728 0.010005 0.677736
Si Si3 0.683507 0.806588 0.474579
Si Si4 0.022864 0.064494 0.611148
Si Si5 0.031801 0.229778 0.110943
Si Si6 0.109637 0.218675 0.021647
Si Si7 0.110368 0.525803 0.298394
Si Si8 0.372299 0.253174 0.443841
O O1 0.426977 0.265030 0.722276
O O2 0.467366 0.376276 0.661111
O O3 0.635435 0.653729 0.857599
O O4 0.890744 0.275008 0.890551
O O5 0.291371 0.008828 0.687736
O O6 0.214075 0.890063 0.527616
O O7 0.677473 0.873738 0.769907
O O8 0.760838 0.733095 0.553747
O O9 0.952030 0.860833 0.575287
O O10 0.476818 0.013350 0.424824
O O11 0.055219 0.273533 0.706557
O O12 0.001767 0.303993 0.050499
O O13 0.965873 0.436348 0.163023
O O14 0.832133 0.042163 0.999096
O O15 0.147928 0.330456 0.318190
O O16 0.391924 0.590367 0.417545
#
# Coordination Sequence:
#
# PCOD8019882 Si02
#       8
#     2   2   2   2   2   2   2   2
#     4   9  16  29  47  66  91 118 152 193 229 261
#     4   9  17  31  48  67  95 125 148 180 226 277
#     4   9  16  27  44  69  97 121 144 182 227 274
#     4   9  18  30  46  69  96 125 150 173 223 289
#     4  10  18  30  49  69  91 119 155 196 228 258
#     4   9  18  29  46  70  88 115 161 200 228 257
#     4  10  17  28  46  68  94 122 151 186 224 267
#     4   9  16  25  42  68  96 120 147 180 225 275
#
# _framework density 20.471049000000001
#
# number of rings (size 3 to 8) (size 9 to 14) (size 15 to 20)
#    0.000    2.750    0.000    4.500    0.000    0.000 
#    0.000    1.250    0.000   12.750    0.000    0.000 
#    0.000    0.000    0.000    0.000    0.000    0.000 
#
# Total GULP energy -198260.815071 kJ/mol
# GULP energy per Si atom -12391.300942 kJ/mol
# Density = 2.042446 g / cm^3
# Si number density = 20.471049 Si / 1000 Ang^3
#
#
#
# Elastic Constant Matrix: (Units=GPa)
#
#
# Indices 1 2 3 4 5 6 
#
# 1 100.8718 15.0004 23.7433 17.5244 -1.9040 3.0188
# 2 15.0004 32.6818 15.6317 16.2706 2.2803 4.0791
# 3 23.7433 15.6317 67.0067 28.3491 -7.4193 -8.1824
# 4 17.5244 16.2706 28.3491 28.1524 0.9398 -5.4044
# 5 -1.9040 2.2803 -7.4193 0.9398 28.5523 6.5455
# 6 3.0188 4.0791 -8.1824 -5.4044 6.5455 23.6394
#
#
#
# Elastic Compliance Matrix: (Units=1/GPa)
#
#
# Indices 1 2 3 4 5 6 
#
# 1 0.011602 -0.001532 -0.001812 -0.005214 0.001380 -0.003419
# 2 -0.001532 0.047874 0.000233 -0.029839 0.000546 -0.014958
# 3 -0.001812 0.000233 0.028078 -0.027240 0.007698 0.001551
# 4 -0.005214 -0.029839 -0.027240 0.087677 -0.012488 0.019889
# 5 0.001380 0.000546 0.007698 -0.012488 0.040137 -0.011575
# 6 -0.003419 -0.014958 0.001551 0.019889 -0.011575 0.053609
#
#
# Mechanical properties :
#
#
# Convention : Reuss Voigt Hill
#
# Bulk Modulus (GPa) = 12.29545 34.36790 23.33168
# Shear Modulus (GPa) = 16.53927 25.81448 21.17687
#
# Velocity S-wave (km/s) = 2.84550 3.55494 3.21982
# Velocity P-wave (km/s) = 4.10063 5.80303 5.02445
#
# Compressibility (1/GPa) = 0.08133088
#
# Stress axis : x y z
#
# Youngs Moduli (GPa) = 86.19039 20.88804 35.61493
#
# Poissons Ratio (x) = 0.03200 0.06455
# Poissons Ratio (y) = 0.13206 -0.00829
# Poissons Ratio (z) = 0.15622 -0.00486
#
# Static dielectric constant tensor:
#      x y z
#    x 3.807530 0.435710 -0.094180 
#    y 0.435710 3.446240 0.360020 
#    z -0.094180 0.360020 3.718630 
# 
# 
# High freq. dielectric constant tensor:
#      x y z
#    x 1.786230 0.037120 -0.016430 
#    y 0.037120 1.767540 0.026270 
#    z -0.016430 0.026270 1.790620 
# 
# From -- ./inp_files/267364.got.cif
#   From: 2010.06.25/outbox.cif.g09.slc.cpg/sg2_134_cif.got.tgz:267364.got - 2010.06.27 13:26:56.
