data_PCOD8019228
_publ_section_title
;
Structure prediction by ZEFSAII (Michael W. Deem and Ramdas Pophale) SiO2 
 PCOD8019228
Probable space group: P -1
;
_chemical_formula_sum "Si O2"
_cell_formula_units_Z 16
_cell_length_a 6.736452
_cell_length_b 13.865178
_cell_length_c 13.706237
_cell_angle_alpha 40.068527
_cell_angle_beta 119.145883
_cell_angle_gamma 123.020932
_cell_volume 685.117629
_symmetry_space_group_name_H-M "P -1"
_symmetry_group_IT_number 2
_symmetry_cell_setting 'triclinic'
loop_
_space_group_symop_operation_xyz
x,y,z
-x,-y,-z
loop_
_atom_site_type_symbol
_atom_site_label
_atom_site_fract_x
_atom_site_fract_y
_atom_site_fract_z
Si Si1 0.732235 0.082563 0.107567
Si Si2 0.705685 0.576819 0.417277
Si Si3 0.916079 0.725014 0.092503
Si Si4 0.185442 0.606472 0.578025
Si Si5 0.346820 0.162733 0.395142
Si Si6 0.247922 0.118887 0.906060
Si Si7 0.483013 0.322377 0.108463
Si Si8 0.837606 0.149420 0.302106
O O1 0.797969 0.071676 0.244651
O O2 0.821242 0.960088 0.156230
O O3 0.448922 0.054145 0.053579
O O4 0.884355 0.246726 0.966421
O O5 0.500000 0.500000 0.500000
O O6 0.729359 0.424044 0.484812
O O7 0.636220 0.695067 0.234601
O O8 0.954714 0.667172 0.463103
O O9 0.905414 0.557286 0.260034
O O10 0.965031 0.869585 0.074886
O O11 0.659650 0.722635 0.991017
O O12 0.399184 0.732402 0.585697
O O13 0.341683 0.198074 0.251928
O O14 0.118361 0.205114 0.353379
O O15 0.309170 0.980020 0.553598
O O16 0.743542 0.300922 0.169947
O O17 0.500000 0.500000 0.000000
#
# Coordination Sequence:
#
# PCOD8019228 Si02
#       8
#     2   2   2   2   2   2   2   2
#     4  11  22  41  67  96 132 173 222 279 337 406
#     4  10  22  41  65  98 135 171 222 275 338 407
#     4  11  21  42  65  97 133 169 225 279 334 405
#     4  10  23  42  65  99 133 175 222 278 336 409
#     4  11  25  47  68 100 140 182 231 279 353 401
#     4  10  23  40  64  98 130 176 218 271 347 399
#     4  12  24  45  69  98 133 181 229 281 345 399
#     4  11  26  45  69 100 140 181 234 287 334 417
#
# _framework density 23.353653000000001
#
# number of rings (size 3 to 8) (size 9 to 14) (size 15 to 20)
#    0.000    1.250    3.750    1.500    1.750    2.500 
#   11.250    0.000    0.000    0.000    0.000    0.000 
#    0.000    0.000    0.000    0.000    0.000    0.000 
#
# Total GULP energy -198293.576929 kJ/mol
# GULP energy per Si atom -12393.348558 kJ/mol
# Density = 2.330050 g / cm^3
# Si number density = 23.353653 Si / 1000 Ang^3
#
#
#
# Elastic Constant Matrix: (Units=GPa)
#
#
# Indices 1 2 3 4 5 6 
#
# 1 80.7605 1.0298 23.5183 0.7617 0.3269 -11.7048
# 2 1.0298 68.9373 10.4987 4.3971 12.3410 -8.4671
# 3 23.5183 10.4987 86.3072 8.1909 2.4707 -15.9065
# 4 0.7617 4.3971 8.1909 25.5068 -5.0558 5.6525
# 5 0.3269 12.3410 2.4707 -5.0558 45.6257 8.9162
# 6 -11.7048 -8.4671 -15.9065 5.6525 8.9162 25.1627
#
#
#
# Elastic Compliance Matrix: (Units=1/GPa)
#
#
# Indices 1 2 3 4 5 6 
#
# 1 0.014069 0.001374 -0.002644 -0.001546 -0.001731 0.006296
# 2 0.001374 0.017668 0.000475 -0.007295 -0.007831 0.011298
# 3 -0.002644 0.000475 0.015397 -0.008462 -0.004239 0.012066
# 4 -0.001546 -0.007295 -0.008462 0.051245 0.012932 -0.024617
# 5 -0.001731 -0.007831 -0.004239 0.012932 0.029518 -0.019484
# 6 0.006296 0.011298 0.012066 -0.024617 -0.019484 0.066533
#
#
# Mechanical properties :
#
#
# Convention : Reuss Voigt Hill
#
# Bulk Modulus (GPa) = 21.95638 34.01096 27.98367
# Shear Modulus (GPa) = 23.67404 32.65626 28.16515
#
# Velocity S-wave (km/s) = 3.18735 3.74349 3.47656
# Velocity P-wave (km/s) = 4.79246 5.76888 5.30319
#
# Compressibility (1/GPa) = 0.04554484
#
# Stress axis : x y z
#
# Youngs Moduli (GPa) = 71.07898 56.59968 64.94571
#
# Poissons Ratio (x) = -0.07779 0.17173
# Poissons Ratio (y) = -0.09769 -0.03086
# Poissons Ratio (z) = 0.18795 -0.02689
#
# Static dielectric constant tensor:
#      x y z
#    x 4.280500 -0.019480 -0.134020 
#    y -0.019480 4.112990 0.089180 
#    z -0.134020 0.089180 4.474290 
# 
# 
# High freq. dielectric constant tensor:
#      x y z
#    x 1.936290 0.000530 -0.005790 
#    y 0.000530 1.906220 0.006690 
#    z -0.005790 0.006690 1.933600 
# 
# From -- ./inp_files/447034.got.cif
#   From: 2010.06.25/outbox.cif.g09.slc.cpg/sg2_224_cif.got.tgz:447034.got - 2010.06.27 13:26:56.
