data_PCOD8019063
_publ_section_title
;
Structure prediction by ZEFSAII (Michael W. Deem and Ramdas Pophale) SiO2 
 PCOD8019063
Probable space group: P -1
;
_chemical_formula_sum "Si O2"
_cell_formula_units_Z 14
_cell_length_a 14.094108
_cell_length_b 24.219563
_cell_length_c 15.506243
_cell_angle_alpha 20.862732
_cell_angle_beta 152.211677
_cell_angle_gamma 157.799424
_cell_volume 704.732623
_symmetry_space_group_name_H-M "P -1"
_symmetry_group_IT_number 2
_symmetry_cell_setting 'triclinic'
loop_
_space_group_symop_operation_xyz
x,y,z
-x,-y,-z
loop_
_atom_site_type_symbol
_atom_site_label
_atom_site_fract_x
_atom_site_fract_y
_atom_site_fract_z
Si Si1 0.537377 0.771008 0.138715
Si Si2 0.040053 0.100175 0.141931
Si Si3 0.382116 0.010044 0.604956
Si Si4 0.454538 0.420389 0.885161
Si Si5 0.736957 0.602175 0.423903
Si Si6 0.321461 0.805667 0.586749
Si Si7 0.794953 0.834703 0.639676
O O1 0.654141 0.723213 0.225911
O O2 0.394459 0.604897 0.336295
O O3 0.754685 0.972106 0.065760
O O4 0.345367 0.810966 0.885686
O O5 0.140813 0.965784 0.420155
O O6 0.058787 0.174626 0.146377
O O7 0.216765 0.285420 0.953422
O O8 0.631950 0.152317 0.539771
O O9 0.394677 0.116250 0.548741
O O10 0.348048 0.431620 0.693160
O O11 0.634368 0.633530 0.756149
O O12 0.624071 0.344516 0.120197
O O13 0.035374 0.720549 0.501081
O O14 0.500000 0.000000 0.500000
O O15 0.000000 0.000000 0.500000
#
# Coordination Sequence:
#
# PCOD8019063 Si02
#       7
#     2   2   2   2   2   2   2
#     4  11  22  42  59  94 128 162 206 264 308 371
#     4   9  21  39  65  86 124 161 206 254 308 363
#     4   9  22  39  63  89 121 163 210 248 311 363
#     4  11  22  42  63  92 128 162 210 257 305 372
#     4  11  25  37  64  93 126 164 209 254 319 365
#     4  11  23  41  65  95 123 166 207 254 314 371
#     4  10  22  41  64  93 125 166 208 255 314 364
#
# _framework density 19.865690000000001
#
# number of rings (size 3 to 8) (size 9 to 14) (size 15 to 20)
#    0.857    0.857    0.000    4.714    2.000    1.714 
#    2.571    6.429    0.000    0.000    0.000    0.000 
#    0.000    0.000    0.000    0.000    0.000    0.000 
#
# Total GULP energy -173552.590733 kJ/mol
# GULP energy per Si atom -12396.613624 kJ/mol
# Density = 1.982047 g / cm^3
# Si number density = 19.865690 Si / 1000 Ang^3
#
#
#
# Elastic Constant Matrix: (Units=GPa)
#
#
# Indices 1 2 3 4 5 6 
#
# 1 130.4432 61.0402 52.6164 -16.7749 -15.4174 -0.0473
# 2 61.0402 107.1672 43.6581 -24.6417 -6.2659 -9.6068
# 3 52.6164 43.6581 101.8143 -13.8645 2.2988 8.4378
# 4 -16.7749 -24.6417 -13.8645 27.6044 -3.0580 1.3235
# 5 -15.4174 -6.2659 2.2988 -3.0580 35.5130 0.5092
# 6 -0.0473 -9.6068 8.4378 1.3235 0.5092 23.6237
#
#
#
# Elastic Compliance Matrix: (Units=1/GPa)
#
#
# Indices 1 2 3 4 5 6 
#
# 1 0.012374 -0.004679 -0.004206 0.001810 0.004983 -0.000585
# 2 -0.004679 0.016736 -0.004090 0.009888 0.001928 0.007662
# 3 -0.004206 -0.004090 0.014535 0.001057 -0.003299 -0.006851
# 4 0.001810 0.009888 0.001057 0.047366 0.006528 0.000853
# 5 0.004983 0.001928 -0.003299 0.006528 0.031424 0.000929
# 6 -0.000585 0.007662 -0.006851 0.000853 0.000929 0.047824
#
#
# Mechanical properties :
#
#
# Convention : Reuss Voigt Hill
#
# Bulk Modulus (GPa) = 56.51455 72.67267 64.59361
# Shear Modulus (GPa) = 24.73927 29.48890 27.11409
#
# Velocity S-wave (km/s) = 3.53275 3.85699 3.69842
# Velocity P-wave (km/s) = 6.71941 7.51642 7.12906
#
# Compressibility (1/GPa) = 0.01769456
#
# Stress axis : x y z
#
# Youngs Moduli (GPa) = 80.81623 59.75166 68.79840
#
# Poissons Ratio (x) = 0.27961 0.28934
# Poissons Ratio (y) = 0.37818 0.28139
# Poissons Ratio (z) = 0.33988 0.24439
#
# Static dielectric constant tensor:
#      x y z
#    x 3.842290 0.052790 -0.126260 
#    y 0.052790 3.447300 0.037440 
#    z -0.126260 0.037440 3.684330 
# 
# 
# High freq. dielectric constant tensor:
#      x y z
#    x 1.785600 -0.002470 -0.011870 
#    y -0.002470 1.762000 0.001980 
#    z -0.011870 0.001980 1.778960 
# 
# From -- ./inp_files/431320.got.cif
#   From: 2010.06.25/outbox.cif.g09.slc.cpg/sg2_216_cif.got.tgz:431320.got - 2010.06.27 13:26:56.
