data_PCOD8019062
_publ_section_title
;
Structure prediction by ZEFSAII (Michael W. Deem and Ramdas Pophale) SiO2 
 PCOD8019062
Probable space group: P -1
;
_chemical_formula_sum "Si O2"
_cell_formula_units_Z 16
_cell_length_a 31.487221
_cell_length_b 8.356561
_cell_length_c 4.724819
_cell_angle_alpha 84.945016
_cell_angle_beta 97.337409
_cell_angle_gamma 149.684164
_cell_volume 621.786744
_symmetry_space_group_name_H-M "P -1"
_symmetry_group_IT_number 2
_symmetry_cell_setting 'triclinic'
loop_
_space_group_symop_operation_xyz
x,y,z
-x,-y,-z
loop_
_atom_site_type_symbol
_atom_site_label
_atom_site_fract_x
_atom_site_fract_y
_atom_site_fract_z
Si Si1 0.258734 0.221472 0.345867
Si Si2 0.354213 0.774554 0.009411
Si Si3 0.191101 0.735009 0.997538
Si Si4 0.491785 0.822370 0.220808
Si Si5 0.794901 0.646729 0.426009
Si Si6 0.902109 0.707469 0.510782
Si Si7 0.667167 0.011010 0.717575
Si Si8 0.614133 0.595860 0.302759
O O1 0.196583 0.149300 0.454674
O O2 0.299147 0.229378 0.617194
O O3 0.202011 0.949212 0.102708
O O4 0.342777 0.576568 0.221355
O O5 0.258332 0.504721 0.881385
O O6 0.393126 0.054940 0.165499
O O7 0.413552 0.945533 0.755692
O O8 0.122632 0.413623 0.171090
O O9 0.287553 0.973862 0.036297
O O10 0.153270 0.600903 0.671265
O O11 0.419543 0.483417 0.037810
O O12 0.462035 0.744234 0.533194
O O13 0.500000 0.000000 0.000000
O O14 0.881746 0.830886 0.402567
O O15 0.747171 0.372438 0.634065
O O16 0.000000 0.000000 0.500000
O O17 0.621648 0.790190 0.438488
#
# Coordination Sequence:
#
# PCOD8019062 Si02
#       8
#     2   2   2   2   2   2   2   2
#     4  10  23  39  66  91 123 170 209 261 298 367
#     4  11  22  38  63  84 127 164 209 259 315 362
#     4  10  22  42  67  97 123 163 213 245 302 376
#     4  12  25  39  58  86 124 165 209 263 321 360
#     4  10  22  41  64  93 124 163 211 250 314 375
#     4  11  23  44  70  95 129 163 197 252 311 373
#     4   9  22  39  61  89 119 164 211 262 300 367
#     4  11  25  41  61  87 122 164 217 261 310 359
#
# _framework density 25.732299000000001
#
# number of rings (size 3 to 8) (size 9 to 14) (size 15 to 20)
#    0.000    1.500    2.500    1.500    7.000    3.000 
#    0.000    1.250    0.000    0.000    0.000    0.000 
#    0.000    0.000    0.000    0.000    0.000    0.000 
#
# Total GULP energy -198300.181353 kJ/mol
# GULP energy per Si atom -12393.761335 kJ/mol
# Density = 2.567373 g / cm^3
# Si number density = 25.732299 Si / 1000 Ang^3
#
#
#
# Elastic Constant Matrix: (Units=GPa)
#
#
# Indices 1 2 3 4 5 6 
#
# 1 87.3527 2.6729 -4.6713 1.2204 -8.9411 -11.3997
# 2 2.6729 53.1226 -18.2707 8.9615 0.1315 15.5118
# 3 -4.6713 -18.2707 78.5915 4.7468 -3.6219 -1.9409
# 4 1.2204 8.9615 4.7468 22.8450 -3.8767 -13.8109
# 5 -8.9411 0.1315 -3.6219 -3.8767 32.4120 7.2910
# 6 -11.3997 15.5118 -1.9409 -13.8109 7.2910 39.1064
#
#
#
# Elastic Compliance Matrix: (Units=1/GPa)
#
#
# Indices 1 2 3 4 5 6 
#
# 1 0.012551 -0.003236 -0.000020 0.004758 0.002665 0.006125
# 2 -0.003236 0.034614 0.009152 -0.030243 0.002060 -0.025284
# 3 -0.000020 0.009152 0.015415 -0.010699 0.001979 -0.007018
# 4 0.004758 -0.030243 -0.010699 0.083174 0.000720 0.042092
# 5 0.002665 0.002060 0.001979 0.000720 0.033209 -0.005879
# 6 0.006125 -0.025284 -0.007018 0.042092 -0.005879 0.052999
#
#
# Mechanical properties :
#
#
# Convention : Reuss Voigt Hill
#
# Bulk Modulus (GPa) = 13.44577 19.83651 16.64114
# Shear Modulus (GPa) = 20.41146 34.82842 27.61994
#
# Velocity S-wave (km/s) = 2.81948 3.68297 3.27977
# Velocity P-wave (km/s) = 3.97943 5.08048 4.56328
#
# Compressibility (1/GPa) = 0.07437285
#
# Stress axis : x y z
#
# Youngs Moduli (GPa) = 79.67244 28.88980 64.87381
#
# Poissons Ratio (x) = 0.09349 0.00127
# Poissons Ratio (y) = 0.25782 -0.59372
# Poissons Ratio (z) = 0.00156 -0.26439
#
# Static dielectric constant tensor:
#      x y z
#    x 5.509040 -0.175680 -0.272700 
#    y -0.175680 5.001480 0.342850 
#    z -0.272700 0.342850 5.074840 
# 
# 
# High freq. dielectric constant tensor:
#      x y z
#    x 2.029970 -0.024700 -0.017160 
#    y -0.024700 2.003670 -0.020260 
#    z -0.017160 -0.020260 2.041500 
# 
# From -- ./inp_files/43386.got.cif
#   From: 2010.06.25/outbox.cif.g09.slc.cpg/sg2_22_cif.got.tgz:43386.got - 2010.06.27 13:26:56.
