data_PCOD8019007
_publ_section_title
;
Structure prediction by ZEFSAII (Michael W. Deem and Ramdas Pophale) SiO2 
 PCOD8019007
Probable space group: P -1
;
_chemical_formula_sum "Si O2"
_cell_formula_units_Z 14
_cell_length_a 12.054021
_cell_length_b 14.404637
_cell_length_c 14.203965
_cell_angle_alpha 159.455072
_cell_angle_beta 50.734399
_cell_angle_gamma 131.896816
_cell_volume 643.978710
_symmetry_space_group_name_H-M "P -1"
_symmetry_group_IT_number 2
_symmetry_cell_setting 'triclinic'
loop_
_space_group_symop_operation_xyz
x,y,z
-x,-y,-z
loop_
_atom_site_type_symbol
_atom_site_label
_atom_site_fract_x
_atom_site_fract_y
_atom_site_fract_z
Si Si1 0.716383 0.643712 0.793174
Si Si2 0.574841 0.761410 0.474528
Si Si3 0.881361 0.295978 0.063744
Si Si4 0.698806 0.191032 0.238857
Si Si5 0.347774 0.985672 0.517122
Si Si6 0.187079 0.378920 0.071179
Si Si7 0.872896 0.837723 0.484539
O O1 0.536059 0.510047 0.773251
O O2 0.783019 0.442463 0.501355
O O3 0.795718 0.688598 0.893526
O O4 0.752922 0.931201 0.993288
O O5 0.480543 0.865951 0.705959
O O6 0.627000 0.999048 0.593876
O O7 0.719495 0.694129 0.376114
O O8 0.739695 0.266986 0.180585
O O9 0.925509 0.593917 0.273413
O O10 0.016468 0.256944 0.017360
O O11 0.839591 0.053059 0.780109
O O12 0.500000 0.000000 0.500000
O O13 0.228887 0.703948 0.340363
O O14 0.289530 0.242549 0.823564
O O15 0.000000 0.000000 0.500000
#
# Coordination Sequence:
#
# PCOD8019007 Si02
#       7
#     2   2   2   2   2   2   2
#     4  10  22  41  64 101 127 170 216 272 331 374
#     4  10  25  41  69  94 135 167 224 273 322 382
#     4  12  27  46  67  97 133 177 218 263 325 396
#     4  10  24  43  65 100 127 173 222 264 332 379
#     4  12  23  40  68 102 133 167 218 270 331 386
#     4  12  24  41  67  99 136 171 217 271 329 389
#     4  12  27  47  68  96 132 173 219 268 329 387
#
# _framework density 21.739847999999999
#
# number of rings (size 3 to 8) (size 9 to 14) (size 15 to 20)
#    0.857    0.000    1.429    6.000    4.000    2.286 
#    0.000    0.000    0.000    0.000    0.000    0.000 
#    0.000    0.000    0.000    0.000    0.000    0.000 
#
# Total GULP energy -173618.037507 kJ/mol
# GULP energy per Si atom -12401.288393 kJ/mol
# Density = 2.169037 g / cm^3
# Si number density = 21.739848 Si / 1000 Ang^3
#
#
#
# Elastic Constant Matrix: (Units=GPa)
#
#
# Indices 1 2 3 4 5 6 
#
# 1 120.1347 41.3021 19.3092 -4.7470 -6.1586 -3.9769
# 2 41.3021 88.1654 26.3783 -9.3630 -5.8076 -20.5255
# 3 19.3092 26.3783 107.4833 5.9475 -4.5415 -8.2336
# 4 -4.7470 -9.3630 5.9475 41.7903 -7.5378 -5.8368
# 5 -6.1586 -5.8076 -4.5415 -7.5378 25.8044 -0.4085
# 6 -3.9769 -20.5255 -8.2336 -5.8368 -0.4085 21.1728
#
#
#
# Elastic Compliance Matrix: (Units=1/GPa)
#
#
# Indices 1 2 3 4 5 6 
#
# 1 0.010208 -0.005374 -0.000738 -0.000274 0.000959 -0.003636
# 2 -0.005374 0.020673 -0.002770 0.008271 0.005621 0.020343
# 3 -0.000738 -0.002770 0.010294 -0.002002 0.000438 0.000636
# 4 -0.000274 0.008271 -0.002002 0.030120 0.010490 0.015694
# 5 0.000959 0.005621 0.000438 0.010490 0.043539 0.009531
# 6 -0.003636 0.020343 0.000636 0.015694 0.009531 0.071026
#
#
# Mechanical properties :
#
#
# Convention : Reuss Voigt Hill
#
# Bulk Modulus (GPa) = 42.71323 54.41808 48.56565
# Shear Modulus (GPa) = 23.64879 33.00642 28.32760
#
# Velocity S-wave (km/s) = 3.30177 3.90069 3.61366
# Velocity P-wave (km/s) = 5.85027 6.73595 6.30867
#
# Compressibility (1/GPa) = 0.02341195
#
# Stress axis : x y z
#
# Youngs Moduli (GPa) = 97.96193 48.37230 97.14311
#
# Poissons Ratio (x) = 0.25994 0.07168
# Poissons Ratio (y) = 0.52642 0.26908
# Poissons Ratio (z) = 0.07228 0.13399
#
# Static dielectric constant tensor:
#      x y z
#    x 3.892940 0.004000 0.106220 
#    y 0.004000 4.412510 0.484080 
#    z 0.106220 0.484080 4.369970 
# 
# 
# High freq. dielectric constant tensor:
#      x y z
#    x 1.849900 -0.007110 -0.001610 
#    y -0.007110 1.858620 0.001080 
#    z -0.001610 0.001080 1.857780 
# 
# From -- ./inp_files/91944.got.cif
#   From: 2010.06.25/outbox.cif.g09.slc.cpg/sg2_46_cif.got.tgz:91944.got - 2010.06.27 13:26:56.
