data_PCOD8019292
_publ_section_title
;
Structure prediction by ZEFSAII (Michael W. Deem and Ramdas Pophale) SiO2 
 PCOD8019292
Probable space group: P -1
;
_chemical_formula_sum "Si O2"
_cell_formula_units_Z 14
_cell_length_a 11.788636
_cell_length_b 12.232645
_cell_length_c 6.094122
_cell_angle_alpha 71.255706
_cell_angle_beta 101.952755
_cell_angle_gamma 130.348221
_cell_volume 634.238778
_symmetry_space_group_name_H-M "P -1"
_symmetry_group_IT_number 2
_symmetry_cell_setting 'triclinic'
loop_
_space_group_symop_operation_xyz
x,y,z
-x,-y,-z
loop_
_atom_site_type_symbol
_atom_site_label
_atom_site_fract_x
_atom_site_fract_y
_atom_site_fract_z
Si Si1 0.684811 0.644889 0.260876
Si Si2 0.749846 0.129675 0.484878
Si Si3 0.926402 0.460045 0.246441
Si Si4 0.813277 0.615666 0.944513
Si Si5 0.457635 0.901864 0.252940
Si Si6 0.019102 0.144147 0.477133
Si Si7 0.574611 0.381009 0.670017
O O1 0.839855 0.756255 0.374823
O O2 0.589448 0.472500 0.404816
O O3 0.583198 0.694188 0.225142
O O4 0.719265 0.654344 0.010851
O O5 0.809782 0.282939 0.293439
O O6 0.692377 0.129842 0.701289
O O7 0.873332 0.105578 0.562772
O O8 0.601867 0.987933 0.406849
O O9 0.000000 0.500000 0.500000
O O10 0.859569 0.546510 0.181565
O O11 0.000000 0.500000 0.000000
O O12 0.954824 0.765259 0.791739
O O13 0.714375 0.494513 0.801889
O O14 0.410653 0.742117 0.299944
O O15 0.500000 0.000000 0.000000
O O16 0.000000 0.000000 0.500000
#
# Coordination Sequence:
#
# PCOD8019292 Si02
#       7
#     2   2   2   2   2   2   2
#     4  10  22  41  66  94 130 176 228 294 344 420
#     4  11  25  43  64  99 139 181 233 292 355 424
#     4  12  26  44  75 106 144 188 238 301 359 427
#     4  11  23  40  67  99 132 182 233 292 357 417
#     4  11  25  41  65  94 135 182 227 291 354 423
#     4  11  24  42  65  97 137 177 231 285 360 427
#     4  10  22  42  65  95 132 175 236 283 350 421
#
# _framework density 22.073706000000001
#
# number of rings (size 3 to 8) (size 9 to 14) (size 15 to 20)
#    0.000    1.143    1.429    3.857    6.000    4.000 
#    0.000    0.000    0.000    0.000    0.000    0.000 
#    0.000    0.000    0.000    0.000    0.000    0.000 
#
# Total GULP energy -173440.603428 kJ/mol
# GULP energy per Si atom -12388.614531 kJ/mol
# Density = 2.202347 g / cm^3
# Si number density = 22.073706 Si / 1000 Ang^3
#
#
#
# Elastic Constant Matrix: (Units=GPa)
#
#
# Indices 1 2 3 4 5 6 
#
# 1 175.0891 61.4088 43.7475 -11.3065 -19.4297 -13.9983
# 2 61.4088 125.5567 35.7534 -10.4214 -10.7220 -17.3307
# 3 43.7475 35.7534 99.5482 -2.7433 -17.3668 -8.4243
# 4 -11.3065 -10.4214 -2.7433 23.4933 -3.7217 -4.4028
# 5 -19.4297 -10.7220 -17.3668 -3.7217 42.2936 -0.1901
# 6 -13.9983 -17.3307 -8.4243 -4.4028 -0.1901 35.2767
#
#
#
# Elastic Compliance Matrix: (Units=1/GPa)
#
#
# Indices 1 2 3 4 5 6 
#
# 1 0.007654 -0.002527 -0.001802 0.003065 0.002414 0.001761
# 2 -0.002527 0.010862 -0.002102 0.004357 0.001133 0.004382
# 3 -0.001802 -0.002102 0.012372 0.000483 0.003768 0.001287
# 4 0.003065 0.004357 0.000483 0.048951 0.007062 0.009620
# 5 0.002414 0.001133 0.003768 0.007062 0.027224 0.003442
# 6 0.001761 0.004382 0.001287 0.009620 0.003442 0.032725
#
#
# Mechanical properties :
#
#
# Convention : Reuss Voigt Hill
#
# Bulk Modulus (GPa) = 55.47371 75.77927 65.62649
# Shear Modulus (GPa) = 31.51395 37.49835 34.50615
#
# Velocity S-wave (km/s) = 3.78255 4.12610 3.95805
# Velocity P-wave (km/s) = 6.65301 7.55673 7.11923
#
# Compressibility (1/GPa) = 0.01802656
#
# Stress axis : x y z
#
# Youngs Moduli (GPa) = 130.64364 92.06140 80.82936
#
# Poissons Ratio (x) = 0.23265 0.14562
# Poissons Ratio (y) = 0.33015 0.16992
# Poissons Ratio (z) = 0.23537 0.19354
#
# Static dielectric constant tensor:
#      x y z
#    x 4.483380 0.210950 -0.021520 
#    y 0.210950 4.573050 0.185380 
#    z -0.021520 0.185380 4.467090 
# 
# 
# High freq. dielectric constant tensor:
#      x y z
#    x 1.883870 -0.003780 -0.014730 
#    y -0.003780 1.876090 -0.000500 
#    z -0.014730 -0.000500 1.865860 
# 
# From -- ./inp_files/67575.got.cif
#   From: 2010.06.25/outbox.cif.g09.slc.cpg/sg2_34_cif.got.tgz:67575.got - 2010.06.27 13:26:56.
