data_PCOD8019744
_publ_section_title
;
Structure prediction by ZEFSAII (Michael W. Deem and Ramdas Pophale) SiO2 
 PCOD8019744
Probable space group: P -1
;
_chemical_formula_sum "Si O2"
_cell_formula_units_Z 16
_cell_length_a 22.337518
_cell_length_b 8.571153
_cell_length_c 9.519355
_cell_angle_alpha 48.469780
_cell_angle_beta 48.350780
_cell_angle_gamma 31.784431
_cell_volume 694.685898
_symmetry_space_group_name_H-M "P -1"
_symmetry_group_IT_number 2
_symmetry_cell_setting 'triclinic'
loop_
_space_group_symop_operation_xyz
x,y,z
-x,-y,-z
loop_
_atom_site_type_symbol
_atom_site_label
_atom_site_fract_x
_atom_site_fract_y
_atom_site_fract_z
Si Si1 0.280950 0.926247 0.897839
Si Si2 0.962122 0.091170 0.306966
Si Si3 0.201470 0.411471 0.269581
Si Si4 0.860751 0.824171 0.300620
Si Si5 0.414793 0.262482 0.089966
Si Si6 0.077904 0.183247 0.266177
Si Si7 0.794263 0.410267 0.133123
Si Si8 0.428335 0.031026 0.715285
O O1 0.205761 0.141314 0.752370
O O2 0.366930 0.941894 0.806140
O O3 0.358322 0.583556 0.929599
O O4 0.196112 0.031566 0.097694
O O5 0.891616 0.303675 0.154467
O O6 0.983035 0.256314 0.267082
O O7 0.888253 0.052152 0.526825
O O8 0.088585 0.763850 0.266202
O O9 0.183883 0.207735 0.469603
O O10 0.309955 0.297628 0.257313
O O11 0.223528 0.381770 0.085160
O O12 0.002047 0.519667 0.248089
O O13 0.836732 0.113284 0.178341
O O14 0.479833 0.197753 0.169892
O O15 0.500000 0.000000 0.000000
O O16 0.669561 0.622973 0.278962
O O17 0.500000 0.000000 0.500000
#
# Coordination Sequence:
#
# PCOD8019744 Si02
#       8
#     2   2   2   2   2   2   2   2
#     4  12  24  45  73 104 141 193 242 296 361 426
#     4  10  22  41  72 104 146 184 233 296 362 430
#     4  11  23  44  72 101 145 187 237 294 359 428
#     4  11  24  43  72 108 147 188 235 290 367 435
#     4  12  24  49  72 102 142 190 244 296 356 419
#     4  10  22  41  71 108 143 187 231 295 365 435
#     4  12  25  46  70 106 144 189 240 297 360 426
#     4  12  29  47  72 103 142 192 249 300 352 426
#
# _framework density 23.031993
#
# number of rings (size 3 to 8) (size 9 to 14) (size 15 to 20)
#    0.000    0.750    3.750    2.625    1.750    6.000 
#    0.000    2.500    0.000    0.000    0.000    0.000 
#    0.000    0.000    0.000    0.000    0.000    0.000 
#
# Total GULP energy -198435.983131 kJ/mol
# GULP energy per Si atom -12402.248946 kJ/mol
# Density = 2.297957 g / cm^3
# Si number density = 23.031993 Si / 1000 Ang^3
#
#
#
# Elastic Constant Matrix: (Units=GPa)
#
#
# Indices 1 2 3 4 5 6 
#
# 1 65.3228 19.6458 45.9866 -0.6036 6.1560 -10.9278
# 2 19.6458 101.7316 50.3150 16.1547 -11.3562 -0.8611
# 3 45.9866 50.3150 151.6323 20.2708 -7.4266 -2.4204
# 4 -0.6036 16.1547 20.2708 34.9824 -5.1768 0.2458
# 5 6.1560 -11.3562 -7.4266 -5.1768 32.6084 0.1672
# 6 -10.9278 -0.8611 -2.4204 0.2458 0.1672 36.2676
#
#
#
# Elastic Compliance Matrix: (Units=1/GPa)
#
#
# Indices 1 2 3 4 5 6 
#
# 1 0.022455 -0.002269 -0.006846 0.004484 -0.005909 0.006252
# 2 -0.002269 0.012663 -0.002852 -0.003697 0.003605 -0.000565
# 3 -0.006846 -0.002852 0.010287 -0.004465 0.001941 -0.001423
# 4 0.004484 -0.003697 -0.004465 0.033267 0.002127 0.000730
# 5 -0.005909 0.003605 0.001941 0.002127 0.033826 -0.001736
# 6 0.006252 -0.000565 -0.001423 0.000730 -0.001736 0.029351
#
#
# Mechanical properties :
#
#
# Convention : Reuss Voigt Hill
#
# Bulk Modulus (GPa) = 46.57600 61.17573 53.87586
# Shear Modulus (GPa) = 28.91166 34.28764 31.59965
#
# Velocity S-wave (km/s) = 3.54684 3.86255 3.70806
# Velocity P-wave (km/s) = 6.08602 6.81991 6.46339
#
# Compressibility (1/GPa) = 0.02147029
#
# Stress axis : x y z
#
# Youngs Moduli (GPa) = 44.53401 78.96876 97.21269
#
# Poissons Ratio (x) = 0.17918 0.66553
# Poissons Ratio (y) = 0.10105 0.27725
# Poissons Ratio (z) = 0.30489 0.22522
#
# Static dielectric constant tensor:
#      x y z
#    x 4.130620 -0.057610 0.180350 
#    y -0.057610 4.251950 0.052870 
#    z 0.180350 0.052870 4.530000 
# 
# 
# High freq. dielectric constant tensor:
#      x y z
#    x 1.913890 -0.003130 0.008100 
#    y -0.003130 1.916750 0.002380 
#    z 0.008100 0.002380 1.913210 
# 
# From -- ./inp_files/352027.got.cif
#   From: 2010.06.25/outbox.cif.g09.slc.cpg/sg2_177_cif.got.tgz:352027.got - 2010.06.27 13:26:56.
