data_PCOD8019729
_publ_section_title
;
Structure prediction by ZEFSAII (Michael W. Deem and Ramdas Pophale) SiO2 
 PCOD8019729
Probable space group: P -1
;
_chemical_formula_sum "Si O2"
_cell_formula_units_Z 16
_cell_length_a 12.078180
_cell_length_b 9.209977
_cell_length_c 8.829840
_cell_angle_alpha 101.573601
_cell_angle_beta 95.908353
_cell_angle_gamma 125.784716
_cell_volume 750.025994
_symmetry_space_group_name_H-M "P -1"
_symmetry_group_IT_number 2
_symmetry_cell_setting 'triclinic'
loop_
_space_group_symop_operation_xyz
x,y,z
-x,-y,-z
loop_
_atom_site_type_symbol
_atom_site_label
_atom_site_fract_x
_atom_site_fract_y
_atom_site_fract_z
Si Si1 0.892963 0.794854 0.014934
Si Si2 0.850620 0.720291 0.669341
Si Si3 0.083213 0.722915 0.560465
Si Si4 0.397813 0.042161 0.176037
Si Si5 0.627494 0.994727 0.189486
Si Si6 0.631510 0.669833 0.146634
Si Si7 0.589919 0.469623 0.398110
Si Si8 0.124995 0.906612 0.280935
O O1 0.821681 0.658902 0.830136
O O2 0.773130 0.777601 0.090009
O O3 0.983647 0.760633 0.128537
O O4 0.000000 0.000000 0.000000
O O5 0.727453 0.529846 0.523516
O O6 0.002605 0.779251 0.660253
O O7 0.845574 0.891954 0.663635
O O8 0.100235 0.809857 0.417120
O O9 0.000000 0.500000 0.500000
O O10 0.234157 0.814172 0.679077
O O11 0.495400 0.260131 0.278954
O O12 0.486813 0.968598 0.208417
O O13 0.256030 0.927874 0.230290
O O14 0.353885 0.008918 0.988147
O O15 0.604391 0.815672 0.222000
O O16 0.654701 0.604503 0.291178
O O17 0.500000 0.500000 0.000000
O O18 0.500000 0.500000 0.500000
#
# Coordination Sequence:
#
# PCOD8019729 Si02
#       8
#     2   2   2   2   2   2   2   2
#     4  10  22  41  71 100 135 173 230 285 338 403
#     4  11  21  41  70  96 133 175 224 285 339 401
#     4  12  26  45  65 100 138 179 229 284 348 413
#     4  11  24  45  66  97 138 186 220 281 347 406
#     4  11  24  45  68  95 142 176 224 283 343 410
#     4  12  23  42  70 106 136 179 235 279 344 406
#     4  12  23  41  66 104 140 173 233 285 334 410
#     4  11  22  44  68  96 133 178 231 276 347 406
#
# _framework density 21.332592999999999
#
# number of rings (size 3 to 8) (size 9 to 14) (size 15 to 20)
#    0.000    0.750    2.500    7.125    0.000    0.500 
#    4.500    1.250    0.000    0.000    0.000    0.000 
#    0.000    0.000    0.000    0.000    0.000    0.000 
#
# Total GULP energy -198406.595496 kJ/mol
# GULP energy per Si atom -12400.412218 kJ/mol
# Density = 2.128404 g / cm^3
# Si number density = 21.332593 Si / 1000 Ang^3
#
#
#
# Elastic Constant Matrix: (Units=GPa)
#
#
# Indices 1 2 3 4 5 6 
#
# 1 133.1311 37.8936 55.8716 -1.1579 -6.3046 10.4546
# 2 37.8936 83.7088 49.1050 11.1573 -2.2351 2.5540
# 3 55.8716 49.1050 150.0142 0.8191 18.6284 -3.0387
# 4 -1.1579 11.1573 0.8191 33.3722 13.2584 -3.7468
# 5 -6.3046 -2.2351 18.6284 13.2584 46.9968 5.3690
# 6 10.4546 2.5540 -3.0387 -3.7468 5.3690 23.0459
#
#
#
# Elastic Compliance Matrix: (Units=1/GPa)
#
#
# Indices 1 2 3 4 5 6 
#
# 1 0.010305 -0.002047 -0.003748 -0.001025 0.003743 -0.005981
# 2 -0.002047 0.017741 -0.005817 -0.008699 0.005852 -0.004582
# 3 -0.003748 -0.005817 0.010974 0.005160 -0.007308 0.006334
# 4 -0.001025 -0.008699 0.005160 0.040170 -0.015324 0.012210
# 5 0.003743 0.005852 -0.007308 -0.015324 0.030760 -0.012968
# 6 -0.005981 -0.004582 0.006334 0.012210 -0.012968 0.052454
#
#
# Mechanical properties :
#
#
# Convention : Reuss Voigt Hill
#
# Bulk Modulus (GPa) = 63.31075 72.51051 67.91063
# Shear Modulus (GPa) = 26.19270 35.61522 30.90396
#
# Velocity S-wave (km/s) = 3.50784 4.09041 3.81027
# Velocity P-wave (km/s) = 6.79330 7.50819 7.15967
#
# Compressibility (1/GPa) = 0.01579511
#
# Stress axis : x y z
#
# Youngs Moduli (GPa) = 97.03847 56.36793 91.12637
#
# Poissons Ratio (x) = 0.11539 0.34157
# Poissons Ratio (y) = 0.19865 0.53006
# Poissons Ratio (z) = 0.36374 0.32788
#
# Static dielectric constant tensor:
#      x y z
#    x 5.944900 -0.962580 -3.746540 
#    y -0.962580 4.405820 2.619720 
#    z -3.746540 2.619720 13.487950 
# 
# 
# High freq. dielectric constant tensor:
#      x y z
#    x 1.850630 0.015120 0.007510 
#    y 0.015120 1.818020 0.002040 
#    z 0.007510 0.002040 1.861970 
# 
# From -- ./inp_files/244588.got.cif
#   From: 2010.06.25/outbox.cif.g09.slc.cpg/sg2_123_cif.got.tgz:244588.got - 2010.06.27 13:26:56.
