data_PCOD8019197
_publ_section_title
;
Structure prediction by ZEFSAII (Michael W. Deem and Ramdas Pophale) SiO2 
 PCOD8019197
Probable space group: P -1
;
_chemical_formula_sum "Si O2"
_cell_formula_units_Z 16
_cell_length_a 13.556646
_cell_length_b 6.941473
_cell_length_c 20.815661
_cell_angle_alpha 89.539133
_cell_angle_beta 24.036326
_cell_angle_gamma 84.714610
_cell_volume 780.360610
_symmetry_space_group_name_H-M "P -1"
_symmetry_group_IT_number 2
_symmetry_cell_setting 'triclinic'
loop_
_space_group_symop_operation_xyz
x,y,z
-x,-y,-z
loop_
_atom_site_type_symbol
_atom_site_label
_atom_site_fract_x
_atom_site_fract_y
_atom_site_fract_z
Si Si1 0.783654 0.328190 0.724625
Si Si2 0.117470 0.285733 0.958194
Si Si3 0.888452 0.498136 0.785527
Si Si4 0.298988 0.326295 0.456821
Si Si5 0.405616 0.102300 0.990464
Si Si6 0.245080 0.965529 0.775315
Si Si7 0.121696 0.809941 0.096698
Si Si8 0.538025 0.486192 0.194323
O O1 0.697027 0.462239 0.713468
O O2 0.706385 0.461920 0.835051
O O3 0.081073 0.246998 0.547613
O O4 0.640751 0.149564 0.812530
O O5 0.228422 0.128017 0.839460
O O6 0.341979 0.320629 0.870378
O O7 0.000000 0.500000 0.000000
O O8 0.917976 0.199254 0.117086
O O9 0.161711 0.485013 0.590932
O O10 0.800955 0.703054 0.872293
O O11 0.909088 0.325246 0.825211
O O12 0.457951 0.423408 0.311933
O O13 0.469224 0.148056 0.395308
O O14 0.286458 0.964243 0.016642
O O15 0.500000 0.000000 0.000000
O O16 0.151449 0.076007 0.764094
O O17 0.255764 0.691854 0.955994
#
# Coordination Sequence:
#
# PCOD8019197 Si02
#       8
#     2   2   2   2   2   2   2   2
#     4  10  22  41  65  95 132 171 211 269 333 386
#     4  11  21  42  68  95 133 171 218 280 320 377
#     4  10  24  45  62  97 138 171 213 273 332 380
#     4  10  24  43  63  96 144 170 207 277 330 394
#     4  12  21  42  70  96 127 175 227 266 319 391
#     4  11  23  42  65 101 130 170 230 261 324 400
#     4  12  24  39  74  96 126 178 230 268 312 394
#     4  12  21  43  71  97 125 174 218 271 332 380
#
# _framework density 20.503340999999999
#
# number of rings (size 3 to 8) (size 9 to 14) (size 15 to 20)
#    0.750    0.250    5.000    3.000    0.000    0.500 
#    4.500    1.875    0.000    0.000    0.000    0.000 
#    0.000    0.000    0.000    0.000    0.000    0.000 
#
# Total GULP energy -198323.066530 kJ/mol
# GULP energy per Si atom -12395.191658 kJ/mol
# Density = 2.045667 g / cm^3
# Si number density = 20.503341 Si / 1000 Ang^3
#
#
#
# Elastic Constant Matrix: (Units=GPa)
#
#
# Indices 1 2 3 4 5 6 
#
# 1 90.8861 46.8478 38.7993 -5.2707 -21.5856 -3.3373
# 2 46.8478 107.5509 41.9967 -6.0178 -7.6423 1.5063
# 3 38.7993 41.9967 94.7823 0.9419 -11.8518 1.7074
# 4 -5.2707 -6.0178 0.9419 13.6453 -13.2211 -6.3622
# 5 -21.5856 -7.6423 -11.8518 -13.2211 38.6901 4.5285
# 6 -3.3373 1.5063 1.7074 -6.3622 4.5285 37.6707
#
#
#
# Elastic Compliance Matrix: (Units=1/GPa)
#
#
# Indices 1 2 3 4 5 6 
#
# 1 0.021426 -0.004828 -0.004736 0.025901 0.017869 0.004532
# 2 -0.004828 0.013180 -0.003876 0.004419 0.000240 -0.000062
# 3 -0.004736 -0.003876 0.014175 -0.006382 -0.001029 -0.001861
# 4 0.025901 0.004419 -0.006382 0.158736 0.065107 0.021389
# 5 0.017869 0.000240 -0.001029 0.065107 0.057124 0.005749
# 6 0.004532 -0.000062 -0.001861 0.021389 0.005749 0.029955
#
#
# Mechanical properties :
#
#
# Convention : Reuss Voigt Hill
#
# Bulk Modulus (GPa) = 45.66228 60.94523 53.30376
# Shear Modulus (GPa) = 15.20796 29.03958 22.12377
#
# Velocity S-wave (km/s) = 2.72643 3.76750 3.28843
# Velocity P-wave (km/s) = 5.67717 6.97958 6.36179
#
# Compressibility (1/GPa) = 0.02189991
#
# Stress axis : x y z
#
# Youngs Moduli (GPa) = 46.67309 75.87487 70.54649
#
# Poissons Ratio (x) = 0.36631 0.33411
# Poissons Ratio (y) = 0.22533 0.27346
# Poissons Ratio (z) = 0.22105 0.29411
#
# Static dielectric constant tensor:
#      x y z
#    x 3.948340 0.045880 -0.170750 
#    y 0.045880 3.762710 0.064420 
#    z -0.170750 0.064420 3.630360 
# 
# 
# High freq. dielectric constant tensor:
#      x y z
#    x 1.815750 -0.010500 -0.012670 
#    y -0.010500 1.796330 -0.002320 
#    z -0.012670 -0.002320 1.787290 
# 
# From -- ./inp_files/611267.got.cif
#   From: 2010.06.25/outbox.cif.g09.slc.cpg/sg2_306_cif.got.tgz:611267.got - 2010.06.27 13:26:56.
