data_PCOD8019555
_publ_section_title
;
Structure prediction by ZEFSAII (Michael W. Deem and Ramdas Pophale) SiO2 
 PCOD8019555
Probable space group: P -1
;
_chemical_formula_sum "Si O2"
_cell_formula_units_Z 16
_cell_length_a 11.188987
_cell_length_b 7.684294
_cell_length_c 12.423409
_cell_angle_alpha 111.643381
_cell_angle_beta 73.422005
_cell_angle_gamma 64.005166
_cell_volume 753.951232
_symmetry_space_group_name_H-M "P -1"
_symmetry_group_IT_number 2
_symmetry_cell_setting 'triclinic'
loop_
_space_group_symop_operation_xyz
x,y,z
-x,-y,-z
loop_
_atom_site_type_symbol
_atom_site_label
_atom_site_fract_x
_atom_site_fract_y
_atom_site_fract_z
Si Si1 0.141927 0.092177 0.117744
Si Si2 0.874442 0.110190 0.251098
Si Si3 0.162221 0.244823 0.923955
Si Si4 0.664824 0.663700 0.436226
Si Si5 0.369834 0.743399 0.144191
Si Si6 0.930704 0.166847 0.657224
Si Si7 0.460653 0.121404 0.712623
Si Si8 0.979074 0.534361 0.387113
O O1 0.013956 0.044569 0.116337
O O2 0.052209 0.271280 0.278952
O O3 0.304443 0.883423 0.080644
O O4 0.172931 0.204836 0.039032
O O5 0.734166 0.390546 0.371005
O O6 0.805936 0.984405 0.190070
O O7 0.945075 0.985445 0.317285
O O8 0.302702 0.248513 0.851525
O O9 0.000000 0.500000 0.000000
O O10 0.584099 0.740247 0.357372
O O11 0.800605 0.697691 0.424250
O O12 0.539376 0.845765 0.601843
O O13 0.243206 0.737353 0.241634
O O14 0.427923 0.848097 0.236895
O O15 0.500000 0.500000 0.000000
O O16 0.923286 0.390890 0.677732
O O17 0.000000 0.000000 0.500000
O O18 0.000000 0.500000 0.500000
#
# Coordination Sequence:
#
# PCOD8019555 Si02
#       8
#     2   2   2   2   2   2   2   2
#     4  10  23  41  64  93 128 177 219 274 333 407
#     4  10  22  41  68  97 128 168 229 280 337 395
#     4  12  25  40  67  97 132 178 227 276 340 412
#     4  10  22  44  67  98 132 175 219 290 341 391
#     4  11  27  44  63  97 144 181 222 281 344 407
#     4  11  22  41  70  98 125 179 229 276 333 405
#     4  11  25  43  66  94 141 177 222 282 342 401
#     4  11  21  42  72  97 130 168 228 282 331 399
#
# _framework density 21.221532
#
# number of rings (size 3 to 8) (size 9 to 14) (size 15 to 20)
#    0.000    1.250    0.000    7.125    7.000    2.000 
#    4.500    0.000    0.000    0.000    0.000    0.000 
#    0.000    0.000    0.000    0.000    0.000    0.000 
#
# Total GULP energy -198235.515310 kJ/mol
# GULP energy per Si atom -12389.719707 kJ/mol
# Density = 2.117323 g / cm^3
# Si number density = 21.221532 Si / 1000 Ang^3
#
#
#
# Elastic Constant Matrix: (Units=GPa)
#
#
# Indices 1 2 3 4 5 6 
#
# 1 82.1485 36.6221 26.5240 4.3853 -3.5416 3.0463
# 2 36.6221 130.1349 47.8913 1.6149 -5.9893 -8.7208
# 3 26.5240 47.8913 118.6567 0.7157 -5.0254 -7.3698
# 4 4.3853 1.6149 0.7157 35.9483 1.1296 -8.3789
# 5 -3.5416 -5.9893 -5.0254 1.1296 37.4023 0.5060
# 6 3.0463 -8.7208 -7.3698 -8.3789 0.5060 26.2932
#
#
#
# Elastic Compliance Matrix: (Units=1/GPa)
#
#
# Indices 1 2 3 4 5 6 
#
# 1 0.014789 -0.003629 -0.002067 -0.002635 0.000680 -0.004349
# 2 -0.003629 0.010055 -0.003024 0.000757 0.000795 0.003134
# 3 -0.002067 -0.003024 0.010278 0.000706 0.000648 0.002330
# 4 -0.002635 0.000757 0.000706 0.030578 -0.001099 0.010520
# 5 0.000680 0.000795 0.000648 -0.001099 0.027055 -0.000504
# 6 -0.004349 0.003134 0.002330 0.010520 -0.000504 0.043591
#
#
# Mechanical properties :
#
#
# Convention : Reuss Voigt Hill
#
# Bulk Modulus (GPa) = 56.54678 61.44609 58.99643
# Shear Modulus (GPa) = 31.31268 34.58896 32.95082
#
# Velocity S-wave (km/s) = 3.84541 4.04158 3.94472
# Velocity P-wave (km/s) = 6.81322 7.12718 6.97197
#
# Compressibility (1/GPa) = 0.01768447
#
# Stress axis : x y z
#
# Youngs Moduli (GPa) = 67.61598 99.44825 97.29584
#
# Poissons Ratio (x) = 0.36088 0.20109
# Poissons Ratio (y) = 0.24537 0.29418
# Poissons Ratio (z) = 0.13974 0.30069
#
# Static dielectric constant tensor:
#      x y z
#    x 3.721240 -0.055760 0.095800 
#    y -0.055760 3.838980 0.036360 
#    z 0.095800 0.036360 3.945110 
# 
# 
# High freq. dielectric constant tensor:
#      x y z
#    x 1.835060 -0.005250 0.009580 
#    y -0.005250 1.838980 0.004060 
#    z 0.009580 0.004060 1.844790 
# 
# From -- ./inp_files/417824.got.cif
#   From: 2010.06.25/outbox.cif.g09.slc.cpg/sg2_209_cif.got.tgz:417824.got - 2010.06.27 13:26:56.
