data_PCOD8019664
_publ_section_title
;
Structure prediction by ZEFSAII (Michael W. Deem and Ramdas Pophale) SiO2 
 PCOD8019664
Probable space group: P -1
;
_chemical_formula_sum "Si O2"
_cell_formula_units_Z 16
_cell_length_a 8.486818
_cell_length_b 11.455409
_cell_length_c 14.502899
_cell_angle_alpha 109.849952
_cell_angle_beta 31.681382
_cell_angle_gamma 104.897214
_cell_volume 695.061605
_symmetry_space_group_name_H-M "P -1"
_symmetry_group_IT_number 2
_symmetry_cell_setting 'triclinic'
loop_
_space_group_symop_operation_xyz
x,y,z
-x,-y,-z
loop_
_atom_site_type_symbol
_atom_site_label
_atom_site_fract_x
_atom_site_fract_y
_atom_site_fract_z
Si Si1 0.816785 0.920047 0.316610
Si Si2 0.682934 0.478882 0.608610
Si Si3 0.768191 0.037690 0.048525
Si Si4 0.588668 0.293727 0.297071
Si Si5 0.327819 0.329346 0.624963
Si Si6 0.071447 0.452349 0.177516
Si Si7 0.321776 0.624007 0.230268
Si Si8 0.175392 0.902911 0.321446
O O1 0.736129 0.778507 0.299713
O O2 0.994593 0.915063 0.321119
O O3 0.500000 0.000000 0.500000
O O4 0.043517 0.966519 0.140597
O O5 0.520204 0.611230 0.702815
O O6 0.640002 0.390628 0.516496
O O7 0.536866 0.405242 0.747168
O O8 0.000000 0.500000 0.500000
O O9 0.627999 0.171598 0.183695
O O10 0.513797 0.939801 0.143042
O O11 0.000000 0.000000 0.000000
O O12 0.351144 0.277360 0.494161
O O13 0.874481 0.335459 0.224390
O O14 0.054581 0.435673 0.797352
O O15 0.070847 0.522083 0.298648
O O16 0.409584 0.398088 0.981429
O O17 0.183549 0.765489 0.326321
O O18 0.000000 0.000000 0.500000
#
# Coordination Sequence:
#
# PCOD8019664 Si02
#       8
#     2   2   2   2   2   2   2   2
#     4  12  28  48  75 105 142 200 253 303 370 438
#     4  11  25  38  69 103 142 182 241 289 369 427
#     4  12  28  48  75 110 147 195 250 308 373 439
#     4  11  24  44  70 102 146 184 236 296 365 434
#     4  11  23  43  69  99 144 185 238 295 366 434
#     4  10  22  41  69  98 144 183 226 295 365 424
#     4  11  24  42  69 107 139 186 236 297 364 437
#     4  12  27  49  78 107 154 194 250 309 367 447
#
# _framework density 23.019541
#
# number of rings (size 3 to 8) (size 9 to 14) (size 15 to 20)
#    0.000    0.750    1.250    6.375    8.750    1.000 
#    0.000    2.500    0.000    0.000    0.000    0.000 
#    0.000    0.000    0.000    0.000    0.000    0.000 
#
# Total GULP energy -198211.012979 kJ/mol
# GULP energy per Si atom -12388.188311 kJ/mol
# Density = 2.296715 g / cm^3
# Si number density = 23.019541 Si / 1000 Ang^3
#
#
#
# Elastic Constant Matrix: (Units=GPa)
#
#
# Indices 1 2 3 4 5 6 
#
# 1 143.4033 40.7273 22.1868 1.9680 -6.4978 -9.9499
# 2 40.7273 99.9618 21.5467 1.3075 -3.9663 0.3903
# 3 22.1868 21.5467 76.9489 3.2958 -2.3248 -2.3130
# 4 1.9680 1.3075 3.2958 37.2455 2.5772 -1.6108
# 5 -6.4978 -3.9663 -2.3248 2.5772 41.4959 -7.0228
# 6 -9.9499 0.3903 -2.3130 -1.6108 -7.0228 42.2465
#
#
#
# Elastic Compliance Matrix: (Units=1/GPa)
#
#
# Indices 1 2 3 4 5 6 
#
# 1 0.008256 -0.003011 -0.001427 -0.000203 0.001293 0.002101
# 2 -0.003011 0.011776 -0.002441 -0.000103 0.000373 -0.000893
# 3 -0.001427 -0.002441 0.014168 -0.001105 0.000491 0.000502
# 4 -0.000203 -0.000103 -0.001105 0.027105 -0.001677 0.000647
# 5 0.001293 0.000373 0.000491 -0.001677 0.025223 0.004457
# 6 0.002101 -0.000893 0.000502 0.000647 0.004457 0.024967
#
#
# Mechanical properties :
#
#
# Convention : Reuss Voigt Hill
#
# Bulk Modulus (GPa) = 48.91318 54.35952 51.63635
# Shear Modulus (GPa) = 37.86009 39.92112 38.89061
#
# Velocity S-wave (km/s) = 4.05988 4.16892 4.11476
# Velocity P-wave (km/s) = 6.57811 6.84390 6.71232
#
# Compressibility (1/GPa) = 0.02044439
#
# Stress axis : x y z
#
# Youngs Moduli (GPa) = 121.11994 84.91768 70.58356
#
# Poissons Ratio (x) = 0.25565 0.10070
# Poissons Ratio (y) = 0.36464 0.17227
# Poissons Ratio (z) = 0.17279 0.20725
#
# Static dielectric constant tensor:
#      x y z
#    x 4.572750 -0.147710 0.355040 
#    y -0.147710 3.821530 -0.266700 
#    z 0.355040 -0.266700 4.462650 
# 
# 
# High freq. dielectric constant tensor:
#      x y z
#    x 1.930820 0.008230 -0.010600 
#    y 0.008230 1.919930 -0.007120 
#    z -0.010600 -0.007120 1.904560 
# 
# From -- ./inp_files/500508.got.cif
#   From: 2010.06.25/outbox.cif.g09.slc.cpg/sg2_251_cif.got.tgz:500508.got - 2010.06.27 13:26:56.
