data_PCOD8019435
_publ_section_title
;
Structure prediction by ZEFSAII (Michael W. Deem and Ramdas Pophale) SiO2 
 PCOD8019435
Probable space group: P -1
;
_chemical_formula_sum "Si O2"
_cell_formula_units_Z 14
_cell_length_a 15.073910
_cell_length_b 12.306243
_cell_length_c 8.323631
_cell_angle_alpha 64.284711
_cell_angle_beta 107.074318
_cell_angle_gamma 152.503082
_cell_volume 626.637811
_symmetry_space_group_name_H-M "P -1"
_symmetry_group_IT_number 2
_symmetry_cell_setting 'triclinic'
loop_
_space_group_symop_operation_xyz
x,y,z
-x,-y,-z
loop_
_atom_site_type_symbol
_atom_site_label
_atom_site_fract_x
_atom_site_fract_y
_atom_site_fract_z
Si Si1 0.233376 0.995509 0.334464
Si Si2 0.188875 0.483485 0.951366
Si Si3 0.886055 0.767382 0.192791
Si Si4 0.267138 0.037861 0.969590
Si Si5 0.474206 0.836906 0.145932
Si Si6 0.555363 0.523702 0.335011
Si Si7 0.627345 0.076561 0.387519
O O1 0.371871 0.246030 0.340090
O O2 0.224581 0.856692 0.510256
O O3 0.308937 0.042514 0.169298
O O4 0.026904 0.829029 0.311294
O O5 0.257013 0.467826 0.858336
O O6 0.235541 0.673180 0.798031
O O7 0.289547 0.567970 0.123164
O O8 0.959200 0.195443 0.038611
O O9 0.752752 0.668188 0.329589
O O10 0.000000 0.000000 0.000000
O O11 0.328336 0.006689 0.896733
O O12 0.403075 0.310232 0.850862
O O13 0.466895 0.827477 0.342446
O O14 0.500000 0.000000 0.000000
O O15 0.500000 0.500000 0.500000
O O16 0.500000 0.000000 0.500000
#
# Coordination Sequence:
#
# PCOD8019435 Si02
#       7
#     2   2   2   2   2   2   2
#     4  11  24  43  70  98 140 187 231 287 349 420
#     4  10  23  43  72  96 134 178 231 286 338 414
#     4  11  23  44  71 104 133 189 237 280 352 418
#     4  11  23  41  69  99 126 182 234 275 353 405
#     4  10  22  41  67  96 131 177 223 284 341 406
#     4  12  25  43  66 103 142 180 234 293 347 411
#     4  11  23  44  68 103 141 180 230 284 355 416
#
# _framework density 22.341453999999999
#
# number of rings (size 3 to 8) (size 9 to 14) (size 15 to 20)
#    0.000    1.143    2.857    4.714    2.000    5.143 
#    0.000   14.286    0.000    0.000    0.000    0.000 
#    0.000    0.000    0.000    0.000    0.000    0.000 
#
# Total GULP energy -173487.898572 kJ/mol
# GULP energy per Si atom -12391.992755 kJ/mol
# Density = 2.229060 g / cm^3
# Si number density = 22.341454 Si / 1000 Ang^3
#
#
#
# Elastic Constant Matrix: (Units=GPa)
#
#
# Indices 1 2 3 4 5 6 
#
# 1 155.9539 39.5144 51.0165 19.4027 -13.5546 -4.2575
# 2 39.5144 108.1893 46.2116 27.1012 -17.6732 -13.4435
# 3 51.0165 46.2116 95.7734 26.7542 -6.3268 -4.8222
# 4 19.4027 27.1012 26.7542 41.5722 -8.7759 -0.7980
# 5 -13.5546 -17.6732 -6.3268 -8.7759 48.9766 6.4989
# 6 -4.2575 -13.4435 -4.8222 -0.7980 6.4989 30.9615
#
#
#
# Elastic Compliance Matrix: (Units=1/GPa)
#
#
# Indices 1 2 3 4 5 6 
#
# 1 0.008014 -0.001118 -0.003522 -0.000474 0.001303 -0.000218
# 2 -0.001118 0.013692 -0.004199 -0.005070 0.002588 0.004464
# 3 -0.003522 -0.004199 0.016001 -0.006245 -0.001589 0.000357
# 4 -0.000474 -0.005070 -0.006245 0.032264 0.003429 -0.003127
# 5 0.001303 0.002588 -0.001589 0.003429 0.022599 -0.003600
# 6 -0.000218 0.004464 0.000357 -0.003127 -0.003600 0.034937
#
#
# Mechanical properties :
#
#
# Convention : Reuss Voigt Hill
#
# Bulk Modulus (GPa) = 49.92716 70.37796 60.15256
# Shear Modulus (GPa) = 32.92469 39.18035 36.05252
#
# Velocity S-wave (km/s) = 3.84305 4.19227 4.02145
# Velocity P-wave (km/s) = 6.48752 7.41640 6.96745
#
# Compressibility (1/GPa) = 0.02002918
#
# Stress axis : x y z
#
# Youngs Moduli (GPa) = 124.78463 73.03277 62.49617
#
# Poissons Ratio (x) = 0.08166 0.22010
# Poissons Ratio (y) = 0.13952 0.26243
# Poissons Ratio (z) = 0.43947 0.30668
#
# Static dielectric constant tensor:
#      x y z
#    x 4.254020 -0.255140 0.013960 
#    y -0.255140 4.582650 0.483510 
#    z 0.013960 0.483510 4.195270 
# 
# 
# High freq. dielectric constant tensor:
#      x y z
#    x 1.901420 -0.016450 0.002390 
#    y -0.016450 1.882000 0.013530 
#    z 0.002390 0.013530 1.868920 
# 
# From -- ./inp_files/307056.got.cif
#   From: 2010.06.25/outbox.cif.g09.slc.cpg/sg2_154_cif.got.tgz:307056.got - 2010.06.27 13:26:56.
