data_PCOD8019955
_publ_section_title
;
Structure prediction by ZEFSAII (Michael W. Deem and Ramdas Pophale) SiO2 
 PCOD8019955
Probable space group: P -1
;
_chemical_formula_sum "Si O2"
_cell_formula_units_Z 16
_cell_length_a 8.984321
_cell_length_b 11.839719
_cell_length_c 17.536754
_cell_angle_alpha 148.859490
_cell_angle_beta 60.284753
_cell_angle_gamma 128.642261
_cell_volume 749.990968
_symmetry_space_group_name_H-M "P -1"
_symmetry_group_IT_number 2
_symmetry_cell_setting 'triclinic'
loop_
_space_group_symop_operation_xyz
x,y,z
-x,-y,-z
loop_
_atom_site_type_symbol
_atom_site_label
_atom_site_fract_x
_atom_site_fract_y
_atom_site_fract_z
Si Si1 0.305495 0.156457 0.605229
Si Si2 0.673378 0.431249 0.407412
Si Si3 0.007577 0.078432 0.334458
Si Si4 0.117681 0.187162 0.014111
Si Si5 0.374033 0.736150 0.294985
Si Si6 0.308496 0.985253 0.742674
Si Si7 0.391660 0.642754 0.790335
Si Si8 0.218682 0.938657 0.084971
O O1 0.504467 0.247648 0.651668
O O2 0.326732 0.358560 0.654811
O O3 0.266522 0.907207 0.427852
O O4 0.130348 0.114775 0.681132
O O5 0.500000 0.500000 0.500000
O O6 0.874342 0.664140 0.505531
O O7 0.650514 0.233928 0.363856
O O8 0.673171 0.326838 0.261532
O O9 0.879382 0.118110 0.323464
O O10 0.152664 0.970244 0.205360
O O11 0.210260 0.462967 0.177664
O O12 0.974517 0.162065 0.969730
O O13 0.281899 0.122288 0.902523
O O14 0.000000 0.000000 0.000000
O O15 0.506690 0.815944 0.232778
O O16 0.621429 0.795114 0.828053
O O17 0.302564 0.743337 0.938375
#
# Coordination Sequence:
#
# PCOD8019955 Si02
#       8
#     2   2   2   2   2   2   2   2
#     4  10  23  41  66  91 132 166 208 272 323 378
#     4  12  23  40  66  99 130 167 217 262 321 387
#     4  10  23  43  64  95 129 167 221 261 320 377
#     4  11  22  39  66  96 126 167 222 265 314 378
#     4  10  22  42  63  97 124 167 218 263 323 379
#     4  10  23  42  67  90 131 174 210 268 316 379
#     4  11  23  42  64  92 134 171 212 259 334 379
#     4  10  23  42  61  92 130 170 215 262 313 393
#
# _framework density 21.333589
#
# number of rings (size 3 to 8) (size 9 to 14) (size 15 to 20)
#    0.000    1.500    1.250    3.000    3.500    2.000 
#    2.250    0.000    0.000    0.000    0.000    0.000 
#    0.000    0.000    0.000    0.000    0.000    0.000 
#
# Total GULP energy -198386.462150 kJ/mol
# GULP energy per Si atom -12399.153884 kJ/mol
# Density = 2.128503 g / cm^3
# Si number density = 21.333589 Si / 1000 Ang^3
#
#
#
# Elastic Constant Matrix: (Units=GPa)
#
#
# Indices 1 2 3 4 5 6 
#
# 1 60.1738 35.8745 35.5731 9.6855 -7.6203 4.4465
# 2 35.8745 120.6803 65.3207 3.3405 -11.4553 6.8066
# 3 35.5731 65.3207 139.5214 8.1359 -1.2789 13.1151
# 4 9.6855 3.3405 8.1359 46.2918 9.3436 -6.2283
# 5 -7.6203 -11.4553 -1.2789 9.3436 31.6499 -2.5600
# 6 4.4465 6.8066 13.1151 -6.2283 -2.5600 30.7370
#
#
#
# Elastic Compliance Matrix: (Units=1/GPa)
#
#
# Indices 1 2 3 4 5 6 
#
# 1 0.022694 -0.004232 -0.003315 -0.005113 0.005184 -0.001536
# 2 -0.004232 0.012391 -0.004722 0.000194 0.003233 0.000192
# 3 -0.003315 -0.004722 0.010566 -0.000847 -0.002099 -0.003330
# 4 -0.005113 0.000194 -0.000847 0.025197 -0.008190 0.005482
# 5 0.005184 0.003233 -0.002099 -0.008190 0.036412 0.000803
# 6 -0.001536 0.000192 -0.003330 0.005482 0.000803 0.035312
#
#
# Mechanical properties :
#
#
# Convention : Reuss Voigt Hill
#
# Bulk Modulus (GPa) = 47.36159 65.99024 56.67592
# Shear Modulus (GPa) = 28.71117 33.97621 31.34369
#
# Velocity S-wave (km/s) = 3.67252 3.99509 3.83720
# Velocity P-wave (km/s) = 6.34286 7.23054 6.80120
#
# Compressibility (1/GPa) = 0.02111416
#
# Stress axis : x y z
#
# Youngs Moduli (GPa) = 44.06438 80.70471 94.63973
#
# Poissons Ratio (x) = 0.34152 0.31373
# Poissons Ratio (y) = 0.18647 0.44688
# Poissons Ratio (z) = 0.14607 0.38108
#
# Static dielectric constant tensor:
#      x y z
#    x 3.673540 0.202290 -0.056370 
#    y 0.202290 3.876610 -0.305360 
#    z -0.056370 -0.305360 4.217350 
# 
# 
# High freq. dielectric constant tensor:
#      x y z
#    x 1.826340 0.015440 0.003170 
#    y 0.015440 1.840750 -0.008790 
#    z 0.003170 -0.008790 1.847400 
# 
# From -- ./inp_files/189452.got.cif
#   From: 2010.06.25/outbox.cif.g09.slc.cpg/sg2_95_cif.got.tgz:189452.got - 2010.06.27 13:26:56.
