data_PCOD8019242
_publ_section_title
;
Structure prediction by ZEFSAII (Michael W. Deem and Ramdas Pophale) SiO2 
 PCOD8019242
Probable space group: P -1
;
_chemical_formula_sum "Si O2"
_cell_formula_units_Z 16
_cell_length_a 12.021535
_cell_length_b 5.597882
_cell_length_c 13.225394
_cell_angle_alpha 69.054437
_cell_angle_beta 113.561686
_cell_angle_gamma 112.150347
_cell_volume 732.845565
_symmetry_space_group_name_H-M "P -1"
_symmetry_group_IT_number 2
_symmetry_cell_setting 'triclinic'
loop_
_space_group_symop_operation_xyz
x,y,z
-x,-y,-z
loop_
_atom_site_type_symbol
_atom_site_label
_atom_site_fract_x
_atom_site_fract_y
_atom_site_fract_z
Si Si1 0.109625 0.366832 0.585609
Si Si2 0.887691 0.106320 0.222164
Si Si3 0.813117 0.930393 0.995035
Si Si4 0.005349 0.389932 0.909356
Si Si5 0.418176 0.481185 0.326435
Si Si6 0.300450 0.793691 0.708566
Si Si7 0.580571 0.905659 0.796654
Si Si8 0.315097 0.302398 0.525308
O O1 0.207661 0.517341 0.682539
O O2 0.184645 0.344672 0.513795
O O3 0.000000 0.500000 0.500000
O O4 0.047292 0.084753 0.661244
O O5 0.993747 0.393015 0.211383
O O6 0.758250 0.099794 0.232604
O O7 0.846455 0.034823 0.103675
O O8 0.665052 0.869527 0.928311
O O9 0.858487 0.666295 0.042825
O O10 0.886611 0.128684 0.900927
O O11 0.000000 0.500000 0.000000
O O12 0.380780 0.262253 0.256432
O O13 0.323195 0.355982 0.401263
O O14 0.563606 0.502531 0.404080
O O15 0.400285 0.776106 0.257601
O O16 0.436047 0.760422 0.794341
O O17 0.316543 0.998895 0.589969
#
# Coordination Sequence:
#
# PCOD8019242 Si02
#       8
#     2   2   2   2   2   2   2   2
#     4  11  23  43  63  98 133 178 230 277 338 408
#     4  10  22  42  66  93 131 180 219 275 341 400
#     4  10  22  42  67  97 131 175 220 282 336 408
#     4   9  20  42  63  88 128 173 224 275 333 395
#     4  10  22  41  66 100 134 178 224 283 342 401
#     4  10  22  42  64  92 137 174 222 278 337 410
#     4  11  24  41  69 103 138 172 230 279 343 404
#     4   9  21  40  65  89 134 179 222 281 341 396
#
# _framework density 21.832702000000001
#
# number of rings (size 3 to 8) (size 9 to 14) (size 15 to 20)
#    0.000    2.000    1.250    0.750    5.250    4.000 
#   11.250    2.500    0.000    0.000    0.000    0.000 
#    0.000    0.000    0.000    0.000    0.000    0.000 
#
# Total GULP energy -198271.981418 kJ/mol
# GULP energy per Si atom -12391.998839 kJ/mol
# Density = 2.178301 g / cm^3
# Si number density = 21.832702 Si / 1000 Ang^3
#
#
#
# Elastic Constant Matrix: (Units=GPa)
#
#
# Indices 1 2 3 4 5 6 
#
# 1 99.3552 34.8956 51.0026 -16.3282 9.2997 -6.0253
# 2 34.8956 99.1148 34.5258 -20.0067 -5.6724 -14.0774
# 3 51.0026 34.5258 84.3915 -17.9873 -5.2611 -1.1621
# 4 -16.3282 -20.0067 -17.9873 33.3108 4.5239 -7.9106
# 5 9.2997 -5.6724 -5.2611 4.5239 34.2698 -0.2339
# 6 -6.0253 -14.0774 -1.1621 -7.9106 -0.2339 32.0528
#
#
#
# Elastic Compliance Matrix: (Units=1/GPa)
#
#
# Indices 1 2 3 4 5 6 
#
# 1 0.016752 -0.002028 -0.008867 0.003789 -0.006724 0.002823
# 2 -0.002028 0.014602 -0.002861 0.007895 0.001540 0.007888
# 3 -0.008867 -0.002861 0.019379 0.003481 0.004439 -0.001329
# 4 0.003789 0.007895 0.003481 0.042654 -0.004717 0.014798
# 5 -0.006724 0.001540 0.004439 -0.004717 0.032555 -0.001353
# 6 0.002823 0.007888 -0.001329 0.014798 -0.001353 0.038788
#
#
# Mechanical properties :
#
#
# Convention : Reuss Voigt Hill
#
# Bulk Modulus (GPa) = 43.06435 58.18997 50.62716
# Shear Modulus (GPa) = 25.00205 30.75584 27.87895
#
# Velocity S-wave (km/s) = 3.38770 3.75734 3.57730
# Velocity P-wave (km/s) = 5.92195 6.74789 6.34837
#
# Compressibility (1/GPa) = 0.02322106
#
# Stress axis : x y z
#
# Youngs Moduli (GPa) = 59.69263 68.48366 51.60103
#
# Poissons Ratio (x) = 0.13891 0.45757
# Poissons Ratio (y) = 0.12107 0.14761
# Poissons Ratio (z) = 0.52932 0.19591
#
# Static dielectric constant tensor:
#      x y z
#    x 5.644990 -0.873490 -0.608290 
#    y -0.873490 5.111010 -0.103460 
#    z -0.608290 -0.103460 3.829120 
# 
# 
# High freq. dielectric constant tensor:
#      x y z
#    x 1.862540 -0.008920 -0.011980 
#    y -0.008920 1.867000 -0.011940 
#    z -0.011980 -0.011940 1.837110 
# 
# From -- ./inp_files/70674.got.cif
#   From: 2010.06.25/outbox.cif.g09.slc.cpg/sg2_36_cif.got.tgz:70674.got - 2010.06.27 13:26:56.
