data_PCOD8019489
_publ_section_title
;
Structure prediction by ZEFSAII (Michael W. Deem and Ramdas Pophale) SiO2 
 PCOD8019489
Probable space group: P -1
;
_chemical_formula_sum "Si O2"
_cell_formula_units_Z 16
_cell_length_a 11.342416
_cell_length_b 14.646845
_cell_length_c 9.283092
_cell_angle_alpha 104.201395
_cell_angle_beta 95.026475
_cell_angle_gamma 28.101234
_cell_volume 675.634507
_symmetry_space_group_name_H-M "P -1"
_symmetry_group_IT_number 2
_symmetry_cell_setting 'triclinic'
loop_
_space_group_symop_operation_xyz
x,y,z
-x,-y,-z
loop_
_atom_site_type_symbol
_atom_site_label
_atom_site_fract_x
_atom_site_fract_y
_atom_site_fract_z
Si Si1 0.990208 0.370578 0.344359
Si Si2 0.928264 0.132744 0.653087
Si Si3 0.625878 0.513646 0.149996
Si Si4 0.438162 0.277804 0.996232
Si Si5 0.239505 0.383635 0.316663
Si Si6 0.463660 0.106306 0.711078
Si Si7 0.035234 0.070904 0.952474
Si Si8 0.688462 0.985318 0.394411
O O1 0.805729 0.444152 0.248779
O O2 0.862692 0.463750 0.525998
O O3 0.027524 0.449432 0.315922
O O4 0.266102 0.124193 0.287897
O O5 0.619881 0.350495 0.733387
O O6 0.088753 0.003814 0.767455
O O7 0.033028 0.159300 0.614208
O O8 0.000000 0.000000 0.500000
O O9 0.545326 0.635025 0.052493
O O10 0.776005 0.317853 0.026153
O O11 0.338005 0.266291 0.875083
O O12 0.252993 0.416772 0.169843
O O13 0.724140 0.045488 0.994068
O O14 0.521918 0.145211 0.305992
O O15 0.264911 0.160014 0.681966
O O16 0.517004 0.123476 0.573918
O O17 0.000000 0.000000 0.000000
#
# Coordination Sequence:
#
# PCOD8019489 Si02
#       8
#     2   2   2   2   2   2   2   2
#     4  10  22  43  66 103 147 183 234 288 356 424
#     4  12  25  44  72 104 143 192 239 292 350 425
#     4  12  27  47  74 103 146 188 236 294 358 425
#     4  12  24  44  76 105 141 186 237 292 367 413
#     4  10  22  41  68 104 144 184 231 297 350 425
#     4  10  22  43  71 105 143 189 228 301 356 417
#     4  12  27  50  70 103 146 187 239 297 352 422
#     4  10  22  42  70 101 142 190 241 286 356 426
#
# _framework density 23.681443000000002
#
# number of rings (size 3 to 8) (size 9 to 14) (size 15 to 20)
#    0.000    1.000    3.750    2.625    0.000    5.500 
#    0.000    1.250    0.000    0.000    0.000    0.000 
#    0.000    0.000    0.000    0.000    0.000    0.000 
#
# Total GULP energy -198422.278726 kJ/mol
# GULP energy per Si atom -12401.392420 kJ/mol
# Density = 2.362754 g / cm^3
# Si number density = 23.681443 Si / 1000 Ang^3
#
#
#
# Elastic Constant Matrix: (Units=GPa)
#
#
# Indices 1 2 3 4 5 6 
#
# 1 145.2942 33.6690 67.1458 2.4756 -6.6065 -10.3802
# 2 33.6690 66.4616 38.6040 1.6987 -3.2566 -3.2902
# 3 67.1458 38.6040 171.0733 0.5144 2.7065 8.4421
# 4 2.4756 1.6987 0.5144 31.5339 -3.8396 4.2754
# 5 -6.6065 -3.2566 2.7065 -3.8396 40.7759 0.4728
# 6 -10.3802 -3.2902 8.4421 4.2754 0.4728 37.2736
#
#
#
# Elastic Compliance Matrix: (Units=1/GPa)
#
#
# Indices 1 2 3 4 5 6 
#
# 1 0.009278 -0.002575 -0.003236 -0.000795 0.001401 0.003163
# 2 -0.002575 0.018397 -0.003242 -0.000827 0.001170 0.001721
# 3 -0.003236 -0.003242 0.008016 0.000562 -0.001227 -0.003052
# 4 -0.000795 -0.000827 0.000562 0.032734 0.002899 -0.004213
# 5 0.001401 0.001170 -0.001227 0.002899 0.025198 0.000119
# 6 0.003163 0.001721 -0.003052 -0.004213 0.000119 0.029034
#
#
# Mechanical properties :
#
#
# Convention : Reuss Voigt Hill
#
# Bulk Modulus (GPa) = 56.86715 73.51852 65.19283
# Shear Modulus (GPa) = 34.10058 38.14404 36.12231
#
# Velocity S-wave (km/s) = 3.79881 4.01772 3.90980
# Velocity P-wave (km/s) = 6.58079 7.25500 6.92610
#
# Compressibility (1/GPa) = 0.01758485
#
# Stress axis : x y z
#
# Youngs Moduli (GPa) = 107.77985 54.35580 124.75622
#
# Poissons Ratio (x) = 0.13995 0.40377
# Poissons Ratio (y) = 0.27751 0.40444
# Poissons Ratio (z) = 0.34883 0.17621
#
# Static dielectric constant tensor:
#      x y z
#    x 4.371250 -0.195030 0.038870 
#    y -0.195030 4.387200 -0.186910 
#    z 0.038870 -0.186910 4.295650 
# 
# 
# High freq. dielectric constant tensor:
#      x y z
#    x 1.944710 -0.013110 0.004990 
#    y -0.013110 1.935580 -0.009980 
#    z 0.004990 -0.009980 1.944980 
# 
# From -- ./inp_files/207524.got.cif
#   From: 2010.06.25/outbox.cif.g09.slc.cpg/sg2_104_cif.got.tgz:207524.got - 2010.06.27 13:26:56.
