data_PCOD8019822
_publ_section_title
;
Structure prediction by ZEFSAII (Michael W. Deem and Ramdas Pophale) SiO2 
 PCOD8019822
Probable space group: P -1
;
_chemical_formula_sum "Si O2"
_cell_formula_units_Z 16
_cell_length_a 12.166291
_cell_length_b 20.539543
_cell_length_c 9.201189
_cell_angle_alpha 62.672538
_cell_angle_beta 63.544736
_cell_angle_gamma 21.269056
_cell_volume 739.860259
_symmetry_space_group_name_H-M "P -1"
_symmetry_group_IT_number 2
_symmetry_cell_setting 'triclinic'
loop_
_space_group_symop_operation_xyz
x,y,z
-x,-y,-z
loop_
_atom_site_type_symbol
_atom_site_label
_atom_site_fract_x
_atom_site_fract_y
_atom_site_fract_z
Si Si1 0.720510 0.988458 0.675198
Si Si2 0.314573 0.324582 0.410697
Si Si3 0.865315 0.747842 0.143140
Si Si4 0.211587 0.814077 0.089651
Si Si5 0.406768 0.427723 0.331312
Si Si6 0.284204 0.685095 0.468260
Si Si7 0.900302 0.221652 0.079629
Si Si8 0.849210 0.533553 0.929063
O O1 0.522017 0.148543 0.528960
O O2 0.489674 0.052586 0.808184
O O3 0.991287 0.811027 0.594755
O O4 0.877267 0.943257 0.768519
O O5 0.507340 0.293756 0.349688
O O6 0.253718 0.349734 0.248787
O O7 0.000000 0.500000 0.500000
O O8 0.046728 0.633426 0.305123
O O9 0.924182 0.649523 0.092857
O O10 0.975959 0.763770 0.997851
O O11 0.172218 0.795164 0.286545
O O12 0.099906 0.814113 0.040897
O O13 0.561563 0.645445 0.042508
O O14 0.000000 0.000000 0.000000
O O15 0.507381 0.376727 0.490598
O O16 0.563983 0.403629 0.161226
O O17 0.500000 0.500000 0.500000
O O18 0.000000 0.500000 0.000000
#
# Coordination Sequence:
#
# PCOD8019822 Si02
#       8
#     2   2   2   2   2   2   2   2
#     4  11  25  43  73  99 137 182 240 282 344 426
#     4  11  21  43  69 104 135 177 234 286 346 417
#     4  11  22  45  74 102 133 187 237 282 342 428
#     4  12  27  45  68 104 145 181 233 296 355 414
#     4  10  22  41  74  95 133 185 231 281 341 420
#     4  11  27  45  67 101 143 182 230 292 358 413
#     4  11  24  43  70 100 139 183 238 278 342 422
#     4  11  26  43  71 104 140 177 227 295 358 407
#
# _framework density 21.625706000000001
#
# number of rings (size 3 to 8) (size 9 to 14) (size 15 to 20)
#    0.000    1.000    5.000    2.250    8.750    1.000 
#    0.000    2.500    0.000    0.000    0.000    0.000 
#    0.000    0.000    0.000    0.000    0.000    0.000 
#
# Total GULP energy -198256.543012 kJ/mol
# GULP energy per Si atom -12391.033938 kJ/mol
# Density = 2.157649 g / cm^3
# Si number density = 21.625706 Si / 1000 Ang^3
#
#
#
# Elastic Constant Matrix: (Units=GPa)
#
#
# Indices 1 2 3 4 5 6 
#
# 1 130.0512 52.4271 67.8816 -3.8946 18.1212 -12.4737
# 2 52.4271 126.2953 38.8806 14.0546 7.1423 -10.3902
# 3 67.8816 38.8806 130.8376 0.2087 23.6350 -9.9163
# 4 -3.8946 14.0546 0.2087 38.4790 -12.2301 -8.6773
# 5 18.1212 7.1423 23.6350 -12.2301 44.3028 -1.6370
# 6 -12.4737 -10.3902 -9.9163 -8.6773 -1.6370 32.3491
#
#
#
# Elastic Compliance Matrix: (Units=1/GPa)
#
#
# Indices 1 2 3 4 5 6 
#
# 1 0.012159 -0.003592 -0.004875 0.002914 -0.000887 0.002777
# 2 -0.003592 0.010275 -0.001003 -0.004276 -0.000817 0.000419
# 3 -0.004875 -0.001003 0.011286 -0.001377 -0.004221 0.000675
# 4 0.002914 -0.004276 -0.001377 0.032856 0.009621 0.008628
# 5 -0.000887 -0.000817 -0.004221 0.009621 0.028052 0.002102
# 6 0.002777 0.000419 0.000675 0.008628 0.002102 0.034746
#
#
# Mechanical properties :
#
#
# Convention : Reuss Voigt Hill
#
# Bulk Modulus (GPa) = 67.66495 78.39584 73.03039
# Shear Modulus (GPa) = 32.62838 38.22584 35.42711
#
# Velocity S-wave (km/s) = 3.88851 4.20886 4.05185
# Velocity P-wave (km/s) = 7.17759 7.74269 7.46549
#
# Compressibility (1/GPa) = 0.01477870
#
# Stress axis : x y z
#
# Youngs Moduli (GPa) = 82.24297 97.32765 88.60368
#
# Poissons Ratio (x) = 0.34963 0.43194
# Poissons Ratio (y) = 0.29544 0.08890
# Poissons Ratio (z) = 0.40093 0.09766
#
# Static dielectric constant tensor:
#      x y z
#    x 3.954930 -0.211500 0.048790 
#    y -0.211500 3.898850 -0.305490 
#    z 0.048790 -0.305490 4.643110 
# 
# 
# High freq. dielectric constant tensor:
#      x y z
#    x 1.838370 -0.025130 -0.003500 
#    y -0.025130 1.852050 -0.010160 
#    z -0.003500 -0.010160 1.868830 
# 
# From -- ./inp_files/283018.got.cif
#   From: 2010.06.25/outbox.cif.g09.slc.cpg/sg2_142_cif.got.tgz:283018.got - 2010.06.27 13:26:56.
