data_PCOD8019128
_publ_section_title
;
Structure prediction by ZEFSAII (Michael W. Deem and Ramdas Pophale) SiO2 
 PCOD8019128
Probable space group: P -1
;
_chemical_formula_sum "Si O2"
_cell_formula_units_Z 16
_cell_length_a 11.666021
_cell_length_b 5.772566
_cell_length_c 12.967406
_cell_angle_alpha 124.163142
_cell_angle_beta 66.440141
_cell_angle_gamma 133.306134
_cell_volume 525.663260
_symmetry_space_group_name_H-M "P -1"
_symmetry_group_IT_number 2
_symmetry_cell_setting 'triclinic'
loop_
_space_group_symop_operation_xyz
x,y,z
-x,-y,-z
loop_
_atom_site_type_symbol
_atom_site_label
_atom_site_fract_x
_atom_site_fract_y
_atom_site_fract_z
Si Si1 0.868070 0.398750 0.108335
Si Si2 0.646412 0.397055 0.047524
Si Si3 0.996112 0.552359 0.646870
Si Si4 0.029606 0.078692 0.630120
Si Si5 0.338979 0.649554 0.355835
Si Si6 0.327371 0.002807 0.729257
Si Si7 0.171837 0.231347 0.122625
Si Si8 0.319237 0.269498 0.475776
O O1 0.995532 0.760585 0.218604
O O2 0.724496 0.142389 0.173201
O O3 0.803595 0.478187 0.055430
O O4 0.929154 0.187035 0.979815
O O5 0.690870 0.536798 0.950727
O O6 0.600723 0.589765 0.187351
O O7 0.500000 0.000000 0.000000
O O8 0.945395 0.142591 0.577662
O O9 0.949541 0.671103 0.795223
O O10 0.950756 0.665152 0.583957
O O11 0.185753 0.793449 0.645113
O O12 0.220471 0.317281 0.607748
O O13 0.526230 0.976895 0.365203
O O14 0.275089 0.345577 0.218030
O O15 0.293856 0.411633 0.414660
O O16 0.256446 0.848680 0.402012
O O17 0.500000 0.500000 0.500000
#
# Coordination Sequence:
#
# PCOD8019128 Si02
#       8
#     2   2   2   2   2   2   2   2
#     4  10  22  41  68  99 147 183 238 290 359 429
#     4  11  22  38  68  99 149 190 232 291 362 435
#     4  11  24  45  73 103 147 189 241 298 355 438
#     4  11  24  46  71 103 141 190 246 298 358 415
#     4  12  27  46  75 107 147 183 245 300 363 428
#     4  10  22  41  65 104 138 194 236 297 355 423
#     4  11  28  44  68 113 147 192 233 295 373 434
#     4  12  26  47  77 107 138 191 247 306 349 422
#
# _framework density 30.437738
#
# number of rings (size 3 to 8) (size 9 to 14) (size 15 to 20)
#    0.000    1.000    1.250    4.875    7.000    7.000 
#    0.000    3.750    0.000    0.000    0.000    0.000 
#    0.000    0.000    0.000    0.000    0.000    0.000 
#
# Total GULP energy -198345.161982 kJ/mol
# GULP energy per Si atom -12396.572624 kJ/mol
# Density = 3.036846 g / cm^3
# Si number density = 30.437738 Si / 1000 Ang^3
#
#
#
# Elastic Constant Matrix: (Units=GPa)
#
#
# Indices 1 2 3 4 5 6 
#
# 1 166.7614 108.9440 83.7831 5.3921 -5.5850 -37.3133
# 2 108.9440 137.2687 80.8860 29.5232 0.8252 -25.4705
# 3 83.7831 80.8860 158.0507 11.7098 3.2297 -25.7702
# 4 5.3921 29.5232 11.7098 49.3269 -6.7018 -1.7889
# 5 -5.5850 0.8252 3.2297 -6.7018 57.1042 0.7446
# 6 -37.3133 -25.4705 -25.7702 -1.7889 0.7446 51.9853
#
#
#
# Elastic Compliance Matrix: (Units=1/GPa)
#
#
# Indices 1 2 3 4 5 6 
#
# 1 0.015532 -0.011624 -0.002045 0.006249 0.002476 0.004619
# 2 -0.011624 0.021027 -0.003793 -0.010761 -0.002486 -0.000256
# 3 -0.002045 -0.003793 0.009589 0.000177 -0.000686 0.001443
# 4 0.006249 -0.010761 0.000177 0.026520 0.003867 0.000157
# 5 0.002476 -0.002486 -0.000686 0.003867 0.018281 0.000091
# 6 0.004619 -0.000256 0.001443 0.000157 0.000091 0.023146
#
#
# Mechanical properties :
#
#
# Convention : Reuss Voigt Hill
#
# Bulk Modulus (GPa) = 89.09564 112.14522 100.62043
# Shear Modulus (GPa) = 32.73083 44.24780 38.48932
#
# Velocity S-wave (km/s) = 3.28279 3.81690 3.55988
# Velocity P-wave (km/s) = 6.61090 7.50660 7.07294
#
# Compressibility (1/GPa) = 0.01122389
#
# Stress axis : x y z
#
# Youngs Moduli (GPa) = 64.38132 47.55709 104.28995
#
# Poissons Ratio (x) = 0.55280 0.21332
# Poissons Ratio (y) = 0.74836 0.39557
# Poissons Ratio (z) = 0.13169 0.18038
#
# Static dielectric constant tensor:
#      x y z
#    x 9.966920 0.545770 3.345540 
#    y 0.545770 6.749230 0.915810 
#    z 3.345540 0.915810 9.562270 
# 
# 
# High freq. dielectric constant tensor:
#      x y z
#    x 2.263360 0.005460 -0.008310 
#    y 0.005460 2.300720 0.003520 
#    z -0.008310 0.003520 2.276600 
# 
# From -- ./inp_files/511238.got.cif
#   From: 2010.06.25/outbox.cif.g09.slc.cpg/sg2_256_cif.got.tgz:511238.got - 2010.06.27 13:26:56.
