data_PCOD8019224
_publ_section_title
;
Structure prediction by ZEFSAII (Michael W. Deem and Ramdas Pophale) SiO2 
 PCOD8019224
Probable space group: P -1
;
_chemical_formula_sum "Si O2"
_cell_formula_units_Z 16
_cell_length_a 13.062337
_cell_length_b 18.059221
_cell_length_c 8.293159
_cell_angle_alpha 105.449534
_cell_angle_beta 102.858376
_cell_angle_gamma 143.363572
_cell_volume 733.197233
_symmetry_space_group_name_H-M "P -1"
_symmetry_group_IT_number 2
_symmetry_cell_setting 'triclinic'
loop_
_space_group_symop_operation_xyz
x,y,z
-x,-y,-z
loop_
_atom_site_type_symbol
_atom_site_label
_atom_site_fract_x
_atom_site_fract_y
_atom_site_fract_z
Si Si1 0.002268 0.246148 0.445807
Si Si2 0.046249 0.442145 0.001653
Si Si3 0.417292 0.316384 0.015600
Si Si4 0.635208 0.784607 0.409978
Si Si5 0.018819 0.934345 0.798689
Si Si6 0.666104 0.117291 0.462307
Si Si7 0.843439 0.187309 0.010035
Si Si8 0.991321 0.854042 0.101195
O O1 0.272404 0.463998 0.732811
O O2 0.000641 0.153973 0.371164
O O3 0.760557 0.102423 0.398979
O O4 0.959562 0.259914 0.269227
O O5 0.939705 0.341735 0.733104
O O6 0.887236 0.301779 0.018137
O O7 0.338863 0.610218 0.235681
O O8 0.000000 0.500000 0.000000
O O9 0.330226 0.234060 0.758746
O O10 0.294200 0.316483 0.024459
O O11 0.286606 0.161973 0.990643
O O12 0.754854 0.806666 0.598277
O O13 0.799268 0.973858 0.594728
O O14 0.030761 0.920729 0.981255
O O15 0.500000 0.000000 0.500000
O O16 0.475878 0.038539 0.229251
O O17 0.979832 0.218004 0.951967
#
# Coordination Sequence:
#
# PCOD8019224 Si02
#       8
#     2   2   2   2   2   2   2   2
#     4  11  24  43  67 102 131 171 224 268 330 400
#     4  11  24  40  63  95 123 169 223 271 323 394
#     4  11  23  39  63 100 140 168 218 265 324 396
#     4  11  22  40  63  95 133 171 216 264 333 381
#     4  10  24  40  67  97 138 173 209 276 324 394
#     4  10  22  45  63  91 129 171 220 271 324 388
#     4  10  24  41  70  90 129 177 215 276 329 385
#     4  10  22  41  65  98 131 174 216 265 332 391
#
# _framework density 21.822230999999999
#
# number of rings (size 3 to 8) (size 9 to 14) (size 15 to 20)
#    0.000    1.500    1.250    4.125    5.250    7.500 
#    0.000    0.625    0.000    0.000    0.000    0.000 
#    0.000    0.000    0.000    0.000    0.000    0.000 
#
# Total GULP energy -198238.657217 kJ/mol
# GULP energy per Si atom -12389.916076 kJ/mol
# Density = 2.177256 g / cm^3
# Si number density = 21.822231 Si / 1000 Ang^3
#
#
#
# Elastic Constant Matrix: (Units=GPa)
#
#
# Indices 1 2 3 4 5 6 
#
# 1 151.5482 49.7781 54.1400 6.3897 -1.0673 10.6202
# 2 49.7781 56.5589 25.4655 5.3406 0.9763 8.6876
# 3 54.1400 25.4655 109.4408 3.6172 0.5978 9.1900
# 4 6.3897 5.3406 3.6172 22.4808 9.4982 1.6782
# 5 -1.0673 0.9763 0.5978 9.4982 37.5068 -2.6930
# 6 10.6202 8.6876 9.1900 1.6782 -2.6930 41.0876
#
#
#
# Elastic Compliance Matrix: (Units=1/GPa)
#
#
# Indices 1 2 3 4 5 6 
#
# 1 0.010291 -0.007454 -0.003309 -0.000921 0.000755 -0.000257
# 2 -0.007454 0.025916 -0.001978 -0.003410 -0.000206 -0.002985
# 3 -0.003309 -0.001978 0.011350 -0.000210 -0.000262 -0.001274
# 4 -0.000921 -0.003410 -0.000210 0.051248 -0.013051 -0.001943
# 5 0.000755 -0.000206 -0.000262 -0.013051 0.030172 0.002418
# 6 -0.000257 -0.002985 -0.001274 -0.001943 0.002418 0.025558
#
#
# Mechanical properties :
#
#
# Convention : Reuss Voigt Hill
#
# Bulk Modulus (GPa) = 45.30089 64.03502 54.66796
# Shear Modulus (GPa) = 26.68449 32.75933 29.72191
#
# Velocity S-wave (km/s) = 3.50067 3.87872 3.69453
# Velocity P-wave (km/s) = 6.09456 7.03328 6.58068
#
# Compressibility (1/GPa) = 0.02207462
#
# Stress axis : x y z
#
# Youngs Moduli (GPa) = 97.17092 38.58633 88.10764
#
# Poissons Ratio (x) = 0.28763 0.29151
# Poissons Ratio (y) = 0.72433 0.17430
# Poissons Ratio (z) = 0.32150 0.07633
#
# Static dielectric constant tensor:
#      x y z
#    x 4.272230 0.214010 0.065460 
#    y 0.214010 3.741460 0.065670 
#    z 0.065460 0.065670 4.520380 
# 
# 
# High freq. dielectric constant tensor:
#      x y z
#    x 1.867700 0.013270 0.000980 
#    y 0.013270 1.832150 -0.006170 
#    z 0.000980 -0.006170 1.880790 
# 
# From -- ./inp_files/278161.got.cif
#   From: 2010.06.25/outbox.cif.g09.slc.cpg/sg2_140_cif.got.tgz:278161.got - 2010.06.27 13:26:56.
