data_PCOD8019260
_publ_section_title
;
Structure prediction by ZEFSAII (Michael W. Deem and Ramdas Pophale) SiO2 
 PCOD8019260
Probable space group: P -1
;
_chemical_formula_sum "Si O2"
_cell_formula_units_Z 14
_cell_length_a 14.911614
_cell_length_b 9.432127
_cell_length_c 15.079777
_cell_angle_alpha 140.221392
_cell_angle_beta 143.446288
_cell_angle_gamma 30.075521
_cell_volume 613.605678
_symmetry_space_group_name_H-M "P -1"
_symmetry_group_IT_number 2
_symmetry_cell_setting 'triclinic'
loop_
_space_group_symop_operation_xyz
x,y,z
-x,-y,-z
loop_
_atom_site_type_symbol
_atom_site_label
_atom_site_fract_x
_atom_site_fract_y
_atom_site_fract_z
Si Si1 0.789127 0.341236 0.196437
Si Si2 0.137424 0.734477 0.235910
Si Si3 0.672206 0.498705 0.900037
Si Si4 0.422631 0.653588 0.620428
Si Si5 0.160708 0.482526 0.303855
Si Si6 0.794862 0.710334 0.240550
Si Si7 0.368102 0.825239 0.153405
O O1 0.856968 0.480442 0.256052
O O2 0.607547 0.587604 0.233286
O O3 0.715425 0.197587 0.014520
O O4 0.978277 0.086431 0.283539
O O5 0.150719 0.632999 0.095619
O O6 0.362876 0.603382 0.381117
O O7 0.078868 0.597986 0.193537
O O8 0.465331 0.671601 0.766892
O O9 0.721967 0.222173 0.857778
O O10 0.658005 0.712696 0.061120
O O11 0.275346 0.591890 0.476004
O O12 0.324778 0.972492 0.657472
O O13 0.986832 0.619275 0.301028
O O14 0.307804 0.136669 0.259609
#
# Coordination Sequence:
#
# PCOD8019260 Si02
#       7
#     2   2   2   2   2   2   2
#     4  10  22  42  63  96 122 162 213 255 307 363
#     4  10  23  39  63  93 125 162 207 253 304 373
#     4   9  22  41  67  88 124 158 214 249 309 357
#     4  10  24  43  61  91 130 165 203 255 309 369
#     4  12  24  40  65  92 131 163 204 251 318 365
#     4  11  22  42  67  91 122 166 206 260 304 366
#     4  10  22  41  66  90 128 163 203 261 310 364
#
# _framework density 22.815956
#
# number of rings (size 3 to 8) (size 9 to 14) (size 15 to 20)
#    0.857    0.857    0.000    3.857    2.000    5.143 
#    0.000    1.429    0.000    0.000    0.000    0.000 
#    0.000    0.000    0.000    0.000    0.000    0.000 
#
# Total GULP energy -173554.034146 kJ/mol
# GULP energy per Si atom -12396.716725 kJ/mol
# Density = 2.276403 g / cm^3
# Si number density = 22.815956 Si / 1000 Ang^3
#
#
#
# Elastic Constant Matrix: (Units=GPa)
#
#
# Indices 1 2 3 4 5 6 
#
# 1 124.5962 60.1828 28.2737 5.0504 18.1708 -3.4350
# 2 60.1828 174.0371 42.8611 20.5602 7.9594 -1.2141
# 3 28.2737 42.8611 64.1028 22.5170 22.5807 5.2027
# 4 5.0504 20.5602 22.5170 33.2431 4.2656 6.9553
# 5 18.1708 7.9594 22.5807 4.2656 19.8981 7.2162
# 6 -3.4350 -1.2141 5.2027 6.9553 7.2162 30.0923
#
#
#
# Elastic Compliance Matrix: (Units=1/GPa)
#
#
# Indices 1 2 3 4 5 6 
#
# 1 0.011318 -0.003681 0.000983 0.000608 -0.011402 0.003567
# 2 -0.003681 0.008318 -0.005993 -0.001362 0.007303 -0.000485
# 3 0.000983 -0.005993 0.040991 -0.020276 -0.043540 0.007911
# 4 0.000608 -0.001362 -0.020276 0.044626 0.017410 -0.010969
# 5 -0.011402 0.007303 -0.043540 0.017410 0.112283 -0.024429
# 6 0.003567 -0.000485 0.007911 -0.010969 -0.024429 0.040645
#
#
# Mechanical properties :
#
#
# Convention : Reuss Voigt Hill
#
# Bulk Modulus (GPa) = 23.12478 69.48571 46.30525
# Shear Modulus (GPa) = 17.24263 32.07461 24.65862
#
# Velocity S-wave (km/s) = 2.75203 3.75346 3.29106
# Velocity P-wave (km/s) = 4.50062 7.02180 5.89751
#
# Compressibility (1/GPa) = 0.04324365
#
# Stress axis : x y z
#
# Youngs Moduli (GPa) = 88.35856 120.21643 24.39552
#
# Poissons Ratio (x) = 0.44254 -0.02397
# Poissons Ratio (y) = 0.32527 0.14621
# Poissons Ratio (z) = -0.08683 0.72048
#
# Static dielectric constant tensor:
#      x y z
#    x 4.243820 0.084990 -0.047610 
#    y 0.084990 4.095340 -0.067410 
#    z -0.047610 -0.067410 3.833640 
# 
# 
# High freq. dielectric constant tensor:
#      x y z
#    x 1.909510 0.007000 0.002200 
#    y 0.007000 1.904680 0.001140 
#    z 0.002200 0.001140 1.879600 
# 
# From -- ./inp_files/294934.got.cif
#   From: 2010.06.25/outbox.cif.g09.slc.cpg/sg2_148_cif.got.tgz:294934.got - 2010.06.27 13:26:56.
