data_PCOD8019703
_publ_section_title
;
Structure prediction by ZEFSAII (Michael W. Deem and Ramdas Pophale) SiO2 
 PCOD8019703
Probable space group: P -1
;
_chemical_formula_sum "Si O2"
_cell_formula_units_Z 16
_cell_length_a 9.806077
_cell_length_b 17.855943
_cell_length_c 11.477704
_cell_angle_alpha 29.287649
_cell_angle_beta 54.367956
_cell_angle_gamma 65.361572
_cell_volume 777.756947
_symmetry_space_group_name_H-M "P -1"
_symmetry_group_IT_number 2
_symmetry_cell_setting 'triclinic'
loop_
_space_group_symop_operation_xyz
x,y,z
-x,-y,-z
loop_
_atom_site_type_symbol
_atom_site_label
_atom_site_fract_x
_atom_site_fract_y
_atom_site_fract_z
Si Si1 0.484188 0.308304 0.649175
Si Si2 0.548807 0.181175 0.204336
Si Si3 0.223363 0.168398 0.775043
Si Si4 0.924297 0.644026 0.805381
Si Si5 0.922203 0.319129 0.747070
Si Si6 0.640625 0.645740 0.768439
Si Si7 0.808040 0.191962 0.727309
Si Si8 0.347605 0.333326 0.924229
O O1 0.386481 0.214855 0.715658
O O2 0.622066 0.215208 0.752398
O O3 0.344923 0.312737 0.814568
O O4 0.572727 0.485021 0.326664
O O5 0.465808 0.241796 0.274137
O O6 0.500000 0.000000 0.500000
O O7 0.753291 0.252018 0.999536
O O8 0.464359 0.223777 0.068973
O O9 0.249501 0.269995 0.507583
O O10 0.055637 0.210980 0.859620
O O11 0.197421 0.987988 0.994119
O O12 0.766265 0.585376 0.876205
O O13 0.070054 0.773073 0.494137
O O14 0.847750 0.714479 0.862610
O O15 0.000000 0.500000 0.000000
O O16 0.876630 0.303719 0.652239
O O17 0.000000 0.500000 0.500000
O O18 0.500000 0.500000 0.000000
#
# Coordination Sequence:
#
# PCOD8019703 Si02
#       8
#     2   2   2   2   2   2   2   2
#     4  11  23  45  69  95 135 183 226 275 339 416
#     4  11  24  42  68  99 136 177 220 283 347 398
#     4  12  26  43  69 103 137 174 231 285 341 400
#     4  11  23  41  66  97 130 176 220 276 340 398
#     4  12  25  44  70 102 135 181 233 277 338 412
#     4  11  24  43  67  97 134 172 223 278 334 411
#     4  12  25  44  69  97 137 179 226 283 341 400
#     4  10  22  41  70  93 132 175 230 270 337 402
#
# _framework density 20.571978000000001
#
# number of rings (size 3 to 8) (size 9 to 14) (size 15 to 20)
#    0.000    0.750    3.750    4.500    5.250    0.000 
#    0.000    0.625    0.000    0.000    0.000    0.000 
#    0.000    0.000    0.000    0.000    0.000    0.000 
#
# Total GULP energy -198405.566085 kJ/mol
# GULP energy per Si atom -12400.347880 kJ/mol
# Density = 2.052516 g / cm^3
# Si number density = 20.571978 Si / 1000 Ang^3
#
#
#
# Elastic Constant Matrix: (Units=GPa)
#
#
# Indices 1 2 3 4 5 6 
#
# 1 101.7488 65.4738 41.4725 -3.9392 4.8226 -19.4367
# 2 65.4738 105.9904 41.8121 -3.3281 -6.9567 -5.9257
# 3 41.4725 41.8121 109.8940 -10.7569 1.5206 -7.7746
# 4 -3.9392 -3.3281 -10.7569 45.8349 -9.2111 2.0672
# 5 4.8226 -6.9567 1.5206 -9.2111 29.2363 -1.0592
# 6 -19.4367 -5.9257 -7.7746 2.0672 -1.0592 41.0988
#
#
#
# Elastic Compliance Matrix: (Units=1/GPa)
#
#
# Indices 1 2 3 4 5 6 
#
# 1 0.019675 -0.011102 -0.002741 -0.001261 -0.005885 0.007097
# 2 -0.011102 0.017650 -0.002725 0.001117 0.006412 -0.003112
# 3 -0.002741 -0.002725 0.011414 0.002213 -0.000080 0.000357
# 4 -0.001261 0.001117 0.002213 0.023936 0.007863 -0.001018
# 5 -0.005885 0.006412 -0.000080 0.007863 0.039136 -0.001261
# 6 0.007097 -0.003112 0.000357 -0.001018 -0.001261 0.027326
#
#
# Mechanical properties :
#
#
# Convention : Reuss Voigt Hill
#
# Bulk Modulus (GPa) = 64.09127 68.34998 66.22063
# Shear Modulus (GPa) = 28.17336 34.49232 31.33284
#
# Velocity S-wave (km/s) = 3.70469 4.09915 3.90690
# Velocity P-wave (km/s) = 7.03718 7.46331 7.25338
#
# Compressibility (1/GPa) = 0.01560275
#
# Stress axis : x y z
#
# Youngs Moduli (GPa) = 50.82600 56.65840 87.61194
#
# Poissons Ratio (x) = 0.62900 0.24015
# Poissons Ratio (y) = 0.56425 0.23876
# Poissons Ratio (z) = 0.13932 0.15441
#
# Static dielectric constant tensor:
#      x y z
#    x 3.763000 -0.155410 0.124680 
#    y -0.155410 3.890930 0.337760 
#    z 0.124680 0.337760 3.750850 
# 
# 
# High freq. dielectric constant tensor:
#      x y z
#    x 1.805250 -0.015200 0.009140 
#    y -0.015200 1.819220 0.015520 
#    z 0.009140 0.015520 1.806010 
# 
# From -- ./inp_files/279493.got.cif
#   From: 2010.06.25/outbox.cif.g09.slc.cpg/sg2_140_cif.got.tgz:279493.got - 2010.06.27 13:26:56.
