data_PCOD8019511
_publ_section_title
;
Structure prediction by ZEFSAII (Michael W. Deem and Ramdas Pophale) SiO2 
 PCOD8019511
Probable space group: P -1
;
_chemical_formula_sum "Si O2"
_cell_formula_units_Z 14
_cell_length_a 11.370730
_cell_length_b 8.992133
_cell_length_c 8.975660
_cell_angle_alpha 52.104560
_cell_angle_beta 123.649779
_cell_angle_gamma 117.277079
_cell_volume 593.069106
_symmetry_space_group_name_H-M "P -1"
_symmetry_group_IT_number 2
_symmetry_cell_setting 'triclinic'
loop_
_space_group_symop_operation_xyz
x,y,z
-x,-y,-z
loop_
_atom_site_type_symbol
_atom_site_label
_atom_site_fract_x
_atom_site_fract_y
_atom_site_fract_z
Si Si1 0.582136 0.251149 0.720007
Si Si2 0.865602 0.393748 0.172572
Si Si3 0.722058 0.656177 0.074482
Si Si4 0.716715 0.972642 0.326148
Si Si5 0.833460 0.032027 0.064613
Si Si6 0.897980 0.718907 0.771410
Si Si7 0.505669 0.530266 0.739077
O O1 0.454883 0.072382 0.771967
O O2 0.579738 0.409088 0.747739
O O3 0.567480 0.322421 0.497746
O O4 0.734487 0.188189 0.871692
O O5 0.843280 0.519954 0.224966
O O6 0.019890 0.330618 0.292373
O O7 0.750071 0.200395 0.235119
O O8 0.833255 0.518594 0.928640
O O9 0.621175 0.602604 0.178447
O O10 0.811754 0.871837 0.019106
O O11 0.625534 0.641266 0.866568
O O12 0.772345 0.836557 0.572306
O O13 0.790008 0.921804 0.256620
O O14 0.995247 0.148762 0.119750
#
# Coordination Sequence:
#
# PCOD8019511 Si02
#       7
#     2   2   2   2   2   2   2
#     4  11  23  43  70 100 127 181 227 267 323 412
#     4  10  22  41  68  92 129 178 218 273 324 391
#     4  11  23  41  62 102 141 168 211 287 343 378
#     4  11  22  43  70  99 129 181 228 271 319 411
#     4  11  23  40  68  98 136 171 223 276 332 392
#     4  10  23  46  70  95 130 184 231 261 325 415
#     4  10  23  40  65  96 142 171 220 270 341 396
#
# _framework density 23.606017999999999
#
# number of rings (size 3 to 8) (size 9 to 14) (size 15 to 20)
#    0.000    1.429    1.429    4.714    4.000    5.714 
#    5.143    2.857    0.000    0.000    0.000    0.000 
#    0.000    0.000    0.000    0.000    0.000    0.000 
#
# Total GULP energy -173506.766180 kJ/mol
# GULP energy per Si atom -12393.340441 kJ/mol
# Density = 2.355229 g / cm^3
# Si number density = 23.606018 Si / 1000 Ang^3
#
#
#
# Elastic Constant Matrix: (Units=GPa)
#
#
# Indices 1 2 3 4 5 6 
#
# 1 30.0871 7.2404 9.0236 12.1275 7.7320 -9.7416
# 2 7.2404 121.9619 33.2916 -7.7665 14.2989 -16.6141
# 3 9.0236 33.2916 115.3604 -6.4614 1.9688 4.0953
# 4 12.1275 -7.7665 -6.4614 26.7049 2.7540 -1.6143
# 5 7.7320 14.2989 1.9688 2.7540 28.6711 4.6703
# 6 -9.7416 -16.6141 4.0953 -1.6143 4.6703 31.7303
#
#
#
# Elastic Compliance Matrix: (Units=1/GPa)
#
#
# Indices 1 2 3 4 5 6 
#
# 1 0.054530 0.001607 -0.006440 -0.023015 -0.016048 0.019606
# 2 0.001607 0.011154 -0.003338 0.002948 -0.007353 0.007997
# 3 -0.006440 -0.003338 0.010486 0.003839 0.003185 -0.005352
# 4 -0.023015 0.002948 0.003839 0.049439 0.000302 -0.003547
# 5 -0.016048 -0.007353 0.003185 0.000302 0.045204 -0.015826
# 6 0.019606 0.007997 -0.005352 -0.003547 -0.015826 0.044562
#
#
# Mechanical properties :
#
#
# Convention : Reuss Voigt Hill
#
# Bulk Modulus (GPa) = 16.71431 40.72451 28.71941
# Shear Modulus (GPa) = 19.86807 31.94483 25.90645
#
# Velocity S-wave (km/s) = 2.90427 3.68264 3.31637
# Velocity P-wave (km/s) = 4.28279 5.94741 5.18237
#
# Compressibility (1/GPa) = 0.05982897
#
# Stress axis : x y z
#
# Youngs Moduli (GPa) = 18.33837 89.65246 95.36295
#
# Poissons Ratio (x) = -0.14412 0.61418
# Poissons Ratio (y) = -0.02948 0.31832
# Poissons Ratio (z) = 0.11811 0.29926
#
# Static dielectric constant tensor:
#      x y z
#    x 4.343190 0.030810 -0.048820 
#    y 0.030810 4.299450 -0.043280 
#    z -0.048820 -0.043280 4.169930 
# 
# 
# High freq. dielectric constant tensor:
#      x y z
#    x 1.936770 0.012510 -0.000050 
#    y 0.012510 1.937650 -0.012300 
#    z -0.000050 -0.012300 1.924570 
# 
# From -- ./inp_files/184504.got.cif
#   From: 2010.06.25/outbox.cif.g09.slc.cpg/sg2_93_cif.got.tgz:184504.got - 2010.06.27 13:26:56.
