data_PCOD8019974
_publ_section_title
;
Structure prediction by ZEFSAII (Michael W. Deem and Ramdas Pophale) SiO2 
 PCOD8019974
Probable space group: P -1
;
_chemical_formula_sum "Si O2"
_cell_formula_units_Z 16
_cell_length_a 7.020571
_cell_length_b 15.158727
_cell_length_c 11.579188
_cell_angle_alpha 91.172582
_cell_angle_beta 104.367330
_cell_angle_gamma 134.440901
_cell_volume 818.018184
_symmetry_space_group_name_H-M "P -1"
_symmetry_group_IT_number 2
_symmetry_cell_setting 'triclinic'
loop_
_space_group_symop_operation_xyz
x,y,z
-x,-y,-z
loop_
_atom_site_type_symbol
_atom_site_label
_atom_site_fract_x
_atom_site_fract_y
_atom_site_fract_z
Si Si1 0.182880 0.144400 0.068332
Si Si2 0.820497 0.699280 0.106637
Si Si3 0.836642 0.536799 0.957016
Si Si4 0.814499 0.284180 0.194374
Si Si5 0.821976 0.636944 0.549715
Si Si6 0.054383 0.856451 0.738651
Si Si7 0.757232 0.991317 0.442603
Si Si8 0.138058 0.800945 0.391324
O O1 0.120642 0.206102 0.977002
O O2 0.523604 0.239539 0.120600
O O3 0.103590 0.139221 0.187704
O O4 0.000000 0.000000 0.000000
O O5 0.496970 0.594121 0.099869
O O6 0.014388 0.782424 0.247488
O O7 0.904559 0.630456 0.069047
O O8 0.933642 0.609326 0.852982
O O9 0.000000 0.500000 0.000000
O O10 0.751828 0.157836 0.174622
O O11 0.954447 0.351938 0.343322
O O12 0.500000 0.500000 0.500000
O O13 0.824768 0.734861 0.613658
O O14 0.928748 0.672308 0.434018
O O15 0.250478 0.984391 0.693535
O O16 0.819069 0.093002 0.536750
O O17 0.443277 0.850723 0.423194
O O18 0.000000 0.000000 0.500000
#
# Coordination Sequence:
#
# PCOD8019974 Si02
#       8
#     2   2   2   2   2   2   2   2
#     4  12  26  38  64  96 128 173 212 259 315 388
#     4  11  24  40  65  95 129 163 215 266 319 387
#     4  11  22  43  65  89 128 169 211 265 324 375
#     4  10  22  42  64  88 129 163 213 259 321 372
#     4   9  19  42  68  87 122 167 203 269 319 374
#     4   9  23  41  62  87 130 162 213 260 318 373
#     4  10  23  40  64  88 126 172 210 261 317 374
#     4  10  23  39  61  95 124 160 209 260 319 376
#
# _framework density 19.559467000000001
#
# number of rings (size 3 to 8) (size 9 to 14) (size 15 to 20)
#    0.750    1.000    2.500    0.750    5.250    2.500 
#    0.000    0.625    0.000    0.000    0.000    0.000 
#    0.000    0.000    0.000    0.000    0.000    0.000 
#
# Total GULP energy -198302.614377 kJ/mol
# GULP energy per Si atom -12393.913399 kJ/mol
# Density = 1.951495 g / cm^3
# Si number density = 19.559467 Si / 1000 Ang^3
#
#
#
# Elastic Constant Matrix: (Units=GPa)
#
#
# Indices 1 2 3 4 5 6 
#
# 1 124.8798 54.5543 45.1464 -10.0518 3.1212 9.7014
# 2 54.5543 119.9114 50.1290 -16.2093 1.1949 21.7263
# 3 45.1464 50.1290 103.1994 -14.3106 1.8391 15.4933
# 4 -10.0518 -16.2093 -14.3106 28.6940 0.9356 5.1895
# 5 3.1212 1.1949 1.8391 0.9356 29.3388 -4.9883
# 6 9.7014 21.7263 15.4933 5.1895 -4.9883 29.7321
#
#
#
# Elastic Compliance Matrix: (Units=1/GPa)
#
#
# Indices 1 2 3 4 5 6 
#
# 1 0.010669 -0.003728 -0.002930 0.000078 -0.000693 0.000639
# 2 -0.003728 0.013706 -0.002738 0.006724 -0.001706 -0.008833
# 3 -0.002930 -0.002738 0.013903 0.005405 -0.001555 -0.005492
# 4 0.000078 0.006724 0.005405 0.044482 -0.004816 -0.016327
# 5 -0.000693 -0.001706 -0.001555 -0.004816 0.036038 0.009170
# 6 0.000639 -0.008833 -0.005492 -0.016327 0.009170 0.047130
#
#
# Mechanical properties :
#
#
# Convention : Reuss Voigt Hill
#
# Bulk Modulus (GPa) = 51.31357 71.96114 61.63735
# Shear Modulus (GPa) = 26.14848 30.76372 28.45610
#
# Velocity S-wave (km/s) = 3.66029 3.97019 3.81839
# Velocity P-wave (km/s) = 6.64494 7.60838 7.14292
#
# Compressibility (1/GPa) = 0.01948802
#
# Stress axis : x y z
#
# Youngs Moduli (GPa) = 93.72798 72.95811 71.92455
#
# Poissons Ratio (x) = 0.27197 0.21071
# Poissons Ratio (y) = 0.34939 0.19695
# Poissons Ratio (z) = 0.27458 0.19978
#
# Static dielectric constant tensor:
#      x y z
#    x 3.633660 0.242630 -0.096130 
#    y 0.242630 3.904750 -0.266950 
#    z -0.096130 -0.266950 3.544840 
# 
# 
# High freq. dielectric constant tensor:
#      x y z
#    x 1.755220 0.011960 -0.002990 
#    y 0.011960 1.768920 -0.017270 
#    z -0.002990 -0.017270 1.761850 
# 
# From -- ./inp_files/367820.got.cif
#   From: 2010.06.25/outbox.cif.g09.slc.cpg/sg2_184_cif.got.tgz:367820.got - 2010.06.27 13:26:56.
