data_PCOD8019091
_publ_section_title
;
Structure prediction by ZEFSAII (Michael W. Deem and Ramdas Pophale) SiO2 
 PCOD8019091
Probable space group: P -1
;
_chemical_formula_sum "Si O2"
_cell_formula_units_Z 16
_cell_length_a 29.577309
_cell_length_b 23.902000
_cell_length_c 18.158189
_cell_angle_alpha 19.512967
_cell_angle_beta 18.081600
_cell_angle_gamma 10.010737
_cell_volume 687.667312
_symmetry_space_group_name_H-M "P -1"
_symmetry_group_IT_number 2
_symmetry_cell_setting 'triclinic'
loop_
_space_group_symop_operation_xyz
x,y,z
-x,-y,-z
loop_
_atom_site_type_symbol
_atom_site_label
_atom_site_fract_x
_atom_site_fract_y
_atom_site_fract_z
Si Si1 0.555362 0.307326 0.928692
Si Si2 0.200502 0.212515 0.716172
Si Si3 0.730267 0.197959 0.130488
Si Si4 0.637665 0.259922 0.521128
Si Si5 0.664913 0.942385 0.637964
Si Si6 0.798156 0.847030 0.898524
Si Si7 0.720283 0.462135 0.398103
Si Si8 0.036228 0.813672 0.998541
O O1 0.508934 0.440903 0.916067
O O2 0.721989 0.274973 0.661246
O O3 0.273505 0.528720 0.045778
O O4 0.755178 0.953025 0.076865
O O5 0.980435 0.576495 0.626983
O O6 0.500000 0.000000 0.500000
O O7 0.076583 0.238311 0.804542
O O8 0.670997 0.061667 0.411587
O O9 0.000000 0.000000 0.000000
O O10 0.780636 0.152416 0.020698
O O11 0.500000 0.500000 0.500000
O O12 0.375365 0.445052 0.652614
O O13 0.847614 0.162177 0.267661
O O14 0.797318 0.948750 0.697074
O O15 0.504004 0.194944 0.639638
O O16 0.502848 0.926511 0.888714
O O17 0.952101 0.803714 0.777286
O O18 0.000000 0.500000 0.000000
#
# Coordination Sequence:
#
# PCOD8019091 Si02
#       8
#     2   2   2   2   2   2   2   2
#     4   9  20  40  65  92 125 166 217 264 314 382
#     4  12  24  38  60  95 132 167 212 263 320 381
#     4   9  18  39  66  88 121 171 217 256 309 377
#     4  11  23  42  68  97 128 164 216 267 315 385
#     4  10  22  41  64  96 133 166 211 267 318 382
#     4  10  22  42  66  96 130 165 210 262 320 383
#     4   9  21  44  69  90 125 175 212 258 323 379
#     4  10  22  41  65  91 128 171 214 267 315 371
#
# _framework density 23.267064999999999
#
# number of rings (size 3 to 8) (size 9 to 14) (size 15 to 20)
#    0.000    2.000    0.000    3.750    0.000    5.000 
#    0.000   15.000    0.000    0.000    0.000    0.000 
#    0.000    0.000    0.000    0.000    0.000    0.000 
#
# Total GULP energy -198299.969831 kJ/mol
# GULP energy per Si atom -12393.748114 kJ/mol
# Density = 2.321411 g / cm^3
# Si number density = 23.267065 Si / 1000 Ang^3
#
#
#
# Elastic Constant Matrix: (Units=GPa)
#
#
# Indices 1 2 3 4 5 6 
#
# 1 133.4409 24.6837 60.6659 9.5204 1.9108 -12.0812
# 2 24.6837 93.4350 59.0092 -4.0237 10.8167 -14.0141
# 3 60.6659 59.0092 134.3166 1.7304 -3.0140 -12.9253
# 4 9.5204 -4.0237 1.7304 42.5751 -13.2528 -4.3312
# 5 1.9108 10.8167 -3.0140 -13.2528 33.4855 12.0784
# 6 -12.0812 -14.0141 -12.9253 -4.3312 12.0784 26.6957
#
#
#
# Elastic Compliance Matrix: (Units=1/GPa)
#
#
# Indices 1 2 3 4 5 6 
#
# 1 0.010069 0.001381 -0.004790 -0.002765 -0.004126 0.004381
# 2 0.001381 0.018169 -0.007760 -0.000529 -0.010917 0.011259
# 3 -0.004790 -0.007760 0.012912 0.001212 0.005195 -0.002144
# 4 -0.002765 -0.000529 0.001212 0.027559 0.012036 -0.001917
# 5 -0.004126 -0.010917 0.005195 0.012036 0.047784 -0.024750
# 6 0.004381 0.011259 -0.002144 -0.001917 -0.024750 0.055201
#
#
# Mechanical properties :
#
#
# Convention : Reuss Voigt Hill
#
# Bulk Modulus (GPa) = 53.15965 72.21223 62.68594
# Shear Modulus (GPa) = 24.96209 35.00683 29.98446
#
# Velocity S-wave (km/s) = 3.27899 3.88308 3.59375
# Velocity P-wave (km/s) = 6.10188 7.15598 6.64985
#
# Compressibility (1/GPa) = 0.01881126
#
# Stress axis : x y z
#
# Youngs Moduli (GPa) = 99.31341 55.04001 77.44443
#
# Poissons Ratio (x) = -0.07599 0.37094
# Poissons Ratio (y) = -0.13711 0.60099
# Poissons Ratio (z) = 0.47569 0.42713
#
# Static dielectric constant tensor:
#      x y z
#    x 6.336520 -2.007870 -5.793310 
#    y -2.007870 6.200060 5.109680 
#    z -5.793310 5.109680 19.093540 
# 
# 
# High freq. dielectric constant tensor:
#      x y z
#    x 1.910870 -0.004590 -0.009050 
#    y -0.004590 1.922890 0.002920 
#    z -0.009050 0.002920 1.927810 
# 
# From -- ./inp_files/580204.got.cif
#   From: 2010.06.25/outbox.cif.g09.slc.cpg/sg2_291_cif.got.tgz:580204.got - 2010.06.27 13:26:56.
