data_PCOD8019499
_publ_section_title
;
Structure prediction by ZEFSAII (Michael W. Deem and Ramdas Pophale) SiO2 
 PCOD8019499
Probable space group: P -1
;
_chemical_formula_sum "Si O2"
_cell_formula_units_Z 16
_cell_length_a 8.643638
_cell_length_b 12.401862
_cell_length_c 9.297560
_cell_angle_alpha 46.128653
_cell_angle_beta 85.918241
_cell_angle_gamma 104.776357
_cell_volume 649.303573
_symmetry_space_group_name_H-M "P -1"
_symmetry_group_IT_number 2
_symmetry_cell_setting 'triclinic'
loop_
_space_group_symop_operation_xyz
x,y,z
-x,-y,-z
loop_
_atom_site_type_symbol
_atom_site_label
_atom_site_fract_x
_atom_site_fract_y
_atom_site_fract_z
Si Si1 0.751444 0.923510 0.692504
Si Si2 0.455620 0.204493 0.885209
Si Si3 0.131631 0.632683 0.471170
Si Si4 0.748522 0.105730 0.982708
Si Si5 0.511297 0.349294 0.219904
Si Si6 0.623864 0.502620 0.352549
Si Si7 0.037974 0.243947 0.067568
Si Si8 0.153238 0.698911 0.725917
O O1 0.660205 0.851787 0.914943
O O2 0.639746 0.821242 0.659788
O O3 0.923247 0.892529 0.720150
O O4 0.779356 0.108070 0.492904
O O5 0.368843 0.085902 0.863883
O O6 0.631587 0.203303 0.930260
O O7 0.459355 0.383799 0.668614
O O8 0.150894 0.811309 0.249166
O O9 0.314481 0.618348 0.447983
O O10 0.074219 0.605030 0.667283
O O11 0.000000 0.500000 0.500000
O O12 0.877466 0.135238 0.077871
O O13 0.488776 0.385142 0.354810
O O14 0.692118 0.340432 0.192313
O O15 0.500000 0.500000 0.000000
O O16 0.802809 0.628262 0.149995
O O17 0.987427 0.350445 0.091588
#
# Coordination Sequence:
#
# PCOD8019499 Si02
#       8
#     2   2   2   2   2   2   2   2
#     4  11  22  44  65  95 131 170 217 271 318 374
#     4  10  22  41  68  88 130 170 217 262 317 380
#     4  11  23  43  64  96 134 165 208 266 327 379
#     4  11  23  42  68  97 123 171 223 257 320 387
#     4  11  21  39  63  93 125 168 211 262 322 378
#     4  10  23  42  64  94 132 169 213 265 326 382
#     4  11  23  40  69  97 126 167 224 258 320 385
#     4  11  25  42  68  93 131 172 217 265 316 381
#
# _framework density 24.641787000000001
#
# number of rings (size 3 to 8) (size 9 to 14) (size 15 to 20)
#    0.000    1.250    5.000    1.500    0.000    5.500 
#    6.750    0.000    0.000    0.000    0.000    0.000 
#    0.000    0.000    0.000    0.000    0.000    0.000 
#
# Total GULP energy -198349.303296 kJ/mol
# GULP energy per Si atom -12396.831456 kJ/mol
# Density = 2.458570 g / cm^3
# Si number density = 24.641787 Si / 1000 Ang^3
#
#
#
# Elastic Constant Matrix: (Units=GPa)
#
#
# Indices 1 2 3 4 5 6 
#
# 1 130.6641 70.8766 32.7567 15.6930 34.3123 6.7571
# 2 70.8766 153.6604 31.6816 12.8984 22.9762 15.2506
# 3 32.7567 31.6816 81.6714 -4.7589 24.0026 -3.6883
# 4 15.6930 12.8984 -4.7589 38.1255 -0.7745 8.5775
# 5 34.3123 22.9762 24.0026 -0.7745 35.8063 1.6016
# 6 6.7571 15.2506 -3.6883 8.5775 1.6016 54.3950
#
#
#
# Elastic Compliance Matrix: (Units=1/GPa)
#
#
# Indices 1 2 3 4 5 6 
#
# 1 0.013112 -0.004085 -0.001194 -0.004444 -0.009258 0.000409
# 2 -0.004085 0.009179 -0.001894 -0.001227 -0.000643 -0.001982
# 3 -0.001194 -0.001894 0.016182 0.002616 -0.008504 0.001614
# 4 -0.004444 -0.001227 0.002616 0.029724 0.004103 -0.003734
# 5 -0.009258 -0.000643 -0.008504 0.004103 0.043053 -0.001161
# 6 0.000409 -0.001982 0.001614 -0.003734 -0.001161 0.019621
#
#
# Mechanical properties :
#
#
# Convention : Reuss Voigt Hill
#
# Bulk Modulus (GPa) = 41.44775 70.73616 56.09196
# Shear Modulus (GPa) = 32.62425 41.04410 36.83417
#
# Velocity S-wave (km/s) = 3.64255 4.08564 3.87044
# Velocity P-wave (km/s) = 5.87771 7.14316 6.54111
#
# Compressibility (1/GPa) = 0.02412676
#
# Stress axis : x y z
#
# Youngs Moduli (GPa) = 76.26524 108.94966 61.79557
#
# Poissons Ratio (x) = 0.44507 0.07379
# Poissons Ratio (y) = 0.31155 0.11704
# Poissons Ratio (z) = 0.09106 0.20635
#
# Static dielectric constant tensor:
#      x y z
#    x 9.147630 4.158920 3.718250 
#    y 4.158920 9.048340 3.350530 
#    z 3.718250 3.350530 7.749260 
# 
# 
# High freq. dielectric constant tensor:
#      x y z
#    x 1.985660 -0.011950 0.010080 
#    y -0.011950 1.989510 -0.007170 
#    z 0.010080 -0.007170 2.009380 
# 
# From -- ./inp_files/184306.got.cif
#   From: 2010.06.25/outbox.cif.g09.slc.cpg/sg2_93_cif.got.tgz:184306.got - 2010.06.27 13:26:56.
