data_PCOD8019728
_publ_section_title
;
Structure prediction by ZEFSAII (Michael W. Deem and Ramdas Pophale) SiO2 
 PCOD8019728
Probable space group: P -1
;
_chemical_formula_sum "Si O2"
_cell_formula_units_Z 16
_cell_length_a 11.401136
_cell_length_b 22.706525
_cell_length_c 5.343103
_cell_angle_alpha 110.388589
_cell_angle_beta 118.301097
_cell_angle_gamma 32.795639
_cell_volume 656.002411
_symmetry_space_group_name_H-M "P -1"
_symmetry_group_IT_number 2
_symmetry_cell_setting 'triclinic'
loop_
_space_group_symop_operation_xyz
x,y,z
-x,-y,-z
loop_
_atom_site_type_symbol
_atom_site_label
_atom_site_fract_x
_atom_site_fract_y
_atom_site_fract_z
Si Si1 0.357830 0.404459 0.209677
Si Si2 0.805263 0.025193 0.526179
Si Si3 0.694881 0.172700 0.296699
Si Si4 0.600995 0.805904 0.288498
Si Si5 0.089429 0.199215 0.464915
Si Si6 0.754786 0.923157 0.074593
Si Si7 0.568773 0.436903 0.227194
Si Si8 0.944787 0.573073 0.351876
O O1 0.587140 0.284119 0.390035
O O2 0.433821 0.421943 0.089001
O O3 0.190022 0.504896 0.387456
O O4 0.210149 0.401920 0.972101
O O5 0.777762 0.990160 0.202803
O O6 0.062889 0.916858 0.748179
O O7 0.769366 0.112687 0.548002
O O8 0.600521 0.084559 0.591603
O O9 0.509054 0.197261 0.030121
O O10 0.736915 0.810803 0.308065
O O11 0.791463 0.691201 0.471720
O O12 0.076110 0.164713 0.656874
O O13 0.840550 0.321620 0.322821
O O14 0.176453 0.126739 0.204592
O O15 0.500000 0.000000 0.000000
O O16 0.500000 0.500000 0.500000
O O17 0.500000 0.500000 0.000000
O O18 0.000000 0.500000 0.500000
#
# Coordination Sequence:
#
# PCOD8019728 Si02
#       8
#     2   2   2   2   2   2   2   2
#     4  10  23  44  68 101 142 178 245 296 367 438
#     4  11  23  41  68  97 141 180 242 295 364 438
#     4  10  23  43  64 101 133 187 233 304 367 424
#     4  11  23  40  67  99 136 180 242 295 360 438
#     4  12  27  46  73 106 146 197 245 302 370 439
#     4  12  25  46  71 105 146 194 244 303 362 444
#     4  12  28  50  75 109 148 197 247 307 371 447
#     4  10  22  41  71 100 133 184 232 306 362 424
#
# _framework density 24.390156000000001
#
# number of rings (size 3 to 8) (size 9 to 14) (size 15 to 20)
#    0.000    1.000    1.250    4.500    5.250    0.000 
#    9.000    0.000    0.000    0.000    0.000    0.000 
#    0.000    0.000    0.000    0.000    0.000    0.000 
#
# Total GULP energy -198270.752948 kJ/mol
# GULP energy per Si atom -12391.922059 kJ/mol
# Density = 2.433464 g / cm^3
# Si number density = 24.390156 Si / 1000 Ang^3
#
#
#
# Elastic Constant Matrix: (Units=GPa)
#
#
# Indices 1 2 3 4 5 6 
#
# 1 124.4640 51.4637 19.3147 -11.9800 5.3239 -5.6769
# 2 51.4637 136.3535 24.0093 -17.4029 -4.5395 -14.8870
# 3 19.3147 24.0093 68.7689 -1.9750 -11.5779 -1.4178
# 4 -11.9800 -17.4029 -1.9750 39.7864 3.2193 -1.9172
# 5 5.3239 -4.5395 -11.5779 3.2193 32.4220 -8.3134
# 6 -5.6769 -14.8870 -1.4178 -1.9172 -8.3134 44.9912
#
#
#
# Elastic Compliance Matrix: (Units=1/GPa)
#
#
# Indices 1 2 3 4 5 6 
#
# 1 0.010027 -0.003343 -0.002140 0.001686 -0.003154 -0.000419
# 2 -0.003343 0.009764 -0.002027 0.003180 0.001695 0.003194
# 3 -0.002140 -0.002027 0.016911 -0.001175 0.006409 0.000726
# 4 0.001686 0.003180 -0.001175 0.027267 -0.002463 0.001935
# 5 -0.003154 0.001695 0.006409 -0.002463 0.035899 0.006893
# 6 -0.000419 0.003194 0.000726 0.001935 0.006893 0.024610
#
#
# Mechanical properties :
#
#
# Convention : Reuss Voigt Hill
#
# Bulk Modulus (GPa) = 46.12558 57.68464 51.90511
# Shear Modulus (GPa) = 34.07735 39.09317 36.58526
#
# Velocity S-wave (km/s) = 3.74194 4.00787 3.87719
# Velocity P-wave (km/s) = 6.13368 6.71711 6.43201
#
# Compressibility (1/GPa) = 0.02167994
#
# Stress axis : x y z
#
# Youngs Moduli (GPa) = 99.73106 102.42033 59.13450
#
# Poissons Ratio (x) = 0.34242 0.12656
# Poissons Ratio (y) = 0.33343 0.11988
# Poissons Ratio (z) = 0.21344 0.20763
#
# Static dielectric constant tensor:
#      x y z
#    x 3.963100 0.447160 -0.993870 
#    y 0.447160 4.831660 0.593130 
#    z -0.993870 0.593130 2.071430 
# 
# 
# High freq. dielectric constant tensor:
#      x y z
#    x 1.978000 0.001670 0.015730 
#    y 0.001670 1.995130 -0.019020 
#    z 0.015730 -0.019020 1.942170 
# 
# From -- ./inp_files/84467.got.cif
#   From: 2010.06.25/outbox.cif.g09.slc.cpg/sg2_43_cif.got.tgz:84467.got - 2010.06.27 13:26:56.
