data_PCOD8019849
_publ_section_title
;
Structure prediction by ZEFSAII (Michael W. Deem and Ramdas Pophale) SiO2 
 PCOD8019849
Probable space group: P -1
;
_chemical_formula_sum "Si O2"
_cell_formula_units_Z 14
_cell_length_a 11.042154
_cell_length_b 13.880500
_cell_length_c 4.971668
_cell_angle_alpha 86.126187
_cell_angle_beta 94.766466
_cell_angle_gamma 67.741347
_cell_volume 698.725725
_symmetry_space_group_name_H-M "P -1"
_symmetry_group_IT_number 2
_symmetry_cell_setting 'triclinic'
loop_
_space_group_symop_operation_xyz
x,y,z
-x,-y,-z
loop_
_atom_site_type_symbol
_atom_site_label
_atom_site_fract_x
_atom_site_fract_y
_atom_site_fract_z
Si Si1 0.128343 0.693218 0.172237
Si Si2 0.729132 0.746296 0.592712
Si Si3 0.092807 0.487243 0.270316
Si Si4 0.229268 0.765026 0.688521
Si Si5 0.833289 0.819096 0.088145
Si Si6 0.574232 0.166318 0.519657
Si Si7 0.723932 0.059515 0.103610
O O1 0.156624 0.573683 0.271151
O O2 0.140366 0.754185 0.430585
O O3 0.980656 0.754065 0.022288
O O4 0.229302 0.690056 0.951414
O O5 0.785486 0.623451 0.688946
O O6 0.815108 0.769860 0.374179
O O7 0.579709 0.782609 0.459675
O O8 0.732640 0.809478 0.850025
O O9 0.000000 0.500000 0.500000
O O10 0.000000 0.500000 0.000000
O O11 0.376054 0.743238 0.600010
O O12 0.179115 0.884034 0.779923
O O13 0.811331 0.939235 0.095579
O O14 0.612568 0.075327 0.312692
O O15 0.650764 0.115942 0.812240
#
# Coordination Sequence:
#
# PCOD8019849 Si02
#       7
#     2   2   2   2   2   2   2
#     4  12  22  40  67  88 128 158 210 257 312 365
#     4  12  24  42  65  93 130 156 214 257 314 367
#     4  12  23  44  64  95 124 159 200 263 320 367
#     4  10  22  42  60  90 126 170 202 254 299 368
#     4  12  25  37  65 100 120 171 203 258 316 367
#     4  10  22  43  62  87 133 168 203 257 297 369
#     4  10  22  42  60  94 129 165 212 243 314 357
#
# _framework density 20.036473000000001
#
# number of rings (size 3 to 8) (size 9 to 14) (size 15 to 20)
#    0.857    0.000    4.286    3.429    0.000    4.571 
#    0.000    1.429    0.000    0.000    0.000    0.000 
#    0.000    0.000    0.000    0.000    0.000    0.000 
#
# Total GULP energy -173533.384000 kJ/mol
# GULP energy per Si atom -12395.241714 kJ/mol
# Density = 1.999087 g / cm^3
# Si number density = 20.036473 Si / 1000 Ang^3
#
#
#
# Elastic Constant Matrix: (Units=GPa)
#
#
# Indices 1 2 3 4 5 6 
#
# 1 52.5723 33.5698 24.8287 2.0951 1.7392 20.4841
# 2 33.5698 83.4666 36.8912 -1.8381 9.6448 21.0707
# 3 24.8287 36.8912 140.1921 5.2207 -1.2499 11.9549
# 4 2.0951 -1.8381 5.2207 24.9777 0.6325 -2.8557
# 5 1.7392 9.6448 -1.2499 0.6325 26.3137 2.2422
# 6 20.4841 21.0707 11.9549 -2.8557 2.2422 23.8263
#
#
#
# Elastic Compliance Matrix: (Units=1/GPa)
#
#
# Indices 1 2 3 4 5 6 
#
# 1 0.033396 -0.007444 -0.001843 -0.005553 0.002450 -0.022100
# 2 -0.007444 0.019172 -0.003155 0.001913 -0.006034 -0.008175
# 3 -0.001843 -0.003155 0.008396 -0.001903 0.001742 -0.000231
# 4 -0.005553 0.001913 -0.001903 0.042160 -0.002230 0.009300
# 5 0.002450 -0.006034 0.001742 -0.002230 0.040335 -0.001707
# 6 -0.022100 -0.008175 -0.000231 0.009300 -0.001707 0.069591
#
#
# Mechanical properties :
#
#
# Convention : Reuss Voigt Hill
#
# Bulk Modulus (GPa) = 27.71469 51.86782 39.79126
# Shear Modulus (GPa) = 20.00333 27.08631 23.54482
#
# Velocity S-wave (km/s) = 3.16309 3.68074 3.43169
# Velocity P-wave (km/s) = 5.21558 6.63375 5.96695
#
# Compressibility (1/GPa) = 0.03608195
#
# Stress axis : x y z
#
# Youngs Moduli (GPa) = 29.94377 52.15894 119.10990
#
# Poissons Ratio (x) = 0.38825 0.21947
# Poissons Ratio (y) = 0.22289 0.37575
# Poissons Ratio (z) = 0.05517 0.16455
#
# Static dielectric constant tensor:
#      x y z
#    x 3.500580 0.298330 -0.124590 
#    y 0.298330 3.457150 0.088800 
#    z -0.124590 0.088800 3.788040 
# 
# 
# High freq. dielectric constant tensor:
#      x y z
#    x 1.769490 0.019950 -0.009460 
#    y 0.019950 1.766930 0.009140 
#    z -0.009460 0.009140 1.807160 
# 
# From -- ./inp_files/66827.got.cif
#   From: 2010.06.25/outbox.cif.g09.slc.cpg/sg2_34_cif.got.tgz:66827.got - 2010.06.27 13:26:56.
