data_PCOD8019712
_publ_section_title
;
Structure prediction by ZEFSAII (Michael W. Deem and Ramdas Pophale) SiO2 
 PCOD8019712
Probable space group: P -1
;
_chemical_formula_sum "Si O2"
_cell_formula_units_Z 12
_cell_length_a 11.728455
_cell_length_b 9.471374
_cell_length_c 14.049777
_cell_angle_alpha 47.613728
_cell_angle_beta 31.262222
_cell_angle_gamma 38.437917
_cell_volume 503.462436
_symmetry_space_group_name_H-M "P -1"
_symmetry_group_IT_number 2
_symmetry_cell_setting 'triclinic'
loop_
_space_group_symop_operation_xyz
x,y,z
-x,-y,-z
loop_
_atom_site_type_symbol
_atom_site_label
_atom_site_fract_x
_atom_site_fract_y
_atom_site_fract_z
Si Si1 0.938756 0.613246 0.854073
Si Si2 0.582974 0.218803 0.153082
Si Si3 0.751826 0.496153 0.574686
Si Si4 0.061251 0.239849 0.792825
Si Si5 0.417030 0.392053 0.736051
Si Si6 0.248162 0.102655 0.326516
O O1 0.842420 0.809129 0.756093
O O2 0.999985 0.378783 0.871230
O O3 0.207169 0.566550 0.729963
O O4 0.718551 0.690407 0.055885
O O5 0.357012 0.440974 0.269356
O O6 0.465970 0.154029 0.178914
O O7 0.718525 0.020718 0.225584
O O8 0.792859 0.266318 0.937125
O O9 0.842418 0.663731 0.401490
O O10 0.534020 0.522172 0.644892
O O11 0.999992 0.235787 0.514219
O O12 0.643006 0.163291 0.626363
#
# Coordination Sequence:
#
# PCOD8019712 Si02
#       6
#     2   2   2   2   2   2
#     4  10  22  41  70  97 126 181 213 266 333 372
#     4  11  22  45  66  96 138 165 223 271 315 397
#     4  11  24  41  68  98 131 174 215 268 330 383
#     4  10  22  41  70  97 126 181 213 266 333 372
#     4  11  22  45  66  96 138 165 223 271 315 397
#     4  11  24  41  68  98 131 174 215 268 330 383
#
# _framework density 23.834945000000001
#
# number of rings (size 3 to 8) (size 9 to 14) (size 15 to 20)
#    0.000    1.333    3.333    2.000    0.000    5.333 
#    6.000    0.000    0.000    0.000    0.000    0.000 
#    0.000    0.000    0.000    0.000    0.000    0.000 
#
# Total GULP energy -148864.595466 kJ/mol
# GULP energy per Si atom -12405.382956 kJ/mol
# Density = 2.378070 g / cm^3
# Si number density = 23.834945 Si / 1000 Ang^3
#
#
#
# Elastic Constant Matrix: (Units=GPa)
#
#
# Indices 1 2 3 4 5 6 
#
# 1 118.8431 12.9066 37.7145 -7.1586 -24.2283 1.4393
# 2 12.9066 68.5478 45.6963 10.7197 3.6691 3.2265
# 3 37.7145 45.6963 83.8314 3.4518 -20.1384 -17.0314
# 4 -7.1586 10.7197 3.4518 30.8575 10.8853 -7.8293
# 5 -24.2283 3.6691 -20.1384 10.8853 36.2405 -1.3140
# 6 1.4393 3.2265 -17.0314 -7.8293 -1.3140 29.9504
#
#
#
# Elastic Compliance Matrix: (Units=1/GPa)
#
#
# Indices 1 2 3 4 5 6 
#
# 1 0.010848 0.001626 -0.005625 0.000342 0.003727 -0.003642
# 2 0.001626 0.038180 -0.030445 -0.009507 -0.017738 -0.024767
# 3 -0.005625 -0.030445 0.042386 0.004047 0.022736 0.029708
# 4 0.000342 -0.009507 0.004047 0.041909 -0.008644 0.013885
# 5 0.003727 -0.017738 0.022736 -0.008644 0.047637 0.014491
# 6 -0.003642 -0.024767 0.029708 0.013885 0.014491 0.057391
#
#
# Mechanical properties :
#
#
# Convention : Reuss Voigt Hill
#
# Bulk Modulus (GPa) = 44.39560 51.53969 47.96764
# Shear Modulus (GPa) = 15.88586 31.07001 23.47793
#
# Velocity S-wave (km/s) = 2.58446 3.61439 3.14191
# Velocity P-wave (km/s) = 5.25096 6.25211 5.77328
#
# Compressibility (1/GPa) = 0.02252476
#
# Stress axis : x y z
#
# Youngs Moduli (GPa) = 92.18698 26.19193 23.59292
#
# Poissons Ratio (x) = -0.04259 0.13272
# Poissons Ratio (y) = -0.14991 0.71828
# Poissons Ratio (z) = 0.51859 0.79741
#
# Static dielectric constant tensor:
#      x y z
#    x 4.209890 0.067120 -0.339550 
#    y 0.067120 4.167030 0.347950 
#    z -0.339550 0.347950 4.248920 
# 
# 
# High freq. dielectric constant tensor:
#      x y z
#    x 1.947440 0.003200 -0.021220 
#    y 0.003200 1.937390 0.015360 
#    z -0.021220 0.015360 1.945570 
# 
# From -- ./inp_files/164184.got.cif
#   From: 2010.06.25/outbox.cif.g09.slc.cpg/sg2_83_cif.got.tgz:164184.got - 2010.06.27 13:26:56.
