data_PCOD8019038
_publ_section_title
;
Structure prediction by ZEFSAII (Michael W. Deem and Ramdas Pophale) SiO2 
 PCOD8019038
Probable space group: P -1
;
_chemical_formula_sum "Si O2"
_cell_formula_units_Z 16
_cell_length_a 13.372789
_cell_length_b 11.444188
_cell_length_c 6.924961
_cell_angle_alpha 105.093808
_cell_angle_beta 101.996348
_cell_angle_gamma 124.497818
_cell_volume 754.546265
_symmetry_space_group_name_H-M "P -1"
_symmetry_group_IT_number 2
_symmetry_cell_setting 'triclinic'
loop_
_space_group_symop_operation_xyz
x,y,z
-x,-y,-z
loop_
_atom_site_type_symbol
_atom_site_label
_atom_site_fract_x
_atom_site_fract_y
_atom_site_fract_z
Si Si1 0.499284 0.860492 0.977443
Si Si2 0.693611 0.836035 0.488676
Si Si3 0.752192 0.668898 0.157787
Si Si4 0.083442 0.325093 0.453880
Si Si5 0.147221 0.166461 0.131718
Si Si6 0.269332 0.664038 0.525051
Si Si7 0.598835 0.333387 0.777698
Si Si8 0.220646 0.908842 0.660006
O O1 0.407721 0.728238 0.717362
O O2 0.423629 0.782800 0.116168
O O3 0.500000 0.000000 0.000000
O O4 0.657334 0.941349 0.091330
O O5 0.687202 0.713887 0.296431
O O6 0.755562 0.852427 0.728151
O O7 0.540923 0.759553 0.435366
O O8 0.782819 0.012482 0.501596
O O9 0.869852 0.684699 0.320740
O O10 0.811943 0.788746 0.054030
O O11 0.637053 0.489951 0.958098
O O12 0.148723 0.295224 0.298338
O O13 0.139430 0.503642 0.510947
O O14 0.920369 0.193396 0.325234
O O15 0.000000 0.000000 0.000000
O O16 0.283266 0.624814 0.296289
O O17 0.250267 0.793101 0.565960
#
# Coordination Sequence:
#
# PCOD8019038 Si02
#       8
#     2   2   2   2   2   2   2   2
#     4   9  21  40  63  89 124 164 202 254 307 360
#     4  10  24  40  62  93 122 163 207 258 308 371
#     4  11  22  41  63  90 126 161 206 261 309 365
#     4  11  22  41  64  93 125 165 206 255 311 370
#     4  11  23  40  64  91 125 165 207 256 314 367
#     4  11  22  41  66  92 126 164 206 256 310 369
#     4  11  22  40  64  93 125 159 210 256 312 365
#     4  10  22  41  64  91 127 165 206 255 308 371
#
# _framework density 21.204796999999999
#
# number of rings (size 3 to 8) (size 9 to 14) (size 15 to 20)
#    0.000    1.500    2.500    2.250    0.000   10.000 
#    0.000    5.625    0.000    0.000    0.000    0.000 
#    0.000    0.000    0.000    0.000    0.000    0.000 
#
# Total GULP energy -198373.941021 kJ/mol
# GULP energy per Si atom -12398.371314 kJ/mol
# Density = 2.115653 g / cm^3
# Si number density = 21.204797 Si / 1000 Ang^3
#
#
#
# Elastic Constant Matrix: (Units=GPa)
#
#
# Indices 1 2 3 4 5 6 
#
# 1 61.0192 24.7128 11.4664 -12.2935 1.3532 1.3112
# 2 24.7128 122.3225 26.7147 -10.2624 12.1977 2.7873
# 3 11.4664 26.7147 74.8300 -15.2767 5.3292 -0.3550
# 4 -12.2935 -10.2624 -15.2767 35.6736 1.8527 3.3085
# 5 1.3532 12.1977 5.3292 1.8527 23.1469 2.0516
# 6 1.3112 2.7873 -0.3550 3.3085 2.0516 36.4538
#
#
#
# Elastic Compliance Matrix: (Units=1/GPa)
#
#
# Indices 1 2 3 4 5 6 
#
# 1 0.018922 -0.003244 -0.000681 0.005362 0.000415 -0.000949
# 2 -0.003244 0.009921 -0.002538 0.000928 -0.004484 -0.000499
# 3 -0.000681 -0.002538 0.015780 0.005936 -0.002730 -0.000013
# 4 0.005362 0.000928 0.005936 0.033201 -0.004564 -0.002962
# 5 0.000415 -0.004484 -0.002730 -0.004564 0.046704 -0.001913
# 6 -0.000949 -0.000499 -0.000013 -0.002962 -0.001913 0.027881
#
#
# Mechanical properties :
#
#
# Convention : Reuss Voigt Hill
#
# Bulk Modulus (GPa) = 31.54841 42.66214 37.10528
# Shear Modulus (GPa) = 28.42521 32.07340 30.24931
#
# Velocity S-wave (km/s) = 3.66527 3.89338 3.78104
# Velocity P-wave (km/s) = 5.72909 6.35405 6.04965
#
# Compressibility (1/GPa) = 0.03169732
#
# Stress axis : x y z
#
# Youngs Moduli (GPa) = 52.84992 100.79380 63.37023
#
# Poissons Ratio (x) = 0.32697 0.04313
# Poissons Ratio (y) = 0.17144 0.16086
# Poissons Ratio (z) = 0.03597 0.25585
#
# Static dielectric constant tensor:
#      x y z
#    x 3.725880 -0.152510 0.373310 
#    y -0.152510 3.971260 0.152090 
#    z 0.373310 0.152090 4.162140 
# 
# 
# High freq. dielectric constant tensor:
#      x y z
#    x 1.816600 -0.003910 0.010740 
#    y -0.003910 1.851180 -0.000170 
#    z 0.010740 -0.000170 1.829510 
# 
# From -- ./inp_files/70045.got.cif
#   From: 2010.06.25/outbox.cif.g09.slc.cpg/sg2_36_cif.got.tgz:70045.got - 2010.06.27 13:26:56.
