data_PCOD8019592
_publ_section_title
;
Structure prediction by ZEFSAII (Michael W. Deem and Ramdas Pophale) SiO2 
 PCOD8019592
Probable space group: P -1
;
_chemical_formula_sum "Si O2"
_cell_formula_units_Z 16
_cell_length_a 9.359205
_cell_length_b 12.469132
_cell_length_c 8.457572
_cell_angle_alpha 50.584226
_cell_angle_beta 89.475277
_cell_angle_gamma 98.853879
_cell_volume 746.013505
_symmetry_space_group_name_H-M "P -1"
_symmetry_group_IT_number 2
_symmetry_cell_setting 'triclinic'
loop_
_space_group_symop_operation_xyz
x,y,z
-x,-y,-z
loop_
_atom_site_type_symbol
_atom_site_label
_atom_site_fract_x
_atom_site_fract_y
_atom_site_fract_z
Si Si1 0.740136 0.764828 0.591129
Si Si2 0.187035 0.489699 0.662440
Si Si3 0.543798 0.963387 0.860526
Si Si4 0.412596 0.736351 0.564602
Si Si5 0.072984 0.951563 0.697458
Si Si6 0.129334 0.481385 0.306935
Si Si7 0.710634 0.243414 0.120651
Si Si8 0.776574 0.797840 0.928566
O O1 0.578690 0.716079 0.566583
O O2 0.833917 0.645257 0.679210
O O3 0.731351 0.798847 0.744602
O O4 0.819299 0.908942 0.363057
O O5 0.313539 0.629662 0.544714
O O6 0.157283 0.451279 0.516651
O O7 0.039751 0.514627 0.725157
O O8 0.244558 0.362901 0.863581
O O9 0.406336 0.871032 0.862013
O O10 0.671608 0.876301 0.955854
O O11 0.600969 0.104561 0.625863
O O12 0.500000 0.000000 0.000000
O O13 0.356981 0.699211 0.777621
O O14 0.157766 0.829900 0.761150
O O15 0.942653 0.881974 0.882809
O O16 0.000000 0.000000 0.500000
O O17 0.233041 0.627220 0.118155
#
# Coordination Sequence:
#
# PCOD8019592 Si02
#       8
#     2   2   2   2   2   2   2   2
#     4  11  24  43  70 102 135 174 230 277 334 396
#     4  11  27  46  66  99 141 177 225 275 347 403
#     4  12  27  45  69 104 141 176 217 279 348 404
#     4  12  25  43  71 102 133 180 224 284 329 407
#     4  10  22  41  69 102 131 172 224 284 330 388
#     4  11  27  46  66  99 138 182 222 280 337 406
#     4  12  23  46  71  98 137 177 231 279 332 396
#     4  11  24  45  70 102 131 180 228 277 330 408
#
# _framework density 21.447334000000001
#
# number of rings (size 3 to 8) (size 9 to 14) (size 15 to 20)
#    0.000    0.750    3.750    3.375    8.750    2.500 
#    0.000    1.250    0.000    0.000    0.000    0.000 
#    0.000    0.000    0.000    0.000    0.000    0.000 
#
# Total GULP energy -198499.689473 kJ/mol
# GULP energy per Si atom -12406.230592 kJ/mol
# Density = 2.139852 g / cm^3
# Si number density = 21.447334 Si / 1000 Ang^3
#
#
#
# Elastic Constant Matrix: (Units=GPa)
#
#
# Indices 1 2 3 4 5 6 
#
# 1 135.8627 48.1867 23.9504 -11.5050 -5.5432 -12.3817
# 2 48.1867 85.2367 24.2674 -13.5197 -9.1223 -9.9578
# 3 23.9504 24.2674 74.3302 -22.1305 -4.3541 -1.1041
# 4 -11.5050 -13.5197 -22.1305 41.5850 -0.4236 -1.7677
# 5 -5.5432 -9.1223 -4.3541 -0.4236 31.7920 -10.2976
# 6 -12.3817 -9.9578 -1.1041 -1.7677 -10.2976 44.8947
#
#
#
# Elastic Compliance Matrix: (Units=1/GPa)
#
#
# Indices 1 2 3 4 5 6 
#
# 1 0.009459 -0.004612 -0.001328 0.000492 0.000713 0.001736
# 2 -0.004612 0.016480 -0.002722 0.002830 0.004727 0.003512
# 3 -0.001328 -0.002722 0.017220 0.007931 0.001486 0.000106
# 4 0.000492 0.002830 0.007931 0.029480 0.003309 0.002878
# 5 0.000713 0.004727 0.001486 0.003309 0.036340 0.009747
# 6 0.001736 0.003512 0.000106 0.002878 0.009747 0.025884
#
#
# Mechanical properties :
#
#
# Convention : Reuss Voigt Hill
#
# Bulk Modulus (GPa) = 38.70953 54.24874 46.47913
# Shear Modulus (GPa) = 31.09448 36.92268 34.00858
#
# Velocity S-wave (km/s) = 3.81176 4.15366 3.98638
# Velocity P-wave (km/s) = 6.12050 6.95361 6.55031
#
# Compressibility (1/GPa) = 0.02583343
#
# Stress axis : x y z
#
# Youngs Moduli (GPa) = 105.71590 60.68063 58.07103
#
# Poissons Ratio (x) = 0.27988 0.07713
# Poissons Ratio (y) = 0.48760 0.15809
# Poissons Ratio (z) = 0.14040 0.16520
#
# Static dielectric constant tensor:
#      x y z
#    x 4.257650 0.122810 -0.200140 
#    y 0.122810 3.955570 -0.217570 
#    z -0.200140 -0.217570 3.978450 
# 
# 
# High freq. dielectric constant tensor:
#      x y z
#    x 1.861130 0.000300 -0.003680 
#    y 0.000300 1.834220 -0.016630 
#    z -0.003680 -0.016630 1.847220 
# 
# From -- ./inp_files/158735.got.cif
#   From: 2010.06.25/outbox.cif.g09.slc.cpg/sg2_80_cif.got.tgz:158735.got - 2010.06.27 13:26:56.
