data_PCOD8019441
_publ_section_title
;
Structure prediction by ZEFSAII (Michael W. Deem and Ramdas Pophale) SiO2 
 PCOD8019441
Probable space group: P -1
;
_chemical_formula_sum "Si O2"
_cell_formula_units_Z 16
_cell_length_a 7.962588
_cell_length_b 15.243641
_cell_length_c 11.858547
_cell_angle_alpha 44.513593
_cell_angle_beta 102.932141
_cell_angle_gamma 70.598370
_cell_volume 682.835169
_symmetry_space_group_name_H-M "P -1"
_symmetry_group_IT_number 2
_symmetry_cell_setting 'triclinic'
loop_
_space_group_symop_operation_xyz
x,y,z
-x,-y,-z
loop_
_atom_site_type_symbol
_atom_site_label
_atom_site_fract_x
_atom_site_fract_y
_atom_site_fract_z
Si Si1 0.024356 0.697365 0.008200
Si Si2 0.637802 0.625022 0.281509
Si Si3 0.141777 0.755571 0.664539
Si Si4 0.072279 0.280727 0.772650
Si Si5 0.445345 0.613956 0.046389
Si Si6 0.732373 0.091005 0.861287
Si Si7 0.684507 0.118776 0.577078
Si Si8 0.271458 0.191864 0.340478
O O1 0.909965 0.668570 0.917574
O O2 0.005496 0.651141 0.171942
O O3 0.314311 0.572038 0.138441
O O4 0.864757 0.907186 0.787928
O O5 0.822691 0.413210 0.535930
O O6 0.542574 0.667423 0.099276
O O7 0.405629 0.751696 0.212751
O O8 0.764574 0.689434 0.268798
O O9 0.323634 0.550029 0.842510
O O10 0.154344 0.854636 0.480001
O O11 0.875329 0.826387 0.578983
O O12 0.236200 0.771297 0.781585
O O13 0.246546 0.069938 0.970350
O O14 0.626517 0.180404 0.641204
O O15 0.000000 0.000000 0.000000
O O16 0.403550 0.242536 0.372957
O O17 0.500000 0.000000 0.500000
#
# Coordination Sequence:
#
# PCOD8019441 Si02
#       8
#     2   2   2   2   2   2   2   2
#     4   9  20  41  60  95 130 164 225 272 329 411
#     4  11  24  43  70  95 132 187 217 285 345 391
#     4  10  23  43  65  99 137 167 223 279 329 411
#     4  10  24  42  65 100 134 171 233 280 334 409
#     4  10  23  42  63  96 131 173 221 273 336 401
#     4  11  25  45  65 101 134 175 232 277 337 408
#     4  10  22  41  67  97 128 178 215 277 346 386
#     4   9  20  39  64  97 131 169 216 272 335 400
#
# _framework density 23.431713999999999
#
# number of rings (size 3 to 8) (size 9 to 14) (size 15 to 20)
#    0.000    2.000    0.000    1.875    5.250    7.500 
#   11.250    1.875    0.000    0.000    0.000    0.000 
#    0.000    0.000    0.000    0.000    0.000    0.000 
#
# Total GULP energy -198253.129828 kJ/mol
# GULP energy per Si atom -12390.820614 kJ/mol
# Density = 2.337838 g / cm^3
# Si number density = 23.431714 Si / 1000 Ang^3
#
#
#
# Elastic Constant Matrix: (Units=GPa)
#
#
# Indices 1 2 3 4 5 6 
#
# 1 82.8277 6.5894 19.1262 -5.1083 13.0350 -10.8537
# 2 6.5894 97.2982 20.7839 12.9808 12.3505 -2.0433
# 3 19.1262 20.7839 60.7748 12.6997 7.3844 -0.8972
# 4 -5.1083 12.9808 12.6997 24.1815 -7.1336 15.1115
# 5 13.0350 12.3505 7.3844 -7.1336 40.9953 3.5736
# 6 -10.8537 -2.0433 -0.8972 15.1115 3.5736 35.5017
#
#
#
# Elastic Compliance Matrix: (Units=1/GPa)
#
#
# Indices 1 2 3 4 5 6 
#
# 1 0.014303 0.000374 -0.004372 0.001378 -0.003991 0.004099
# 2 0.000374 0.013183 -0.001028 -0.012807 -0.006742 0.006977
# 3 -0.004372 -0.001028 0.023214 -0.019656 -0.006619 0.008224
# 4 0.001378 -0.012807 -0.019656 0.094090 0.027133 -0.043594
# 5 -0.003991 -0.006742 -0.006619 0.027133 0.035076 -0.016856
# 6 0.004099 0.006977 0.008224 -0.043594 -0.016856 0.050283
#
#
# Mechanical properties :
#
#
# Convention : Reuss Voigt Hill
#
# Bulk Modulus (GPa) = 24.60044 37.09996 30.85020
# Shear Modulus (GPa) = 19.70447 33.09578 26.40012
#
# Velocity S-wave (km/s) = 2.90303 3.76231 3.36025
# Velocity P-wave (km/s) = 4.66458 5.89415 5.31504
#
# Compressibility (1/GPa) = 0.04064969
#
# Stress axis : x y z
#
# Youngs Moduli (GPa) = 69.91473 75.85630 43.07682
#
# Poissons Ratio (x) = -0.02837 0.18832
# Poissons Ratio (y) = -0.02615 0.04426
# Poissons Ratio (z) = 0.30565 0.07795
#
# Static dielectric constant tensor:
#      x y z
#    x 2.248490 -3.799240 3.069970 
#    y -3.799240 -2.785420 5.348950 
#    z 3.069970 5.348950 0.888120 
# 
# 
# High freq. dielectric constant tensor:
#      x y z
#    x 1.921370 -0.012930 0.018360 
#    y -0.012930 1.934550 0.007790 
#    z 0.018360 0.007790 1.920370 
# 
# From -- ./inp_files/402998.got.cif
#   From: 2010.06.25/outbox.cif.g09.slc.cpg/sg2_202_cif.got.tgz:402998.got - 2010.06.27 13:26:56.
