data_PCOD8019935
_publ_section_title
;
Structure prediction by ZEFSAII (Michael W. Deem and Ramdas Pophale) SiO2 
 PCOD8019935
Probable space group: P -1
;
_chemical_formula_sum "Si O2"
_cell_formula_units_Z 16
_cell_length_a 24.365482
_cell_length_b 8.854049
_cell_length_c 9.144986
_cell_angle_alpha 49.999731
_cell_angle_beta 148.061960
_cell_angle_gamma 129.914959
_cell_volume 776.646691
_symmetry_space_group_name_H-M "P -1"
_symmetry_group_IT_number 2
_symmetry_cell_setting 'triclinic'
loop_
_space_group_symop_operation_xyz
x,y,z
-x,-y,-z
loop_
_atom_site_type_symbol
_atom_site_label
_atom_site_fract_x
_atom_site_fract_y
_atom_site_fract_z
Si Si1 0.519468 0.277141 0.206194
Si Si2 0.906537 0.738512 0.294087
Si Si3 0.942331 0.419972 0.065432
Si Si4 0.230633 0.685770 0.771064
Si Si5 0.388849 0.873287 0.767181
Si Si6 0.348101 0.913069 0.158877
Si Si7 0.230545 0.954735 0.146398
Si Si8 0.009529 0.778842 0.194600
O O1 0.588484 0.266436 0.225367
O O2 0.582917 0.235914 0.521733
O O3 0.412256 0.095687 0.085973
O O4 0.500000 0.500000 0.000000
O O5 0.801668 0.557033 0.150714
O O6 0.983124 0.714860 0.613689
O O7 0.981204 0.740214 0.322455
O O8 0.865010 0.938064 0.105568
O O9 0.930823 0.607964 0.025367
O O10 0.824316 0.285257 0.845968
O O11 0.000000 0.500000 0.000000
O O12 0.329033 0.744688 0.846075
O O13 0.130320 0.768883 0.438757
O O14 0.261135 0.769218 0.950281
O O15 0.312104 0.003664 0.438182
O O16 0.500000 0.000000 0.000000
O O17 0.293651 0.021157 0.095847
O O18 0.000000 0.000000 0.000000
#
# Coordination Sequence:
#
# PCOD8019935 Si02
#       8
#     2   2   2   2   2   2   2   2
#     4  10  23  43  65  88 126 166 218 267 324 372
#     4  11  23  40  65  95 127 167 210 259 319 387
#     4  11  22  40  63  92 130 163 209 265 314 382
#     4  11  22  41  64  92 128 165 211 258 321 379
#     4  11  23  43  63  91 127 167 209 268 310 380
#     4  10  22  42  63  91 128 167 209 272 317 378
#     4  11  23  40  64  94 129 166 213 256 326 378
#     4  11  23  42  65  94 129 169 209 258 320 387
#
# _framework density 20.601388
#
# number of rings (size 3 to 8) (size 9 to 14) (size 15 to 20)
#    0.000    1.250    1.250    6.375    1.750    2.000 
#    6.750    1.250    0.000    0.000    0.000    0.000 
#    0.000    0.000    0.000    0.000    0.000    0.000 
#
# Total GULP energy -198349.678206 kJ/mol
# GULP energy per Si atom -12396.854888 kJ/mol
# Density = 2.055450 g / cm^3
# Si number density = 20.601388 Si / 1000 Ang^3
#
#
#
# Elastic Constant Matrix: (Units=GPa)
#
#
# Indices 1 2 3 4 5 6 
#
# 1 111.1902 22.5142 26.3852 -3.4734 -2.0877 13.4618
# 2 22.5142 110.0669 56.0711 0.1750 2.4740 4.3172
# 3 26.3852 56.0711 94.6789 3.4714 -7.2084 -4.1590
# 4 -3.4734 0.1750 3.4714 42.7530 -3.2454 5.0600
# 5 -2.0877 2.4740 -7.2084 -3.2454 35.2194 1.6363
# 6 13.4618 4.3172 -4.1590 5.0600 1.6363 36.2523
#
#
#
# Elastic Compliance Matrix: (Units=1/GPa)
#
#
# Indices 1 2 3 4 5 6 
#
# 1 0.010347 -0.000543 -0.002779 0.001615 0.000433 -0.004341
# 2 -0.000543 0.013498 -0.008157 0.000649 -0.002482 -0.002320
# 3 -0.002779 -0.008157 0.016672 -0.001756 0.003473 0.004004
# 4 0.001615 0.000649 -0.001756 0.024341 0.002137 -0.004372
# 5 0.000433 -0.002482 0.003473 0.002137 0.029552 -0.001099
# 6 -0.004341 -0.002320 0.004004 -0.004372 -0.001099 0.030592
#
#
# Mechanical properties :
#
#
# Convention : Reuss Voigt Hill
#
# Bulk Modulus (GPa) = 56.95097 58.43078 57.69087
# Shear Modulus (GPa) = 32.50699 36.90929 34.70814
#
# Velocity S-wave (km/s) = 3.97659 4.23731 4.10902
# Velocity P-wave (km/s) = 6.98489 7.23629 7.11170
#
# Compressibility (1/GPa) = 0.01755896
#
# Stress axis : x y z
#
# Youngs Moduli (GPa) = 96.64466 74.08716 59.98090
#
# Poissons Ratio (x) = 0.04022 0.16669
# Poissons Ratio (y) = 0.05246 0.48927
# Poissons Ratio (z) = 0.26858 0.60433
#
# Static dielectric constant tensor:
#      x y z
#    x 3.924650 -0.032720 -0.005740 
#    y -0.032720 3.602440 0.166800 
#    z -0.005740 0.166800 3.777970 
# 
# 
# High freq. dielectric constant tensor:
#      x y z
#    x 1.826690 0.005540 -0.005080 
#    y 0.005540 1.800030 0.013090 
#    z -0.005080 0.013090 1.803440 
# 
# From -- ./inp_files/202866.got.cif
#   From: 2010.06.25/outbox.cif.g09.slc.cpg/sg2_102_cif.got.tgz:202866.got - 2010.06.27 13:26:56.
