data_PCOD8019477
_publ_section_title
;
Structure prediction by ZEFSAII (Michael W. Deem and Ramdas Pophale) SiO2 
 PCOD8019477
Probable space group: P -1
;
_chemical_formula_sum "Si O2"
_cell_formula_units_Z 12
_cell_length_a 7.154065
_cell_length_b 17.521780
_cell_length_c 5.166372
_cell_angle_alpha 127.876859
_cell_angle_beta 112.456546
_cell_angle_gamma 53.864428
_cell_volume 412.642001
_symmetry_space_group_name_H-M "P -1"
_symmetry_group_IT_number 2
_symmetry_cell_setting 'triclinic'
loop_
_space_group_symop_operation_xyz
x,y,z
-x,-y,-z
loop_
_atom_site_type_symbol
_atom_site_label
_atom_site_fract_x
_atom_site_fract_y
_atom_site_fract_z
Si Si1 0.243954 0.592217 0.629901
Si Si2 0.951079 0.951224 0.623142
Si Si3 0.010536 0.262018 0.691218
Si Si4 0.507147 0.076800 0.389502
Si Si5 0.230505 0.384175 0.285380
Si Si6 0.460682 0.716564 0.265529
O O1 0.500000 0.500000 0.500000
O O2 0.114228 0.519819 0.492162
O O3 0.128655 0.660742 0.456451
O O4 0.270447 0.670873 0.029546
O O5 0.099464 0.815619 0.429364
O O6 0.669988 0.998460 0.549146
O O7 0.000000 0.000000 0.500000
O O8 0.000000 0.000000 0.000000
O O9 0.248923 0.164381 0.507678
O O10 0.052843 0.331911 0.090536
O O11 0.626931 0.150711 0.503792
O O12 0.500000 0.000000 0.000000
O O13 0.412031 0.337246 0.513220
O O14 0.359446 0.335870 0.982648
#
# Coordination Sequence:
#
# PCOD8019477 Si02
#       6
#     2   2   2   2   2   2
#     4  10  22  44  72 107 146 189 240 301 365 434
#     4  12  27  46  71 103 142 190 241 297 360 428
#     4  11  24  46  73 108 146 193 244 301 365 437
#     4  11  24  46  72 105 147 195 245 301 362 434
#     4  10  22  43  69 102 140 186 236 293 358 428
#     4  10  22  41  68 101 141 187 235 293 357 425
#
# _framework density 29.080898999999999
#
# number of rings (size 3 to 8) (size 9 to 14) (size 15 to 20)
#    0.000    1.333    0.000    4.500    0.000    8.000 
#    0.000   26.667    0.000    0.000    0.000    0.000 
#    0.000    0.000    0.000    0.000    0.000    0.000 
#
# Total GULP energy -148873.690680 kJ/mol
# GULP energy per Si atom -12406.140890 kJ/mol
# Density = 2.901471 g / cm^3
# Si number density = 29.080899 Si / 1000 Ang^3
#
#
#
# Elastic Constant Matrix: (Units=GPa)
#
#
# Indices 1 2 3 4 5 6 
#
# 1 154.7486 62.6516 75.3487 32.9663 40.0367 15.9620
# 2 62.6516 284.6887 134.1485 4.7930 13.7388 3.8655
# 3 75.3487 134.1485 306.9541 36.9589 21.5603 -10.1722
# 4 32.9663 4.7930 36.9589 68.0829 -3.6078 20.1470
# 5 40.0367 13.7388 21.5603 -3.6078 56.6291 10.2740
# 6 15.9620 3.8655 -10.1722 20.1470 10.2740 44.9144
#
#
#
# Elastic Compliance Matrix: (Units=1/GPa)
#
#
# Indices 1 2 3 4 5 6 
#
# 1 0.010252 -0.001458 -0.000818 -0.004789 -0.006892 0.000021
# 2 -0.001458 0.004751 -0.002086 0.002007 0.001074 -0.001509
# 3 -0.000818 -0.002086 0.004995 -0.003277 -0.001652 0.003449
# 4 -0.004789 0.002007 -0.003277 0.022280 0.007549 -0.010934
# 5 -0.006892 0.001074 -0.001652 0.007549 0.024659 -0.007044
# 6 0.000021 -0.001509 0.003449 -0.010934 -0.007044 0.029684
#
#
# Mechanical properties :
#
#
# Convention : Reuss Voigt Hill
#
# Bulk Modulus (GPa) = 88.69257 143.40990 116.05123
# Shear Modulus (GPa) = 45.82916 65.54146 55.68531
#
# Velocity S-wave (km/s) = 3.97409 4.75253 4.38064
# Velocity P-wave (km/s) = 7.18489 8.91833 8.09812
#
# Compressibility (1/GPa) = 0.01127490
#
# Stress axis : x y z
#
# Youngs Moduli (GPa) = 97.54638 210.47981 200.20103
#
# Poissons Ratio (x) = 0.30681 0.16378
# Poissons Ratio (y) = 0.14219 0.41754
# Poissons Ratio (z) = 0.07980 0.43898
#
# Static dielectric constant tensor:
#      x y z
#    x 9.069580 1.385270 1.362180 
#    y 1.385270 6.947450 1.497090 
#    z 1.362180 1.497090 6.345380 
# 
# 
# High freq. dielectric constant tensor:
#      x y z
#    x 2.295370 -0.000380 -0.010660 
#    y -0.000380 2.204710 0.046210 
#    z -0.010660 0.046210 2.223600 
# 
# From -- ./inp_files/81729.got.cif
#   From: 2010.06.25/outbox.cif.g09.slc.cpg/sg2_41_cif.got.tgz:81729.got - 2010.06.27 13:26:56.
