data_PCOD8019167
_publ_section_title
;
Structure prediction by ZEFSAII (Michael W. Deem and Ramdas Pophale) SiO2 
 PCOD8019167
Probable space group: P -1
;
_chemical_formula_sum "Si O2"
_cell_formula_units_Z 16
_cell_length_a 15.440997
_cell_length_b 9.105455
_cell_length_c 11.934405
_cell_angle_alpha 82.608452
_cell_angle_beta 91.458166
_cell_angle_gamma 28.277917
_cell_volume 753.159350
_symmetry_space_group_name_H-M "P -1"
_symmetry_group_IT_number 2
_symmetry_cell_setting 'triclinic'
loop_
_space_group_symop_operation_xyz
x,y,z
-x,-y,-z
loop_
_atom_site_type_symbol
_atom_site_label
_atom_site_fract_x
_atom_site_fract_y
_atom_site_fract_z
Si Si1 0.842495 0.875901 0.087657
Si Si2 0.559282 0.257262 0.586599
Si Si3 0.202746 0.727249 0.986308
Si Si4 0.152493 0.180000 0.159052
Si Si5 0.441862 0.875428 0.808472
Si Si6 0.203206 0.488679 0.832950
Si Si7 0.640889 0.898778 0.456567
Si Si8 0.818048 0.359811 0.416372
O O1 0.062439 0.482253 0.142079
O O2 0.821252 0.080103 0.094989
O O3 0.721758 0.987227 0.171713
O O4 0.762648 0.963094 0.950334
O O5 0.500000 0.500000 0.500000
O O6 0.371235 0.449043 0.589157
O O7 0.679531 0.106920 0.718080
O O8 0.693547 0.951153 0.539395
O O9 0.275366 0.489918 0.929546
O O10 0.353913 0.502203 0.114075
O O11 0.000000 0.000000 0.000000
O O12 0.977444 0.331734 0.149594
O O13 0.390628 0.109454 0.842412
O O14 0.452449 0.877716 0.675317
O O15 0.139528 0.685012 0.707930
O O16 0.815073 0.528661 0.457496
O O17 0.500000 0.000000 0.500000
O O18 0.000000 0.000000 0.500000
#
# Coordination Sequence:
#
# PCOD8019167 Si02
#       8
#     2   2   2   2   2   2   2   2
#     4  10  23  41  64  93 131 171 210 272 318 381
#     4  11  24  39  69  95 126 176 215 265 329 383
#     4  12  24  37  63  98 124 170 215 261 326 376
#     4  10  22  43  62  91 135 166 213 261 328 383
#     4  10  23  42  66  90 131 165 213 271 322 385
#     4  10  22  42  61  90 128 167 210 263 321 381
#     4   9  22  44  64  93 124 168 212 265 323 377
#     4  10  22  41  65  93 126 168 214 269 316 380
#
# _framework density 21.243845
#
# number of rings (size 3 to 8) (size 9 to 14) (size 15 to 20)
#    0.000    1.750    1.250    1.500    3.500    7.000 
#    0.000    8.750    0.000    0.000    0.000    0.000 
#    0.000    0.000    0.000    0.000    0.000    0.000 
#
# Total GULP energy -198323.096736 kJ/mol
# GULP energy per Si atom -12395.193546 kJ/mol
# Density = 2.119549 g / cm^3
# Si number density = 21.243845 Si / 1000 Ang^3
#
#
#
# Elastic Constant Matrix: (Units=GPa)
#
#
# Indices 1 2 3 4 5 6 
#
# 1 82.8192 20.6155 33.6759 -0.4198 -13.6258 16.9398
# 2 20.6155 58.1469 23.7858 -12.5959 -0.4765 3.3144
# 3 33.6759 23.7858 104.6334 -4.2658 -21.2320 2.5774
# 4 -0.4198 -12.5959 -4.2658 42.9505 0.8957 -5.3754
# 5 -13.6258 -0.4765 -21.2320 0.8957 36.4278 2.6852
# 6 16.9398 3.3144 2.5774 -5.3754 2.6852 32.3945
#
#
#
# Elastic Compliance Matrix: (Units=1/GPa)
#
#
# Indices 1 2 3 4 5 6 
#
# 1 0.017365 -0.004850 -0.003309 -0.002846 0.005254 -0.009229
# 2 -0.004850 0.021778 -0.004032 0.006278 -0.004183 0.002018
# 3 -0.003309 -0.004032 0.012762 0.000003 0.006102 0.000622
# 4 -0.002846 0.006278 0.000003 0.025801 -0.002005 0.005293
# 5 0.005254 -0.004183 0.006102 -0.002005 0.033403 -0.005906
# 6 -0.009229 0.002018 0.000622 0.005293 -0.005906 0.036807
#
#
# Mechanical properties :
#
#
# Convention : Reuss Voigt Hill
#
# Bulk Modulus (GPa) = 36.33503 44.63932 40.48718
# Shear Modulus (GPa) = 27.55256 33.52271 30.53764
#
# Velocity S-wave (km/s) = 3.60525 3.97671 3.79553
# Velocity P-wave (km/s) = 5.87123 6.49185 6.18932
#
# Compressibility (1/GPa) = 0.02752165
#
# Stress axis : x y z
#
# Youngs Moduli (GPa) = 57.58763 45.91873 78.35971
#
# Poissons Ratio (x) = 0.22272 0.25928
# Poissons Ratio (y) = 0.27932 0.31594
# Poissons Ratio (z) = 0.19055 0.18514
#
# Static dielectric constant tensor:
#      x y z
#    x 3.775720 0.206490 -0.312780 
#    y 0.206490 3.876460 -0.061710 
#    z -0.312780 -0.061710 3.885230 
# 
# 
# High freq. dielectric constant tensor:
#      x y z
#    x 1.830310 0.017470 -0.024130 
#    y 0.017470 1.836910 0.005940 
#    z -0.024130 0.005940 1.836690 
# 
# From -- ./inp_files/189184.got.cif
#   From: 2010.06.25/outbox.cif.g09.slc.cpg/sg2_95_cif.got.tgz:189184.got - 2010.06.27 13:26:56.
