data_PCOD8019100
_publ_section_title
;
Structure prediction by ZEFSAII (Michael W. Deem and Ramdas Pophale) SiO2 
 PCOD8019100
Probable space group: P -1
;
_chemical_formula_sum "Si O2"
_cell_formula_units_Z 16
_cell_length_a 13.071319
_cell_length_b 15.020660
_cell_length_c 14.649644
_cell_angle_alpha 26.846901
_cell_angle_beta 37.297190
_cell_angle_gamma 51.214409
_cell_volume 749.704476
_symmetry_space_group_name_H-M "P -1"
_symmetry_group_IT_number 2
_symmetry_cell_setting 'triclinic'
loop_
_space_group_symop_operation_xyz
x,y,z
-x,-y,-z
loop_
_atom_site_type_symbol
_atom_site_label
_atom_site_fract_x
_atom_site_fract_y
_atom_site_fract_z
Si Si1 0.714666 0.291368 0.094107
Si Si2 0.417320 0.067345 0.085314
Si Si3 0.015813 0.578352 0.062413
Si Si4 0.704827 0.031428 0.027639
Si Si5 0.322260 0.318760 0.782388
Si Si6 0.066876 0.805770 0.630135
Si Si7 0.664809 0.878874 0.399053
Si Si8 0.927804 0.641837 0.488887
O O1 0.514263 0.264573 0.293948
O O2 0.730836 0.098176 0.201931
O O3 0.799707 0.502848 0.783937
O O4 0.827028 0.296445 0.099974
O O5 0.570799 0.157157 0.971308
O O6 0.278291 0.869325 0.410583
O O7 0.307684 0.218851 0.986950
O O8 0.500000 0.000000 0.000000
O O9 0.827262 0.579271 0.235143
O O10 0.022043 0.345824 0.252454
O O11 0.025288 0.694252 0.856042
O O12 0.680907 0.845777 0.143624
O O13 0.640513 0.930676 0.263758
O O14 0.904057 0.188129 0.741158
O O15 0.500000 0.500000 0.500000
O O16 0.000000 0.000000 0.500000
O O17 0.813409 0.762150 0.405199
O O18 0.000000 0.500000 0.500000
#
# Coordination Sequence:
#
# PCOD8019100 Si02
#       8
#     2   2   2   2   2   2   2   2
#     4  11  26  45  74 100 140 184 232 287 348 417
#     4  10  22  41  64  97 136 176 219 271 333 406
#     4  11  24  41  70 100 134 183 225 273 347 405
#     4  11  24  43  73 100 139 181 231 285 343 406
#     4  11  24  40  68 102 144 179 225 285 335 414
#     4  11  23  44  64  97 140 174 225 276 332 402
#     4  11  25  50  69 101 141 182 233 290 350 413
#     4  12  26  44  71 106 136 179 235 294 343 411
#
# _framework density 21.341743000000001
#
# number of rings (size 3 to 8) (size 9 to 14) (size 15 to 20)
#    0.000    1.000    2.500    3.750    7.000    2.000 
#    2.250    0.000    0.000    0.000    0.000    0.000 
#    0.000    0.000    0.000    0.000    0.000    0.000 
#
# Total GULP energy -198293.465414 kJ/mol
# GULP energy per Si atom -12393.341588 kJ/mol
# Density = 2.129317 g / cm^3
# Si number density = 21.341743 Si / 1000 Ang^3
#
#
#
# Elastic Constant Matrix: (Units=GPa)
#
#
# Indices 1 2 3 4 5 6 
#
# 1 119.2680 60.5066 30.8639 -15.2172 -25.2577 1.7523
# 2 60.5066 115.2257 44.1038 -13.2410 -8.3709 -1.9601
# 3 30.8639 44.1038 130.7661 -3.1721 -17.7948 10.4499
# 4 -15.2172 -13.2410 -3.1721 32.9471 1.9386 -1.0534
# 5 -25.2577 -8.3709 -17.7948 1.9386 33.7402 -1.6845
# 6 1.7523 -1.9601 10.4499 -1.0534 -1.6845 32.8935
#
#
#
# Elastic Compliance Matrix: (Units=1/GPa)
#
#
# Indices 1 2 3 4 5 6 
#
# 1 0.013808 -0.006319 0.000178 0.003327 0.008641 -0.000620
# 2 -0.006319 0.013453 -0.003616 0.002406 -0.003329 0.002194
# 3 0.000178 -0.003616 0.009625 -0.000790 0.004204 -0.003093
# 4 0.003327 0.002406 -0.000790 0.032771 0.000853 0.001310
# 5 0.008641 -0.003329 0.004204 0.000853 0.037446 -0.000049
# 6 -0.000620 0.002194 -0.003093 0.001310 -0.000049 0.031587
#
#
# Mechanical properties :
#
#
# Convention : Reuss Voigt Hill
#
# Bulk Modulus (GPa) = 57.56434 70.68982 64.12708
# Shear Modulus (GPa) = 30.48920 35.23520 32.86220
#
# Velocity S-wave (km/s) = 3.78381 4.06766 3.92830
# Velocity P-wave (km/s) = 6.79123 7.43343 7.11957
#
# Compressibility (1/GPa) = 0.01737187
#
# Stress axis : x y z
#
# Youngs Moduli (GPa) = 72.42381 74.33330 103.90061
#
# Poissons Ratio (x) = 0.46975 -0.01854
# Poissons Ratio (y) = 0.45768 0.37567
# Poissons Ratio (z) = -0.01293 0.26876
#
# Static dielectric constant tensor:
#      x y z
#    x 4.080090 -0.053800 0.272320 
#    y -0.053800 4.053990 -0.294060 
#    z 0.272320 -0.294060 4.699860 
# 
# 
# High freq. dielectric constant tensor:
#      x y z
#    x 1.844760 -0.002160 -0.000800 
#    y -0.002160 1.837000 0.008760 
#    z -0.000800 0.008760 1.855330 
# 
# From -- ./inp_files/354570.got.cif
#   From: 2010.06.25/outbox.cif.g09.slc.cpg/sg2_178_cif.got.tgz:354570.got - 2010.06.27 13:26:56.
