data_PCOD8019226
_publ_section_title
;
Structure prediction by ZEFSAII (Michael W. Deem and Ramdas Pophale) SiO2 
 PCOD8019226
Probable space group: P -1
;
_chemical_formula_sum "Si O2"
_cell_formula_units_Z 16
_cell_length_a 18.362877
_cell_length_b 10.223857
_cell_length_c 9.370631
_cell_angle_alpha 44.306217
_cell_angle_beta 57.895256
_cell_angle_gamma 36.739404
_cell_volume 731.324573
_symmetry_space_group_name_H-M "P -1"
_symmetry_group_IT_number 2
_symmetry_cell_setting 'triclinic'
loop_
_space_group_symop_operation_xyz
x,y,z
-x,-y,-z
loop_
_atom_site_type_symbol
_atom_site_label
_atom_site_fract_x
_atom_site_fract_y
_atom_site_fract_z
Si Si1 0.422144 0.464331 0.190840
Si Si2 0.548215 0.421834 0.350481
Si Si3 0.271366 0.209166 0.917461
Si Si4 0.173849 0.020691 0.035380
Si Si5 0.283616 0.119116 0.286646
Si Si6 0.985005 0.242212 0.308271
Si Si7 0.465917 0.166786 0.123905
Si Si8 0.014089 0.506168 0.315085
O O1 0.463761 0.410005 0.354608
O O2 0.272650 0.704884 0.154177
O O3 0.451459 0.227564 0.261152
O O4 0.500000 0.500000 0.000000
O O5 0.500000 0.500000 0.500000
O O6 0.680002 0.114388 0.469548
O O7 0.560640 0.605076 0.121648
O O8 0.150423 0.525281 0.800744
O O9 0.397040 0.126105 0.818280
O O10 0.291535 0.057932 0.158808
O O11 0.258154 0.075226 0.912494
O O12 0.090484 0.145569 0.166717
O O13 0.083292 0.182916 0.869514
O O14 0.369564 0.163505 0.182513
O O15 0.146389 0.391886 0.249149
O O16 0.997664 0.341890 0.364214
O O17 0.000000 0.000000 0.500000
O O18 0.000000 0.500000 0.500000
#
# Coordination Sequence:
#
# PCOD8019226 Si02
#       8
#     2   2   2   2   2   2   2   2
#     4  10  22  41  65  98 133 175 225 283 340 405
#     4  11  23  39  67  98 131 177 227 280 336 401
#     4  11  20  44  68  96 136 176 229 280 344 408
#     4  11  20  46  72  90 134 183 227 281 348 406
#     4  12  24  43  66 104 138 179 228 279 348 411
#     4  11  25  44  73 100 130 187 239 286 344 423
#     4  11  25  42  68 101 142 182 220 284 352 411
#     4  11  26  44  70  99 138 184 228 295 353 409
#
# _framework density 21.878111000000001
#
# number of rings (size 3 to 8) (size 9 to 14) (size 15 to 20)
#    0.000    1.000    6.250    1.125    3.500    3.500 
#    0.000    1.250    0.000    0.000    0.000    0.000 
#    0.000    0.000    0.000    0.000    0.000    0.000 
#
# Total GULP energy -198246.400645 kJ/mol
# GULP energy per Si atom -12390.400040 kJ/mol
# Density = 2.182832 g / cm^3
# Si number density = 21.878111 Si / 1000 Ang^3
#
#
#
# Elastic Constant Matrix: (Units=GPa)
#
#
# Indices 1 2 3 4 5 6 
#
# 1 90.0094 53.4125 48.0537 4.9636 14.1240 -26.6129
# 2 53.4125 142.4317 37.9069 0.5435 21.6218 -25.9047
# 3 48.0537 37.9069 85.9313 -4.8782 24.0535 -2.0628
# 4 4.9636 0.5435 -4.8782 38.7618 4.1048 10.2503
# 5 14.1240 21.6218 24.0535 4.1048 38.5040 3.1325
# 6 -26.6129 -25.9047 -2.0628 10.2503 3.1325 40.3247
#
#
#
# Elastic Compliance Matrix: (Units=1/GPa)
#
#
# Indices 1 2 3 4 5 6 
#
# 1 0.025017 -0.003008 -0.012841 -0.009085 0.000183 0.016216
# 2 -0.003008 0.010057 -0.001607 -0.000848 -0.003849 0.004908
# 3 -0.012841 -0.001607 0.022036 0.007886 -0.008201 -0.009747
# 4 -0.009085 -0.000848 0.007886 0.032032 -0.003392 -0.014016
# 5 0.000183 -0.003849 -0.008201 -0.003392 0.033920 -0.004544
# 6 0.016216 0.004908 -0.009747 -0.014016 -0.004544 0.042071
#
#
# Mechanical properties :
#
#
# Convention : Reuss Voigt Hill
#
# Bulk Modulus (GPa) = 45.04865 66.34652 55.69759
# Shear Modulus (GPa) = 24.10289 35.45138 29.77713
#
# Velocity S-wave (km/s) = 3.32277 4.02979 3.69324
# Velocity P-wave (km/s) = 5.94614 7.21413 6.61060
#
# Compressibility (1/GPa) = 0.02219822
#
# Stress axis : x y z
#
# Youngs Moduli (GPa) = 39.97271 99.43578 45.37993
#
# Poissons Ratio (x) = 0.29909 0.58271
# Poissons Ratio (y) = 0.12023 0.07294
# Poissons Ratio (z) = 0.51328 0.15983
#
# Static dielectric constant tensor:
#      x y z
#    x 4.205890 -0.176540 0.411860 
#    y -0.176540 4.452620 -0.053520 
#    z 0.411860 -0.053520 4.081110 
# 
# 
# High freq. dielectric constant tensor:
#      x y z
#    x 1.856200 -0.011260 0.025110 
#    y -0.011260 1.876280 -0.000810 
#    z 0.025110 -0.000810 1.845680 
# 
# From -- ./inp_files/273323.got.cif
#   From: 2010.06.25/outbox.cif.g09.slc.cpg/sg2_137_cif.got.tgz:273323.got - 2010.06.27 13:26:56.
