data_PCOD8019832
_publ_section_title
;
Structure prediction by ZEFSAII (Michael W. Deem and Ramdas Pophale) SiO2 
 PCOD8019832
Probable space group: P -1
;
_chemical_formula_sum "Si O2"
_cell_formula_units_Z 12
_cell_length_a 9.846572
_cell_length_b 16.619747
_cell_length_c 12.106686
_cell_angle_alpha 35.919804
_cell_angle_beta 141.826269
_cell_angle_gamma 154.751775
_cell_volume 484.229194
_symmetry_space_group_name_H-M "P -1"
_symmetry_group_IT_number 2
_symmetry_cell_setting 'triclinic'
loop_
_space_group_symop_operation_xyz
x,y,z
-x,-y,-z
loop_
_atom_site_type_symbol
_atom_site_label
_atom_site_fract_x
_atom_site_fract_y
_atom_site_fract_z
Si Si1 0.351752 0.415219 0.722578
Si Si2 0.340819 0.609221 0.247055
Si Si3 0.341138 0.295586 0.073920
Si Si4 0.751010 0.233312 0.425503
Si Si5 0.371029 0.182363 0.565094
Si Si6 0.409883 0.002798 0.060065
O O1 0.500619 0.436414 0.676423
O O2 0.398310 0.320477 0.949920
O O3 0.503080 0.626364 0.633100
O O4 0.971060 0.275154 0.618023
O O5 0.562148 0.747313 0.341994
O O6 0.980669 0.393630 0.292898
O O7 0.347754 0.758059 0.016752
O O8 0.956325 0.110532 0.049820
O O9 0.500000 0.500000 0.000000
O O10 0.522373 0.252938 0.295183
O O11 0.500000 0.000000 0.500000
O O12 0.540683 0.116621 0.706646
O O13 0.000000 0.000000 0.500000
O O14 0.500000 0.000000 0.000000
#
# Coordination Sequence:
#
# PCOD8019832 Si02
#       6
#     2   2   2   2   2   2
#     4  11  26  49  69 110 147 184 242 293 348 434
#     4  10  23  48  72 103 147 183 241 292 346 440
#     4  12  27  46  72 104 148 188 234 299 360 414
#     4  11  25  47  75 105 142 187 236 295 362 416
#     4  10  22  41  76 106 134 187 237 287 353 418
#     4  10  23  45  71  99 142 181 239 289 348 427
#
# _framework density 24.781655000000001
#
# number of rings (size 3 to 8) (size 9 to 14) (size 15 to 20)
#    0.000    1.333    0.000    6.000    7.000    7.333 
#    9.000    0.000    0.000    0.000    0.000    0.000 
#    0.000    0.000    0.000    0.000    0.000    0.000 
#
# Total GULP energy -148662.730152 kJ/mol
# GULP energy per Si atom -12388.560846 kJ/mol
# Density = 2.472525 g / cm^3
# Si number density = 24.781655 Si / 1000 Ang^3
#
#
#
# Elastic Constant Matrix: (Units=GPa)
#
#
# Indices 1 2 3 4 5 6 
#
# 1 82.8703 39.9991 26.5748 1.0066 19.7406 8.9959
# 2 39.9991 198.0658 40.3741 -21.0503 25.7351 -1.3393
# 3 26.5748 40.3741 93.3380 -4.3023 39.6911 -10.7641
# 4 1.0066 -21.0503 -4.3023 51.5472 -3.2316 11.6385
# 5 19.7406 25.7351 39.6911 -3.2316 49.1620 -2.2773
# 6 8.9959 -1.3393 -10.7641 11.6385 -2.2773 32.2598
#
#
#
# Elastic Compliance Matrix: (Units=1/GPa)
#
#
# Indices 1 2 3 4 5 6 
#
# 1 0.015331 -0.002221 -0.002741 -0.000420 -0.003056 -0.005346
# 2 -0.002221 0.006212 -0.001624 0.002532 -0.000912 -0.000643
# 3 -0.002741 -0.001624 0.018200 -0.001312 -0.012534 0.006358
# 4 -0.000420 0.002532 -0.001312 0.022239 0.000986 -0.008169
# 5 -0.003056 -0.000912 -0.012534 0.000986 0.032163 -0.001453
# 6 -0.005346 -0.000643 0.006358 -0.008169 -0.001453 0.037429
#
#
# Mechanical properties :
#
#
# Convention : Reuss Voigt Hill
#
# Bulk Modulus (GPa) = 37.63544 65.35222 51.49383
# Shear Modulus (GPa) = 32.55174 44.41556 38.48365
#
# Velocity S-wave (km/s) = 3.62821 4.23812 3.94497
# Velocity P-wave (km/s) = 5.72466 7.09770 6.44783
#
# Compressibility (1/GPa) = 0.02657070
#
# Stress axis : x y z
#
# Youngs Moduli (GPa) = 65.22536 160.98555 54.94647
#
# Poissons Ratio (x) = 0.35758 0.15059
# Poissons Ratio (y) = 0.14488 0.08924
# Poissons Ratio (z) = 0.17876 0.26147
#
# Static dielectric constant tensor:
#      x y z
#    x 4.284860 -0.146870 0.447640 
#    y -0.146870 4.677690 -0.821440 
#    z 0.447640 -0.821440 6.160180 
# 
# 
# High freq. dielectric constant tensor:
#      x y z
#    x 1.971210 0.001530 0.015120 
#    y 0.001530 1.992970 -0.017920 
#    z 0.015120 -0.017920 2.007780 
# 
# From -- ./inp_files/524072.got.cif
#   From: 2010.06.25/outbox.cif.g09.slc.cpg/sg2_263_cif.got.tgz:524072.got - 2010.06.27 13:26:56.
