data_PCOD8019015
_publ_section_title
;
Structure prediction by ZEFSAII (Michael W. Deem and Ramdas Pophale) SiO2 
 PCOD8019015
Probable space group: P -1
;
_chemical_formula_sum "Si O2"
_cell_formula_units_Z 16
_cell_length_a 15.111540
_cell_length_b 6.827050
_cell_length_c 17.055818
_cell_angle_alpha 114.507246
_cell_angle_beta 142.483061
_cell_angle_gamma 48.123366
_cell_volume 771.960242
_symmetry_space_group_name_H-M "P -1"
_symmetry_group_IT_number 2
_symmetry_cell_setting 'triclinic'
loop_
_space_group_symop_operation_xyz
x,y,z
-x,-y,-z
loop_
_atom_site_type_symbol
_atom_site_label
_atom_site_fract_x
_atom_site_fract_y
_atom_site_fract_z
Si Si1 0.836057 0.693203 0.081508
Si Si2 0.376755 0.489105 0.020526
Si Si3 0.241210 0.781474 0.815412
Si Si4 0.009684 0.788059 0.525357
Si Si5 0.677329 0.008892 0.869596
Si Si6 0.444491 0.791950 0.493861
Si Si7 0.288275 0.179420 0.597441
Si Si8 0.760655 0.830028 0.722038
O O1 0.029196 0.408093 0.187405
O O2 0.841460 0.922763 0.161434
O O3 0.681388 0.682484 0.009684
O O4 0.795640 0.756120 0.970777
O O5 0.596865 0.304298 0.145401
O O6 0.294736 0.764528 0.056347
O O7 0.310697 0.560955 0.896196
O O8 0.087910 0.782536 0.664021
O O9 0.136429 0.497404 0.522151
O O10 0.803434 0.888229 0.411764
O O11 0.000000 0.000000 0.500000
O O12 0.747236 0.913641 0.815730
O O13 0.465539 0.132402 0.751509
O O14 0.500000 0.500000 0.500000
O O15 0.636099 0.735663 0.600999
O O16 0.340285 0.995749 0.527040
O O17 0.310632 0.918304 0.344924
#
# Coordination Sequence:
#
# PCOD8019015 Si02
#       8
#     2   2   2   2   2   2   2   2
#     4  11  24  37  69  94 124 169 206 257 312 379
#     4  10  22  41  64  87 129 169 202 257 309 372
#     4  10  23  41  60  95 128 160 211 252 313 374
#     4  11  25  39  67  94 127 166 207 264 311 376
#     4  10  22  43  62  92 129 163 211 260 312 372
#     4  10  24  43  67  89 128 171 205 260 318 372
#     4  10  24  42  63  95 127 163 213 257 313 378
#     4  10  24  42  63  95 127 158 216 263 306 374
#
# _framework density 20.726455999999999
#
# number of rings (size 3 to 8) (size 9 to 14) (size 15 to 20)
#    0.000    1.750    1.250    0.750    7.000    6.500 
#    0.000    0.000    0.000    0.000    0.000    0.000 
#    0.000    0.000    0.000    0.000    0.000    0.000 
#
# Total GULP energy -198436.623917 kJ/mol
# GULP energy per Si atom -12402.288995 kJ/mol
# Density = 2.067928 g / cm^3
# Si number density = 20.726456 Si / 1000 Ang^3
#
#
#
# Elastic Constant Matrix: (Units=GPa)
#
#
# Indices 1 2 3 4 5 6 
#
# 1 80.6147 49.3979 20.9453 -9.4430 -6.1849 4.5604
# 2 49.3979 99.8829 25.5396 -3.1235 -10.7996 10.0452
# 3 20.9453 25.5396 64.1620 -6.4809 -10.6074 -5.6888
# 4 -9.4430 -3.1235 -6.4809 29.9540 -1.4747 -2.3918
# 5 -6.1849 -10.7996 -10.6074 -1.4747 35.7691 -4.5458
# 6 4.5604 10.0452 -5.6888 -2.3918 -4.5458 29.4992
#
#
#
# Elastic Compliance Matrix: (Units=1/GPa)
#
#
# Indices 1 2 3 4 5 6 
#
# 1 0.018772 -0.008547 -0.002238 0.004550 0.000186 -0.000026
# 2 -0.008547 0.015804 -0.003909 -0.002202 0.001438 -0.004771
# 3 -0.002238 -0.003909 0.019731 0.003945 0.005288 0.006617
# 4 0.004550 -0.002202 0.003945 0.035944 0.003311 0.004232
# 5 0.000186 0.001438 0.005288 0.003311 0.030830 0.005521
# 6 -0.000026 -0.004771 0.006617 0.004232 0.005521 0.037998
#
#
# Mechanical properties :
#
#
# Convention : Reuss Voigt Hill
#
# Bulk Modulus (GPa) = 40.12696 48.49169 44.30932
# Shear Modulus (GPa) = 25.41012 28.96290 27.18651
#
# Velocity S-wave (km/s) = 3.50519 3.74222 3.62564
# Velocity P-wave (km/s) = 5.98198 6.48992 6.24112
#
# Compressibility (1/GPa) = 0.02492090
#
# Stress axis : x y z
#
# Youngs Moduli (GPa) = 53.27132 63.27369 50.68095
#
# Poissons Ratio (x) = 0.54077 0.11342
# Poissons Ratio (y) = 0.45528 0.19810
# Poissons Ratio (z) = 0.11922 0.24732
#
# Static dielectric constant tensor:
#      x y z
#    x 3.816530 -0.022000 -0.402760 
#    y -0.022000 3.704360 0.123020 
#    z -0.402760 0.123020 6.029750 
# 
# 
# High freq. dielectric constant tensor:
#      x y z
#    x 1.813240 -0.000960 0.002020 
#    y -0.000960 1.814720 0.000520 
#    z 0.002020 0.000520 1.815480 
# 
# From -- ./inp_files/94608.got.cif
#   From: 2010.06.25/outbox.cif.g09.slc.cpg/sg2_48_cif.got.tgz:94608.got - 2010.06.27 13:26:56.
