data_PCOD8019676
_publ_section_title
;
Structure prediction by ZEFSAII (Michael W. Deem and Ramdas Pophale) SiO2 
 PCOD8019676
Probable space group: P -1
;
_chemical_formula_sum "Si O2"
_cell_formula_units_Z 16
_cell_length_a 9.830733
_cell_length_b 8.926982
_cell_length_c 11.667938
_cell_angle_alpha 102.965406
_cell_angle_beta 104.125400
_cell_angle_gamma 43.312303
_cell_volume 679.488064
_symmetry_space_group_name_H-M "P -1"
_symmetry_group_IT_number 2
_symmetry_cell_setting 'triclinic'
loop_
_space_group_symop_operation_xyz
x,y,z
-x,-y,-z
loop_
_atom_site_type_symbol
_atom_site_label
_atom_site_fract_x
_atom_site_fract_y
_atom_site_fract_z
Si Si1 0.798075 0.737386 0.310425
Si Si2 0.978670 0.612358 0.896694
Si Si3 0.300175 0.495853 0.644320
Si Si4 0.470674 0.672288 0.955846
Si Si5 0.466957 0.977776 0.118565
Si Si6 0.074456 0.844154 0.849216
Si Si7 0.712469 0.317728 0.771930
Si Si8 0.917888 0.225819 0.563481
O O1 0.726424 0.666556 0.375218
O O2 0.609645 0.948243 0.234578
O O3 0.948612 0.550741 0.217748
O O4 0.896711 0.800711 0.409339
O O5 0.077659 0.708301 0.927470
O O6 0.752354 0.817804 0.851279
O O7 0.000000 0.500000 0.000000
O O8 0.131954 0.716305 0.720773
O O9 0.525399 0.360670 0.702101
O O10 0.261840 0.572715 0.518303
O O11 0.235921 0.856350 0.903738
O O12 0.625764 0.538741 0.857395
O O13 0.500000 0.500000 0.000000
O O14 0.525638 0.753300 0.078293
O O15 0.500000 0.000000 0.000000
O O16 0.857814 0.095793 0.841162
O O17 0.838082 0.280749 0.685115
O O18 0.000000 0.000000 0.500000
#
# Coordination Sequence:
#
# PCOD8019676 Si02
#       8
#     2   2   2   2   2   2   2   2
#     4  11  26  46  70  99 141 184 229 284 350 415
#     4  11  23  43  67 100 140 189 226 274 343 413
#     4  10  22  48  70  99 137 181 231 288 350 409
#     4  11  25  42  69 103 142 186 226 276 345 415
#     4  12  26  42  65 102 146 178 228 280 335 417
#     4  10  22  41  70 100 140 179 233 282 337 415
#     4  11  24  44  76 103 138 181 233 288 352 407
#     4  12  26  47  74 102 134 178 237 300 346 404
#
# _framework density 23.547138
#
# number of rings (size 3 to 8) (size 9 to 14) (size 15 to 20)
#    0.000    1.000    2.500    4.500    3.500    3.000 
#    2.250    0.625    0.000    0.000    0.000    0.000 
#    0.000    0.000    0.000    0.000    0.000    0.000 
#
# Total GULP energy -198303.208340 kJ/mol
# GULP energy per Si atom -12393.950521 kJ/mol
# Density = 2.349354 g / cm^3
# Si number density = 23.547138 Si / 1000 Ang^3
#
#
#
# Elastic Constant Matrix: (Units=GPa)
#
#
# Indices 1 2 3 4 5 6 
#
# 1 81.9077 25.7809 9.2644 1.7581 8.3683 -0.3249
# 2 25.7809 107.4088 19.3985 -11.1822 4.8899 -16.6203
# 3 9.2644 19.3985 61.2900 -12.9329 1.1678 1.5831
# 4 1.7581 -11.1822 -12.9329 29.5239 5.4910 -9.1674
# 5 8.3683 4.8899 1.1678 5.4910 46.2548 -3.5069
# 6 -0.3249 -16.6203 1.5831 -9.1674 -3.5069 36.8269
#
#
#
# Elastic Compliance Matrix: (Units=1/GPa)
#
#
# Indices 1 2 3 4 5 6 
#
# 1 0.013789 -0.003677 -0.001517 -0.003299 -0.001863 -0.002471
# 2 -0.003677 0.012391 -0.002203 0.006315 -0.000797 0.007151
# 3 -0.001517 -0.002203 0.018883 0.007695 -0.000882 0.000012
# 4 -0.003299 0.006315 0.007695 0.044781 -0.004580 0.013202
# 5 -0.001863 -0.000797 -0.000882 -0.004580 0.022658 0.000679
# 6 -0.002471 0.007151 0.000012 0.013202 0.000679 0.033710
#
#
# Mechanical properties :
#
#
# Convention : Reuss Voigt Hill
#
# Bulk Modulus (GPa) = 33.03745 39.94379 36.49062
# Shear Modulus (GPa) = 29.22339 35.59864 32.41102
#
# Velocity S-wave (km/s) = 3.52669 3.89241 3.71405
# Velocity P-wave (km/s) = 5.53572 6.09929 5.82432
#
# Compressibility (1/GPa) = 0.03026868
#
# Stress axis : x y z
#
# Youngs Moduli (GPa) = 72.52069 80.70488 52.95831
#
# Poissons Ratio (x) = 0.29673 0.08036
# Poissons Ratio (y) = 0.26664 0.11666
# Poissons Ratio (z) = 0.11005 0.17778
#
# Static dielectric constant tensor:
#      x y z
#    x 3.887850 -0.046030 0.612700 
#    y -0.046030 4.772520 -1.429280 
#    z 0.612700 -1.429280 7.046170 
# 
# 
# High freq. dielectric constant tensor:
#      x y z
#    x 1.945660 -0.005440 -0.003790 
#    y -0.005440 1.943450 -0.008730 
#    z -0.003790 -0.008730 1.920870 
# 
# From -- ./inp_files/382672.got.cif
#   From: 2010.06.25/outbox.cif.g09.slc.cpg/sg2_192_cif.got.tgz:382672.got - 2010.06.27 13:26:56.
