data_PCOD8019050
_publ_section_title
;
Structure prediction by ZEFSAII (Michael W. Deem and Ramdas Pophale) SiO2 
 PCOD8019050
Probable space group: P -1
;
_chemical_formula_sum "Si O2"
_cell_formula_units_Z 16
_cell_length_a 16.412288
_cell_length_b 15.768698
_cell_length_c 7.353649
_cell_angle_alpha 38.214004
_cell_angle_beta 117.921064
_cell_angle_gamma 140.373103
_cell_volume 704.193099
_symmetry_space_group_name_H-M "P -1"
_symmetry_group_IT_number 2
_symmetry_cell_setting 'triclinic'
loop_
_space_group_symop_operation_xyz
x,y,z
-x,-y,-z
loop_
_atom_site_type_symbol
_atom_site_label
_atom_site_fract_x
_atom_site_fract_y
_atom_site_fract_z
Si Si1 0.208185 0.796543 0.766460
Si Si2 0.494470 0.561873 0.192162
Si Si3 0.074263 0.379829 0.326461
Si Si4 0.986025 0.131574 0.350870
Si Si5 0.711473 0.726800 0.844343
Si Si6 0.644866 0.110931 0.890179
Si Si7 0.568528 0.931345 0.735845
Si Si8 0.151736 0.417300 0.736113
O O1 0.059172 0.697361 0.773611
O O2 0.296855 0.951265 0.436347
O O3 0.199741 0.621312 0.027136
O O4 0.279798 0.899209 0.863448
O O5 0.500000 0.500000 0.500000
O O6 0.373373 0.368317 0.270793
O O7 0.631301 0.685403 0.010184
O O8 0.469496 0.696472 0.978275
O O9 0.060861 0.327064 0.611289
O O10 0.087791 0.258788 0.418256
O O11 0.828794 0.970550 0.524906
O O12 0.000000 0.000000 0.500000
O O13 0.038226 0.301400 0.972669
O O14 0.769151 0.639023 0.088767
O O15 0.738566 0.341152 0.536888
O O16 0.614143 0.977674 0.914359
O O17 0.500000 0.000000 0.000000
O O18 0.500000 0.000000 0.500000
#
# Coordination Sequence:
#
# PCOD8019050 Si02
#       8
#     2   2   2   2   2   2   2   2
#     4  10  23  41  63  97 130 168 215 277 335 399
#     4  11  27  43  66 100 139 182 222 284 340 402
#     4  10  22  41  65  93 132 169 217 275 334 393
#     4  10  22  41  64  92 125 172 219 271 322 396
#     4  10  24  44  65  95 138 177 230 275 334 400
#     4  11  23  40  66 100 131 170 219 282 345 394
#     4  12  24  41  69  98 131 175 227 272 336 409
#     4  10  23  42  70  95 132 176 224 278 334 406
#
# _framework density 22.721039999999999
#
# number of rings (size 3 to 8) (size 9 to 14) (size 15 to 20)
#    0.000    1.500    1.250    2.250    1.750   10.000 
#    0.000    3.750    0.000    0.000    0.000    0.000 
#    0.000    0.000    0.000    0.000    0.000    0.000 
#
# Total GULP energy -198323.837009 kJ/mol
# GULP energy per Si atom -12395.239813 kJ/mol
# Density = 2.266933 g / cm^3
# Si number density = 22.721040 Si / 1000 Ang^3
#
#
#
# Elastic Constant Matrix: (Units=GPa)
#
#
# Indices 1 2 3 4 5 6 
#
# 1 55.0903 27.1193 32.8859 7.1759 -3.6279 -6.5745
# 2 27.1193 141.4606 57.1803 19.6785 -20.5221 -19.5437
# 3 32.8859 57.1803 125.2977 7.5453 -33.1370 -2.6278
# 4 7.1759 19.6785 7.5453 45.9990 -0.1418 1.6975
# 5 -3.6279 -20.5221 -33.1370 -0.1418 35.0263 3.9971
# 6 -6.5745 -19.5437 -2.6278 1.6975 3.9971 42.5571
#
#
#
# Elastic Compliance Matrix: (Units=1/GPa)
#
#
# Indices 1 2 3 4 5 6 
#
# 1 0.023158 -0.001958 -0.006362 -0.001852 -0.005099 0.002838
# 2 -0.001958 0.010141 -0.003225 -0.003648 0.002206 0.004094
# 3 -0.006362 -0.003225 0.013951 0.000215 0.010952 -0.002640
# 4 -0.001852 -0.003648 0.000215 0.023649 -0.001719 -0.002730
# 5 -0.005099 0.002206 0.010952 -0.001719 0.039986 -0.002786
# 6 0.002838 0.004094 -0.002640 -0.002730 -0.002786 0.026024
#
#
# Mechanical properties :
#
#
# Convention : Reuss Voigt Hill
#
# Bulk Modulus (GPa) = 41.39158 61.80221 51.59690
# Shear Modulus (GPa) = 29.75261 38.36068 34.05664
#
# Velocity S-wave (km/s) = 3.62259 4.11339 3.87577
# Velocity P-wave (km/s) = 5.97950 7.05829 6.54117
#
# Compressibility (1/GPa) = 0.02415950
#
# Stress axis : x y z
#
# Youngs Moduli (GPa) = 43.18204 98.60722 71.68128
#
# Poissons Ratio (x) = 0.19306 0.45603
# Poissons Ratio (y) = 0.08455 0.23119
# Poissons Ratio (z) = 0.27472 0.31803
#
# Static dielectric constant tensor:
#      x y z
#    x 4.178720 -0.259010 -0.204690 
#    y -0.259010 4.685810 -0.199570 
#    z -0.204690 -0.199570 4.405880 
# 
# 
# High freq. dielectric constant tensor:
#      x y z
#    x 1.888870 -0.018660 -0.009100 
#    y -0.018660 1.917790 -0.006000 
#    z -0.009100 -0.006000 1.902750 
# 
# From -- ./inp_files/110655.got.cif
#   From: 2010.06.25/outbox.cif.g09.slc.cpg/sg2_56_cif.got.tgz:110655.got - 2010.06.27 13:26:56.
