data_PCOD8019339
_publ_section_title
;
Structure prediction by ZEFSAII (Michael W. Deem and Ramdas Pophale) SiO2 
 PCOD8019339
Probable space group: P -1
;
_chemical_formula_sum "Si O2"
_cell_formula_units_Z 16
_cell_length_a 16.060972
_cell_length_b 11.846122
_cell_length_c 9.621936
_cell_angle_alpha 75.096810
_cell_angle_beta 154.745113
_cell_angle_gamma 111.126712
_cell_volume 717.583024
_symmetry_space_group_name_H-M "P -1"
_symmetry_group_IT_number 2
_symmetry_cell_setting 'triclinic'
loop_
_space_group_symop_operation_xyz
x,y,z
-x,-y,-z
loop_
_atom_site_type_symbol
_atom_site_label
_atom_site_fract_x
_atom_site_fract_y
_atom_site_fract_z
Si Si1 0.925016 0.987604 0.234666
Si Si2 0.513509 0.486542 0.688390
Si Si3 0.059841 0.377646 0.123768
Si Si4 0.736165 0.212518 0.488663
Si Si5 0.676843 0.967563 0.362519
Si Si6 0.560390 0.753100 0.745635
Si Si7 0.206438 0.785696 0.015070
Si Si8 0.654962 0.268403 0.037610
O O1 0.121736 0.025148 0.421631
O O2 0.787985 0.077731 0.977384
O O3 0.000000 0.000000 0.500000
O O4 0.782528 0.850917 0.027382
O O5 0.500000 0.500000 0.500000
O O6 0.298793 0.408073 0.453781
O O7 0.593156 0.619874 0.837386
O O8 0.664953 0.408851 0.980798
O O9 0.000000 0.500000 0.000000
O O10 0.942521 0.293378 0.847118
O O11 0.998786 0.308914 0.200228
O O12 0.534577 0.225299 0.256852
O O13 0.734643 0.069933 0.539784
O O14 0.741042 0.257247 0.323349
O O15 0.575493 0.827406 0.305545
O O16 0.500000 0.000000 0.000000
O O17 0.407251 0.759569 0.388104
O O18 0.197674 0.767037 0.841607
#
# Coordination Sequence:
#
# PCOD8019339 Si02
#       8
#     2   2   2   2   2   2   2   2
#     4  12  24  42  69 104 134 175 228 278 339 395
#     4  12  24  45  67  97 139 178 226 273 330 406
#     4  11  22  45  66  93 134 179 223 267 337 397
#     4  10  22  42  69  98 132 176 222 282 331 390
#     4  10  22  41  66  99 135 166 217 285 333 390
#     4  11  24  45  67  97 142 182 217 276 338 400
#     4  11  23  45  70  98 137 179 222 275 338 401
#     4  11  22  43  69  99 135 175 221 284 331 388
#
# _framework density 22.297070000000001
#
# number of rings (size 3 to 8) (size 9 to 14) (size 15 to 20)
#    0.000    1.000    3.750    4.875    1.750    1.500 
#    2.250    5.000    0.000    0.000    0.000    0.000 
#    0.000    0.000    0.000    0.000    0.000    0.000 
#
# Total GULP energy -198426.970927 kJ/mol
# GULP energy per Si atom -12401.685683 kJ/mol
# Density = 2.224632 g / cm^3
# Si number density = 22.297070 Si / 1000 Ang^3
#
#
#
# Elastic Constant Matrix: (Units=GPa)
#
#
# Indices 1 2 3 4 5 6 
#
# 1 161.1493 38.1301 18.9814 10.0728 3.1861 3.0488
# 2 38.1301 155.8463 17.0848 15.1908 7.2741 -16.0413
# 3 18.9814 17.0848 42.0025 13.1938 13.1117 2.4442
# 4 10.0728 15.1908 13.1938 35.6609 3.2493 3.0681
# 5 3.1861 7.2741 13.1117 3.2493 34.4270 2.2315
# 6 3.0488 -16.0413 2.4442 3.0681 2.2315 45.8525
#
#
#
# Elastic Compliance Matrix: (Units=1/GPa)
#
#
# Indices 1 2 3 4 5 6 
#
# 1 0.006885 -0.001491 -0.002579 -0.000350 0.000748 -0.000855
# 2 -0.001491 0.007535 -0.001554 -0.002398 -0.000832 0.003019
# 3 -0.002579 -0.001554 0.031928 -0.009372 -0.010648 -0.000929
# 4 -0.000350 -0.002398 -0.009372 0.032742 0.001184 -0.002564
# 5 0.000748 -0.000832 -0.010648 0.001184 0.033192 -0.001468
# 6 -0.000855 0.003019 -0.000929 -0.002564 -0.001468 0.023215
#
#
# Mechanical properties :
#
#
# Convention : Reuss Voigt Hill
#
# Bulk Modulus (GPa) = 28.49000 56.37677 42.43338
# Shear Modulus (GPa) = 31.55679 42.17487 36.86583
#
# Velocity S-wave (km/s) = 3.76611 4.35385 4.07061
# Velocity P-wave (km/s) = 5.63176 7.11435 6.41602
#
# Compressibility (1/GPa) = 0.03510003
#
# Stress axis : x y z
#
# Youngs Moduli (GPa) = 145.23962 132.71554 31.32079
#
# Poissons Ratio (x) = 0.19783 0.08078
# Poissons Ratio (y) = 0.21649 0.04868
# Poissons Ratio (z) = 0.37458 0.20627
#
# Static dielectric constant tensor:
#      x y z
#    x 4.170770 -0.172070 -0.122650 
#    y -0.172070 4.555510 -0.009340 
#    z -0.122650 -0.009340 3.379840 
# 
# 
# High freq. dielectric constant tensor:
#      x y z
#    x 1.892520 -0.005440 0.006160 
#    y -0.005440 1.898520 0.007800 
#    z 0.006160 0.007800 1.851400 
# 
# From -- ./inp_files/223615.got.cif
#   From: 2010.06.25/outbox.cif.g09.slc.cpg/sg2_112_cif.got.tgz:223615.got - 2010.06.27 13:26:56.
