data_PCOD8019377
_publ_section_title
;
Structure prediction by ZEFSAII (Michael W. Deem and Ramdas Pophale) SiO2 
 PCOD8019377
Probable space group: P -1
;
_chemical_formula_sum "Si O2"
_cell_formula_units_Z 14
_cell_length_a 17.002346
_cell_length_b 29.938004
_cell_length_c 6.601378
_cell_angle_alpha 135.694118
_cell_angle_beta 136.302942
_cell_angle_gamma 16.240528
_cell_volume 645.201803
_symmetry_space_group_name_H-M "P -1"
_symmetry_group_IT_number 2
_symmetry_cell_setting 'triclinic'
loop_
_space_group_symop_operation_xyz
x,y,z
-x,-y,-z
loop_
_atom_site_type_symbol
_atom_site_label
_atom_site_fract_x
_atom_site_fract_y
_atom_site_fract_z
Si Si1 0.866915 0.135061 0.615427
Si Si2 0.379227 0.347094 0.644840
Si Si3 0.981405 0.832982 0.718461
Si Si4 0.224150 0.290983 0.216069
Si Si5 0.044189 0.663008 0.460657
Si Si6 0.582634 0.896124 0.689908
Si Si7 0.369563 0.704404 0.709863
O O1 0.538996 0.303633 0.626196
O O2 0.851095 0.153291 0.404184
O O3 0.000000 0.000000 0.500000
O O4 0.032879 0.109201 0.937200
O O5 0.411209 0.254341 0.363714
O O6 0.055145 0.535842 0.637677
O O7 0.518037 0.293180 0.945032
O O8 0.087027 0.710544 0.598991
O O9 0.197680 0.742857 0.652667
O O10 0.657838 0.995423 0.568906
O O11 0.401778 0.168541 0.330002
O O12 0.149197 0.280318 0.864777
O O13 0.359706 0.471074 0.456506
O O14 0.884110 0.750701 0.662896
O O15 0.500000 0.000000 0.000000
#
# Coordination Sequence:
#
# PCOD8019377 Si02
#       7
#     2   2   2   2   2   2   2
#     4  11  26  40  65  92 132 167 216 261 318 379
#     4   9  22  42  64  96 125 169 215 261 308 382
#     4  11  26  42  65  98 128 167 218 263 318 379
#     4  10  22  41  67  92 132 165 213 262 316 377
#     4  11  24  44  68  95 128 170 217 262 317 385
#     4  12  26  40  66  98 132 165 209 265 329 374
#     4  10  24  45  67  93 128 174 214 260 320 374
#
# _framework density 21.698637000000002
#
# number of rings (size 3 to 8) (size 9 to 14) (size 15 to 20)
#    0.000    1.429    1.429    1.714    8.000    1.714 
#    0.000    4.286    0.000    0.000    0.000    0.000 
#    0.000    0.000    0.000    0.000    0.000    0.000 
#
# Total GULP energy -173628.539384 kJ/mol
# GULP energy per Si atom -12402.038527 kJ/mol
# Density = 2.164925 g / cm^3
# Si number density = 21.698637 Si / 1000 Ang^3
#
#
#
# Elastic Constant Matrix: (Units=GPa)
#
#
# Indices 1 2 3 4 5 6 
#
# 1 81.9985 21.0618 43.4936 2.8702 12.3122 14.4296
# 2 21.0618 66.9628 24.6400 -0.7098 2.4791 8.9908
# 3 43.4936 24.6400 113.9336 4.5565 23.7810 12.8654
# 4 2.8702 -0.7098 4.5565 34.2498 -0.4330 -3.9824
# 5 12.3122 2.4791 23.7810 -0.4330 39.7717 3.3650
# 6 14.4296 8.9908 12.8654 -3.9824 3.3650 43.0822
#
#
#
# Elastic Compliance Matrix: (Units=1/GPa)
#
#
# Indices 1 2 3 4 5 6 
#
# 1 0.016407 -0.002865 -0.004848 -0.001210 -0.001725 -0.003427
# 2 -0.002865 0.017043 -0.002758 0.000768 0.001637 -0.001830
# 3 -0.004848 -0.002758 0.012639 -0.001553 -0.005794 -0.001266
# 4 -0.001210 0.000768 -0.001553 0.029930 0.001295 0.003374
# 5 -0.001725 0.001637 -0.005794 0.001295 0.029070 -0.000184
# 6 -0.003427 -0.001830 -0.001266 0.003374 -0.000184 0.025445
#
#
# Mechanical properties :
#
#
# Convention : Reuss Voigt Hill
#
# Bulk Modulus (GPa) = 39.76772 49.03175 44.39974
# Shear Modulus (GPa) = 31.27760 35.00071 33.13915
#
# Velocity S-wave (km/s) = 3.80077 4.02062 3.91224
# Velocity P-wave (km/s) = 6.13418 6.64828 6.39640
#
# Compressibility (1/GPa) = 0.02514602
#
# Stress axis : x y z
#
# Youngs Moduli (GPa) = 60.94828 58.67536 79.12198
#
# Poissons Ratio (x) = 0.16813 0.38362
# Poissons Ratio (y) = 0.17464 0.21819
# Poissons Ratio (z) = 0.29550 0.16181
#
# Static dielectric constant tensor:
#      x y z
#    x 4.013700 -0.062320 0.131040 
#    y -0.062320 3.356400 0.227580 
#    z 0.131040 0.227580 3.962520 
# 
# 
# High freq. dielectric constant tensor:
#      x y z
#    x 1.859480 -0.004150 0.007930 
#    y -0.004150 1.861320 0.002060 
#    z 0.007930 0.002060 1.855270 
# 
# From -- ./inp_files/65878.got.cif
#   From: 2010.06.25/outbox.cif.g09.slc.cpg/sg2_33_cif.got.tgz:65878.got - 2010.06.27 13:26:56.
