data_PCOD8019749
_publ_section_title
;
Structure prediction by ZEFSAII (Michael W. Deem and Ramdas Pophale) SiO2 
 PCOD8019749
Probable space group: P -1
;
_chemical_formula_sum "Si O2"
_cell_formula_units_Z 16
_cell_length_a 12.493998
_cell_length_b 8.285923
_cell_length_c 11.108088
_cell_angle_alpha 118.146648
_cell_angle_beta 120.376696
_cell_angle_gamma 49.766255
_cell_volume 738.766870
_symmetry_space_group_name_H-M "P -1"
_symmetry_group_IT_number 2
_symmetry_cell_setting 'triclinic'
loop_
_space_group_symop_operation_xyz
x,y,z
-x,-y,-z
loop_
_atom_site_type_symbol
_atom_site_label
_atom_site_fract_x
_atom_site_fract_y
_atom_site_fract_z
Si Si1 0.659746 0.096016 0.678904
Si Si2 0.197813 0.344522 0.259846
Si Si3 0.497698 0.286680 0.413878
Si Si4 0.970353 0.984192 0.837910
Si Si5 0.671346 0.879142 0.210582
Si Si6 0.049404 0.507120 0.662962
Si Si7 0.181142 0.112948 0.947283
Si Si8 0.544658 0.262732 0.915725
O O1 0.567673 0.141864 0.521413
O O2 0.539581 0.247601 0.763368
O O3 0.733334 0.850973 0.675152
O O4 0.796568 0.129717 0.757620
O O5 0.324806 0.391805 0.330711
O O6 0.049883 0.526726 0.307350
O O7 0.147703 0.304793 0.088151
O O8 0.500000 0.500000 0.500000
O O9 0.591932 0.125871 0.301235
O O10 0.043848 0.730213 0.759179
O O11 0.038670 0.097320 0.837658
O O12 0.000000 0.000000 0.000000
O O13 0.786865 0.701690 0.306962
O O14 0.752899 0.859410 0.126835
O O15 0.550605 0.816663 0.098675
O O16 0.000000 0.500000 0.500000
O O17 0.290630 0.889287 0.998359
O O18 0.500000 0.500000 0.000000
#
# Coordination Sequence:
#
# PCOD8019749 Si02
#       8
#     2   2   2   2   2   2   2   2
#     4  10  22  41  71  92 131 178 232 271 327 413
#     4  10  22  45  67  95 133 185 222 280 341 406
#     4  12  27  44  65  97 140 185 225 276 352 411
#     4  11  20  45  70 102 131 178 236 271 340 418
#     4  12  26  42  66 105 139 174 224 292 343 396
#     4  11  25  43  71 100 137 182 235 281 336 411
#     4  11  23  42  69 100 145 170 223 291 343 407
#     4  11  23  38  68  98 128 173 224 279 335 399
#
# _framework density 21.657713000000001
#
# number of rings (size 3 to 8) (size 9 to 14) (size 15 to 20)
#    0.000    1.000    6.250    3.000    3.500    2.500 
#    0.000    1.875    0.000    0.000    0.000    0.000 
#    0.000    0.000    0.000    0.000    0.000    0.000 
#
# Total GULP energy -198339.098837 kJ/mol
# GULP energy per Si atom -12396.193677 kJ/mol
# Density = 2.160842 g / cm^3
# Si number density = 21.657713 Si / 1000 Ang^3
#
#
#
# Elastic Constant Matrix: (Units=GPa)
#
#
# Indices 1 2 3 4 5 6 
#
# 1 156.2071 14.4275 43.1347 21.0143 8.3477 -3.3407
# 2 14.4275 47.0629 19.5802 19.9233 5.2999 -1.8358
# 3 43.1347 19.5802 96.5135 16.2057 -0.0509 4.0796
# 4 21.0143 19.9233 16.2057 33.1691 1.2985 3.6469
# 5 8.3477 5.2999 -0.0509 1.2985 42.6080 -1.8075
# 6 -3.3407 -1.8358 4.0796 3.6469 -1.8075 29.6336
#
#
#
# Elastic Compliance Matrix: (Units=1/GPa)
#
#
# Indices 1 2 3 4 5 6 
#
# 1 0.007837 0.000845 -0.003059 -0.004117 -0.001443 0.001776
# 2 0.000845 0.030454 -0.003838 -0.017314 -0.003242 0.004443
# 3 -0.003059 -0.003838 0.012910 -0.001879 0.001062 -0.002064
# 4 -0.004117 -0.017314 -0.001879 0.044761 0.001309 -0.006707
# 5 -0.001443 -0.003242 0.001062 0.001309 0.024151 0.000802
# 6 0.001776 0.004443 -0.002064 -0.006707 0.000802 0.035379
#
#
# Mechanical properties :
#
#
# Convention : Reuss Voigt Hill
#
# Bulk Modulus (GPa) = 25.57727 50.45203 38.01465
# Shear Modulus (GPa) = 27.68095 35.92489 31.80292
#
# Velocity S-wave (km/s) = 3.57895 4.07720 3.83617
# Velocity P-wave (km/s) = 5.37716 6.74615 6.10018
#
# Compressibility (1/GPa) = 0.03909721
#
# Stress axis : x y z
#
# Youngs Moduli (GPa) = 127.59500 32.83634 77.45806
#
# Poissons Ratio (x) = -0.02773 0.23691
# Poissons Ratio (y) = -0.10776 0.29730
# Poissons Ratio (z) = 0.39026 0.12603
#
# Static dielectric constant tensor:
#      x y z
#    x 4.353620 -0.255260 0.247850 
#    y -0.255260 4.005940 0.041070 
#    z 0.247850 0.041070 4.089900 
# 
# 
# High freq. dielectric constant tensor:
#      x y z
#    x 1.864600 -0.014980 0.004220 
#    y -0.014980 1.839080 -0.001120 
#    z 0.004220 -0.001120 1.853190 
# 
# From -- ./inp_files/263319.got.cif
#   From: 2010.06.25/outbox.cif.g09.slc.cpg/sg2_132_cif.got.tgz:263319.got - 2010.06.27 13:26:56.
