data_PCOD8019308
_publ_section_title
;
Structure prediction by ZEFSAII (Michael W. Deem and Ramdas Pophale) SiO2 
 PCOD8019308
Probable space group: P -1
;
_chemical_formula_sum "Si O2"
_cell_formula_units_Z 14
_cell_length_a 12.296320
_cell_length_b 8.201155
_cell_length_c 14.561218
_cell_angle_alpha 116.468336
_cell_angle_beta 31.239819
_cell_angle_gamma 127.506143
_cell_volume 594.042469
_symmetry_space_group_name_H-M "P -1"
_symmetry_group_IT_number 2
_symmetry_cell_setting 'triclinic'
loop_
_space_group_symop_operation_xyz
x,y,z
-x,-y,-z
loop_
_atom_site_type_symbol
_atom_site_label
_atom_site_fract_x
_atom_site_fract_y
_atom_site_fract_z
Si Si1 0.359631 0.612804 0.593579
Si Si2 0.698671 0.784772 0.240532
Si Si3 0.788812 0.126020 0.113881
Si Si4 0.960946 0.675437 0.619899
Si Si5 0.107640 0.574459 0.223801
Si Si6 0.469494 0.370703 0.191925
Si Si7 0.662645 0.036492 0.708578
O O1 0.500000 0.500000 0.500000
O O2 0.555712 0.800652 0.435746
O O3 0.268542 0.694970 0.764975
O O4 0.133565 0.453769 0.655410
O O5 0.519323 0.572839 0.264073
O O6 0.763712 0.983592 0.182365
O O7 0.940062 0.778559 0.095874
O O8 0.603837 0.002499 0.134054
O O9 0.953234 0.634268 0.724692
O O10 0.709478 0.658346 0.768955
O O11 0.000000 0.500000 0.500000
O O12 0.179167 0.898367 0.483637
O O13 0.221933 0.781901 0.254248
O O14 0.284605 0.598213 0.019963
O O15 0.346994 0.170259 0.296310
#
# Coordination Sequence:
#
# PCOD8019308 Si02
#       7
#     2   2   2   2   2   2   2
#     4  12  26  45  73 103 141 183 235 292 355 416
#     4  11  24  45  73  97 144 186 237 287 350 419
#     4  11  25  46  69 104 137 188 237 287 348 425
#     4  10  22  41  66  95 134 179 229 279 346 413
#     4  11  24  46  68 102 141 181 237 286 352 424
#     4  12  23  42  72 103 139 182 233 294 354 411
#     4  11  24  43  69 101 141 176 233 291 352 412
#
# _framework density 23.567339
#
# number of rings (size 3 to 8) (size 9 to 14) (size 15 to 20)
#    0.000    0.857    1.429    6.857    2.000    2.286 
#    2.571    0.000    0.000    0.000    0.000    0.000 
#    0.000    0.000    0.000    0.000    0.000    0.000 
#
# Total GULP energy -173633.137892 kJ/mol
# GULP energy per Si atom -12402.366992 kJ/mol
# Density = 2.351370 g / cm^3
# Si number density = 23.567339 Si / 1000 Ang^3
#
#
#
# Elastic Constant Matrix: (Units=GPa)
#
#
# Indices 1 2 3 4 5 6 
#
# 1 122.6294 24.6845 32.8310 -14.9173 -39.2692 3.5548
# 2 24.6845 56.8149 19.9589 -8.6001 -2.9800 -5.9596
# 3 32.8310 19.9589 107.9299 -7.2086 -20.9607 7.0102
# 4 -14.9173 -8.6001 -7.2086 29.3355 -5.1425 -0.7073
# 5 -39.2692 -2.9800 -20.9607 -5.1425 50.3404 -4.9780
# 6 3.5548 -5.9596 7.0102 -0.7073 -4.9780 39.5855
#
#
#
# Elastic Compliance Matrix: (Units=1/GPa)
#
#
# Indices 1 2 3 4 5 6 
#
# 1 0.013483 -0.003920 -0.000795 0.007381 0.010691 -0.000184
# 2 -0.003920 0.021188 -0.003248 0.003082 -0.002459 0.003863
# 3 -0.000795 -0.003248 0.011107 0.001999 0.003831 -0.001867
# 4 0.007381 0.003082 0.001999 0.041228 0.011141 0.001585
# 5 0.010691 -0.002459 0.003831 0.011141 0.030999 0.002088
# 6 -0.000184 0.003863 -0.001867 0.001585 0.002088 0.026481
#
#
# Mechanical properties :
#
#
# Convention : Reuss Voigt Hill
#
# Bulk Modulus (GPa) = 33.50032 49.14701 41.32366
# Shear Modulus (GPa) = 29.34894 37.84560 33.59727
#
# Velocity S-wave (km/s) = 3.53274 4.01165 3.77979
# Velocity P-wave (km/s) = 5.55751 6.50822 6.05156
#
# Compressibility (1/GPa) = 0.02985046
#
# Stress axis : x y z
#
# Youngs Moduli (GPa) = 74.16576 47.19642 90.03459
#
# Poissons Ratio (x) = 0.18501 0.07162
# Poissons Ratio (y) = 0.29072 0.29248
# Poissons Ratio (z) = 0.05900 0.15332
#
# Static dielectric constant tensor:
#      x y z
#    x 4.555540 -0.167620 0.084090 
#    y -0.167620 4.160100 -0.357500 
#    z 0.084090 -0.357500 4.773020 
# 
# 
# High freq. dielectric constant tensor:
#      x y z
#    x 1.944010 -0.008400 -0.010610 
#    y -0.008400 1.920000 -0.017010 
#    z -0.010610 -0.017010 1.946840 
# 
# From -- ./inp_files/243338.got.cif
#   From: 2010.06.25/outbox.cif.g09.slc.cpg/sg2_122_cif.got.tgz:243338.got - 2010.06.27 13:26:56.
