data_PCOD8019077
_publ_section_title
;
Structure prediction by ZEFSAII (Michael W. Deem and Ramdas Pophale) SiO2 
 PCOD8019077
Probable space group: P -1
;
_chemical_formula_sum "Si O2"
_cell_formula_units_Z 16
_cell_length_a 8.868599
_cell_length_b 12.453259
_cell_length_c 27.563810
_cell_angle_alpha 27.885063
_cell_angle_beta 139.888713
_cell_angle_gamma 150.070524
_cell_volume 710.364060
_symmetry_space_group_name_H-M "P -1"
_symmetry_group_IT_number 2
_symmetry_cell_setting 'triclinic'
loop_
_space_group_symop_operation_xyz
x,y,z
-x,-y,-z
loop_
_atom_site_type_symbol
_atom_site_label
_atom_site_fract_x
_atom_site_fract_y
_atom_site_fract_z
Si Si1 0.990665 0.737935 0.533985
Si Si2 0.416164 0.256912 0.643530
Si Si3 0.788344 0.338371 0.206630
Si Si4 0.535746 0.554263 0.843555
Si Si5 0.317161 0.373610 0.353036
Si Si6 0.151534 0.905301 0.899871
Si Si7 0.221330 0.895399 0.029719
Si Si8 0.361884 0.521426 0.707808
O O1 0.755051 0.520669 0.603760
O O2 0.827027 0.745800 0.444021
O O3 0.177903 0.634163 0.604514
O O4 0.221750 0.076232 0.474966
O O5 0.405856 0.337724 0.664577
O O6 0.358649 0.948319 0.749419
O O7 0.533194 0.283386 0.200942
O O8 0.040040 0.378889 0.285899
O O9 0.929764 0.633100 0.092367
O O10 0.541026 0.652846 0.750538
O O11 0.863801 0.645391 0.900794
O O12 0.274935 0.200634 0.926532
O O13 0.394644 0.370574 0.317462
O O14 0.477405 0.048123 0.899152
O O15 0.126954 0.165251 0.794550
O O16 0.151025 0.785246 0.000545
#
# Coordination Sequence:
#
# PCOD8019077 Si02
#       8
#     2   2   2   2   2   2   2   2
#     4  10  22  41  64  94 131 164 216 265 322 381
#     4  10  23  41  65  94 129 171 212 264 323 382
#     4  11  23  42  65  99 130 167 216 264 320 382
#     4  11  24  40  69  95 130 171 213 264 322 380
#     4  11  23  41  64  94 131 171 212 266 319 377
#     4  10  22  41  64  95 131 171 209 263 324 382
#     4  10  22  43  64  95 132 166 215 265 323 378
#     4  11  23  41  63  96 132 167 215 265 317 380
#
# _framework density 22.523662000000002
#
# number of rings (size 3 to 8) (size 9 to 14) (size 15 to 20)
#    0.000    1.500    1.250    3.000    0.000    8.000 
#    0.000    0.000    0.000    0.000    0.000    0.000 
#    0.000    0.000    0.000    0.000    0.000    0.000 
#
# Total GULP energy -198415.439657 kJ/mol
# GULP energy per Si atom -12400.964979 kJ/mol
# Density = 2.247240 g / cm^3
# Si number density = 22.523662 Si / 1000 Ang^3
#
#
#
# Elastic Constant Matrix: (Units=GPa)
#
#
# Indices 1 2 3 4 5 6 
#
# 1 101.5000 48.0886 31.9668 9.9890 0.7938 -5.3542
# 2 48.0886 114.8921 35.5097 -7.4670 -8.8031 -15.5604
# 3 31.9668 35.5097 91.7824 -10.3440 4.8136 -1.3460
# 4 9.9890 -7.4670 -10.3440 31.5081 5.2602 4.5601
# 5 0.7938 -8.8031 4.8136 5.2602 32.6215 -2.0710
# 6 -5.3542 -15.5604 -1.3460 4.5601 -2.0710 29.5143
#
#
#
# Elastic Compliance Matrix: (Units=1/GPa)
#
#
# Indices 1 2 3 4 5 6 
#
# 1 0.014203 -0.005139 -0.003744 -0.007065 0.000009 0.000789
# 2 -0.005139 0.013069 -0.003154 0.002166 0.004134 0.005769
# 3 -0.003744 -0.003154 0.014292 0.006235 -0.004061 -0.002939
# 4 -0.007065 0.002166 0.006235 0.038581 -0.006784 -0.006293
# 5 0.000009 0.004134 -0.004061 -0.006784 0.033807 0.005417
# 6 0.000789 0.005769 -0.002939 -0.006293 0.005417 0.038285
#
#
# Mechanical properties :
#
#
# Convention : Reuss Voigt Hill
#
# Bulk Modulus (GPa) = 57.17787 59.92272 58.55029
# Shear Modulus (GPa) = 27.45119 31.56940 29.51029
#
# Velocity S-wave (km/s) = 3.49488 3.74787 3.62358
# Velocity P-wave (km/s) = 6.45959 6.73727 6.59989
#
# Compressibility (1/GPa) = 0.01748928
#
# Stress axis : x y z
#
# Youngs Moduli (GPa) = 70.40748 76.51854 69.96880
#
# Poissons Ratio (x) = 0.39326 0.26193
# Poissons Ratio (y) = 0.36185 0.22070
# Poissons Ratio (z) = 0.26358 0.24136
#
# Static dielectric constant tensor:
#      x y z
#    x 3.798820 -0.057420 0.042970 
#    y -0.057420 3.993320 -0.161200 
#    z 0.042970 -0.161200 4.092970 
# 
# 
# High freq. dielectric constant tensor:
#      x y z
#    x 1.875520 -0.004330 0.005770 
#    y -0.004330 1.885020 -0.008160 
#    z 0.005770 -0.008160 1.895910 
# 
# From -- ./inp_files/273525.got.cif
#   From: 2010.06.25/outbox.cif.g09.slc.cpg/sg2_137_cif.got.tgz:273525.got - 2010.06.27 13:26:56.
