data_PCOD8019601
_publ_section_title
;
Structure prediction by ZEFSAII (Michael W. Deem and Ramdas Pophale) SiO2 
 PCOD8019601
Probable space group: P -1
;
_chemical_formula_sum "Si O2"
_cell_formula_units_Z 16
_cell_length_a 19.869563
_cell_length_b 7.684887
_cell_length_c 20.121677
_cell_angle_alpha 55.848108
_cell_angle_beta 20.573950
_cell_angle_gamma 44.929875
_cell_volume 695.955860
_symmetry_space_group_name_H-M "P -1"
_symmetry_group_IT_number 2
_symmetry_cell_setting 'triclinic'
loop_
_space_group_symop_operation_xyz
x,y,z
-x,-y,-z
loop_
_atom_site_type_symbol
_atom_site_label
_atom_site_fract_x
_atom_site_fract_y
_atom_site_fract_z
Si Si1 0.445634 0.162867 0.947932
Si Si2 0.454508 0.619963 0.862651
Si Si3 0.021498 0.586683 0.748961
Si Si4 0.242428 0.259683 0.362194
Si Si5 0.543287 0.090591 0.323587
Si Si6 0.979526 0.403641 0.966949
Si Si7 0.029144 0.019899 0.686848
Si Si8 0.487740 0.661091 0.416445
O O1 0.566046 0.312575 0.809315
O O2 0.557403 0.952428 0.829831
O O3 0.156755 0.396644 0.145278
O O4 0.500000 0.000000 0.000000
O O5 0.656705 0.614006 0.716349
O O6 0.379380 0.794491 0.828342
O O7 0.216067 0.737679 0.102186
O O8 0.303770 0.332687 0.531591
O O9 0.969973 0.870931 0.722718
O O10 0.955450 0.573334 0.889274
O O11 0.000000 0.500000 0.500000
O O12 0.171154 0.118405 0.505057
O O13 0.482447 0.909485 0.386433
O O14 0.777132 0.910932 0.196503
O O15 0.721134 0.454147 0.196346
O O16 0.000000 0.500000 0.000000
O O17 0.228312 0.771599 0.602892
O O18 0.500000 0.500000 0.500000
#
# Coordination Sequence:
#
# PCOD8019601 Si02
#       8
#     2   2   2   2   2   2   2   2
#     4  12  29  49  76 112 151 198 253 308 371 444
#     4  12  26  50  78 108 155 194 247 312 368 448
#     4  12  25  45  73 108 151 194 253 308 370 445
#     4  12  28  48  77 110 145 198 252 304 384 437
#     4  11  23  43  68 108 147 189 247 303 371 445
#     4  10  22  41  69 103 148 191 247 301 367 445
#     4  12  23  45  74 104 147 194 243 307 369 437
#     4  11  21  39  68 102 141 194 243 292 370 440
#
# _framework density 22.989965000000002
#
# number of rings (size 3 to 8) (size 9 to 14) (size 15 to 20)
#    0.000    0.500    2.500    7.125    3.500    1.500 
#    0.000    1.875    0.000    0.000    0.000    0.000 
#    0.000    0.000    0.000    0.000    0.000    0.000 
#
# Total GULP energy -198352.452983 kJ/mol
# GULP energy per Si atom -12397.028311 kJ/mol
# Density = 2.293764 g / cm^3
# Si number density = 22.989965 Si / 1000 Ang^3
#
#
#
# Elastic Constant Matrix: (Units=GPa)
#
#
# Indices 1 2 3 4 5 6 
#
# 1 82.7182 37.9914 12.4851 -10.6680 -11.0902 -7.9262
# 2 37.9914 118.6379 13.3818 -16.1247 -9.7616 1.2112
# 3 12.4851 13.3818 86.7775 3.8488 -3.6504 0.7261
# 4 -10.6680 -16.1247 3.8488 49.3816 -3.3336 -3.7133
# 5 -11.0902 -9.7616 -3.6504 -3.3336 36.9187 2.5506
# 6 -7.9262 1.2112 0.7261 -3.7133 2.5506 42.0428
#
#
#
# Elastic Compliance Matrix: (Units=1/GPa)
#
#
# Indices 1 2 3 4 5 6 
#
# 1 0.015292 -0.004131 -0.001559 0.002533 0.003365 0.003048
# 2 -0.004131 0.010375 -0.001043 0.002621 0.001700 -0.000931
# 3 -0.001559 -0.001043 0.012001 -0.001638 0.000339 -0.000636
# 4 0.002533 0.002621 -0.001638 0.022158 0.003141 0.002197
# 5 0.003365 0.001700 0.000339 0.003141 0.028926 -0.000898
# 6 0.003048 -0.000931 -0.000636 0.002197 -0.000898 0.024646
#
#
# Mechanical properties :
#
#
# Convention : Reuss Voigt Hill
#
# Bulk Modulus (GPa) = 41.31848 46.20557 43.76202
# Shear Modulus (GPa) = 37.05567 40.62032 38.83799
#
# Velocity S-wave (km/s) = 4.01910 4.20798 4.11462
# Velocity P-wave (km/s) = 6.28880 6.61447 6.45369
#
# Compressibility (1/GPa) = 0.02420225
#
# Stress axis : x y z
#
# Youngs Moduli (GPa) = 65.39437 96.38381 83.32611
#
# Poissons Ratio (x) = 0.39816 0.12993
# Poissons Ratio (y) = 0.27015 0.08687
# Poissons Ratio (z) = 0.10197 0.10048
#
# Static dielectric constant tensor:
#      x y z
#    x 3.914540 0.041270 0.071120 
#    y 0.041270 4.224940 0.025230 
#    z 0.071120 0.025230 4.310690 
# 
# 
# High freq. dielectric constant tensor:
#      x y z
#    x 1.900480 -0.005080 -0.006990 
#    y -0.005080 1.917920 0.000040 
#    z -0.006990 0.000040 1.927320 
# 
# From -- ./inp_files/601149.got.cif
#   From: 2010.06.25/outbox.cif.g09.slc.cpg/sg2_301_cif.got.tgz:601149.got - 2010.06.27 13:26:56.
