data_PCOD8019973
_publ_section_title
;
Structure prediction by ZEFSAII (Michael W. Deem and Ramdas Pophale) SiO2 
 PCOD8019973
Probable space group: P -1
;
_chemical_formula_sum "Si O2"
_cell_formula_units_Z 16
_cell_length_a 14.692058
_cell_length_b 9.331218
_cell_length_c 10.901015
_cell_angle_alpha 136.660618
_cell_angle_beta 122.297292
_cell_angle_gamma 47.304724
_cell_volume 751.337271
_symmetry_space_group_name_H-M "P -1"
_symmetry_group_IT_number 2
_symmetry_cell_setting 'triclinic'
loop_
_space_group_symop_operation_xyz
x,y,z
-x,-y,-z
loop_
_atom_site_type_symbol
_atom_site_label
_atom_site_fract_x
_atom_site_fract_y
_atom_site_fract_z
Si Si1 0.404743 0.402171 0.158598
Si Si2 0.763590 0.785906 0.180753
Si Si3 0.024860 0.663133 0.855010
Si Si4 0.658237 0.075466 0.523593
Si Si5 0.836083 0.166160 0.094272
Si Si6 0.394127 0.315034 0.374802
Si Si7 0.234957 0.141761 0.285457
Si Si8 0.677338 0.236294 0.247489
O O1 0.327690 0.691435 0.294370
O O2 0.424660 0.280148 0.231246
O O3 0.541420 0.308114 0.140682
O O4 0.331958 0.314329 0.963740
O O5 0.905185 0.564125 0.145292
O O6 0.743770 0.930042 0.381446
O O7 0.750029 0.956679 0.163814
O O8 0.129841 0.645701 0.824735
O O9 0.913131 0.659765 0.696366
O O10 0.965991 0.910716 0.047395
O O11 0.516824 0.152309 0.440985
O O12 0.703625 0.896123 0.560929
O O13 0.761329 0.278302 0.235583
O O14 0.747406 0.113900 0.908781
O O15 0.296018 0.233010 0.285934
O O16 0.340969 0.595428 0.543967
#
# Coordination Sequence:
#
# PCOD8019973 Si02
#       8
#     2   2   2   2   2   2   2   2
#     4  11  23  43  65  94 134 164 201 267 323 367
#     4  12  23  39  70  95 121 178 207 255 317 381
#     4   9  23  44  63  91 126 167 216 261 310 365
#     4  11  23  41  64  98 132 157 217 256 315 380
#     4   9  21  44  66  88 126 166 214 264 309 369
#     4  11  22  43  61  98 132 164 202 269 313 378
#     4  10  22  42  64  87 128 171 201 266 314 362
#     4  11  22  41  65  96 128 164 214 256 317 381
#
# _framework density 21.295363999999999
#
# number of rings (size 3 to 8) (size 9 to 14) (size 15 to 20)
#    0.750    0.750    2.500    3.000    3.500    1.000 
#    0.000    2.500    0.000    0.000    0.000    0.000 
#    0.000    0.000    0.000    0.000    0.000    0.000 
#
# Total GULP energy -198377.894044 kJ/mol
# GULP energy per Si atom -12398.618378 kJ/mol
# Density = 2.124689 g / cm^3
# Si number density = 21.295364 Si / 1000 Ang^3
#
#
#
# Elastic Constant Matrix: (Units=GPa)
#
#
# Indices 1 2 3 4 5 6 
#
# 1 106.2767 18.4355 9.7695 -7.8772 5.5911 -0.0818
# 2 18.4355 93.9568 21.8872 -9.3054 5.6258 -18.7489
# 3 9.7695 21.8872 38.6342 -0.8913 -0.6301 -6.6659
# 4 -7.8772 -9.3054 -0.8913 18.6163 2.0124 -0.0070
# 5 5.5911 5.6258 -0.6301 2.0124 35.4688 2.3322
# 6 -0.0818 -18.7489 -6.6659 -0.0070 2.3322 20.8293
#
#
#
# Elastic Compliance Matrix: (Units=1/GPa)
#
#
# Indices 1 2 3 4 5 6 
#
# 1 0.010190 -0.001419 -0.002008 0.003669 -0.001513 -0.001709
# 2 -0.001419 0.015884 -0.006341 0.007437 -0.003664 0.012675
# 3 -0.002008 -0.006341 0.030620 -0.002743 0.001766 0.003885
# 4 0.003669 0.007437 -0.002743 0.059463 -0.005606 0.006478
# 5 -0.001513 -0.003664 0.001766 -0.005606 0.029762 -0.006073
# 6 -0.001709 0.012675 0.003885 0.006478 -0.006073 0.061337
#
#
# Mechanical properties :
#
#
# Convention : Reuss Voigt Hill
#
# Bulk Modulus (GPa) = 26.91181 37.67246 32.29214
# Shear Modulus (GPa) = 20.90490 27.56792 24.23641
#
# Velocity S-wave (km/s) = 3.13655 3.60189 3.37724
# Velocity P-wave (km/s) = 5.07761 5.91836 5.51403
#
# Compressibility (1/GPa) = 0.03715840
#
# Stress axis : x y z
#
# Youngs Moduli (GPa) = 98.13213 62.95667 32.65872
#
# Poissons Ratio (x) = 0.08932 0.06558
# Poissons Ratio (y) = 0.13922 0.20709
# Poissons Ratio (z) = 0.19705 0.39921
#
# Static dielectric constant tensor:
#      x y z
#    x 3.662180 -0.038260 0.096800 
#    y -0.038260 3.744830 0.112260 
#    z 0.096800 0.112260 3.675750 
# 
# 
# High freq. dielectric constant tensor:
#      x y z
#    x 1.826310 -0.000080 0.005420 
#    y -0.000080 1.829850 0.008150 
#    z 0.005420 0.008150 1.824170 
# 
# From -- ./inp_files/446432.got.cif
#   From: 2010.06.25/outbox.cif.g09.slc.cpg/sg2_224_cif.got.tgz:446432.got - 2010.06.27 13:26:56.
