data_PCOD8019054
_publ_section_title
;
Structure prediction by ZEFSAII (Michael W. Deem and Ramdas Pophale) SiO2 
 PCOD8019054
Probable space group: P -1
;
_chemical_formula_sum "Si O2"
_cell_formula_units_Z 14
_cell_length_a 8.601205
_cell_length_b 7.912461
_cell_length_c 21.161932
_cell_angle_alpha 118.285565
_cell_angle_beta 54.337480
_cell_angle_gamma 144.167904
_cell_volume 685.000806
_symmetry_space_group_name_H-M "P -1"
_symmetry_group_IT_number 2
_symmetry_cell_setting 'triclinic'
loop_
_space_group_symop_operation_xyz
x,y,z
-x,-y,-z
loop_
_atom_site_type_symbol
_atom_site_label
_atom_site_fract_x
_atom_site_fract_y
_atom_site_fract_z
Si Si1 0.100982 0.950747 0.025828
Si Si2 0.197278 0.114976 0.657599
Si Si3 0.022592 0.420486 0.767985
Si Si4 0.426425 0.875600 0.861844
Si Si5 0.155851 0.463097 0.413579
Si Si6 0.923417 0.626580 0.721626
Si Si7 0.481708 0.401896 0.123291
O O1 0.313557 0.236142 0.068793
O O2 0.822698 0.676305 0.081928
O O3 0.272802 0.893500 0.952629
O O4 0.000000 0.000000 0.000000
O O5 0.118923 0.278038 0.705265
O O6 0.527695 0.336825 0.599750
O O7 0.012521 0.867205 0.603384
O O8 0.130373 0.963845 0.714829
O O9 0.194261 0.631431 0.823596
O O10 0.087852 0.600322 0.723198
O O11 0.682826 0.179711 0.820127
O O12 0.573530 0.809200 0.851354
O O13 0.164865 0.546134 0.353428
O O14 0.000000 0.500000 0.500000
O O15 0.638142 0.491727 0.799945
#
# Coordination Sequence:
#
# PCOD8019054 Si02
#       7
#     2   2   2   2   2   2   2
#     4  12  25  40  59  90 125 167 216 264 315 366
#     4  10  22  41  64  92 128 159 208 249 314 364
#     4  12  23  41  65  94 126 165 218 254 308 373
#     4  12  24  41  61  91 126 169 214 266 312 367
#     4  10  22  43  69  94 130 164 201 252 316 374
#     4  10  25  38  69  91 125 166 210 258 312 371
#     4  12  23  41  62  87 125 167 212 260 317 370
#
# _framework density 20.437930999999999
#
# number of rings (size 3 to 8) (size 9 to 14) (size 15 to 20)
#    0.857    0.000    1.429    6.857    4.000    0.000 
#    0.000    1.429    0.000    0.000    0.000    0.000 
#    0.000    0.000    0.000    0.000    0.000    0.000 
#
# Total GULP energy -173616.796737 kJ/mol
# GULP energy per Si atom -12401.199767 kJ/mol
# Density = 2.039141 g / cm^3
# Si number density = 20.437931 Si / 1000 Ang^3
#
#
#
# Elastic Constant Matrix: (Units=GPa)
#
#
# Indices 1 2 3 4 5 6 
#
# 1 99.5866 14.4146 43.0883 -13.8192 -9.5068 -28.3160
# 2 14.4146 95.5037 51.6674 -11.2162 -21.3886 6.3242
# 3 43.0883 51.6674 150.0392 9.7453 -26.2958 4.2011
# 4 -13.8192 -11.2162 9.7453 18.1630 8.9047 -13.0871
# 5 -9.5068 -21.3886 -26.2958 8.9047 23.3881 -8.0784
# 6 -28.3160 6.3242 4.2011 -13.0871 -8.0784 23.4777
#
#
#
# Elastic Compliance Matrix: (Units=1/GPa)
#
#
# Indices 1 2 3 4 5 6 
#
# 1 -0.011291 -0.005748 0.011024 -0.050385 0.008148 -0.039324
# 2 -0.005748 0.013243 -0.000513 -0.009074 0.008297 -0.012612
# 3 0.011024 -0.000513 0.002813 0.023191 0.008258 0.028699
# 4 -0.050385 -0.009074 0.023191 -0.072559 -0.012061 -0.107070
# 5 0.008148 0.008297 0.008258 -0.012061 0.076403 0.025681
# 6 -0.039324 -0.012612 0.028699 -0.107070 0.025681 -0.057420
#
#
# Mechanical properties :
#
#
# Convention : Reuss Voigt Hill
#
# Bulk Modulus (GPa) = 69.97672 62.60779 66.29225
# Shear Modulus (GPa) = -93.33254 28.73638 -32.29808
#
# Velocity S-wave (km/s) = -6.76502 3.75378 -3.97961
# Velocity P-wave (km/s) = 5.16794 7.03473 3.37489
#
# Compressibility (1/GPa) = 0.01429047
#
# Stress axis : x y z
#
# Youngs Moduli (GPa) = -88.56469 75.50884 355.46698
#
# Poissons Ratio (x) = 0.43403 -3.91856
# Poissons Ratio (y) = -0.50907 0.18243
# Poissons Ratio (z) = 0.97631 0.03875
#
# Static dielectric constant tensor:
#      x y z
#    x 3.623610 -0.030710 -0.040660 
#    y -0.030710 3.718790 -0.076590 
#    z -0.040660 -0.076590 3.668420 
# 
# 
# High freq. dielectric constant tensor:
#      x y z
#    x 1.797100 0.006270 -0.010310 
#    y 0.006270 1.806570 0.000550 
#    z -0.010310 0.000550 1.795240 
# 
# From -- ./inp_files/115694.got.cif
#   From: 2010.06.25/outbox.cif.g09.slc.cpg/sg2_58_cif.got.tgz:115694.got - 2010.06.27 13:26:56.
