data_PCOD8019127
_publ_section_title
;
Structure prediction by ZEFSAII (Michael W. Deem and Ramdas Pophale) SiO2 
 PCOD8019127
Probable space group: P -1
;
_chemical_formula_sum "Si O2"
_cell_formula_units_Z 14
_cell_length_a 10.189762
_cell_length_b 12.232375
_cell_length_c 12.945748
_cell_angle_alpha 40.138273
_cell_angle_beta 147.356039
_cell_angle_gamma 128.262991
_cell_volume 559.710015
_symmetry_space_group_name_H-M "P -1"
_symmetry_group_IT_number 2
_symmetry_cell_setting 'triclinic'
loop_
_space_group_symop_operation_xyz
x,y,z
-x,-y,-z
loop_
_atom_site_type_symbol
_atom_site_label
_atom_site_fract_x
_atom_site_fract_y
_atom_site_fract_z
Si Si1 0.555611 0.809611 0.295052
Si Si2 0.019949 0.596946 0.760161
Si Si3 0.146769 0.580696 0.629436
Si Si4 0.324297 0.229450 0.017003
Si Si5 0.293677 0.926934 0.480859
Si Si6 0.427009 0.808839 0.982010
Si Si7 0.970395 0.211696 0.977662
O O1 0.764040 0.679894 0.575742
O O2 0.668008 0.992732 0.226185
O O3 0.475124 0.745456 0.175435
O O4 0.318337 0.805497 0.215444
O O5 0.000936 0.638126 0.595184
O O6 0.241533 0.681884 0.901270
O O7 0.035339 0.393403 0.935071
O O8 0.244039 0.748632 0.522115
O O9 0.000000 0.500000 0.500000
O O10 0.349115 0.431113 0.906979
O O11 0.584758 0.124469 0.290730
O O12 0.314772 0.202576 0.905326
O O13 0.097365 0.172797 0.976960
O O14 0.500000 0.000000 0.500000
O O15 0.065665 0.067558 0.229176
#
# Coordination Sequence:
#
# PCOD8019127 Si02
#       7
#     2   2   2   2   2   2   2
#     4  11  26  46  70 106 138 187 238 290 341 414
#     4  11  24  48  71 101 141 191 233 282 354 419
#     4  11  23  40  72 102 140 177 233 287 349 415
#     4  10  22  44  70 103 133 184 225 287 350 414
#     4  10  22  41  65 103 141 174 227 286 350 410
#     4  11  25  42  78  99 141 181 243 283 349 416
#     4  10  25  44  71 103 145 176 233 290 354 411
#
# _framework density 25.012951000000001
#
# number of rings (size 3 to 8) (size 9 to 14) (size 15 to 20)
#    0.000    1.429    1.429    2.143   10.000    2.286 
#    7.714    0.000    0.000    0.000    0.000    1.000 
#    0.000    0.000    0.000    0.000    0.000    0.000 
#
# Total GULP energy -173432.728140 kJ/mol
# GULP energy per Si atom -12388.052010 kJ/mol
# Density = 2.495602 g / cm^3
# Si number density = 25.012951 Si / 1000 Ang^3
#
#
#
# Elastic Constant Matrix: (Units=GPa)
#
#
# Indices 1 2 3 4 5 6 
#
# 1 98.0036 15.2350 34.7503 6.7358 8.4236 3.6862
# 2 15.2350 127.2866 23.6270 -12.0781 -18.8014 21.5687
# 3 34.7503 23.6270 104.1439 -34.1313 6.5556 13.8621
# 4 6.7358 -12.0781 -34.1313 43.4041 3.0317 -9.0654
# 5 8.4236 -18.8014 6.5556 3.0317 31.7472 -4.5496
# 6 3.6862 21.5687 13.8621 -9.0654 -4.5496 29.8800
#
#
#
# Elastic Compliance Matrix: (Units=1/GPa)
#
#
# Indices 1 2 3 4 5 6 
#
# 1 0.013417 -0.001434 -0.006385 -0.007389 -0.002424 -0.000269
# 2 -0.001434 0.010099 -0.001295 0.000463 0.005798 -0.005489
# 3 -0.006385 -0.001295 0.017218 0.013908 -0.004345 -0.002707
# 4 -0.007389 0.000463 0.013908 0.036467 -0.003451 0.004663
# 5 -0.002424 0.005798 -0.004345 -0.003451 0.037196 0.002746
# 6 -0.000269 -0.005489 -0.002707 0.004663 0.002746 0.040551
#
#
# Mechanical properties :
#
#
# Convention : Reuss Voigt Hill
#
# Bulk Modulus (GPa) = 44.43327 52.96206 48.69767
# Shear Modulus (GPa) = 27.67354 38.06104 32.86729
#
# Velocity S-wave (km/s) = 3.32982 3.90507 3.62886
# Velocity P-wave (km/s) = 5.70844 6.44613 6.08847
#
# Compressibility (1/GPa) = 0.02250566
#
# Stress axis : x y z
#
# Youngs Moduli (GPa) = 74.53315 99.02195 58.07746
#
# Poissons Ratio (x) = 0.14204 0.37081
# Poissons Ratio (y) = 0.10691 0.07522
# Poissons Ratio (z) = 0.47587 0.12825
#
# Static dielectric constant tensor:
#      x y z
#    x 4.598560 0.106110 -0.308250 
#    y 0.106110 3.443420 1.104220 
#    z -0.308250 1.104220 3.404650 
# 
# 
# High freq. dielectric constant tensor:
#      x y z
#    x 1.984940 0.005820 0.003480 
#    y 0.005820 2.000990 -0.017850 
#    z 0.003480 -0.017850 2.000120 
# 
# From -- ./inp_files/518695.got.cif
#   From: 2010.06.25/outbox.cif.g09.slc.cpg/sg2_260_cif.got.tgz:518695.got - 2010.06.27 13:26:56.
