data_PCOD8019687
_publ_section_title
;
Structure prediction by ZEFSAII (Michael W. Deem and Ramdas Pophale) SiO2 
 PCOD8019687
Probable space group: P -1
;
_chemical_formula_sum "Si O2"
_cell_formula_units_Z 16
_cell_length_a 11.818175
_cell_length_b 13.581205
_cell_length_c 15.250261
_cell_angle_alpha 142.064923
_cell_angle_beta 27.978136
_cell_angle_gamma 124.706634
_cell_volume 633.637481
_symmetry_space_group_name_H-M "P -1"
_symmetry_group_IT_number 2
_symmetry_cell_setting 'triclinic'
loop_
_space_group_symop_operation_xyz
x,y,z
-x,-y,-z
loop_
_atom_site_type_symbol
_atom_site_label
_atom_site_fract_x
_atom_site_fract_y
_atom_site_fract_z
Si Si1 0.662599 0.800183 0.219578
Si Si2 0.942009 0.691402 0.477333
Si Si3 0.846148 0.233839 0.797939
Si Si4 0.213290 0.511373 0.687377
Si Si5 0.550720 0.372295 0.631306
Si Si6 0.662270 0.788050 0.484115
Si Si7 0.133333 0.347613 0.198900
Si Si8 0.418324 0.111667 0.991126
O O1 0.503225 0.685186 0.275655
O O2 0.500000 0.000000 0.500000
O O3 0.677056 0.799892 0.104271
O O4 0.965401 0.709113 0.990306
O O5 0.769368 0.592435 0.487824
O O6 0.082226 0.742086 0.336398
O O7 0.132770 0.537323 0.307075
O O8 0.745079 0.865250 0.789861
O O9 0.719311 0.092108 0.788200
O O10 0.093936 0.153650 0.643055
O O11 0.629939 0.420596 0.116005
O O12 0.500000 0.500000 0.500000
O O13 0.163561 0.404920 0.725784
O O14 0.472073 0.241181 0.531409
O O15 0.854703 0.332254 0.379596
O O16 0.433472 0.935356 0.807459
O O17 0.268783 0.292602 0.162723
#
# Coordination Sequence:
#
# PCOD8019687 Si02
#       8
#     2   2   2   2   2   2   2   2
#     4  11  24  43  66 100 140 177 226 287 343 408
#     4  10  22  43  67  97 134 180 230 275 342 409
#     4  11  24  43  69  98 130 184 227 278 342 411
#     4  10  22  41  70 103 136 177 232 283 346 411
#     4  12  23  44  75  96 137 183 227 288 343 411
#     4  11  24  43  67 104 135 176 233 281 348 404
#     4  11  24  44  67 103 133 181 236 276 347 406
#     4  12  26  42  68 100 141 180 226 287 334 414
#
# _framework density 25.25103
#
# number of rings (size 3 to 8) (size 9 to 14) (size 15 to 20)
#    0.000    1.000    5.000    3.375    0.000    6.500 
#    0.000    3.750    0.000    0.000    0.000    0.000 
#    0.000    0.000    0.000    0.000    0.000    0.000 
#
# Total GULP energy -198221.691568 kJ/mol
# GULP energy per Si atom -12388.855723 kJ/mol
# Density = 2.519356 g / cm^3
# Si number density = 25.251030 Si / 1000 Ang^3
#
#
#
# Elastic Constant Matrix: (Units=GPa)
#
#
# Indices 1 2 3 4 5 6 
#
# 1 65.8634 4.2498 35.0309 -6.4417 4.5215 9.0748
# 2 4.2498 45.8393 23.5197 -6.4334 4.0125 6.2993
# 3 35.0309 23.5197 130.1515 -6.6882 27.9203 7.3875
# 4 -6.4417 -6.4334 -6.6882 43.0162 -5.5551 1.9912
# 5 4.5215 4.0125 27.9203 -5.5551 35.9344 6.3662
# 6 9.0748 6.2993 7.3875 1.9912 6.3662 31.8005
#
#
#
# Elastic Compliance Matrix: (Units=1/GPa)
#
#
# Indices 1 2 3 4 5 6 
#
# 1 0.018866 0.002019 -0.005680 0.002902 0.003199 -0.005286
# 2 0.002019 0.025298 -0.005147 0.003835 0.002419 -0.005116
# 3 -0.005680 -0.005147 0.011782 -0.000935 -0.008297 0.001623
# 4 0.002902 0.003835 -0.000935 0.024862 0.004453 -0.003819
# 5 0.003199 0.002419 -0.008297 0.004453 0.035505 -0.006851
# 6 -0.005286 -0.005116 0.001623 -0.003819 -0.006851 0.035202
#
#
# Mechanical properties :
#
#
# Convention : Reuss Voigt Hill
#
# Bulk Modulus (GPa) = 26.08829 40.82836 33.45832
# Shear Modulus (GPa) = 27.48667 34.08713 30.78690
#
# Velocity S-wave (km/s) = 3.30288 3.67813 3.49554
# Velocity P-wave (km/s) = 4.98992 5.85169 5.43790
#
# Compressibility (1/GPa) = 0.03833137
#
# Stress axis : x y z
#
# Youngs Moduli (GPa) = 53.00492 39.52830 84.87627
#
# Poissons Ratio (x) = -0.07980 0.48208
# Poissons Ratio (y) = -0.10701 0.43682
# Poissons Ratio (z) = 0.30106 0.20343
#
# Static dielectric constant tensor:
#      x y z
#    x 4.617410 -0.588130 0.072030 
#    y -0.588130 3.863260 0.030790 
#    z 0.072030 0.030790 4.667380 
# 
# 
# High freq. dielectric constant tensor:
#      x y z
#    x 2.000060 -0.005950 0.007990 
#    y -0.005950 1.993680 0.003790 
#    z 0.007990 0.003790 2.022800 
# 
# From -- ./inp_files/522471.got.cif
#   From: 2010.06.25/outbox.cif.g09.slc.cpg/sg2_262_cif.got.tgz:522471.got - 2010.06.27 13:26:56.
