data_PCOD8019861
_publ_section_title
;
Structure prediction by ZEFSAII (Michael W. Deem and Ramdas Pophale) SiO2 
 PCOD8019861
Probable space group: P -1
;
_chemical_formula_sum "Si O2"
_cell_formula_units_Z 16
_cell_length_a 19.648719
_cell_length_b 14.870748
_cell_length_c 8.503712
_cell_angle_alpha 64.668080
_cell_angle_beta 114.669823
_cell_angle_gamma 160.791003
_cell_volume 738.153856
_symmetry_space_group_name_H-M "P -1"
_symmetry_group_IT_number 2
_symmetry_cell_setting 'triclinic'
loop_
_space_group_symop_operation_xyz
x,y,z
-x,-y,-z
loop_
_atom_site_type_symbol
_atom_site_label
_atom_site_fract_x
_atom_site_fract_y
_atom_site_fract_z
Si Si1 0.831487 0.446351 0.272113
Si Si2 0.575005 0.525529 0.413256
Si Si3 0.194921 0.836810 0.119815
Si Si4 0.860579 0.046838 0.231605
Si Si5 0.479304 0.079851 0.006084
Si Si6 0.313781 0.549330 0.326003
Si Si7 0.172716 0.929104 0.459560
Si Si8 0.621184 0.995421 0.516652
O O1 0.663042 0.310999 0.137703
O O2 0.708342 0.215311 0.435408
O O3 0.965110 0.551534 0.188577
O O4 0.972310 0.692682 0.332163
O O5 0.500000 0.500000 0.500000
O O6 0.699250 0.584521 0.557200
O O7 0.729027 0.783718 0.264504
O O8 0.367658 0.230926 0.343685
O O9 0.363392 0.034732 0.273699
O O10 0.254472 0.820221 0.068065
O O11 0.228321 0.980550 0.950556
O O12 0.859542 0.075384 0.391678
O O13 0.099735 0.323485 0.218524
O O14 0.513770 0.211994 0.817996
O O15 0.500000 0.000000 0.000000
O O16 0.385492 0.695845 0.446583
O O17 0.233185 0.887620 0.549380
#
# Coordination Sequence:
#
# PCOD8019861 Si02
#       8
#     2   2   2   2   2   2   2   2
#     4  11  23  43  61  92 129 169 207 258 313 379
#     4   9  19  39  66  90 120 164 211 262 312 369
#     4  11  24  41  63  91 128 168 208 262 312 363
#     4  11  22  39  68  92 123 167 213 260 318 364
#     4  12  25  40  62  94 130 166 216 258 304 375
#     4  11  22  41  63  96 127 163 213 257 309 383
#     4   9  20  38  63  89 120 162 209 254 311 375
#     4  10  22  42  61  89 128 167 207 255 314 378
#
# _framework density 21.675698000000001
#
# number of rings (size 3 to 8) (size 9 to 14) (size 15 to 20)
#    0.000    1.500    2.500    4.125    1.750    3.000 
#    0.000    5.625    0.000    2.250    0.000    0.000 
#    0.000    0.000    0.000    0.000    0.000    0.000 
#
# Total GULP energy -198220.780631 kJ/mol
# GULP energy per Si atom -12388.798789 kJ/mol
# Density = 2.162636 g / cm^3
# Si number density = 21.675698 Si / 1000 Ang^3
#
#
#
# Elastic Constant Matrix: (Units=GPa)
#
#
# Indices 1 2 3 4 5 6 
#
# 1 80.7050 18.3633 34.5690 -12.1606 -1.9253 3.1299
# 2 18.3633 88.9488 41.3291 2.4706 6.7977 -3.7639
# 3 34.5690 41.3291 119.9286 0.8634 14.7432 -3.2983
# 4 -12.1606 2.4706 0.8634 32.9059 1.6040 1.7955
# 5 -1.9253 6.7977 14.7432 1.6040 29.0435 -6.2327
# 6 3.1299 -3.7639 -3.2983 1.7955 -6.2327 33.5668
#
#
#
# Elastic Compliance Matrix: (Units=1/GPa)
#
#
# Indices 1 2 3 4 5 6 
#
# 1 0.015705 -0.001663 -0.004409 0.006003 0.002938 -0.001860
# 2 -0.001663 0.013637 -0.004066 -0.001554 -0.000894 0.001202
# 3 -0.004409 -0.004066 0.011658 -0.001392 -0.005134 0.000222
# 4 0.006003 -0.001554 -0.001392 0.032961 -0.000956 -0.002811
# 5 0.002938 -0.000894 -0.005134 -0.000956 0.038865 0.006389
# 6 -0.001860 0.001202 0.000222 -0.002811 0.006389 0.031458
#
#
# Mechanical properties :
#
#
# Convention : Reuss Voigt Hill
#
# Bulk Modulus (GPa) = 48.25655 53.12280 50.68968
# Shear Modulus (GPa) = 29.15992 32.12466 30.64229
#
# Velocity S-wave (km/s) = 3.67179 3.85393 3.76396
# Velocity P-wave (km/s) = 6.34723 6.66070 6.50585
#
# Compressibility (1/GPa) = 0.02072257
#
# Stress axis : x y z
#
# Youngs Moduli (GPa) = 63.67591 73.32765 85.78084
#
# Poissons Ratio (x) = 0.12198 0.37821
# Poissons Ratio (y) = 0.10592 0.34878
# Poissons Ratio (z) = 0.28075 0.29815
#
# Static dielectric constant tensor:
#      x y z
#    x 4.038130 -0.176680 0.192370 
#    y -0.176680 4.526750 -0.066170 
#    z 0.192370 -0.066170 4.278540 
# 
# 
# High freq. dielectric constant tensor:
#      x y z
#    x 1.843360 0.010430 0.005580 
#    y 0.010430 1.848410 0.008580 
#    z 0.005580 0.008580 1.846800 
# 
# From -- ./inp_files/347201.got.cif
#   From: 2010.06.25/outbox.cif.g09.slc.cpg/sg2_174_cif.got.tgz:347201.got - 2010.06.27 13:26:56.
