data_PCOD8019453
_publ_section_title
;
Structure prediction by ZEFSAII (Michael W. Deem and Ramdas Pophale) SiO2 
 PCOD8019453
Probable space group: P -1
;
_chemical_formula_sum "Si O2"
_cell_formula_units_Z 16
_cell_length_a 9.332664
_cell_length_b 5.345843
_cell_length_c 20.573527
_cell_angle_alpha 118.094422
_cell_angle_beta 49.214821
_cell_angle_gamma 119.563082
_cell_volume 658.558408
_symmetry_space_group_name_H-M "P -1"
_symmetry_group_IT_number 2
_symmetry_cell_setting 'triclinic'
loop_
_space_group_symop_operation_xyz
x,y,z
-x,-y,-z
loop_
_atom_site_type_symbol
_atom_site_label
_atom_site_fract_x
_atom_site_fract_y
_atom_site_fract_z
Si Si1 0.065453 0.401052 0.282058
Si Si2 0.788692 0.540458 0.998611
Si Si3 0.753577 0.157623 0.080972
Si Si4 0.906796 0.225742 0.810723
Si Si5 0.342540 0.506201 0.737349
Si Si6 0.740306 0.420850 0.628720
Si Si7 0.950737 0.062606 0.449399
Si Si8 0.314654 0.509789 0.598820
O O1 0.097440 0.571533 0.225293
O O2 0.171954 0.642772 0.335029
O O3 0.825934 0.281361 0.354318
O O4 0.163884 0.128818 0.221028
O O5 0.683147 0.332632 0.064278
O O6 0.685475 0.802245 0.046863
O O7 0.769907 0.324153 0.916085
O O8 0.012565 0.713364 0.969283
O O9 0.649213 0.210262 0.185504
O O10 0.127118 0.282251 0.781122
O O11 0.505596 0.351542 0.694807
O O12 0.393279 0.598164 0.658672
O O13 0.790991 0.246881 0.530358
O O14 0.850061 0.765060 0.625017
O O15 0.848713 0.805699 0.398097
O O16 0.000000 0.000000 0.500000
O O17 0.500000 0.500000 0.500000
#
# Coordination Sequence:
#
# PCOD8019453 Si02
#       8
#     2   2   2   2   2   2   2   2
#     4  11  23  42  62  94 130 171 216 262 325 389
#     4   9  17  35  63  89 125 164 201 260 326 387
#     4   9  18  34  58  93 126 160 205 260 325 379
#     4  10  22  41  67  98 127 165 219 270 321 382
#     4  10  23  39  60  98 126 166 216 277 313 375
#     4  11  24  41  64  86 130 176 217 268 324 391
#     4  11  23  43  63  87 122 179 225 259 329 388
#     4  11  24  42  64  94 128 172 219 280 318 376
#
# _framework density 24.295494999999999
#
# number of rings (size 3 to 8) (size 9 to 14) (size 15 to 20)
#    0.000    1.750    1.250    3.000    3.500    6.500 
#    2.250    0.000    0.000    4.500    0.000    0.000 
#    0.000    0.000    0.000    0.000    0.000    0.000 
#
# Total GULP energy -198251.451055 kJ/mol
# GULP energy per Si atom -12390.715691 kJ/mol
# Density = 2.424020 g / cm^3
# Si number density = 24.295495 Si / 1000 Ang^3
#
#
#
# Elastic Constant Matrix: (Units=GPa)
#
#
# Indices 1 2 3 4 5 6 
#
# 1 98.5641 12.8043 39.6165 -10.0249 12.3671 -10.5508
# 2 12.8043 81.1025 36.9311 14.5353 12.0382 -30.7941
# 3 39.6165 36.9311 155.0689 17.8026 33.2819 -11.2556
# 4 -10.0249 14.5353 17.8026 33.2423 -0.2501 -1.9622
# 5 12.3671 12.0382 33.2819 -0.2501 30.4942 -2.9091
# 6 -10.5508 -30.7941 -11.2556 -1.9622 -2.9091 31.7083
#
#
#
# Elastic Compliance Matrix: (Units=1/GPa)
#
#
# Indices 1 2 3 4 5 6 
#
# 1 0.012592 -0.000168 -0.003421 0.005878 -0.000964 0.003087
# 2 -0.000168 0.023450 -0.002008 -0.008025 -0.005056 0.021045
# 3 -0.003421 -0.002008 0.010424 -0.005842 -0.009303 -0.000603
# 4 0.005878 -0.008025 -0.005842 0.038256 0.007006 -0.004901
# 5 -0.000964 -0.005056 -0.009303 0.007006 0.045012 -0.003970
# 6 0.003087 0.021045 -0.000603 -0.004901 -0.003970 0.052121
#
#
# Mechanical properties :
#
#
# Convention : Reuss Voigt Hill
#
# Bulk Modulus (GPa) = 28.35063 57.04881 42.69972
# Shear Modulus (GPa) = 24.41329 35.44788 29.93059
#
# Velocity S-wave (km/s) = 3.17337 3.82387 3.51371
# Velocity P-wave (km/s) = 5.01213 6.55959 5.83737
#
# Compressibility (1/GPa) = 0.03527259
#
# Stress axis : x y z
#
# Youngs Moduli (GPa) = 79.41755 42.64343 95.92912
#
# Poissons Ratio (x) = 0.00718 0.32813
# Poissons Ratio (y) = 0.01338 0.19262
# Poissons Ratio (z) = 0.27165 0.08562
#
# Static dielectric constant tensor:
#      x y z
#    x 4.354510 -0.038260 0.154040 
#    y -0.038260 4.277180 0.543270 
#    z 0.154040 0.543270 4.840690 
# 
# 
# High freq. dielectric constant tensor:
#      x y z
#    x 1.953640 -0.011020 0.009920 
#    y -0.011020 1.938040 0.024310 
#    z 0.009920 0.024310 1.981050 
# 
# From -- ./inp_files/585843.got.cif
#   From: 2010.06.25/outbox.cif.g09.slc.cpg/sg2_293_cif.got.tgz:585843.got - 2010.06.27 13:26:56.
