data_PCOD8019880
_publ_section_title
;
Structure prediction by ZEFSAII (Michael W. Deem and Ramdas Pophale) SiO2 
 PCOD8019880
Probable space group: P -1
;
_chemical_formula_sum "Si O2"
_cell_formula_units_Z 16
_cell_length_a 8.629864
_cell_length_b 10.800169
_cell_length_c 11.169198
_cell_angle_alpha 77.533567
_cell_angle_beta 55.498839
_cell_angle_gamma 59.102625
_cell_volume 732.015706
_symmetry_space_group_name_H-M "P -1"
_symmetry_group_IT_number 2
_symmetry_cell_setting 'triclinic'
loop_
_space_group_symop_operation_xyz
x,y,z
-x,-y,-z
loop_
_atom_site_type_symbol
_atom_site_label
_atom_site_fract_x
_atom_site_fract_y
_atom_site_fract_z
Si Si1 0.277945 0.146718 0.073354
Si Si2 0.354928 0.422370 0.583990
Si Si3 0.264643 0.096885 0.349733
Si Si4 0.935562 0.068257 0.141967
Si Si5 0.050557 0.810398 0.320546
Si Si6 0.539537 0.730060 0.681261
Si Si7 0.932468 0.485331 0.664205
Si Si8 0.484239 0.775231 0.220423
O O1 0.209469 0.192600 0.231592
O O2 0.096190 0.124019 0.097528
O O3 0.324559 0.257144 0.951712
O O4 0.500000 0.000000 0.000000
O O5 0.500000 0.500000 0.500000
O O6 0.412044 0.318076 0.467161
O O7 0.408261 0.345694 0.702810
O O8 0.090621 0.516778 0.675908
O O9 0.422557 0.131463 0.352508
O O10 0.048012 0.147601 0.511026
O O11 0.379992 0.929108 0.301128
O O12 0.709276 0.214155 0.198540
O O13 0.930304 0.952490 0.260768
O O14 0.000000 0.000000 0.000000
O O15 0.033331 0.676519 0.296791
O O16 0.301665 0.760163 0.231246
O O17 0.679447 0.608443 0.747349
O O18 0.000000 0.500000 0.500000
#
# Coordination Sequence:
#
# PCOD8019880 Si02
#       8
#     2   2   2   2   2   2   2   2
#     4  10  22  42  62 100 143 180 217 283 352 402
#     4  11  24  42  73  99 138 180 236 283 338 411
#     4  11  22  39  68 102 140 172 227 290 343 409
#     4  12  26  42  70 103 141 183 230 286 343 411
#     4  12  23  41  73 101 136 179 234 279 349 404
#     4  11  25  42  69 102 139 180 227 285 348 400
#     4  10  22  45  63  98 138 176 221 286 339 402
#     4  11  23  39  69 103 137 182 225 285 348 403
#
# _framework density 21.857455000000002
#
# number of rings (size 3 to 8) (size 9 to 14) (size 15 to 20)
#    0.000    1.000    5.000    4.125    5.250    1.000 
#    0.000    0.625    2.750    2.250    0.000    0.000 
#    0.000    0.000    0.000    0.000    0.000    0.000 
#
# Total GULP energy -198269.311798 kJ/mol
# GULP energy per Si atom -12391.831987 kJ/mol
# Density = 2.180771 g / cm^3
# Si number density = 21.857455 Si / 1000 Ang^3
#
#
#
# Elastic Constant Matrix: (Units=GPa)
#
#
# Indices 1 2 3 4 5 6 
#
# 1 167.4168 53.9670 55.8019 -11.1580 -22.2129 -7.2908
# 2 53.9670 74.9257 41.6631 -19.1292 -13.9032 -22.9277
# 3 55.8019 41.6631 143.6674 -22.4933 -1.8437 -12.5832
# 4 -11.1580 -19.1292 -22.4933 34.3355 -2.2864 -7.5738
# 5 -22.2129 -13.9032 -1.8437 -2.2864 44.1817 -0.2615
# 6 -7.2908 -22.9277 -12.5832 -7.5738 -0.2615 43.9796
#
#
#
# Elastic Compliance Matrix: (Units=1/GPa)
#
#
# Indices 1 2 3 4 5 6 
#
# 1 0.008683 -0.006111 -0.002208 -0.002499 0.002205 -0.002795
# 2 -0.006111 0.029935 -0.001947 0.017679 0.007283 0.017124
# 3 -0.002208 -0.001947 0.009280 0.004662 -0.001082 0.002071
# 4 -0.002499 0.017679 0.004662 0.045660 0.006971 0.018041
# 5 0.002205 0.007283 -0.001082 0.006971 0.026381 0.005210
# 6 -0.002795 0.017124 0.002071 0.018041 0.005210 0.034932
#
#
# Mechanical properties :
#
#
# Convention : Reuss Voigt Hill
#
# Bulk Modulus (GPa) = 36.53943 76.54155 56.54049
# Shear Modulus (GPa) = 27.09670 40.13788 33.61729
#
# Velocity S-wave (km/s) = 3.52476 4.28991 3.92602
# Velocity P-wave (km/s) = 5.77223 7.72220 6.81729
#
# Compressibility (1/GPa) = 0.02736769
#
# Stress axis : x y z
#
# Youngs Moduli (GPa) = 115.16530 33.40528 107.75670
#
# Poissons Ratio (x) = 0.20413 0.23797
# Poissons Ratio (y) = 0.70373 0.20975
# Poissons Ratio (z) = 0.25433 0.06503
#
# Static dielectric constant tensor:
#      x y z
#    x 4.456350 -0.121770 -0.161900 
#    y -0.121770 3.405380 -0.148740 
#    z -0.161900 -0.148740 4.216320 
# 
# 
# High freq. dielectric constant tensor:
#      x y z
#    x 1.880240 -0.000690 -0.009070 
#    y -0.000690 1.844630 -0.006270 
#    z -0.009070 -0.006270 1.854010 
# 
# From -- ./inp_files/392458.got.cif
#   From: 2010.06.25/outbox.cif.g09.slc.cpg/sg2_197_cif.got.tgz:392458.got - 2010.06.27 13:26:56.
