data_PCOD8019294
_publ_section_title
;
Structure prediction by ZEFSAII (Michael W. Deem and Ramdas Pophale) SiO2 
 PCOD8019294
Probable space group: P -1
;
_chemical_formula_sum "Si O2"
_cell_formula_units_Z 14
_cell_length_a 13.100978
_cell_length_b 10.331860
_cell_length_c 12.898815
_cell_angle_alpha 21.758972
_cell_angle_beta 100.831792
_cell_angle_gamma 100.618819
_cell_volume 635.470075
_symmetry_space_group_name_H-M "P -1"
_symmetry_group_IT_number 2
_symmetry_cell_setting 'triclinic'
loop_
_space_group_symop_operation_xyz
x,y,z
-x,-y,-z
loop_
_atom_site_type_symbol
_atom_site_label
_atom_site_fract_x
_atom_site_fract_y
_atom_site_fract_z
Si Si1 0.290342 0.162909 0.045903
Si Si2 0.048920 0.210755 0.652417
Si Si3 0.763350 0.185367 0.343991
Si Si4 0.368768 0.306286 0.453504
Si Si5 0.148731 0.152878 0.206096
Si Si6 0.185123 0.745475 0.162625
Si Si7 0.487744 0.907159 0.945752
O O1 0.294474 0.580831 0.754042
O O2 0.405519 0.037805 0.138200
O O3 0.237632 0.990315 0.267918
O O4 0.213452 0.054731 0.018128
O O5 0.137358 0.394047 0.464411
O O6 0.000000 0.500000 0.500000
O O7 0.961777 0.032028 0.696631
O O8 0.100277 0.899157 0.956180
O O9 0.680700 0.029860 0.362742
O O10 0.821475 0.885442 0.639440
O O11 0.851281 0.428083 0.122790
O O12 0.288910 0.618707 0.221892
O O13 0.451160 0.497501 0.247927
O O14 0.412399 0.169205 0.674334
O O15 0.500000 0.000000 0.000000
#
# Coordination Sequence:
#
# PCOD8019294 Si02
#       7
#     2   2   2   2   2   2   2
#     4  10  25  40  69  93 134 168 224 266 332 373
#     4  12  22  40  68 102 128 171 221 271 324 388
#     4  10  23  44  66  91 138 173 214 271 324 382
#     4  12  27  46  65  98 137 171 221 269 324 398
#     4  10  22  41  66  94 133 165 222 271 322 380
#     4  12  25  40  68  98 134 170 218 274 330 378
#     4  12  26  43  71  97 133 172 220 270 333 384
#
# _framework density 22.030936000000001
#
# number of rings (size 3 to 8) (size 9 to 14) (size 15 to 20)
#    0.857    0.000    2.857    4.286    2.000    1.143 
#    0.000    4.286    0.000    0.000    0.000    0.000 
#    0.000    0.000    0.000    0.000    0.000    0.000 
#
# Total GULP energy -173493.833503 kJ/mol
# GULP energy per Si atom -12392.416679 kJ/mol
# Density = 2.198079 g / cm^3
# Si number density = 22.030936 Si / 1000 Ang^3
#
#
#
# Elastic Constant Matrix: (Units=GPa)
#
#
# Indices 1 2 3 4 5 6 
#
# 1 72.1317 30.8074 22.9943 3.6907 -6.1371 15.9961
# 2 30.8074 113.1463 40.6838 1.4718 2.6653 25.3570
# 3 22.9943 40.6838 92.9815 9.3690 1.3970 3.5857
# 4 3.6907 1.4718 9.3690 40.8947 10.6539 -3.4672
# 5 -6.1371 2.6653 1.3970 10.6539 30.6360 -0.1071
# 6 15.9961 25.3570 3.5857 -3.4672 -0.1071 25.5107
#
#
#
# Elastic Compliance Matrix: (Units=1/GPa)
#
#
# Indices 1 2 3 4 5 6 
#
# 1 0.018353 -0.001764 -0.003167 -0.002986 0.004979 -0.009694
# 2 -0.001764 0.013890 -0.005180 0.000208 -0.001440 -0.011950
# 3 -0.003167 -0.005180 0.013847 -0.002286 -0.000003 0.004877
# 4 -0.002986 0.000208 -0.002286 0.028436 -0.010380 0.005808
# 5 0.004979 -0.001440 -0.000003 -0.010380 0.037364 -0.002944
# 6 -0.009694 -0.011950 0.004877 0.005808 -0.002944 0.057247
#
#
# Mechanical properties :
#
#
# Convention : Reuss Voigt Hill
#
# Bulk Modulus (GPa) = 38.65789 51.91451 45.28620
# Shear Modulus (GPa) = 25.25495 31.65987 28.45741
#
# Velocity S-wave (km/s) = 3.38944 3.79498 3.59792
# Velocity P-wave (km/s) = 5.73611 6.54354 6.15308
#
# Compressibility (1/GPa) = 0.02586794
#
# Stress axis : x y z
#
# Youngs Moduli (GPa) = 54.48765 71.99241 72.21964
#
# Poissons Ratio (x) = 0.12702 0.22870
# Poissons Ratio (y) = 0.09614 0.37409
# Poissons Ratio (z) = 0.17255 0.37291
#
# Static dielectric constant tensor:
#      x y z
#    x 4.027890 0.151940 -0.379210 
#    y 0.151940 3.880380 -0.038390 
#    z -0.379210 -0.038390 4.085000 
# 
# 
# High freq. dielectric constant tensor:
#      x y z
#    x 1.859340 0.015230 -0.017950 
#    y 0.015230 1.866460 0.001290 
#    z -0.017950 0.001290 1.872160 
# 
# From -- ./inp_files/518497.got.cif
#   From: 2010.06.25/outbox.cif.g09.slc.cpg/sg2_260_cif.got.tgz:518497.got - 2010.06.27 13:26:56.
