data_PCOD8019766
_publ_section_title
;
Structure prediction by ZEFSAII (Michael W. Deem and Ramdas Pophale) SiO2 
 PCOD8019766
Probable space group: P -1
;
_chemical_formula_sum "Si O2"
_cell_formula_units_Z 16
_cell_length_a 14.185823
_cell_length_b 13.519316
_cell_length_c 13.960973
_cell_angle_alpha 33.664775
_cell_angle_beta 138.720942
_cell_angle_gamma 150.574744
_cell_volume 725.693639
_symmetry_space_group_name_H-M "P -1"
_symmetry_group_IT_number 2
_symmetry_cell_setting 'triclinic'
loop_
_space_group_symop_operation_xyz
x,y,z
-x,-y,-z
loop_
_atom_site_type_symbol
_atom_site_label
_atom_site_fract_x
_atom_site_fract_y
_atom_site_fract_z
Si Si1 0.672808 0.766498 0.955275
Si Si2 0.290620 0.519714 0.160687
Si Si3 0.415773 0.703719 0.315531
Si Si4 0.398722 0.079140 0.042721
Si Si5 0.970903 0.058487 0.799779
Si Si6 0.045098 0.361278 0.428151
Si Si7 0.175355 0.077692 0.508044
Si Si8 0.976794 0.672801 0.048971
O O1 0.586416 0.844376 0.897507
O O2 0.500000 0.500000 0.000000
O O3 0.828141 0.774522 0.123528
O O4 0.789041 0.970766 0.795824
O O5 0.300378 0.609249 0.202712
O O6 0.205702 0.249724 0.310197
O O7 0.500711 0.694970 0.132365
O O8 0.152358 0.512587 0.987503
O O9 0.263274 0.506665 0.438363
O O10 0.613322 0.754414 0.414516
O O11 0.492004 0.962331 0.195627
O O12 0.184977 0.891207 0.988982
O O13 0.008102 0.229441 0.605505
O O14 0.901395 0.796848 0.933525
O O15 0.002829 0.539282 0.257741
O O16 0.886226 0.158136 0.395845
O O17 0.000000 0.000000 0.500000
#
# Coordination Sequence:
#
# PCOD8019766 Si02
#       8
#     2   2   2   2   2   2   2   2
#     4  10  22  41  71  99 128 175 225 274 347 400
#     4  12  23  39  68  92 136 187 219 276 329 394
#     4  11  26  42  63 100 138 179 229 276 330 400
#     4  10  24  42  65  96 133 173 226 277 330 402
#     4  10  22  43  69 100 135 174 222 281 336 400
#     4  11  24  43  68 100 138 180 225 278 334 400
#     4  12  26  40  63  98 139 180 233 274 331 400
#     4  10  23  42  68  99 137 178 229 270 333 394
#
# _framework density 22.04787
#
# number of rings (size 3 to 8) (size 9 to 14) (size 15 to 20)
#    0.000    1.250    2.500    2.250    5.250    2.000 
#    0.000   10.000    0.000    9.000    0.000    0.000 
#    0.000    0.000    0.000    0.000    0.000    0.000 
#
# Total GULP energy -198228.835776 kJ/mol
# GULP energy per Si atom -12389.302236 kJ/mol
# Density = 2.199769 g / cm^3
# Si number density = 22.047870 Si / 1000 Ang^3
#
#
#
# Elastic Constant Matrix: (Units=GPa)
#
#
# Indices 1 2 3 4 5 6 
#
# 1 109.1870 30.9666 58.0295 -9.9910 -21.0547 -1.1770
# 2 30.9666 118.5375 39.0005 -5.5744 -10.1384 -10.1226
# 3 58.0295 39.0005 121.6754 -14.8627 -21.1813 4.7079
# 4 -9.9910 -5.5744 -14.8627 39.4075 3.0758 -8.0483
# 5 -21.0547 -10.1384 -21.1813 3.0758 36.5904 -6.6157
# 6 -1.1770 -10.1226 4.7079 -8.0483 -6.6157 27.3630
#
#
#
# Elastic Compliance Matrix: (Units=1/GPa)
#
#
# Indices 1 2 3 4 5 6 
#
# 1 0.013231 -0.001097 -0.005058 0.001454 0.004730 0.002605
# 2 -0.001097 0.010143 -0.002522 0.001072 0.001500 0.004817
# 3 -0.005058 -0.002522 0.012324 0.002399 0.002990 -0.001843
# 4 0.001454 0.001072 0.002399 0.028471 0.001728 0.008838
# 5 0.004730 0.001500 0.002990 0.001728 0.033660 0.008890
# 6 0.002605 0.004817 -0.001843 0.008838 0.008890 0.043506
#
#
# Mechanical properties :
#
#
# Convention : Reuss Voigt Hill
#
# Bulk Modulus (GPa) = 54.51573 67.26591 60.89082
# Shear Modulus (GPa) = 30.33890 35.43240 32.88565
#
# Velocity S-wave (km/s) = 3.71353 4.01317 3.86626
# Velocity P-wave (km/s) = 6.57015 7.21452 6.89986
#
# Compressibility (1/GPa) = 0.01834333
#
# Stress axis : x y z
#
# Youngs Moduli (GPa) = 75.57790 98.59440 81.14019
#
# Poissons Ratio (x) = 0.10814 0.41044
# Poissons Ratio (y) = 0.08289 0.20465
# Poissons Ratio (z) = 0.38231 0.24868
#
# Static dielectric constant tensor:
#      x y z
#    x 4.037270 0.008560 -0.020320 
#    y 0.008560 4.295480 -0.209410 
#    z -0.020320 -0.209410 3.942420 
# 
# 
# High freq. dielectric constant tensor:
#      x y z
#    x 1.857420 0.006820 -0.007260 
#    y 0.006820 1.889390 -0.017740 
#    z -0.007260 -0.017740 1.852520 
# 
# From -- ./inp_files/533617.got.cif
#   From: 2010.06.25/outbox.cif.g09.slc.cpg/sg2_267_cif.got.tgz:533617.got - 2010.06.27 13:26:56.
