data_PCOD8019373
_publ_section_title
;
Structure prediction by ZEFSAII (Michael W. Deem and Ramdas Pophale) SiO2 
 PCOD8019373
Probable space group: P -1
;
_chemical_formula_sum "Si O2"
_cell_formula_units_Z 16
_cell_length_a 8.703534
_cell_length_b 15.526048
_cell_length_c 13.830757
_cell_angle_alpha 27.984696
_cell_angle_beta 86.972598
_cell_angle_gamma 70.291337
_cell_volume 687.008832
_symmetry_space_group_name_H-M "P -1"
_symmetry_group_IT_number 2
_symmetry_cell_setting 'triclinic'
loop_
_space_group_symop_operation_xyz
x,y,z
-x,-y,-z
loop_
_atom_site_type_symbol
_atom_site_label
_atom_site_fract_x
_atom_site_fract_y
_atom_site_fract_z
Si Si1 0.576704 0.375395 0.222923
Si Si2 0.111966 0.637152 0.350198
Si Si3 0.135904 0.157111 0.287943
Si Si4 0.160481 0.736103 0.953783
Si Si5 0.052452 0.412692 0.772952
Si Si6 0.165380 0.960907 0.903573
Si Si7 0.088876 0.590758 0.773722
Si Si8 0.432636 0.199902 0.878557
O O1 0.731923 0.399849 0.240033
O O2 0.667512 0.105008 0.476395
O O3 0.500000 0.500000 0.000000
O O4 0.386429 0.504260 0.170803
O O5 0.324148 0.438310 0.584052
O O6 0.034671 0.523434 0.397710
O O7 0.119254 0.809333 0.112887
O O8 0.972901 0.776287 0.310956
O O9 0.945709 0.183990 0.226394
O O10 0.092917 0.208496 0.352958
O O11 0.164624 0.335848 0.062450
O O12 0.138813 0.945739 0.803645
O O13 0.033325 0.692743 0.063496
O O14 0.013316 0.622162 0.633895
O O15 0.287014 0.217365 0.945150
O O16 0.390448 0.844813 0.024847
O O17 0.500000 0.000000 0.000000
#
# Coordination Sequence:
#
# PCOD8019373 Si02
#       8
#     2   2   2   2   2   2   2   2
#     4  12  24  43  69 100 133 175 224 268 332 398
#     4  10  22  43  64  92 131 171 212 272 329 385
#     4  10  23  46  67  97 139 171 214 281 327 392
#     4  10  23  44  64  98 132 168 223 270 326 393
#     4  10  22  43  63  94 134 167 219 272 320 393
#     4  10  22  41  67  92 127 171 218 267 325 390
#     4  10  22  44  69  97 133 175 220 270 334 387
#     4  12  23  40  63  95 131 168 217 267 328 389
#
# _framework density 23.289366000000001
#
# number of rings (size 3 to 8) (size 9 to 14) (size 15 to 20)
#    0.000    1.500    2.500    1.875    0.000    2.500 
#    9.000    0.000    0.000    0.000    0.000    0.000 
#    0.000    0.000    0.000    0.000    0.000    0.000 
#
# Total GULP energy -198331.685615 kJ/mol
# GULP energy per Si atom -12395.730351 kJ/mol
# Density = 2.323636 g / cm^3
# Si number density = 23.289366 Si / 1000 Ang^3
#
#
#
# Elastic Constant Matrix: (Units=GPa)
#
#
# Indices 1 2 3 4 5 6 
#
# 1 92.9371 68.5191 19.5297 -24.1502 11.0772 15.8560
# 2 68.5191 116.8327 -11.1945 -22.8025 -27.6186 -8.9470
# 3 19.5297 -11.1945 61.4242 -37.4863 -22.5844 -12.3446
# 4 -24.1502 -22.8025 -37.4863 37.4340 2.6656 8.0846
# 5 11.0772 -27.6186 -22.5844 2.6656 17.0850 -15.5062
# 6 15.8560 -8.9470 -12.3446 8.0846 -15.5062 32.7896
#
#
#
# Elastic Compliance Matrix: (Units=1/GPa)
#
#
# Indices 1 2 3 4 5 6 
#
# 1 0.010681 0.001652 0.013553 0.020603 0.010843 0.000436
# 2 0.001652 0.003116 -0.006965 -0.001389 -0.012343 -0.008065
# 3 0.013553 -0.006965 0.016321 0.025879 -0.018214 -0.017304
# 4 0.020603 -0.001389 0.025879 0.071828 -0.016151 -0.025947
# 5 0.010843 -0.012343 -0.018214 -0.016151 -0.000761 -0.011846
# 6 0.000436 -0.008065 -0.017304 -0.025947 -0.011846 0.022367
#
#
# Mechanical properties :
#
#
# Convention : Reuss Voigt Hill
#
# Bulk Modulus (GPa) = 21.45956 47.21139 34.33548
# Shear Modulus (GPa) = 40.78186 30.41770 35.59978
#
# Velocity S-wave (km/s) = 4.18915 3.61789 3.91395
# Velocity P-wave (km/s) = 5.71252 6.14555 5.93299
#
# Compressibility (1/GPa) = 0.04659927
#
# Stress axis : x y z
#
# Youngs Moduli (GPa) = 93.62589 320.89910 61.27116
#
# Poissons Ratio (x) = -0.53020 -0.83041
# Poissons Ratio (y) = -0.15469 0.42673
# Poissons Ratio (z) = -1.26891 2.23493
#
# Static dielectric constant tensor:
#      x y z
#    x 4.187010 0.417780 0.073300 
#    y 0.417780 5.098100 -0.165630 
#    z 0.073300 -0.165630 4.052720 
# 
# 
# High freq. dielectric constant tensor:
#      x y z
#    x 1.929510 0.008290 -0.015270 
#    y 0.008290 1.950770 -0.009600 
#    z -0.015270 -0.009600 1.909860 
# 
# From -- ./inp_files/46812.got.cif
#   From: 2010.06.25/outbox.cif.g09.slc.cpg/sg2_24_cif.got.tgz:46812.got - 2010.06.27 13:26:56.
