data_PCOD8019027
_publ_section_title
;
Structure prediction by ZEFSAII (Michael W. Deem and Ramdas Pophale) SiO2 
 PCOD8019027
Probable space group: P -1
;
_chemical_formula_sum "Si O2"
_cell_formula_units_Z 10
_cell_length_a 11.331179
_cell_length_b 14.059594
_cell_length_c 13.441912
_cell_angle_alpha 158.804429
_cell_angle_beta 43.282419
_cell_angle_gamma 145.978831
_cell_volume 422.444656
_symmetry_space_group_name_H-M "P -1"
_symmetry_group_IT_number 2
_symmetry_cell_setting 'triclinic'
loop_
_space_group_symop_operation_xyz
x,y,z
-x,-y,-z
loop_
_atom_site_type_symbol
_atom_site_label
_atom_site_fract_x
_atom_site_fract_y
_atom_site_fract_z
Si Si1 0.129166 0.863527 0.818281
Si Si2 0.796456 0.381116 0.075250
Si Si3 0.526850 0.612725 0.482215
Si Si4 0.627053 0.875874 0.257819
Si Si5 0.099261 0.454248 0.598008
O O1 0.139988 0.790381 0.857022
O O2 0.000000 0.500000 0.500000
O O3 0.358984 0.092883 0.841315
O O4 0.000000 0.000000 0.000000
O O5 0.672923 0.530016 0.255302
O O6 0.873288 0.495414 0.252106
O O7 0.000000 0.500000 0.000000
O O8 0.630894 0.993636 0.788094
O O9 0.500000 0.500000 0.500000
O O10 0.282183 0.428194 0.409635
O O11 0.500000 0.000000 0.500000
O O12 0.500000 0.500000 0.000000
O O13 0.869916 0.106418 0.377781
#
# Coordination Sequence:
#
# PCOD8019027 Si02
#       5
#     2   2   2   2   2
#     4  10  22  41  64  90 125 172 221 261 319 400
#     4  11  24  43  68 104 135 165 222 279 327 395
#     4  10  22  42  67  95 130 176 222 262 326 410
#     4  11  24  42  64  97 131 167 224 279 322 381
#     4  10  23  44  68  94 136 184 214 269 335 390
#
# _framework density 23.67174
#
# number of rings (size 3 to 8) (size 9 to 14) (size 15 to 20)
#    0.000    1.600    0.000    5.400    0.000   16.000 
#    0.000    8.000    0.000    0.000    0.000    0.000 
#    0.000    0.000    0.000    0.000    0.000    0.000 
#
# Total GULP energy -123888.725637 kJ/mol
# GULP energy per Si atom -12388.872564 kJ/mol
# Density = 2.361786 g / cm^3
# Si number density = 23.671740 Si / 1000 Ang^3
#
#
#
# Elastic Constant Matrix: (Units=GPa)
#
#
# Indices 1 2 3 4 5 6 
#
# 1 124.3503 69.7558 53.1759 1.4588 -17.6927 20.2331
# 2 69.7558 185.5551 62.9232 -4.7270 -10.5596 20.0232
# 3 53.1759 62.9232 146.8949 10.2494 -32.0082 22.3754
# 4 1.4588 -4.7270 10.2494 56.1820 9.6584 -8.1289
# 5 -17.6927 -10.5596 -32.0082 9.6584 38.0464 0.3860
# 6 20.2331 20.0232 22.3754 -8.1289 0.3860 52.8228
#
#
#
# Elastic Compliance Matrix: (Units=1/GPa)
#
#
# Indices 1 2 3 4 5 6 
#
# 1 0.011524 -0.003380 -0.001428 -0.001339 0.003587 -0.002760
# 2 -0.003380 0.007445 -0.002451 0.001457 -0.001935 -0.000251
# 3 -0.001428 -0.002451 0.011348 -0.004441 0.009372 -0.004083
# 4 -0.001339 0.001457 -0.004441 0.021124 -0.009370 0.005161
# 5 0.003587 -0.001935 0.009372 -0.009370 0.037742 -0.006328
# 6 -0.002760 -0.000251 -0.004083 0.005161 -0.006328 0.022654
#
#
# Mechanical properties :
#
#
# Convention : Reuss Voigt Hill
#
# Bulk Modulus (GPa) = 63.29346 92.05668 77.67507
# Shear Modulus (GPa) = 37.98785 47.47329 42.73057
#
# Velocity S-wave (km/s) = 4.01031 4.48312 4.25329
# Velocity P-wave (km/s) = 6.94547 8.10994 7.55019
#
# Compressibility (1/GPa) = 0.01579942
#
# Stress axis : x y z
#
# Youngs Moduli (GPa) = 86.77713 134.31878 88.11940
#
# Poissons Ratio (x) = 0.45399 0.12586
# Poissons Ratio (y) = 0.29330 0.21594
# Poissons Ratio (z) = 0.12394 0.32915
#
# Static dielectric constant tensor:
#      x y z
#    x 5.038200 0.376370 -0.563270 
#    y 0.376370 4.688740 -0.327500 
#    z -0.563270 -0.327500 4.773550 
# 
# 
# High freq. dielectric constant tensor:
#      x y z
#    x 1.938140 0.006720 -0.014560 
#    y 0.006720 1.949670 0.001230 
#    z -0.014560 0.001230 1.955690 
# 
# From -- ./inp_files/54304.got.cif
#   From: 2010.06.25/outbox.cif.g09.slc.cpg/sg2_28_cif.got.tgz:54304.got - 2010.06.27 13:26:56.
