data_PCOD8019510
_publ_section_title
;
Structure prediction by ZEFSAII (Michael W. Deem and Ramdas Pophale) SiO2 
 PCOD8019510
Probable space group: P -1
;
_chemical_formula_sum "Si O2"
_cell_formula_units_Z 16
_cell_length_a 15.622484
_cell_length_b 5.422101
_cell_length_c 11.169093
_cell_angle_alpha 66.461627
_cell_angle_beta 129.901588
_cell_angle_gamma 91.768683
_cell_volume 630.334312
_symmetry_space_group_name_H-M "P -1"
_symmetry_group_IT_number 2
_symmetry_cell_setting 'triclinic'
loop_
_space_group_symop_operation_xyz
x,y,z
-x,-y,-z
loop_
_atom_site_type_symbol
_atom_site_label
_atom_site_fract_x
_atom_site_fract_y
_atom_site_fract_z
Si Si1 0.588549 0.855647 0.710400
Si Si2 0.117200 0.857421 0.024428
Si Si3 0.639873 0.883551 0.149969
Si Si4 0.833969 0.400597 0.331913
Si Si5 0.997255 0.404074 0.686553
Si Si6 0.643673 0.229671 0.873418
Si Si7 0.826658 0.776082 0.808655
Si Si8 0.801307 0.865931 0.506549
O O1 0.566989 0.554178 0.772634
O O2 0.722469 0.791782 0.802718
O O3 0.500000 0.000000 0.500000
O O4 0.566217 0.055949 0.770622
O O5 0.252370 0.776919 0.121772
O O6 0.092717 0.556812 0.070177
O O7 0.097234 0.039678 0.097319
O O8 0.036165 0.066470 0.810950
O O9 0.695356 0.575932 0.194464
O O10 0.685430 0.854895 0.333527
O O11 0.500000 0.000000 0.000000
O O12 0.687788 0.092819 0.070107
O O13 0.887496 0.483372 0.240122
O O14 0.911312 0.504631 0.476928
O O15 0.852472 0.072737 0.433737
O O16 0.909734 0.574412 0.678698
O O17 0.769685 0.941232 0.602578
#
# Coordination Sequence:
#
# PCOD8019510 Si02
#       8
#     2   2   2   2   2   2   2   2
#     4  10  22  41  68  92 128 182 226 283 331 403
#     4  10  22  43  69  95 137 181 226 280 334 417
#     4  11  26  43  67  99 135 180 224 290 344 404
#     4  10  23  44  67  97 135 175 234 277 350 406
#     4  10  22  42  69  99 130 181 229 285 338 407
#     4  10  22  42  65  99 127 172 235 274 338 402
#     4  10  25  41  64 100 140 178 226 279 346 411
#     4  11  26  42  66 100 139 179 224 287 350 410
#
# _framework density 25.383355999999999
#
# number of rings (size 3 to 8) (size 9 to 14) (size 15 to 20)
#    0.000    1.750    1.250    0.750    8.750    3.500 
#    0.000    0.000    0.000    0.000    0.000    0.000 
#    0.000    0.000    0.000    0.000    0.000    0.000 
#
# Total GULP energy -198250.171854 kJ/mol
# GULP energy per Si atom -12390.635741 kJ/mol
# Density = 2.532558 g / cm^3
# Si number density = 25.383356 Si / 1000 Ang^3
#
#
#
# Elastic Constant Matrix: (Units=GPa)
#
#
# Indices 1 2 3 4 5 6 
#
# 1 56.5436 27.0141 24.7400 5.8503 3.3700 0.6427
# 2 27.0141 150.3414 53.0578 -15.1786 6.2052 4.2100
# 3 24.7400 53.0578 133.3215 -12.7014 -4.3798 -0.8165
# 4 5.8503 -15.1786 -12.7014 37.9160 -4.1719 -6.7914
# 5 3.3700 6.2052 -4.3798 -4.1719 42.0740 -4.1282
# 6 0.6427 4.2100 -0.8165 -6.7914 -4.1282 22.5806
#
#
#
# Elastic Compliance Matrix: (Units=1/GPa)
#
#
# Indices 1 2 3 4 5 6 
#
# 1 0.021546 -0.003125 -0.003470 -0.006474 -0.002520 -0.002564
# 2 -0.003125 0.008467 -0.002573 0.002717 -0.001092 -0.000965
# 3 -0.003470 -0.002573 0.009578 0.003378 0.002220 0.002347
# 4 -0.006474 0.002717 0.003378 0.031940 0.004643 0.010255
# 5 -0.002520 -0.001092 0.002220 0.004643 0.025450 0.006405
# 6 -0.002564 -0.000965 0.002347 0.010255 0.006405 0.048879
#
#
# Mechanical properties :
#
#
# Convention : Reuss Voigt Hill
#
# Bulk Modulus (GPa) = 47.04594 61.09225 54.06910
# Shear Modulus (GPa) = 29.19192 36.20708 32.69950
#
# Velocity S-wave (km/s) = 3.39491 3.78088 3.59308
# Velocity P-wave (km/s) = 5.82594 6.57116 6.20974
#
# Compressibility (1/GPa) = 0.02125582
#
# Stress axis : x y z
#
# Youngs Moduli (GPa) = 46.41297 118.10036 104.41011
#
# Poissons Ratio (x) = 0.36903 0.36229
# Poissons Ratio (y) = 0.14503 0.26863
# Poissons Ratio (z) = 0.16105 0.30385
#
# Static dielectric constant tensor:
#      x y z
#    x 4.527340 -0.187120 -0.040150 
#    y -0.187120 4.892790 -0.096640 
#    z -0.040150 -0.096640 4.398970 
# 
# 
# High freq. dielectric constant tensor:
#      x y z
#    x 2.005130 -0.007230 -0.007180 
#    y -0.007230 2.011160 -0.009120 
#    z -0.007180 -0.009120 2.016650 
# 
# From -- ./inp_files/68451.got.cif
#   From: 2010.06.25/outbox.cif.g09.slc.cpg/sg2_35_cif.got.tgz:68451.got - 2010.06.27 13:26:56.
