data_PCOD8019540
_publ_section_title
;
Structure prediction by ZEFSAII (Michael W. Deem and Ramdas Pophale) SiO2 
 PCOD8019540
Probable space group: P -1
;
_chemical_formula_sum "Si O2"
_cell_formula_units_Z 16
_cell_length_a 5.629719
_cell_length_b 15.836233
_cell_length_c 24.722854
_cell_angle_alpha 21.855478
_cell_angle_beta 55.636283
_cell_angle_gamma 55.038204
_cell_volume 668.597590
_symmetry_space_group_name_H-M "P -1"
_symmetry_group_IT_number 2
_symmetry_cell_setting 'triclinic'
loop_
_space_group_symop_operation_xyz
x,y,z
-x,-y,-z
loop_
_atom_site_type_symbol
_atom_site_label
_atom_site_fract_x
_atom_site_fract_y
_atom_site_fract_z
Si Si1 0.145929 0.828241 0.647956
Si Si2 0.620704 0.449137 0.845987
Si Si3 0.748466 0.306926 0.604463
Si Si4 0.739285 0.467483 0.628387
Si Si5 0.278349 0.859790 0.079732
Si Si6 0.188084 0.444584 0.083381
Si Si7 0.868448 0.307621 0.386072
Si Si8 0.277997 0.205125 0.106805
O O1 0.410021 0.696643 0.728373
O O2 0.240856 0.804216 0.587575
O O3 0.859016 0.703603 0.768931
O O4 0.075259 0.096403 0.515372
O O5 0.536078 0.300447 0.893820
O O6 0.954327 0.486053 0.773792
O O7 0.574735 0.309341 0.990657
O O8 0.500000 0.500000 0.500000
O O9 0.772633 0.311976 0.663026
O O10 0.054021 0.338415 0.518700
O O11 0.658674 0.066895 0.742175
O O12 0.841856 0.304570 0.763088
O O13 0.405851 0.592063 0.601859
O O14 0.500000 0.000000 0.000000
O O15 0.000000 0.000000 0.000000
O O16 0.136248 0.278697 0.138870
O O17 0.500000 0.500000 0.000000
O O18 0.960052 0.681570 0.974029
#
# Coordination Sequence:
#
# PCOD8019540 Si02
#       8
#     2   2   2   2   2   2   2   2
#     4  10  23  40  66 105 139 186 241 294 378 439
#     4  11  23  43  68 101 144 186 241 306 370 444
#     4  11  28  48  73 102 147 194 247 307 371 452
#     4  11  27  48  70 109 139 195 251 300 380 447
#     4  12  27  46  76 108 146 197 249 316 377 446
#     4  10  22  41  68  95 135 185 234 297 362 429
#     4  11  23  43  69 103 145 184 240 306 372 451
#     4  10  24  43  65 101 135 182 245 294 362 438
#
# _framework density 23.930686999999999
#
# number of rings (size 3 to 8) (size 9 to 14) (size 15 to 20)
#    0.000    1.250    1.250    2.625    8.750    1.000 
#    4.500    0.000    0.000    0.000    0.000    0.000 
#    0.000    0.000    0.000    0.000    0.000    0.000 
#
# Total GULP energy -198347.778148 kJ/mol
# GULP energy per Si atom -12396.736134 kJ/mol
# Density = 2.387622 g / cm^3
# Si number density = 23.930687 Si / 1000 Ang^3
#
#
#
# Elastic Constant Matrix: (Units=GPa)
#
#
# Indices 1 2 3 4 5 6 
#
# 1 64.0175 22.1854 28.4577 -7.3622 0.7404 -21.0237
# 2 22.1854 115.9880 60.5940 6.6242 0.4540 -22.6424
# 3 28.4577 60.5940 140.7833 -7.4747 2.4371 -20.2400
# 4 -7.3622 6.6242 -7.4747 48.7901 -4.7213 -1.8211
# 5 0.7404 0.4540 2.4371 -4.7213 43.0349 14.1459
# 6 -21.0237 -22.6424 -20.2400 -1.8211 14.1459 33.6271
#
#
#
# Elastic Compliance Matrix: (Units=1/GPa)
#
#
# Indices 1 2 3 4 5 6 
#
# 1 0.021714 -0.000582 -0.001856 0.003157 -0.004570 0.014160
# 2 -0.000582 0.012379 -0.004430 -0.002427 -0.002131 0.006071
# 3 -0.001856 -0.004430 0.009831 0.001813 -0.001038 0.002309
# 4 0.003157 -0.002427 0.001813 0.021809 0.001628 0.001928
# 5 -0.004570 -0.002131 -0.001038 0.001628 0.029201 -0.017113
# 6 0.014160 0.006071 0.002309 0.001928 -0.017113 0.051371
#
#
# Mechanical properties :
#
#
# Convention : Reuss Voigt Hill
#
# Bulk Modulus (GPa) = 33.12516 60.36254 46.74385
# Shear Modulus (GPa) = 29.39401 39.06056 34.22729
#
# Velocity S-wave (km/s) = 3.50851 4.04448 3.78599
# Velocity P-wave (km/s) = 5.50318 6.86215 6.21989
#
# Compressibility (1/GPa) = 0.03018853
#
# Stress axis : x y z
#
# Youngs Moduli (GPa) = 46.05390 80.78254 101.71847
#
# Poissons Ratio (x) = 0.04699 0.18882
# Poissons Ratio (y) = 0.02679 0.45057
# Poissons Ratio (z) = 0.08549 0.35783
#
# Static dielectric constant tensor:
#      x y z
#    x 4.353590 0.637170 0.263430 
#    y 0.637170 5.767800 0.735470 
#    z 0.263430 0.735470 4.838540 
# 
# 
# High freq. dielectric constant tensor:
#      x y z
#    x 1.928270 -0.002800 0.000390 
#    y -0.002800 1.961110 0.010380 
#    z 0.000390 0.010380 1.960150 
# 
# From -- ./inp_files/615821.got.cif
#   From: 2010.06.25/outbox.cif.g09.slc.cpg/sg2_308_cif.got.tgz:615821.got - 2010.06.27 13:26:56.
