data_PCOD8019725
_publ_section_title
;
Structure prediction by ZEFSAII (Michael W. Deem and Ramdas Pophale) SiO2 
 PCOD8019725
Probable space group: P -1
;
_chemical_formula_sum "Si O2"
_cell_formula_units_Z 16
_cell_length_a 8.700648
_cell_length_b 11.391530
_cell_length_c 11.582337
_cell_angle_alpha 39.688072
_cell_angle_beta 79.243696
_cell_angle_gamma 80.743213
_cell_volume 719.948589
_symmetry_space_group_name_H-M "P -1"
_symmetry_group_IT_number 2
_symmetry_cell_setting 'triclinic'
loop_
_space_group_symop_operation_xyz
x,y,z
-x,-y,-z
loop_
_atom_site_type_symbol
_atom_site_label
_atom_site_fract_x
_atom_site_fract_y
_atom_site_fract_z
Si Si1 0.087383 0.790869 0.715060
Si Si2 0.225997 0.190523 0.110298
Si Si3 0.620504 0.450448 0.122628
Si Si4 0.921737 0.053818 0.851459
Si Si5 0.509998 0.955179 0.214455
Si Si6 0.379876 0.339943 0.409809
Si Si7 0.919906 0.819392 0.496992
Si Si8 0.626192 0.252075 0.814777
O O1 0.217418 0.654261 0.858448
O O2 0.914277 0.774454 0.806854
O O3 0.063744 0.746193 0.614837
O O4 0.147501 0.995851 0.570728
O O5 0.155325 0.135951 0.037126
O O6 0.345821 0.017423 0.252760
O O7 0.330804 0.368612 0.951681
O O8 0.526699 0.318517 0.319828
O O9 0.500000 0.500000 0.000000
O O10 0.800613 0.218567 0.770354
O O11 0.030659 0.133858 0.675555
O O12 0.000000 0.000000 0.000000
O O13 0.617644 0.839948 0.374440
O O14 0.492567 0.819677 0.210368
O O15 0.599194 0.138197 0.023332
O O16 0.214764 0.332048 0.370870
O O17 0.395043 0.530689 0.330302
#
# Coordination Sequence:
#
# PCOD8019725 Si02
#       8
#     2   2   2   2   2   2   2   2
#     4  10  24  45  68  92 140 184 228 288 345 404
#     4  10  22  45  70  96 137 181 230 283 348 403
#     4  12  27  42  68 105 136 178 234 287 347 413
#     4  10  22  41  70  98 137 186 227 280 350 410
#     4  10  22  42  67  98 140 178 220 279 344 408
#     4  12  25  40  69 102 136 178 230 281 342 413
#     4  10  24  43  65 103 134 181 235 283 342 409
#     4  10  22  42  65  98 140 175 226 277 339 408
#
# _framework density 22.223808999999999
#
# number of rings (size 3 to 8) (size 9 to 14) (size 15 to 20)
#    0.000    1.500    1.250    2.250    8.750    4.000 
#    2.250    0.000    0.000    0.000    0.000    0.000 
#    0.000    0.000    0.000    0.000    0.000    0.000 
#
# Total GULP energy -198285.855751 kJ/mol
# GULP energy per Si atom -12392.865984 kJ/mol
# Density = 2.217323 g / cm^3
# Si number density = 22.223809 Si / 1000 Ang^3
#
#
#
# Elastic Constant Matrix: (Units=GPa)
#
#
# Indices 1 2 3 4 5 6 
#
# 1 119.1742 56.3051 53.1124 -1.9326 -0.2455 1.3737
# 2 56.3051 87.1809 38.9746 2.6327 1.3951 -5.1594
# 3 53.1124 38.9746 99.4753 5.0424 8.0929 -2.0396
# 4 -1.9326 2.6327 5.0424 34.7766 2.2268 -2.8976
# 5 -0.2455 1.3951 8.0929 2.2268 40.9794 -1.5677
# 6 1.3737 -5.1594 -2.0396 -2.8976 -1.5677 35.3833
#
#
#
# Elastic Compliance Matrix: (Units=1/GPa)
#
#
# Indices 1 2 3 4 5 6 
#
# 1 0.013926 -0.006962 -0.004925 0.001806 0.001132 -0.001642
# 2 -0.006962 0.017511 -0.003047 -0.001065 0.000120 0.002566
# 3 -0.004925 -0.003047 0.014191 -0.001909 -0.002613 0.000293
# 4 0.001806 -0.001065 -0.001909 0.029452 -0.001099 0.002028
# 5 0.001132 0.000120 -0.002613 -0.001099 0.025013 0.000841
# 6 -0.001642 0.002566 0.000293 0.002028 0.000841 0.028920
#
#
# Mechanical properties :
#
#
# Convention : Reuss Voigt Hill
#
# Bulk Modulus (GPa) = 63.44880 66.95719 65.20299
# Shear Modulus (GPa) = 30.46287 32.72374 31.59331
#
# Velocity S-wave (km/s) = 3.70636 3.84143 3.77450
# Velocity P-wave (km/s) = 6.85040 7.06183 6.95692
#
# Compressibility (1/GPa) = 0.01576074
#
# Stress axis : x y z
#
# Youngs Moduli (GPa) = 71.80952 57.10726 70.46506
#
# Poissons Ratio (x) = 0.39758 0.34703
# Poissons Ratio (y) = 0.49993 0.21470
# Poissons Ratio (z) = 0.35366 0.17400
#
# Static dielectric constant tensor:
#      x y z
#    x 4.135920 0.056910 -0.112260 
#    y 0.056910 4.115140 0.057380 
#    z -0.112260 0.057380 3.853850 
# 
# 
# High freq. dielectric constant tensor:
#      x y z
#    x 1.882950 0.001110 -0.006720 
#    y 0.001110 1.876360 0.002100 
#    z -0.006720 0.002100 1.859280 
# 
# From -- ./inp_files/388781.got.cif
#   From: 2010.06.25/outbox.cif.g09.slc.cpg/sg2_195_cif.got.tgz:388781.got - 2010.06.27 13:26:56.
