data_PCOD8019606
_publ_section_title
;
Structure prediction by ZEFSAII (Michael W. Deem and Ramdas Pophale) SiO2 
 PCOD8019606
Probable space group: P -1
;
_chemical_formula_sum "Si O2"
_cell_formula_units_Z 16
_cell_length_a 12.055014
_cell_length_b 7.979997
_cell_length_c 11.665515
_cell_angle_alpha 123.411778
_cell_angle_beta 69.032029
_cell_angle_gamma 70.507661
_cell_volume 640.626544
_symmetry_space_group_name_H-M "P -1"
_symmetry_group_IT_number 2
_symmetry_cell_setting 'triclinic'
loop_
_space_group_symop_operation_xyz
x,y,z
-x,-y,-z
loop_
_atom_site_type_symbol
_atom_site_label
_atom_site_fract_x
_atom_site_fract_y
_atom_site_fract_z
Si Si1 0.575331 0.934653 0.825075
Si Si2 0.322909 0.306164 0.676987
Si Si3 0.728252 0.211282 0.692930
Si Si4 0.646378 0.473850 0.471547
Si Si5 0.613962 0.560376 0.073184
Si Si6 0.895164 0.759691 0.712942
Si Si7 0.058035 0.350719 0.692776
Si Si8 0.072075 0.949344 0.650945
O O1 0.620027 0.666516 0.655604
O O2 0.713910 0.938351 0.803538
O O3 0.452606 0.172807 0.870432
O O4 0.500000 0.000000 0.000000
O O5 0.298772 0.472941 0.639919
O O6 0.289591 0.477371 0.865838
O O7 0.176856 0.318054 0.728168
O O8 0.500000 0.000000 0.500000
O O9 0.535893 0.405784 0.812541
O O10 0.822334 0.241579 0.574658
O O11 0.822019 0.887914 0.538464
O O12 0.741331 0.294054 0.845400
O O13 0.500000 0.500000 0.500000
O O14 0.792938 0.162861 0.343223
O O15 0.977245 0.263905 0.766723
O O16 0.000000 0.500000 0.500000
O O17 0.927473 0.647749 0.791710
O O18 0.949591 0.925851 0.736746
#
# Coordination Sequence:
#
# PCOD8019606 Si02
#       8
#     2   2   2   2   2   2   2   2
#     4  12  27  45  71 109 146 183 237 302 362 415
#     4  12  19  37  65 101 142 189 238 290 343 428
#     4   9  20  39  64 101 140 181 234 291 354 414
#     4  12  22  40  67 105 141 184 241 289 345 425
#     4  11  21  38  64 101 152 183 229 298 363 406
#     4  12  23  45  71 107 145 182 238 303 343 430
#     4  10  22  42  69 103 138 183 248 288 351 418
#     4  10  22  41  69 105 134 182 245 287 351 414
#
# _framework density 24.975549999999998
#
# number of rings (size 3 to 8) (size 9 to 14) (size 15 to 20)
#    0.750    0.250    5.000    3.000    0.000    1.500 
#    0.000    0.000    0.000    3.000    3.250    0.000 
#    0.000    0.000    0.000    0.000    0.000    0.000 
#
# Total GULP energy -198216.849313 kJ/mol
# GULP energy per Si atom -12388.553082 kJ/mol
# Density = 2.491870 g / cm^3
# Si number density = 24.975550 Si / 1000 Ang^3
#
#
#
# Elastic Constant Matrix: (Units=GPa)
#
#
# Indices 1 2 3 4 5 6 
#
# 1 174.5891 51.2008 33.9915 -17.0767 4.4263 2.0062
# 2 51.2008 161.9727 23.4512 -24.8315 -2.4355 -1.4014
# 3 33.9915 23.4512 58.0407 -26.5699 19.2921 -0.0282
# 4 -17.0767 -24.8315 -26.5699 31.7081 0.5654 -5.4655
# 5 4.4263 -2.4355 19.2921 0.5654 39.8151 -11.1907
# 6 2.0062 -1.4014 -0.0282 -5.4655 -11.1907 43.1006
#
#
#
# Elastic Compliance Matrix: (Units=1/GPa)
#
#
# Indices 1 2 3 4 5 6 
#
# 1 0.006932 -0.001752 -0.004374 -0.001368 0.001192 -0.000246
# 2 -0.001752 0.007541 0.000072 0.005217 0.000890 0.001219
# 3 -0.004374 0.000072 0.041461 0.032649 -0.020316 -0.000902
# 4 -0.001368 0.005217 0.032649 0.063268 -0.015017 0.004378
# 5 0.001192 0.000890 -0.020316 -0.015017 0.037268 0.007732
# 6 -0.000246 0.001219 -0.000902 0.004378 0.007732 0.025815
#
#
# Mechanical properties :
#
#
# Convention : Reuss Voigt Hill
#
# Bulk Modulus (GPa) = 22.81798 67.98773 45.40285
# Shear Modulus (GPa) = 23.92332 41.98870 32.95601
#
# Velocity S-wave (km/s) = 3.09830 4.10468 3.63648
# Velocity P-wave (km/s) = 4.68565 7.05304 5.98751
#
# Compressibility (1/GPa) = 0.04382509
#
# Stress axis : x y z
#
# Youngs Moduli (GPa) = 144.25921 132.61030 24.11925
#
# Poissons Ratio (x) = 0.23231 0.10551
# Poissons Ratio (y) = 0.25272 -0.00174
# Poissons Ratio (z) = 0.63104 -0.00954
#
# Static dielectric constant tensor:
#      x y z
#    x 4.677390 0.195000 0.154180 
#    y 0.195000 5.487380 0.174750 
#    z 0.154180 0.174750 4.324040 
# 
# 
# High freq. dielectric constant tensor:
#      x y z
#    x 2.003540 -0.010270 -0.013440 
#    y -0.010270 2.017130 -0.014360 
#    z -0.013440 -0.014360 1.964820 
# 
# From -- ./inp_files/415375.got.cif
#   From: 2010.06.25/outbox.cif.g09.slc.cpg/sg2_208_cif.got.tgz:415375.got - 2010.06.27 13:26:56.
