data_PCOD8019074
_publ_section_title
;
Structure prediction by ZEFSAII (Michael W. Deem and Ramdas Pophale) SiO2 
 PCOD8019074
Probable space group: P -1
;
_chemical_formula_sum "Si O2"
_cell_formula_units_Z 14
_cell_length_a 11.947480
_cell_length_b 9.462710
_cell_length_c 8.300043
_cell_angle_alpha 118.919657
_cell_angle_beta 84.333892
_cell_angle_gamma 123.109828
_cell_volume 670.243028
_symmetry_space_group_name_H-M "P -1"
_symmetry_group_IT_number 2
_symmetry_cell_setting 'triclinic'
loop_
_space_group_symop_operation_xyz
x,y,z
-x,-y,-z
loop_
_atom_site_type_symbol
_atom_site_label
_atom_site_fract_x
_atom_site_fract_y
_atom_site_fract_z
Si Si1 0.439525 0.826982 0.545865
Si Si2 0.345021 0.307931 0.902395
Si Si3 0.687121 0.042317 0.122468
Si Si4 0.669819 0.852823 0.701314
Si Si5 0.752870 0.609026 0.736100
Si Si6 0.035521 0.712653 0.641538
Si Si7 0.139110 0.023015 0.528091
O O1 0.387079 0.862541 0.740262
O O2 0.548902 0.779447 0.549644
O O3 0.314184 0.623260 0.376979
O O4 0.500000 0.000000 0.500000
O O5 0.260140 0.238879 0.706926
O O6 0.364912 0.140553 0.855266
O O7 0.500000 0.500000 0.000000
O O8 0.244990 0.322042 0.045127
O O9 0.852283 0.191591 0.180000
O O10 0.648665 0.973846 0.905960
O O11 0.670670 0.671768 0.672702
O O12 0.809698 0.998798 0.663941
O O13 0.907612 0.718594 0.711894
O O14 0.000000 0.500000 0.500000
O O15 0.108204 0.843947 0.545115
O O16 0.000000 0.000000 0.500000
#
# Coordination Sequence:
#
# PCOD8019074 Si02
#       7
#     2   2   2   2   2   2   2
#     4  12  23  42  66  96 130 168 212 268 322 379
#     4  10  22  41  64  94 127 169 218 262 319 386
#     4  10  23  40  66  93 130 169 211 264 320 382
#     4  11  24  41  65  93 129 167 216 261 322 380
#     4  11  23  40  68  92 125 173 212 261 321 385
#     4  11  22  43  65  91 130 169 213 260 328 380
#     4  11  23  41  65  95 129 166 218 270 315 382
#
# _framework density 20.887947
#
# number of rings (size 3 to 8) (size 9 to 14) (size 15 to 20)
#    0.000    1.143    2.857    4.286    2.000    2.857 
#    0.000    3.571    0.000    0.000    0.000    0.000 
#    0.000    0.000    0.000    0.000    0.000    0.000 
#
# Total GULP energy -173511.276353 kJ/mol
# GULP energy per Si atom -12393.662597 kJ/mol
# Density = 2.084041 g / cm^3
# Si number density = 20.887947 Si / 1000 Ang^3
#
#
#
# Elastic Constant Matrix: (Units=GPa)
#
#
# Indices 1 2 3 4 5 6 
#
# 1 111.5893 28.9753 33.5114 0.9999 -0.8026 12.0634
# 2 28.9753 99.2461 38.7784 7.4702 0.3205 7.0005
# 3 33.5114 38.7784 76.7194 -3.7083 -4.7612 0.2801
# 4 0.9999 7.4702 -3.7083 39.5623 9.0812 -3.4492
# 5 -0.8026 0.3205 -4.7612 9.0812 45.4057 0.6026
# 6 12.0634 7.0005 0.2801 -3.4492 0.6026 26.4211
#
#
#
# Elastic Compliance Matrix: (Units=1/GPa)
#
#
# Indices 1 2 3 4 5 6 
#
# 1 0.011075 -0.001155 -0.004279 -0.000882 -0.000004 -0.004821
# 2 -0.001155 0.013423 -0.006436 -0.003390 -0.000067 -0.003402
# 3 -0.004279 -0.006436 0.018369 0.003099 0.001225 0.003841
# 4 -0.000882 -0.003390 0.003099 0.027887 -0.005311 0.005030
# 5 -0.000004 -0.000067 0.001225 -0.005311 0.023231 -0.001216
# 6 -0.004821 -0.003402 0.003841 0.005030 -0.001216 0.041595
#
#
# Mechanical properties :
#
#
# Convention : Reuss Voigt Hill
#
# Bulk Modulus (GPa) = 52.28277 54.45389 53.36833
# Shear Modulus (GPa) = 30.17577 34.69713 32.43645
#
# Velocity S-wave (km/s) = 3.80498 4.08009 3.94493
# Velocity P-wave (km/s) = 6.66245 6.95142 6.80847
#
# Compressibility (1/GPa) = 0.01912676
#
# Stress axis : x y z
#
# Youngs Moduli (GPa) = 90.28965 74.49776 54.44071
#
# Poissons Ratio (x) = 0.08605 0.23297
# Poissons Ratio (y) = 0.10429 0.35038
# Poissons Ratio (z) = 0.38638 0.47946
#
# Static dielectric constant tensor:
#      x y z
#    x 4.022790 0.319170 0.491360 
#    y 0.319170 3.964280 0.435580 
#    z 0.491360 0.435580 5.281480 
# 
# 
# High freq. dielectric constant tensor:
#      x y z
#    x 1.827990 0.014290 -0.007790 
#    y 0.014290 1.812560 -0.001930 
#    z -0.007790 -0.001930 1.820440 
# 
# From -- ./inp_files/156609.got.cif
#   From: 2010.06.25/outbox.cif.g09.slc.cpg/sg2_79_cif.got.tgz:156609.got - 2010.06.27 13:26:56.
