data_PCOD8019109
_publ_section_title
;
Structure prediction by ZEFSAII (Michael W. Deem and Ramdas Pophale) SiO2 
 PCOD8019109
Probable space group: P -1
;
_chemical_formula_sum "Si O2"
_cell_formula_units_Z 16
_cell_length_a 17.800005
_cell_length_b 8.466801
_cell_length_c 7.092221
_cell_angle_alpha 104.312949
_cell_angle_beta 128.535546
_cell_angle_gamma 59.979059
_cell_volume 720.631913
_symmetry_space_group_name_H-M "P -1"
_symmetry_group_IT_number 2
_symmetry_cell_setting 'triclinic'
loop_
_space_group_symop_operation_xyz
x,y,z
-x,-y,-z
loop_
_atom_site_type_symbol
_atom_site_label
_atom_site_fract_x
_atom_site_fract_y
_atom_site_fract_z
Si Si1 0.673372 0.356095 0.284983
Si Si2 0.891192 0.010398 0.418194
Si Si3 0.118324 0.479210 0.521648
Si Si4 0.226185 0.205052 0.928213
Si Si5 0.534886 0.974203 0.761113
Si Si6 0.522177 0.717679 0.961076
Si Si7 0.799951 0.481735 0.738067
Si Si8 0.979184 0.287799 0.227717
O O1 0.788842 0.208017 0.338279
O O2 0.596689 0.268435 0.202367
O O3 0.696129 0.444064 0.538762
O O4 0.614508 0.509893 0.076104
O O5 0.000000 0.000000 0.500000
O O6 0.924495 0.917874 0.654443
O O7 0.855688 0.882544 0.195101
O O8 0.172488 0.505440 0.430306
O O9 0.078735 0.660865 0.641667
O O10 0.018383 0.441860 0.291504
O O11 0.204009 0.309729 0.726001
O O12 0.345824 0.042154 0.051733
O O13 0.222813 0.334140 0.134133
O O14 0.532387 0.793149 0.792888
O O15 0.500000 0.000000 0.500000
O O16 0.459930 0.154719 0.816786
O O17 0.896054 0.304992 0.937570
#
# Coordination Sequence:
#
# PCOD8019109 Si02
#       8
#     2   2   2   2   2   2   2   2
#     4  11  23  44  68 101 139 181 221 279 357 396
#     4  11  23  42  64  94 143 185 215 275 344 400
#     4   9  18  36  62  87 131 176 218 274 324 382
#     4  10  22  41  64  99 131 174 233 271 329 414
#     4  11  22  44  74 103 126 174 235 286 336 406
#     4  10  24  46  72  96 138 177 222 290 344 402
#     4  11  21  37  65  96 130 173 223 274 329 400
#     4   9  20  36  57  91 127 173 232 265 317 395
#
# _framework density 22.202736000000002
#
# number of rings (size 3 to 8) (size 9 to 14) (size 15 to 20)
#    0.000    1.750    1.250    3.375    0.000    3.500 
#    2.250    6.875    0.000    0.000    0.000    0.000 
#    0.000    0.000    0.000    0.000    0.000    0.000 
#
# Total GULP energy -198295.084594 kJ/mol
# GULP energy per Si atom -12393.442787 kJ/mol
# Density = 2.215220 g / cm^3
# Si number density = 22.202736 Si / 1000 Ang^3
#
#
#
# Elastic Constant Matrix: (Units=GPa)
#
#
# Indices 1 2 3 4 5 6 
#
# 1 111.8949 45.4653 56.4154 -7.5511 10.8965 8.4262
# 2 45.4653 113.9857 47.2161 -8.9125 5.8343 0.3989
# 3 56.4154 47.2161 136.9763 -5.5481 1.7310 12.4099
# 4 -7.5511 -8.9125 -5.5481 35.2144 0.5641 7.2903
# 5 10.8965 5.8343 1.7310 0.5641 36.5138 -1.8669
# 6 8.4262 0.3989 12.4099 7.2903 -1.8669 33.8200
#
#
#
# Elastic Compliance Matrix: (Units=1/GPa)
#
#
# Indices 1 2 3 4 5 6 
#
# 1 0.012788 -0.003189 -0.003841 0.001863 -0.003272 -0.002321
# 2 -0.003189 0.011278 -0.002619 0.001508 -0.000685 0.001259
# 3 -0.003841 -0.002619 0.010053 0.000661 0.000935 -0.002792
# 4 0.001863 0.001508 0.000661 0.030856 -0.001687 -0.007469
# 5 -0.003272 -0.000685 0.000935 -0.001687 0.028578 0.002421
# 6 -0.002321 0.001259 -0.002792 -0.007469 0.002421 0.032900
#
#
# Mechanical properties :
#
#
# Convention : Reuss Voigt Hill
#
# Bulk Modulus (GPa) = 67.46141 73.45005 70.45573
# Shear Modulus (GPa) = 33.18051 35.36030 34.27040
#
# Velocity S-wave (km/s) = 3.86998 3.99508 3.93303
# Velocity P-wave (km/s) = 7.10065 7.37796 7.24063
#
# Compressibility (1/GPa) = 0.01482329
#
# Stress axis : x y z
#
# Youngs Moduli (GPa) = 78.19736 88.66657 99.47356
#
# Poissons Ratio (x) = 0.28272 0.38205
# Poissons Ratio (y) = 0.24934 0.26049
# Poissons Ratio (z) = 0.30033 0.23219
#
# Static dielectric constant tensor:
#      x y z
#    x 3.985220 0.125710 0.397360 
#    y 0.125710 4.240820 -0.112610 
#    z 0.397360 -0.112610 4.134370 
# 
# 
# High freq. dielectric constant tensor:
#      x y z
#    x 1.863660 0.006460 0.023140 
#    y 0.006460 1.879830 -0.012480 
#    z 0.023140 -0.012480 1.871930 
# 
# From -- ./inp_files/107274.got.cif
#   From: 2010.06.25/outbox.cif.g09.slc.cpg/sg2_54_cif.got.tgz:107274.got - 2010.06.27 13:26:56.
