data_PCOD8019061
_publ_section_title
;
Structure prediction by ZEFSAII (Michael W. Deem and Ramdas Pophale) SiO2 
 PCOD8019061
Probable space group: P -1
;
_chemical_formula_sum "Si O2"
_cell_formula_units_Z 16
_cell_length_a 9.911748
_cell_length_b 7.558697
_cell_length_c 12.625965
_cell_angle_alpha 99.979719
_cell_angle_beta 80.232514
_cell_angle_gamma 131.382103
_cell_volume 697.068425
_symmetry_space_group_name_H-M "P -1"
_symmetry_group_IT_number 2
_symmetry_cell_setting 'triclinic'
loop_
_space_group_symop_operation_xyz
x,y,z
-x,-y,-z
loop_
_atom_site_type_symbol
_atom_site_label
_atom_site_fract_x
_atom_site_fract_y
_atom_site_fract_z
Si Si1 0.321808 0.725405 0.207958
Si Si2 0.482943 0.284562 0.009788
Si Si3 0.186396 0.062217 0.602136
Si Si4 0.205078 0.588382 0.899097
Si Si5 0.837330 0.157109 0.897895
Si Si6 0.090201 0.350221 0.559191
Si Si7 0.438656 0.765047 0.430502
Si Si8 0.063912 0.676380 0.737489
O O1 0.256332 0.875624 0.206541
O O2 0.419835 0.795828 0.313194
O O3 0.136108 0.449174 0.204611
O O4 0.464936 0.790494 0.105649
O O5 0.600651 0.340115 0.105440
O O6 0.272482 0.084354 0.047790
O O7 0.500000 0.500000 0.000000
O O8 0.140153 0.926817 0.705906
O O9 0.084422 0.860905 0.504563
O O10 0.132536 0.226949 0.625186
O O11 0.400813 0.240068 0.574258
O O12 0.200452 0.724190 0.815861
O O13 0.051167 0.300803 0.872894
O O14 0.172184 0.659529 0.021604
O O15 0.258335 0.522834 0.475763
O O16 0.045845 0.501214 0.635318
O O17 0.500000 0.000000 0.500000
#
# Coordination Sequence:
#
# PCOD8019061 Si02
#       8
#     2   2   2   2   2   2   2   2
#     4  10  22  41  64  93 123 168 216 256 316 384
#     4  11  24  41  62  94 132 162 204 267 324 377
#     4  11  24  40  65  89 131 172 207 272 310 373
#     4   9  20  39  63  92 114 162 213 250 311 382
#     4   9  20  40  64  85 119 162 207 257 309 377
#     4  11  24  44  60  95 132 167 219 259 321 376
#     4  12  23  39  67  96 128 173 216 260 315 383
#     4  11  21  42  68  91 128 172 213 260 324 376
#
# _framework density 22.953268999999999
#
# number of rings (size 3 to 8) (size 9 to 14) (size 15 to 20)
#    0.000    1.500    2.500    3.750    3.500    1.500 
#    4.500    1.250    0.000    0.000    0.000    0.000 
#    0.000    0.000    0.000    0.000    0.000    0.000 
#
# Total GULP energy -198278.205016 kJ/mol
# GULP energy per Si atom -12392.387814 kJ/mol
# Density = 2.290103 g / cm^3
# Si number density = 22.953269 Si / 1000 Ang^3
#
#
#
# Elastic Constant Matrix: (Units=GPa)
#
#
# Indices 1 2 3 4 5 6 
#
# 1 60.2172 27.1047 20.2257 0.0646 29.9573 1.8614
# 2 27.1047 111.8625 24.9298 -25.0040 14.1535 1.9296
# 3 20.2257 24.9298 80.6805 -15.2205 32.4509 5.1765
# 4 0.0646 -25.0040 -15.2205 36.4676 1.2517 4.4794
# 5 29.9573 14.1535 32.4509 1.2517 34.3713 -3.6138
# 6 1.8614 1.9296 5.1765 4.4794 -3.6138 35.4717
#
#
#
# Elastic Compliance Matrix: (Units=1/GPa)
#
#
# Indices 1 2 3 4 5 6 
#
# 1 0.034601 -0.005005 0.008635 0.002226 -0.037052 -0.006859
# 2 -0.005005 0.012248 -0.000669 0.008318 -0.000501 -0.001407
# 3 0.008635 -0.000669 0.027591 0.013426 -0.034807 -0.009685
# 4 0.002226 0.008318 0.013426 0.040627 -0.020545 -0.009752
# 5 -0.037052 -0.000501 -0.034807 -0.020545 0.097260 0.019554
# 6 -0.006859 -0.001407 -0.009685 -0.009752 0.019554 0.033265
#
#
# Mechanical properties :
#
#
# Convention : Reuss Voigt Hill
#
# Bulk Modulus (GPa) = 12.44368 44.14230 28.29299
# Shear Modulus (GPa) = 18.76478 33.29545 26.03011
#
# Velocity S-wave (km/s) = 2.86233 3.81277 3.37122
# Velocity P-wave (km/s) = 4.04438 6.21740 5.24467
#
# Compressibility (1/GPa) = 0.08036206
#
# Stress axis : x y z
#
# Youngs Moduli (GPa) = 28.90072 81.64511 36.24433
#
# Poissons Ratio (x) = 0.40860 -0.31297
# Poissons Ratio (y) = 0.14464 0.02425
# Poissons Ratio (z) = -0.24955 0.05464
#
# Static dielectric constant tensor:
#      x y z
#    x 4.459870 0.444600 0.405030 
#    y 0.444600 4.186320 -0.188830 
#    z 0.405030 -0.188830 4.106190 
# 
# 
# High freq. dielectric constant tensor:
#      x y z
#    x 1.898590 0.024780 0.029550 
#    y 0.024780 1.906510 -0.021090 
#    z 0.029550 -0.021090 1.899190 
# 
# From -- ./inp_files/417579.got.cif
#   From: 2010.06.25/outbox.cif.g09.slc.cpg/sg2_209_cif.got.tgz:417579.got - 2010.06.27 13:26:56.
