data_PCOD8019187
_publ_section_title
;
Structure prediction by ZEFSAII (Michael W. Deem and Ramdas Pophale) SiO2 
 PCOD8019187
Probable space group: P -1
;
_chemical_formula_sum "Si O2"
_cell_formula_units_Z 16
_cell_length_a 11.650326
_cell_length_b 5.234838
_cell_length_c 14.534995
_cell_angle_alpha 102.572563
_cell_angle_beta 100.097859
_cell_angle_gamma 74.000520
_cell_volume 825.375932
_symmetry_space_group_name_H-M "P -1"
_symmetry_group_IT_number 2
_symmetry_cell_setting 'triclinic'
loop_
_space_group_symop_operation_xyz
x,y,z
-x,-y,-z
loop_
_atom_site_type_symbol
_atom_site_label
_atom_site_fract_x
_atom_site_fract_y
_atom_site_fract_z
Si Si1 0.582409 0.111310 0.189141
Si Si2 0.072140 0.527378 0.602913
Si Si3 0.767532 0.513753 0.869539
Si Si4 0.445092 0.697222 0.167979
Si Si5 0.655428 0.046911 0.995348
Si Si6 0.109730 0.771953 0.962486
Si Si7 0.834524 0.973713 0.314984
Si Si8 0.012345 0.516329 0.224378
O O1 0.538465 0.434043 0.200179
O O2 0.708839 0.041053 0.251190
O O3 0.494821 0.960194 0.221341
O O4 0.591474 0.992665 0.076464
O O5 0.144526 0.755091 0.615982
O O6 0.000000 0.500000 0.500000
O O7 0.979414 0.614074 0.682522
O O8 0.165391 0.240842 0.618930
O O9 0.688614 0.302504 0.811761
O O10 0.852420 0.537982 0.798043
O O11 0.674054 0.795141 0.906463
O O12 0.852465 0.427462 0.962237
O O13 0.424951 0.699751 0.053866
O O14 0.782253 0.103927 0.046317
O O15 0.072825 0.616128 0.859926
O O16 0.000000 0.000000 0.000000
O O17 0.942525 0.835330 0.247716
#
# Coordination Sequence:
#
# PCOD8019187 Si02
#       8
#     2   2   2   2   2   2   2   2
#     4  12  23  38  57  82 116 160 206 251 281 342
#     4  10  22  41  65  95 123 146 187 245 315 374
#     4  11  23  37  52  82 121 166 205 237 286 348
#     4  11  25  38  54  77 115 166 213 247 283 325
#     4  11  23  35  54  77 120 163 214 244 289 330
#     4  11  22  32  53  84 125 165 199 239 287 351
#     4  10  23  38  65  92 119 149 190 245 311 356
#     4  10  23  36  59  88 123 155 197 243 301 361
#
# _framework density 19.385106
#
# number of rings (size 3 to 8) (size 9 to 14) (size 15 to 20)
#    0.750    0.500    2.500    3.750    8.750    0.000 
#    0.000    0.000    0.000    0.000    0.000    5.250 
#    0.000    0.000    0.000    0.000    0.000    0.000 
#
# Total GULP energy -198252.548572 kJ/mol
# GULP energy per Si atom -12390.784286 kJ/mol
# Density = 1.934098 g / cm^3
# Si number density = 19.385106 Si / 1000 Ang^3
#
#
#
# Elastic Constant Matrix: (Units=GPa)
#
#
# Indices 1 2 3 4 5 6 
#
# 1 21.3453 14.5739 -5.4606 -1.0399 -7.8243 16.0818
# 2 14.5739 117.7436 26.3546 -11.8557 8.7109 10.0366
# 3 -5.4606 26.3546 72.5561 -9.4339 9.3660 -0.8874
# 4 -1.0399 -11.8557 -9.4339 22.6130 0.8345 9.1458
# 5 -7.8243 8.7109 9.3660 0.8345 19.0887 0.6389
# 6 16.0818 10.0366 -0.8874 9.1458 0.6389 34.0854
#
#
#
# Elastic Compliance Matrix: (Units=1/GPa)
#
#
# Indices 1 2 3 4 5 6 
#
# 1 0.130338 -0.014301 0.010553 0.027281 0.055769 -0.065374
# 2 -0.014301 0.011954 -0.003680 0.003470 -0.009743 0.002383
# 3 0.010553 -0.003680 0.017236 0.008096 -0.002620 -0.005569
# 4 0.027281 0.003470 0.008096 0.062921 0.003901 -0.030638
# 5 0.055769 -0.009743 -0.002620 0.003901 0.081680 -0.026090
# 6 -0.065374 0.002383 -0.005569 -0.030638 -0.026090 0.068046
#
#
# Mechanical properties :
#
#
# Convention : Reuss Voigt Hill
#
# Bulk Modulus (GPa) = 6.91228 31.39787 19.15508
# Shear Modulus (GPa) = 11.48748 26.90255 19.19502
#
# Velocity S-wave (km/s) = 2.43696 3.72935 3.15015
# Velocity P-wave (km/s) = 3.38997 5.89713 4.80979
#
# Compressibility (1/GPa) = 0.14467003
#
# Stress axis : x y z
#
# Youngs Moduli (GPa) = 7.67236 83.65422 58.01777
#
# Poissons Ratio (x) = 1.19635 -0.61223
# Poissons Ratio (y) = 0.10972 0.21353
# Poissons Ratio (z) = -0.08096 0.30788
#
# Static dielectric constant tensor:
#      x y z
#    x 3.680120 0.211720 0.067770 
#    y 0.211720 3.932490 -0.153110 
#    z 0.067770 -0.153110 3.071020 
# 
# 
# High freq. dielectric constant tensor:
#      x y z
#    x 1.763900 0.011350 0.021220 
#    y 0.011350 1.768410 -0.018130 
#    z 0.021220 -0.018130 1.698560 
# 
# From -- ./inp_files/510437.got.cif
#   From: 2010.06.25/outbox.cif.g09.slc.cpg/sg2_256_cif.got.tgz:510437.got - 2010.06.27 13:26:56.
