data_PCOD8019356
_publ_section_title
;
Structure prediction by ZEFSAII (Michael W. Deem and Ramdas Pophale) SiO2 
 PCOD8019356
Probable space group: P -1
;
_chemical_formula_sum "Si O2"
_cell_formula_units_Z 14
_cell_length_a 8.689105
_cell_length_b 19.697043
_cell_length_c 5.213378
_cell_angle_alpha 55.040406
_cell_angle_beta 124.402757
_cell_angle_gamma 129.540383
_cell_volume 534.886741
_symmetry_space_group_name_H-M "P -1"
_symmetry_group_IT_number 2
_symmetry_cell_setting 'triclinic'
loop_
_space_group_symop_operation_xyz
x,y,z
-x,-y,-z
loop_
_atom_site_type_symbol
_atom_site_label
_atom_site_fract_x
_atom_site_fract_y
_atom_site_fract_z
Si Si1 0.904720 0.224059 0.789459
Si Si2 0.146742 0.310925 0.318750
Si Si3 0.730694 0.920922 0.675730
Si Si4 0.924494 0.426477 0.861080
Si Si5 0.781573 0.022133 0.003921
Si Si6 0.592039 0.286767 0.187530
Si Si7 0.563652 0.418813 0.253422
O O1 0.749957 0.271090 0.567749
O O2 0.073224 0.271988 0.616309
O O3 0.757315 0.115618 0.816214
O O4 0.026559 0.233446 0.152004
O O5 0.398810 0.345915 0.465449
O O6 0.110487 0.401222 0.019024
O O7 0.611080 0.810223 0.849785
O O8 0.973663 0.948695 0.836853
O O9 0.666040 0.951877 0.282290
O O10 0.675394 0.971520 0.747902
O O11 0.816181 0.460962 0.460922
O O12 0.725592 0.328288 0.966343
O O13 0.000000 0.500000 0.000000
O O14 0.524701 0.361872 0.076532
O O15 0.500000 0.500000 0.000000
#
# Coordination Sequence:
#
# PCOD8019356 Si02
#       7
#     2   2   2   2   2   2   2
#     4  11  24  46  71 107 149 194 236 307 356 434
#     4  11  26  45  74 104 152 191 246 296 373 429
#     4  10  23  40  68 103 141 187 239 295 351 439
#     4  11  27  49  72 104 150 189 246 313 370 438
#     4  10  22  41  67 103 145 185 236 297 359 417
#     4  11  26  44  72 104 146 191 247 298 365 439
#     4  12  28  45  77 105 141 198 249 305 376 441
#
# _framework density 26.173763999999998
#
# number of rings (size 3 to 8) (size 9 to 14) (size 15 to 20)
#    0.000    1.143    1.429    2.571   10.000    4.571 
#    0.000    0.000    0.000    0.000    0.000    0.000 
#    0.000    0.000    0.000    0.000    0.000    0.000 
#
# Total GULP energy -173625.258514 kJ/mol
# GULP energy per Si atom -12401.804180 kJ/mol
# Density = 2.611419 g / cm^3
# Si number density = 26.173764 Si / 1000 Ang^3
#
#
#
# Elastic Constant Matrix: (Units=GPa)
#
#
# Indices 1 2 3 4 5 6 
#
# 1 96.0375 24.5885 7.9259 8.1025 3.8814 -11.4795
# 2 24.5885 116.6241 4.3105 7.2824 5.8306 -22.9024
# 3 7.9259 4.3105 45.4094 6.5394 -1.6256 -12.1398
# 4 8.1025 7.2824 6.5394 45.5670 -6.0705 1.3935
# 5 3.8814 5.8306 -1.6256 -6.0705 43.6594 0.8838
# 6 -11.4795 -22.9024 -12.1398 1.3935 0.8838 47.6465
#
#
#
# Elastic Compliance Matrix: (Units=1/GPa)
#
#
# Indices 1 2 3 4 5 6 
#
# 1 0.011373 -0.001875 -0.001162 -0.001749 -0.001080 0.001614
# 2 -0.001875 0.010036 0.000816 -0.001727 -0.001478 0.004658
# 3 -0.001162 0.000816 0.024391 -0.003584 0.000274 0.006426
# 4 -0.001749 -0.001727 -0.003584 0.023615 0.003595 -0.002922
# 5 -0.001080 -0.001478 0.000274 0.003595 0.023737 -0.001446
# 6 0.001614 0.004658 0.006426 -0.002922 -0.001446 0.025365
#
#
# Mechanical properties :
#
#
# Convention : Reuss Voigt Hill
#
# Bulk Modulus (GPa) = 24.17950 36.85787 30.51869
# Shear Modulus (GPa) = 36.56395 42.12434 39.34414
#
# Velocity S-wave (km/s) = 3.74166 4.01610 3.88131
# Velocity P-wave (km/s) = 5.28439 5.96808 5.63661
#
# Compressibility (1/GPa) = 0.04135734
#
# Stress axis : x y z
#
# Youngs Moduli (GPa) = 87.93057 99.63997 40.99821
#
# Poissons Ratio (x) = 0.18679 0.04765
# Poissons Ratio (y) = 0.16484 -0.03344
# Poissons Ratio (z) = 0.10221 -0.08127
#
# Static dielectric constant tensor:
#      x y z
#    x 5.096390 0.121940 0.068010 
#    y 0.121940 4.717080 -0.155320 
#    z 0.068010 -0.155320 4.669060 
# 
# 
# High freq. dielectric constant tensor:
#      x y z
#    x 2.069760 0.009800 0.003050 
#    y 0.009800 2.053700 -0.007450 
#    z 0.003050 -0.007450 2.043470 
# 
# From -- ./inp_files/46862.got.cif
#   From: 2010.06.25/outbox.cif.g09.slc.cpg/sg2_24_cif.got.tgz:46862.got - 2010.06.27 13:26:56.
