data_PCOD8019392
_publ_section_title
;
Structure prediction by ZEFSAII (Michael W. Deem and Ramdas Pophale) SiO2 
 PCOD8019392
Probable space group: P -1
;
_chemical_formula_sum "Si O2"
_cell_formula_units_Z 14
_cell_length_a 20.337324
_cell_length_b 10.891117
_cell_length_c 17.608039
_cell_angle_alpha 150.126282
_cell_angle_beta 160.314245
_cell_angle_gamma 38.730608
_cell_volume 638.848448
_symmetry_space_group_name_H-M "P -1"
_symmetry_group_IT_number 2
_symmetry_cell_setting 'triclinic'
loop_
_space_group_symop_operation_xyz
x,y,z
-x,-y,-z
loop_
_atom_site_type_symbol
_atom_site_label
_atom_site_fract_x
_atom_site_fract_y
_atom_site_fract_z
Si Si1 0.308387 0.046207 0.857024
Si Si2 0.893050 0.783501 0.660472
Si Si3 0.065672 0.878139 0.363420
Si Si4 0.660772 0.056380 0.442289
Si Si5 0.727958 0.055807 0.751424
Si Si6 0.230118 0.794243 0.787916
Si Si7 0.755881 0.470568 0.880468
O O1 0.141079 0.042388 0.608935
O O2 0.241595 0.822644 0.724750
O O3 0.354899 0.311942 0.095573
O O4 0.500000 0.000000 0.000000
O O5 0.820943 0.927643 0.589262
O O6 0.865198 0.493827 0.450737
O O7 0.763965 0.817670 0.613697
O O8 0.127880 0.901357 0.995239
O O9 0.245959 0.855302 0.491259
O O10 0.908241 0.023544 0.230975
O O11 0.963083 0.598237 0.131639
O O12 0.623613 0.293549 0.578377
O O13 0.449311 0.864445 0.101233
O O14 0.791194 0.306948 0.903670
O O15 0.500000 0.000000 0.500000
#
# Coordination Sequence:
#
# PCOD8019392 Si02
#       7
#     2   2   2   2   2   2   2
#     4  11  22  40  66  94 120 167 215 262 320 369
#     4  10  23  41  62  97 131 164 216 265 303 388
#     4  11  23  42  65  93 128 169 214 264 322 372
#     4  11  24  42  63  96 132 176 207 255 327 374
#     4  10  22  41  67  94 126 169 212 262 326 368
#     4  11  23  41  65  92 135 164 218 262 310 383
#     4  10  23  43  63  95 131 158 218 269 310 381
#
# _framework density 21.914429999999999
#
# number of rings (size 3 to 8) (size 9 to 14) (size 15 to 20)
#    0.000    1.429    1.429    4.286    2.000    6.286 
#    2.571    0.000    0.000    0.000    0.000    0.000 
#    0.000    0.000    0.000    0.000    0.000    0.000 
#
# Total GULP energy -173590.673316 kJ/mol
# GULP energy per Si atom -12399.333808 kJ/mol
# Density = 2.186455 g / cm^3
# Si number density = 21.914430 Si / 1000 Ang^3
#
#
#
# Elastic Constant Matrix: (Units=GPa)
#
#
# Indices 1 2 3 4 5 6 
#
# 1 74.2075 20.5285 39.5063 -0.5168 -12.1420 -3.4816
# 2 20.5285 81.9938 45.4334 8.3253 -3.0672 4.0726
# 3 39.5063 45.4334 130.2930 -10.9928 -5.6476 1.4953
# 4 -0.5168 8.3253 -10.9928 41.4580 -0.9905 2.3442
# 5 -12.1420 -3.0672 -5.6476 -0.9905 32.8832 -3.6217
# 6 -3.4816 4.0726 1.4953 2.3442 -3.6217 26.0703
#
#
#
# Elastic Compliance Matrix: (Units=1/GPa)
#
#
# Indices 1 2 3 4 5 6 
#
# 1 0.017523 -0.001763 -0.004544 -0.000704 0.005918 0.003762
# 2 -0.001763 0.016255 -0.005521 -0.004642 -0.000455 -0.002104
# 3 -0.004544 -0.005521 0.011323 0.004094 -0.000212 -0.000791
# 4 -0.000704 -0.004642 0.004094 0.026250 0.000594 -0.001882
# 5 0.005918 -0.000455 -0.000212 0.000594 0.033132 0.005423
# 6 0.003762 -0.002104 -0.000791 -0.001882 0.005423 0.040157
#
#
# Mechanical properties :
#
#
# Convention : Reuss Voigt Hill
#
# Bulk Modulus (GPa) = 46.63105 55.27008 50.95056
# Shear Modulus (GPa) = 28.49880 32.15071 30.32476
#
# Velocity S-wave (km/s) = 3.61010 3.83443 3.72396
# Velocity P-wave (km/s) = 6.22109 6.69921 6.46457
#
# Compressibility (1/GPa) = 0.02144494
#
# Stress axis : x y z
#
# Youngs Moduli (GPa) = 57.06890 61.51772 88.31285
#
# Poissons Ratio (x) = 0.10846 0.40132
# Poissons Ratio (y) = 0.10061 0.48757
# Poissons Ratio (z) = 0.25934 0.33964
#
# Static dielectric constant tensor:
#      x y z
#    x 3.960170 0.018770 -0.239880 
#    y 0.018770 3.926180 -0.078340 
#    z -0.239880 -0.078340 4.131010 
# 
# 
# High freq. dielectric constant tensor:
#      x y z
#    x 1.859700 -0.001430 -0.008580 
#    y -0.001430 1.860840 -0.004780 
#    z -0.008580 -0.004780 1.862660 
# 
# From -- ./inp_files/559745.got.cif
#   From: 2010.06.25/outbox.cif.g09.slc.cpg/sg2_280_cif.got.tgz:559745.got - 2010.06.27 13:26:56.
