data_PCOD8019814
_publ_section_title
;
Structure prediction by ZEFSAII (Michael W. Deem and Ramdas Pophale) SiO2 
 PCOD8019814
Probable space group: P -1
;
_chemical_formula_sum "Si O2"
_cell_formula_units_Z 16
_cell_length_a 14.358428
_cell_length_b 5.438484
_cell_length_c 9.040715
_cell_angle_alpha 81.211667
_cell_angle_beta 70.219587
_cell_angle_gamma 94.364640
_cell_volume 650.287930
_symmetry_space_group_name_H-M "P -1"
_symmetry_group_IT_number 2
_symmetry_cell_setting 'triclinic'
loop_
_space_group_symop_operation_xyz
x,y,z
-x,-y,-z
loop_
_atom_site_type_symbol
_atom_site_label
_atom_site_fract_x
_atom_site_fract_y
_atom_site_fract_z
Si Si1 0.601894 0.818677 0.322394
Si Si2 0.509991 0.307681 0.300988
Si Si3 0.886391 0.032320 0.556456
Si Si4 0.063817 0.279245 0.945982
Si Si5 0.403320 0.074713 0.122257
Si Si6 0.226662 0.300009 0.109614
Si Si7 0.795041 0.759832 0.373894
Si Si8 0.254846 0.628448 0.316145
O O1 0.573672 0.585638 0.244190
O O2 0.544988 0.751258 0.511171
O O3 0.720049 0.847858 0.285396
O O4 0.577339 0.085180 0.249292
O O5 0.433842 0.301690 0.203118
O O6 0.833295 0.808954 0.704283
O O7 0.845359 0.003509 0.413709
O O8 0.856735 0.291004 0.612471
O O9 0.000000 0.000000 0.500000
O O10 0.114971 0.345799 0.753429
O O11 0.154680 0.291650 0.011221
O O12 0.000000 0.500000 0.000000
O O13 0.000000 0.000000 0.000000
O O14 0.323435 0.158100 0.038036
O O15 0.346287 0.850331 0.274835
O O16 0.500000 0.000000 0.000000
O O17 0.266056 0.567865 0.139577
O O18 0.734445 0.565558 0.539072
#
# Coordination Sequence:
#
# PCOD8019814 Si02
#       8
#     2   2   2   2   2   2   2   2
#     4  10  23  40  68 102 140 185 234 302 355 423
#     4  10  23  41  67 102 141 185 240 290 359 421
#     4  10  22  41  74 103 140 183 252 307 369 435
#     4  12  31  51  76 109 155 195 241 304 385 452
#     4  11  26  45  73 100 150 195 251 304 367 440
#     4  10  25  46  71 107 143 195 246 303 374 446
#     4  11  26  43  73 105 143 188 245 305 364 441
#     4  10  24  44  74 104 141 188 255 302 366 437
#
# _framework density 24.604486000000001
#
# number of rings (size 3 to 8) (size 9 to 14) (size 15 to 20)
#    0.000    1.500    0.000    3.000   19.250    2.500 
#    0.000    0.000    0.000    0.000    0.000    0.000 
#    0.000    0.000    0.000    0.000    0.000    0.000 
#
# Total GULP energy -198282.716643 kJ/mol
# GULP energy per Si atom -12392.669790 kJ/mol
# Density = 2.454849 g / cm^3
# Si number density = 24.604486 Si / 1000 Ang^3
#
#
#
# Elastic Constant Matrix: (Units=GPa)
#
#
# Indices 1 2 3 4 5 6 
#
# 1 171.0743 60.4484 39.1579 12.1400 0.2280 -3.5119
# 2 60.4484 134.6097 31.9091 27.5646 0.3898 -4.2010
# 3 39.1579 31.9091 86.2300 13.5634 -4.6475 3.4985
# 4 12.1400 27.5646 13.5634 31.3475 -4.1457 1.5505
# 5 0.2280 0.3898 -4.6475 -4.1457 47.9159 13.2322
# 6 -3.5119 -4.2010 3.4985 1.5505 13.2322 41.3088
#
#
#
# Elastic Compliance Matrix: (Units=1/GPa)
#
#
# Indices 1 2 3 4 5 6 
#
# 1 0.007378 -0.002839 -0.002443 0.000615 -0.000373 0.000642
# 2 -0.002839 0.010767 -0.001590 -0.007950 -0.001395 0.001734
# 3 -0.002443 -0.001590 0.013996 -0.003400 0.001626 -0.001948
# 4 0.000615 -0.007950 -0.003400 0.040844 0.004189 -0.003343
# 5 -0.000373 -0.001395 0.001626 0.004189 0.023622 -0.008035
# 6 0.000642 0.001734 -0.001948 -0.003343 -0.008035 0.027303
#
#
# Mechanical properties :
#
#
# Convention : Reuss Voigt Hill
#
# Bulk Modulus (GPa) = 54.35538 72.77166 63.56352
# Shear Modulus (GPa) = 34.77413 41.47433 38.12423
#
# Velocity S-wave (km/s) = 3.76350 4.11011 3.94062
# Velocity P-wave (km/s) = 6.40506 7.22252 6.82604
#
# Compressibility (1/GPa) = 0.01839744
#
# Stress axis : x y z
#
# Youngs Moduli (GPa) = 135.54476 92.87819 71.44898
#
# Poissons Ratio (x) = 0.26366 0.17452
# Poissons Ratio (y) = 0.38479 0.11361
# Poissons Ratio (z) = 0.33108 0.14768
#
# Static dielectric constant tensor:
#      x y z
#    x 4.350270 -0.171070 -0.098590 
#    y -0.171070 4.455080 0.206920 
#    z -0.098590 0.206920 4.407880 
# 
# 
# High freq. dielectric constant tensor:
#      x y z
#    x 1.986540 -0.000130 -0.004910 
#    y -0.000130 1.973990 0.020630 
#    z -0.004910 0.020630 1.987440 
# 
# From -- ./inp_files/288796.got.cif
#   From: 2010.06.25/outbox.cif.g09.slc.cpg/sg2_145_cif.got.tgz:288796.got - 2010.06.27 13:26:56.
