data_PCOD8019609
_publ_section_title
;
Structure prediction by ZEFSAII (Michael W. Deem and Ramdas Pophale) SiO2 
 PCOD8019609
Probable space group: P -1
;
_chemical_formula_sum "Si O2"
_cell_formula_units_Z 16
_cell_length_a 8.836673
_cell_length_b 12.003737
_cell_length_c 8.956619
_cell_angle_alpha 76.413803
_cell_angle_beta 93.579248
_cell_angle_gamma 127.321066
_cell_volume 730.448592
_symmetry_space_group_name_H-M "P -1"
_symmetry_group_IT_number 2
_symmetry_cell_setting 'triclinic'
loop_
_space_group_symop_operation_xyz
x,y,z
-x,-y,-z
loop_
_atom_site_type_symbol
_atom_site_label
_atom_site_fract_x
_atom_site_fract_y
_atom_site_fract_z
Si Si1 0.328911 0.063372 0.137204
Si Si2 0.827711 0.878455 0.627071
Si Si3 0.140475 0.564888 0.346122
Si Si4 0.935635 0.247925 0.911381
Si Si5 0.980454 0.705094 0.758895
Si Si6 0.612989 0.064463 0.335637
Si Si7 0.580108 0.797921 0.369575
Si Si8 0.819396 0.840744 0.103059
O O1 0.180396 0.034044 0.266259
O O2 0.531237 0.124818 0.202676
O O3 0.243562 0.916612 0.086526
O O4 0.360001 0.189349 0.993080
O O5 0.854073 0.762241 0.728994
O O6 0.631788 0.793435 0.546313
O O7 0.000000 0.000000 0.500000
O O8 0.081659 0.648587 0.222769
O O9 0.128660 0.450042 0.273407
O O10 0.360976 0.661498 0.378410
O O11 0.000000 0.500000 0.500000
O O12 0.133856 0.271104 0.882973
O O13 0.944343 0.287446 0.072246
O O14 0.172189 0.809419 0.640536
O O15 0.500000 0.000000 0.500000
O O16 0.602008 0.941061 0.284153
O O17 0.746444 0.814234 0.276812
O O18 0.000000 0.000000 0.000000
#
# Coordination Sequence:
#
# PCOD8019609 Si02
#       8
#     2   2   2   2   2   2   2   2
#     4  11  22  38  71 106 140 171 232 295 356 411
#     4  12  23  41  72 107 143 176 236 299 349 415
#     4  12  30  50  70 100 145 195 239 289 350 426
#     4  11  24  47  70  98 144 185 231 294 353 423
#     4  12  27  46  71 101 144 191 232 290 356 416
#     4  12  22  39  69 106 138 180 238 297 349 410
#     4  12  25  44  72 104 141 189 234 287 358 415
#     4  10  22  41  69 107 136 175 226 291 354 410
#
# _framework density 21.904349
#
# number of rings (size 3 to 8) (size 9 to 14) (size 15 to 20)
#    0.000    0.500    5.000    4.125    5.250    1.500 
#    0.000    0.625    0.000    0.000    0.000    0.000 
#    0.000    0.000    0.000    0.000    0.000    0.000 
#
# Total GULP energy -198304.706205 kJ/mol
# GULP energy per Si atom -12394.044138 kJ/mol
# Density = 2.185449 g / cm^3
# Si number density = 21.904349 Si / 1000 Ang^3
#
#
#
# Elastic Constant Matrix: (Units=GPa)
#
#
# Indices 1 2 3 4 5 6 
#
# 1 107.6748 44.0166 26.0764 -0.4123 21.4759 -0.5469
# 2 44.0166 110.4261 32.3292 10.8138 8.4138 2.5385
# 3 26.0764 32.3292 102.1452 12.2248 9.9812 1.9806
# 4 -0.4123 10.8138 12.2248 27.8270 1.5961 -0.4813
# 5 21.4759 8.4138 9.9812 1.5961 48.8733 0.3094
# 6 -0.5469 2.5385 1.9806 -0.4813 0.3094 35.3911
#
#
#
# Elastic Compliance Matrix: (Units=1/GPa)
#
#
# Indices 1 2 3 4 5 6 
#
# 1 0.012401 -0.004408 -0.001698 0.002909 -0.004443 0.000681
# 2 -0.004408 0.011804 -0.002195 -0.003730 0.000480 -0.000847
# 3 -0.001698 -0.002195 0.011537 -0.004188 -0.001092 -0.000562
# 4 0.002909 -0.003730 -0.004188 0.039349 -0.001073 0.001091
# 5 -0.004443 0.000480 -0.001092 -0.001073 0.022590 -0.000254
# 6 0.000681 -0.000847 -0.000562 0.001091 -0.000254 0.028376
#
#
# Mechanical properties :
#
#
# Convention : Reuss Voigt Hill
#
# Bulk Modulus (GPa) = 52.24575 58.34339 55.29457
# Shear Modulus (GPa) = 33.54845 36.93986 35.24415
#
# Velocity S-wave (km/s) = 3.91780 4.11106 4.01559
# Velocity P-wave (km/s) = 6.66101 7.01625 6.84094
#
# Compressibility (1/GPa) = 0.01914031
#
# Stress axis : x y z
#
# Youngs Moduli (GPa) = 80.63734 84.71980 86.67906
#
# Poissons Ratio (x) = 0.37346 0.14718
# Poissons Ratio (y) = 0.35546 0.19023
# Poissons Ratio (z) = 0.13692 0.18593
#
# Static dielectric constant tensor:
#      x y z
#    x 4.916140 -0.163990 0.273110 
#    y -0.163990 3.772270 0.290340 
#    z 0.273110 0.290340 4.233500 
# 
# 
# High freq. dielectric constant tensor:
#      x y z
#    x 1.889300 -0.007370 0.008920 
#    y -0.007370 1.820720 0.022220 
#    z 0.008920 0.022220 1.876040 
# 
# From -- ./inp_files/186779.got.cif
#   From: 2010.06.25/outbox.cif.g09.slc.cpg/sg2_94_cif.got.tgz:186779.got - 2010.06.27 13:26:56.
