data_PCOD8019930
_publ_section_title
;
Structure prediction by ZEFSAII (Michael W. Deem and Ramdas Pophale) SiO2 
 PCOD8019930
Probable space group: P -1
;
_chemical_formula_sum "Si O2"
_cell_formula_units_Z 14
_cell_length_a 14.835488
_cell_length_b 8.443726
_cell_length_c 14.597814
_cell_angle_alpha 66.593119
_cell_angle_beta 151.009899
_cell_angle_gamma 95.029053
_cell_volume 660.121599
_symmetry_space_group_name_H-M "P -1"
_symmetry_group_IT_number 2
_symmetry_cell_setting 'triclinic'
loop_
_space_group_symop_operation_xyz
x,y,z
-x,-y,-z
loop_
_atom_site_type_symbol
_atom_site_label
_atom_site_fract_x
_atom_site_fract_y
_atom_site_fract_z
Si Si1 0.298672 0.577349 0.076689
Si Si2 0.890846 0.451019 0.260959
Si Si3 0.923651 0.044546 0.692517
Si Si4 0.503481 0.118241 0.388733
Si Si5 0.634140 0.671184 0.317009
Si Si6 0.683324 0.915108 0.953946
Si Si7 0.288633 0.593080 0.722853
O O1 0.316084 0.372927 0.178315
O O2 0.537487 0.553557 0.312387
O O3 0.265312 0.583838 0.935691
O O4 0.076953 0.793510 0.867790
O O5 0.119255 0.384086 0.423410
O O6 0.073189 0.666073 0.582976
O O7 0.743840 0.698580 0.098616
O O8 0.747849 0.079743 0.605861
O O9 0.780628 0.195539 0.442904
O O10 0.081738 0.112172 0.855670
O O11 0.500000 0.000000 0.500000
O O12 0.458697 0.025930 0.280135
O O13 0.450844 0.918449 0.120925
O O14 0.660060 0.600820 0.250713
O O15 0.500000 0.500000 0.000000
#
# Coordination Sequence:
#
# PCOD8019930 Si02
#       7
#     2   2   2   2   2   2   2
#     4  10  22  42  63  88 127 163 198 253 312 360
#     4  11  21  38  59  89 125 166 207 246 289 353
#     4  11  23  43  61  89 130 163 201 254 310 359
#     4  11  23  44  69  93 118 152 205 263 312 375
#     4  11  21  40  59  87 127 164 202 247 296 357
#     4  10  23  41  63  91 123 164 200 249 313 363
#     4  12  22  39  62  90 129 168 212 250 290 352
#
# _framework density 21.208212
#
# number of rings (size 3 to 8) (size 9 to 14) (size 15 to 20)
#    0.000    1.143    4.286    2.143    0.000    2.286 
#    2.571    2.857    0.000    0.000    0.000    0.000 
#    0.000    0.000    0.000    0.000    0.000    0.000 
#
# Total GULP energy -173455.771576 kJ/mol
# GULP energy per Si atom -12389.697970 kJ/mol
# Density = 2.115994 g / cm^3
# Si number density = 21.208212 Si / 1000 Ang^3
#
#
#
# Elastic Constant Matrix: (Units=GPa)
#
#
# Indices 1 2 3 4 5 6 
#
# 1 111.6580 19.1048 39.4207 -14.8170 1.1823 19.4527
# 2 19.1048 67.6887 18.8382 -3.6278 8.7502 4.2280
# 3 39.4207 18.8382 83.1534 1.0801 14.3094 7.6504
# 4 -14.8170 -3.6278 1.0801 26.7226 5.0389 3.6127
# 5 1.1823 8.7502 14.3094 5.0389 24.0230 -0.2624
# 6 19.4527 4.2280 7.6504 3.6127 -0.2624 22.4620
#
#
#
# Elastic Compliance Matrix: (Units=1/GPa)
#
#
# Indices 1 2 3 4 5 6 
#
# 1 0.014570 -0.001386 -0.005816 0.009522 0.001125 -0.011895
# 2 -0.001386 0.016701 -0.002074 0.002837 -0.005394 -0.001757
# 3 -0.005816 -0.002074 0.016723 -0.002611 -0.008371 0.000054
# 4 0.009522 0.002837 -0.002611 0.047189 -0.010015 -0.015597
# 5 0.001125 -0.005394 -0.008371 -0.010015 0.050679 0.005095
# 6 -0.011895 -0.001757 0.000054 -0.015597 0.005095 0.057701
#
#
# Mechanical properties :
#
#
# Convention : Reuss Voigt Hill
#
# Bulk Modulus (GPa) = 33.96477 46.35862 40.16169
# Shear Modulus (GPa) = 21.55839 26.98395 24.27117
#
# Velocity S-wave (km/s) = 3.19174 3.57085 3.38660
# Velocity P-wave (km/s) = 5.44358 6.23759 5.85406
#
# Compressibility (1/GPa) = 0.02944227
#
# Stress axis : x y z
#
# Youngs Moduli (GPa) = 68.63228 59.87723 59.79942
#
# Poissons Ratio (x) = 0.08298 0.34782
# Poissons Ratio (y) = 0.09511 0.12400
# Poissons Ratio (z) = 0.39919 0.12416
#
# Static dielectric constant tensor:
#      x y z
#    x 3.637490 0.091090 0.318460 
#    y 0.091090 4.201240 0.104440 
#    z 0.318460 0.104440 3.938840 
# 
# 
# High freq. dielectric constant tensor:
#      x y z
#    x 1.801140 0.009370 0.031480 
#    y 0.009370 1.850490 0.005270 
#    z 0.031480 0.005270 1.828050 
# 
# From -- ./inp_files/215043.got.cif
#   From: 2010.06.25/outbox.cif.g09.slc.cpg/sg2_108_cif.got.tgz:215043.got - 2010.06.27 13:26:56.
