data_PCOD8019284
_publ_section_title
;
Structure prediction by ZEFSAII (Michael W. Deem and Ramdas Pophale) SiO2 
 PCOD8019284
Probable space group: P -1
;
_chemical_formula_sum "Si O2"
_cell_formula_units_Z 14
_cell_length_a 5.111350
_cell_length_b 17.526007
_cell_length_c 16.538764
_cell_angle_alpha 147.222868
_cell_angle_beta 49.464605
_cell_angle_gamma 119.995974
_cell_volume 605.679336
_symmetry_space_group_name_H-M "P -1"
_symmetry_group_IT_number 2
_symmetry_cell_setting 'triclinic'
loop_
_space_group_symop_operation_xyz
x,y,z
-x,-y,-z
loop_
_atom_site_type_symbol
_atom_site_label
_atom_site_fract_x
_atom_site_fract_y
_atom_site_fract_z
Si Si1 0.580007 0.631146 0.920861
Si Si2 0.754421 0.362588 0.307184
Si Si3 0.783980 0.814774 0.822386
Si Si4 0.236247 0.923015 0.691659
Si Si5 0.576197 0.334447 0.843805
Si Si6 0.663134 0.090789 0.863252
Si Si7 0.638307 0.680139 0.298947
O O1 0.401181 0.486266 0.830492
O O2 0.968410 0.599492 0.781373
O O3 0.591860 0.705414 0.072974
O O4 0.348401 0.743149 0.010201
O O5 0.500000 0.500000 0.500000
O O6 0.537906 0.245279 0.209615
O O7 0.943621 0.308588 0.303956
O O8 0.970548 0.902975 0.798599
O O9 0.623039 0.920880 0.019213
O O10 0.357481 0.771585 0.492182
O O11 0.561478 0.995477 0.723943
O O12 0.046119 0.030416 0.760003
O O13 0.411137 0.268565 0.739036
O O14 0.986465 0.287482 0.719299
O O15 0.500000 0.500000 0.000000
#
# Coordination Sequence:
#
# PCOD8019284 Si02
#       7
#     2   2   2   2   2   2   2
#     4  10  23  43  67  92 127 165 208 262 310 373
#     4  11  23  38  62 100 130 160 206 262 316 361
#     4  11  23  40  62  90 128 174 210 244 306 391
#     4  12  24  43  64  93 131 167 208 262 310 367
#     4  10  22  41  66  94 122 164 213 256 312 379
#     4  11  24  41  64  94 126 170 210 251 315 378
#     4  11  24  42  67  95 122 164 215 261 312 369
#
# _framework density 23.114540999999999
#
# number of rings (size 3 to 8) (size 9 to 14) (size 15 to 20)
#    0.000    1.143    0.000    7.286    0.000   13.714 
#    0.000    4.286    0.000    0.000    0.000    0.000 
#    0.000    0.000    0.000    0.000    0.000    0.000 
#
# Total GULP energy -173624.822269 kJ/mol
# GULP energy per Si atom -12401.773019 kJ/mol
# Density = 2.306193 g / cm^3
# Si number density = 23.114541 Si / 1000 Ang^3
#
#
#
# Elastic Constant Matrix: (Units=GPa)
#
#
# Indices 1 2 3 4 5 6 
#
# 1 126.1911 25.8040 35.1774 1.0386 -10.7606 -14.7105
# 2 25.8040 74.7417 31.1485 -6.4767 -5.6945 -15.6735
# 3 35.1774 31.1485 108.2792 1.8244 -1.6975 -17.1918
# 4 1.0386 -6.4767 1.8244 26.6254 0.2926 1.8828
# 5 -10.7606 -5.6945 -1.6975 0.2926 38.0683 1.3829
# 6 -14.7105 -15.6735 -17.1918 1.8828 1.3829 30.0475
#
#
#
# Elastic Compliance Matrix: (Units=1/GPa)
#
#
# Indices 1 2 3 4 5 6 
#
# 1 0.009344 -0.001750 -0.002101 -0.000841 0.002205 0.002411
# 2 -0.001750 0.017120 -0.003486 0.004047 0.001671 0.005749
# 3 -0.002101 -0.003486 0.011562 -0.001827 -0.000728 0.003916
# 4 -0.000841 0.004047 -0.001827 0.038826 0.000052 -0.001781
# 5 0.002205 0.001671 -0.000728 0.000052 0.027098 0.000284
# 6 0.002411 0.005749 0.003916 -0.001781 0.000284 0.039799
#
#
# Mechanical properties :
#
#
# Convention : Reuss Voigt Hill
#
# Bulk Modulus (GPa) = 42.82074 54.83020 48.82547
# Shear Modulus (GPa) = 30.08333 33.42039 31.75186
#
# Velocity S-wave (km/s) = 3.61153 3.80657 3.71033
# Velocity P-wave (km/s) = 5.99638 6.56449 6.28686
#
# Compressibility (1/GPa) = 0.02335317
#
# Stress axis : x y z
#
# Youngs Moduli (GPa) = 107.02212 58.41275 86.49206
#
# Poissons Ratio (x) = 0.10221 0.18170
# Poissons Ratio (y) = 0.18726 0.30147
# Poissons Ratio (z) = 0.22482 0.20360
#
# Static dielectric constant tensor:
#      x y z
#    x 4.830080 -0.624930 0.413910 
#    y -0.624930 4.482590 -0.657030 
#    z 0.413910 -0.657030 4.703360 
# 
# 
# High freq. dielectric constant tensor:
#      x y z
#    x 1.931090 -0.012250 -0.004070 
#    y -0.012250 1.901790 -0.007730 
#    z -0.004070 -0.007730 1.912750 
# 
# From -- ./inp_files/532090.got.cif
#   From: 2010.06.25/outbox.cif.g09.slc.cpg/sg2_267_cif.got.tgz:532090.got - 2010.06.27 13:26:56.
