data_PCOD8019931
_publ_section_title
;
Structure prediction by ZEFSAII (Michael W. Deem and Ramdas Pophale) SiO2 
 PCOD8019931
Probable space group: P -1
;
_chemical_formula_sum "Si O2"
_cell_formula_units_Z 12
_cell_length_a 16.910064
_cell_length_b 4.709573
_cell_length_c 7.228151
_cell_angle_alpha 71.493535
_cell_angle_beta 115.444151
_cell_angle_gamma 120.396578
_cell_volume 444.645584
_symmetry_space_group_name_H-M "P -1"
_symmetry_group_IT_number 2
_symmetry_cell_setting 'triclinic'
loop_
_space_group_symop_operation_xyz
x,y,z
-x,-y,-z
loop_
_atom_site_type_symbol
_atom_site_label
_atom_site_fract_x
_atom_site_fract_y
_atom_site_fract_z
Si Si1 0.115032 0.270309 0.876674
Si Si2 0.582216 0.514691 0.367043
Si Si3 0.302593 0.596034 0.806548
Si Si4 0.549457 0.160570 0.769993
Si Si5 0.145081 0.789347 0.522550
Si Si6 0.916684 0.684804 0.755044
O O1 0.134089 0.399010 0.079639
O O2 0.216075 0.290544 0.890847
O O3 0.083944 0.520333 0.674218
O O4 0.032055 0.896997 0.853393
O O5 0.667951 0.576975 0.296062
O O6 0.609077 0.424975 0.615837
O O7 0.553700 0.823032 0.291335
O O8 0.481596 0.210681 0.258360
O O9 0.258831 0.851396 0.634850
O O10 0.389733 0.788591 0.994479
O O11 0.103384 0.653422 0.302567
O O12 0.868524 0.874628 0.537940
#
# Coordination Sequence:
#
# PCOD8019931 Si02
#       6
#     2   2   2   2   2   2
#     4   9  24  41  68  95 127 174 214 261 313 374
#     4  10  22  42  64  87 124 165 200 260 318 372
#     4  10  23  40  63 100 120 166 210 266 303 379
#     4  10  22  42  63  89 123 162 206 253 321 377
#     4  10  25  39  67  92 130 168 215 261 316 369
#     4  11  22  47  61  94 133 174 209 259 319 376
#
# _framework density 26.987787999999998
#
# number of rings (size 3 to 8) (size 9 to 14) (size 15 to 20)
#    1.000    1.000    0.000    2.000    2.333    6.667 
#    6.000    0.000    0.000    0.000    0.000    0.000 
#    0.000    0.000    0.000    0.000    0.000    0.000 
#
# Total GULP energy -148836.059956 kJ/mol
# GULP energy per Si atom -12403.004996 kJ/mol
# Density = 2.692636 g / cm^3
# Si number density = 26.987788 Si / 1000 Ang^3
#
#
#
# Elastic Constant Matrix: (Units=GPa)
#
#
# Indices 1 2 3 4 5 6 
#
# 1 113.4196 1.6217 15.3257 -8.1726 -21.7470 15.1948
# 2 1.6217 32.0728 8.0369 -1.9573 -4.5667 -18.7852
# 3 15.3257 8.0369 95.4447 -13.1288 -16.1091 0.7055
# 4 -8.1726 -1.9573 -13.1288 22.1182 8.7284 -13.5017
# 5 -21.7470 -4.5667 -16.1091 8.7284 48.1054 -4.1935
# 6 15.1948 -18.7852 0.7055 -13.5017 -4.1935 25.9859
#
#
#
# Elastic Compliance Matrix: (Units=1/GPa)
#
#
# Indices 1 2 3 4 5 6 
#
# 1 0.012415 -0.015562 -0.001906 -0.015197 0.004013 -0.025706
# 2 -0.015562 0.128039 0.004958 0.102506 0.001698 0.155058
# 3 -0.001906 0.004958 0.012521 0.013352 0.002398 0.011683
# 4 -0.015197 0.102506 0.013352 0.159928 -0.007343 0.164535
# 5 0.004013 0.001698 0.002398 -0.007343 0.024812 -0.000996
# 6 -0.025706 0.155058 0.011683 0.164535 -0.000996 0.250616
#
#
# Mechanical properties :
#
#
# Convention : Reuss Voigt Hill
#
# Bulk Modulus (GPa) = 7.81527 32.32286 20.06907
# Shear Modulus (GPa) = 7.62191 33.63875 20.63033
#
# Velocity S-wave (km/s) = 1.68236 3.53433 2.76784
# Velocity P-wave (km/s) = 2.58378 5.35333 4.20322
#
# Compressibility (1/GPa) = 0.12795457
#
# Stress axis : x y z
#
# Youngs Moduli (GPa) = 80.54642 7.81011 79.86711
#
# Poissons Ratio (x) = 0.12154 0.15224
# Poissons Ratio (y) = 1.25347 -0.39597
# Poissons Ratio (z) = 0.15353 -0.03872
#
# Static dielectric constant tensor:
#      x y z
#    x 4.748250 0.070640 -0.212010 
#    y 0.070640 4.395740 -0.109930 
#    z -0.212010 -0.109930 4.820210 
# 
# 
# High freq. dielectric constant tensor:
#      x y z
#    x 2.084800 0.003860 -0.013280 
#    y 0.003860 2.073740 0.000520 
#    z -0.013280 0.000520 2.097200 
# 
# From -- ./inp_files/321874.got.cif
#   From: 2010.06.25/outbox.cif.g09.slc.cpg/sg2_161_cif.got.tgz:321874.got - 2010.06.27 13:26:56.
