data_PCOD8019565
_publ_section_title
;
Structure prediction by ZEFSAII (Michael W. Deem and Ramdas Pophale) SiO2 
 PCOD8019565
Probable space group: P -1
;
_chemical_formula_sum "Si O2"
_cell_formula_units_Z 16
_cell_length_a 10.471500
_cell_length_b 8.238291
_cell_length_c 21.750407
_cell_angle_alpha 147.421947
_cell_angle_beta 133.047282
_cell_angle_gamma 57.267028
_cell_volume 735.490176
_symmetry_space_group_name_H-M "P -1"
_symmetry_group_IT_number 2
_symmetry_cell_setting 'triclinic'
loop_
_space_group_symop_operation_xyz
x,y,z
-x,-y,-z
loop_
_atom_site_type_symbol
_atom_site_label
_atom_site_fract_x
_atom_site_fract_y
_atom_site_fract_z
Si Si1 0.821841 0.312856 0.402470
Si Si2 0.490937 0.510377 0.300842
Si Si3 0.659075 0.819732 0.972118
Si Si4 0.981191 0.735098 0.251966
Si Si5 0.330431 0.860379 0.454686
Si Si6 0.022041 0.161443 0.168453
Si Si7 0.294159 0.530256 0.451649
Si Si8 0.125631 0.543327 0.997202
O O1 0.672761 0.358242 0.317275
O O2 0.751212 0.416442 0.476719
O O3 0.000000 0.500000 0.500000
O O4 0.838724 0.953156 0.299083
O O5 0.372558 0.327350 0.152857
O O6 0.395960 0.543869 0.346787
O O7 0.520720 0.864357 0.404357
O O8 0.686920 0.555836 0.947815
O O9 0.500000 0.000000 0.000000
O O10 0.833270 0.049960 0.099533
O O11 0.941929 0.675834 0.149338
O O12 0.168158 0.936886 0.382683
O O13 0.988316 0.427574 0.194868
O O14 0.256558 0.806009 0.482016
O O15 0.158209 0.252611 0.297053
O O16 0.117743 0.887446 0.080006
O O17 0.500000 0.500000 0.500000
O O18 0.000000 0.500000 0.000000
#
# Coordination Sequence:
#
# PCOD8019565 Si02
#       8
#     2   2   2   2   2   2   2   2
#     4  12  26  43  72 102 141 181 222 299 351 413
#     4  11  23  41  67  98 141 176 234 274 346 405
#     4  11  25  42  65 101 138 184 225 282 341 411
#     4  11  23  44  66 100 135 174 232 285 357 389
#     4  10  22  41  68  98 132 179 226 294 327 419
#     4  10  25  44  69  98 137 181 230 284 335 415
#     4  11  25  45  71 102 137 178 239 278 355 411
#     4  10  22  41  70  94 130 183 231 274 327 415
#
# _framework density 21.754200999999998
#
# number of rings (size 3 to 8) (size 9 to 14) (size 15 to 20)
#    0.000    1.250    2.500    2.625    7.000    4.000 
#    0.000    1.250    0.000    0.000    0.000    0.000 
#    0.000    0.000    0.000    0.000    0.000    0.000 
#
# Total GULP energy -198239.341747 kJ/mol
# GULP energy per Si atom -12389.958859 kJ/mol
# Density = 2.170469 g / cm^3
# Si number density = 21.754201 Si / 1000 Ang^3
#
#
#
# Elastic Constant Matrix: (Units=GPa)
#
#
# Indices 1 2 3 4 5 6 
#
# 1 110.8986 44.1423 52.2616 -7.6697 -6.3530 -8.2699
# 2 44.1423 140.4332 46.1912 -4.1647 -4.7829 -18.4917
# 3 52.2616 46.1912 129.6081 -17.5660 -1.3957 -4.2731
# 4 -7.6697 -4.1647 -17.5660 40.1332 -2.4683 -2.0188
# 5 -6.3530 -4.7829 -1.3957 -2.4683 32.0548 -4.1979
# 6 -8.2699 -18.4917 -4.2731 -2.0188 -4.1979 38.5381
#
#
#
# Elastic Compliance Matrix: (Units=1/GPa)
#
#
# Indices 1 2 3 4 5 6 
#
# 1 0.012000 -0.002225 -0.003905 0.000549 0.002093 0.001331
# 2 -0.002225 0.009088 -0.002229 -0.000188 0.001297 0.003768
# 3 -0.003905 -0.002229 0.010545 0.003580 -0.000450 -0.000600
# 4 0.000549 -0.000188 0.003580 0.026834 0.002579 0.002111
# 5 0.002093 0.001297 -0.000450 0.002579 0.032600 0.004708
# 6 0.001331 0.003768 -0.000600 0.002111 0.004708 0.028599
#
#
# Mechanical properties :
#
#
# Convention : Reuss Voigt Hill
#
# Bulk Modulus (GPa) = 67.04446 74.01447 70.52946
# Shear Modulus (GPa) = 35.37152 38.03489 36.70320
#
# Velocity S-wave (km/s) = 4.03670 4.18591 4.11198
# Velocity P-wave (km/s) = 7.25345 7.58020 7.41863
#
# Compressibility (1/GPa) = 0.01491548
#
# Stress axis : x y z
#
# Youngs Moduli (GPa) = 83.33173 110.03518 94.82913
#
# Poissons Ratio (x) = 0.24479 0.37032
# Poissons Ratio (y) = 0.18539 0.21139
# Poissons Ratio (z) = 0.32542 0.24529
#
# Static dielectric constant tensor:
#      x y z
#    x 3.867080 -0.134160 -0.016290 
#    y -0.134160 4.470470 -0.131050 
#    z -0.016290 -0.131050 4.031390 
# 
# 
# High freq. dielectric constant tensor:
#      x y z
#    x 1.840250 -0.006770 -0.004420 
#    y -0.006770 1.872890 -0.011650 
#    z -0.004420 -0.011650 1.859050 
# 
# From -- ./inp_files/609968.got.cif
#   From: 2010.06.25/outbox.cif.g09.slc.cpg/sg2_305_cif.got.tgz:609968.got - 2010.06.27 13:26:56.
