data_PCOD8019966
_publ_section_title
;
Structure prediction by ZEFSAII (Michael W. Deem and Ramdas Pophale) SiO2 
 PCOD8019966
Probable space group: P -1
;
_chemical_formula_sum "Si O2"
_cell_formula_units_Z 14
_cell_length_a 10.964496
_cell_length_b 14.374771
_cell_length_c 17.203442
_cell_angle_alpha 30.631997
_cell_angle_beta 29.383126
_cell_angle_gamma 30.578808
_cell_volume 607.154479
_symmetry_space_group_name_H-M "P -1"
_symmetry_group_IT_number 2
_symmetry_cell_setting 'triclinic'
loop_
_space_group_symop_operation_xyz
x,y,z
-x,-y,-z
loop_
_atom_site_type_symbol
_atom_site_label
_atom_site_fract_x
_atom_site_fract_y
_atom_site_fract_z
Si Si1 0.641385 0.699948 0.978458
Si Si2 0.236399 0.736347 0.444145
Si Si3 0.738470 0.513432 0.212592
Si Si4 0.229328 0.868575 0.626398
Si Si5 0.551939 0.389983 0.165475
Si Si6 0.496106 0.120328 0.679678
Si Si7 0.930404 0.473278 0.778112
O O1 0.952760 0.551240 0.880535
O O2 0.518126 0.928432 0.853456
O O3 0.641966 0.704178 0.069190
O O4 0.453287 0.597777 0.121508
O O5 0.522846 0.582755 0.353961
O O6 0.305710 0.792616 0.451063
O O7 0.038071 0.626851 0.645740
O O8 0.079692 0.944829 0.331742
O O9 0.754963 0.328766 0.283643
O O10 0.344390 0.808162 0.693276
O O11 0.409181 0.943111 0.416515
O O12 0.291375 0.397658 0.257347
O O13 0.797055 0.374476 0.983261
O O14 0.181027 0.286886 0.731785
#
# Coordination Sequence:
#
# PCOD8019966 Si02
#       7
#     2   2   2   2   2   2   2
#     4  10  22  42  66  95 141 167 219 274 326 397
#     4  12  24  41  70 101 135 169 221 277 332 392
#     4  10  22  42  64 104 131 174 212 276 336 378
#     4  11  24  42  67 103 131 168 224 271 334 385
#     4  10  25  47  64  93 135 182 220 269 326 399
#     4  12  24  40  69 103 130 174 220 277 334 385
#     4  11  25  44  68  94 134 181 221 268 332 391
#
# _framework density 23.058382999999999
#
# number of rings (size 3 to 8) (size 9 to 14) (size 15 to 20)
#    0.000    1.143    2.857    2.571    4.000    2.286 
#    0.000    0.000    0.000    0.000    0.000    0.000 
#    0.000    0.000    0.000    0.000    0.000    0.000 
#
# Total GULP energy -173555.495887 kJ/mol
# GULP energy per Si atom -12396.821135 kJ/mol
# Density = 2.300590 g / cm^3
# Si number density = 23.058383 Si / 1000 Ang^3
#
#
#
# Elastic Constant Matrix: (Units=GPa)
#
#
# Indices 1 2 3 4 5 6 
#
# 1 97.4480 21.0253 37.7030 10.3199 13.8135 -20.7542
# 2 21.0253 85.2217 18.9865 -1.3076 4.6115 -14.7309
# 3 37.7030 18.9865 84.7740 3.5910 15.4746 -11.9706
# 4 10.3199 -1.3076 3.5910 32.6919 -6.8875 6.1656
# 5 13.8135 4.6115 15.4746 -6.8875 41.9349 -4.4152
# 6 -20.7542 -14.7309 -11.9706 6.1656 -4.4152 29.8870
#
#
#
# Elastic Compliance Matrix: (Units=1/GPa)
#
#
# Indices 1 2 3 4 5 6 
#
# 1 0.015400 -0.001140 -0.004348 -0.006921 -0.003500 0.009302
# 2 -0.001140 0.013277 -0.001789 0.000168 0.000132 0.005021
# 3 -0.004348 -0.001789 0.015206 -0.001582 -0.004040 0.001919
# 4 -0.006921 0.000168 -0.001582 0.036793 0.007644 -0.011818
# 5 -0.003500 0.000132 -0.004040 0.007644 0.027575 -0.001487
# 6 0.009302 0.005021 0.001919 -0.011818 -0.001487 0.045380
#
#
# Mechanical properties :
#
#
# Convention : Reuss Voigt Hill
#
# Bulk Modulus (GPa) = 34.09529 46.98593 40.54061
# Shear Modulus (GPa) = 28.09579 33.55134 30.82357
#
# Velocity S-wave (km/s) = 3.49444 3.81866 3.66014
# Velocity P-wave (km/s) = 5.57674 6.31380 5.95668
#
# Compressibility (1/GPa) = 0.02932956
#
# Stress axis : x y z
#
# Youngs Moduli (GPa) = 64.93330 75.31722 65.76312
#
# Poissons Ratio (x) = 0.08583 0.28597
# Poissons Ratio (y) = 0.07400 0.11765
# Poissons Ratio (z) = 0.28236 0.13474
#
# Static dielectric constant tensor:
#      x y z
#    x 4.290580 -0.123200 0.293040 
#    y -0.123200 4.062070 -0.120970 
#    z 0.293040 -0.120970 4.391720 
# 
# 
# High freq. dielectric constant tensor:
#      x y z
#    x 1.908210 -0.009990 0.023520 
#    y -0.009990 1.904710 -0.011900 
#    z 0.023520 -0.011900 1.917260 
# 
# From -- ./inp_files/569687.got.cif
#   From: 2010.06.25/outbox.cif.g09.slc.cpg/sg2_285_cif.got.tgz:569687.got - 2010.06.27 13:26:56.
