data_PCOD8019804
_publ_section_title
;
Structure prediction by ZEFSAII (Michael W. Deem and Ramdas Pophale) SiO2 
 PCOD8019804
Probable space group: P -1
;
_chemical_formula_sum "Si O2"
_cell_formula_units_Z 14
_cell_length_a 14.368998
_cell_length_b 15.302497
_cell_length_c 10.066377
_cell_angle_alpha 44.729956
_cell_angle_beta 62.477388
_cell_angle_gamma 28.014126
_cell_volume 633.857353
_symmetry_space_group_name_H-M "P -1"
_symmetry_group_IT_number 2
_symmetry_cell_setting 'triclinic'
loop_
_space_group_symop_operation_xyz
x,y,z
-x,-y,-z
loop_
_atom_site_type_symbol
_atom_site_label
_atom_site_fract_x
_atom_site_fract_y
_atom_site_fract_z
Si Si1 0.634812 0.447324 0.217391
Si Si2 0.257285 0.255686 0.319322
Si Si3 0.862782 0.021437 0.106602
Si Si4 0.113228 0.032897 0.315895
Si Si5 0.133521 0.185242 0.898682
Si Si6 0.026936 0.247011 0.425446
Si Si7 0.610582 0.737487 0.030965
O O1 0.686201 0.279444 0.464410
O O2 0.573094 0.631262 0.145246
O O3 0.408923 0.658723 0.048736
O O4 0.870951 0.225363 0.219333
O O5 0.086537 0.498084 0.275011
O O6 0.204761 0.167426 0.426360
O O7 0.500000 0.000000 0.500000
O O8 0.258870 0.329594 0.101256
O O9 0.913194 0.856482 0.149149
O O10 0.953757 0.881853 0.340229
O O11 0.000000 0.000000 0.000000
O O12 0.078384 0.135961 0.368116
O O13 0.196556 0.041204 0.143259
O O14 0.347455 0.057239 0.877133
O O15 0.772189 0.577235 0.228094
#
# Coordination Sequence:
#
# PCOD8019804 Si02
#       7
#     2   2   2   2   2   2   2
#     4   9  20  41  64  95 134 176 215 268 338 390
#     4  12  25  46  72  95 139 179 221 279 339 397
#     4  11  27  41  65 103 145 167 222 280 336 399
#     4  10  22  41  73  92 132 181 229 266 337 400
#     4  11  25  45  69  99 132 182 224 272 342 397
#     4  11  25  44  66 100 136 179 225 282 325 394
#     4  10  23  43  70 100 134 171 231 276 326 398
#
# _framework density 22.086988999999999
#
# number of rings (size 3 to 8) (size 9 to 14) (size 15 to 20)
#    0.000    1.429    2.857    2.143    8.000    5.714 
#    0.000    0.000    0.000    0.000    0.000    0.000 
#    0.000    0.000    0.000    0.000    0.000    0.000 
#
# Total GULP energy -173537.049538 kJ/mol
# GULP energy per Si atom -12395.503538 kJ/mol
# Density = 2.203672 g / cm^3
# Si number density = 22.086989 Si / 1000 Ang^3
#
#
#
# Elastic Constant Matrix: (Units=GPa)
#
#
# Indices 1 2 3 4 5 6 
#
# 1 91.2763 15.2355 30.3829 -1.7440 1.6731 -28.9014
# 2 15.2355 84.7926 33.8805 -9.9670 4.2804 -17.6355
# 3 30.3829 33.8805 118.0856 -11.0115 15.9114 -8.4373
# 4 -1.7440 -9.9670 -11.0115 43.5816 -3.6699 11.2205
# 5 1.6731 4.2804 15.9114 -3.6699 35.0607 -11.6240
# 6 -28.9014 -17.6355 -8.4373 11.2205 -11.6240 25.9467
#
#
#
# Elastic Compliance Matrix: (Units=1/GPa)
#
#
# Indices 1 2 3 4 5 6 
#
# 1 0.023848 0.004670 -0.007362 -0.008193 0.012937 0.036683
# 2 0.004670 0.016437 -0.005604 -0.001583 0.006106 0.017971
# 3 -0.007362 -0.005604 0.012581 0.004405 -0.008773 -0.013753
# 4 -0.008193 -0.001583 0.004405 0.029061 -0.006397 -0.024202
# 5 0.012937 0.006106 -0.008773 -0.006397 0.042980 0.037729
# 6 0.036683 0.017971 -0.013753 -0.024202 0.037729 0.114512
#
#
# Mechanical properties :
#
#
# Convention : Reuss Voigt Hill
#
# Bulk Modulus (GPa) = 27.56803 50.35026 38.95915
# Shear Modulus (GPa) = 18.64961 35.22816 26.93889
#
# Velocity S-wave (km/s) = 2.90896 3.99804 3.49617
# Velocity P-wave (km/s) = 4.87764 6.64517 5.82879
#
# Compressibility (1/GPa) = 0.03627390
#
# Stress axis : x y z
#
# Youngs Moduli (GPa) = 41.93165 60.83826 79.48713
#
# Poissons Ratio (x) = -0.28411 0.58520
# Poissons Ratio (y) = -0.19582 0.44544
# Poissons Ratio (z) = 0.30871 0.34093
#
# Static dielectric constant tensor:
#      x y z
#    x 4.275330 -0.402500 0.099810 
#    y -0.402500 4.239200 -0.215130 
#    z 0.099810 -0.215130 4.327350 
# 
# 
# High freq. dielectric constant tensor:
#      x y z
#    x 1.867950 -0.014960 -0.001680 
#    y -0.014960 1.862060 -0.013580 
#    z -0.001680 -0.013580 1.881370 
# 
# From -- ./inp_files/314615.got.cif
#   From: 2010.06.25/outbox.cif.g09.slc.cpg/sg2_158_cif.got.tgz:314615.got - 2010.06.27 13:26:56.
