data_PCOD8019478
_publ_section_title
;
Structure prediction by ZEFSAII (Michael W. Deem and Ramdas Pophale) SiO2 
 PCOD8019478
Probable space group: P -1
;
_chemical_formula_sum "Si O2"
_cell_formula_units_Z 14
_cell_length_a 13.212830
_cell_length_b 10.650012
_cell_length_c 14.108496
_cell_angle_alpha 118.896616
_cell_angle_beta 139.589283
_cell_angle_gamma 31.963038
_cell_volume 599.811615
_symmetry_space_group_name_H-M "P -1"
_symmetry_group_IT_number 2
_symmetry_cell_setting 'triclinic'
loop_
_space_group_symop_operation_xyz
x,y,z
-x,-y,-z
loop_
_atom_site_type_symbol
_atom_site_label
_atom_site_fract_x
_atom_site_fract_y
_atom_site_fract_z
Si Si1 0.583009 0.686989 0.870030
Si Si2 0.872690 0.995041 0.486210
Si Si3 0.914892 0.493143 0.780280
Si Si4 0.982041 0.422947 0.586865
Si Si5 0.062265 0.075642 0.786836
Si Si6 0.977132 0.889679 0.015284
Si Si7 0.476316 0.072767 0.672324
O O1 0.435752 0.822334 0.710445
O O2 0.705450 0.430451 0.868208
O O3 0.359940 0.873887 0.867193
O O4 0.843881 0.600599 0.026063
O O5 0.866549 0.095437 0.613846
O O6 0.000000 0.000000 0.500000
O O7 0.072068 0.697404 0.535716
O O8 0.042329 0.368804 0.721095
O O9 0.877463 0.368344 0.759458
O O10 0.591936 0.818044 0.660138
O O11 0.707419 0.740738 0.484531
O O12 0.271839 0.262329 0.686150
O O13 0.133073 0.978877 0.910622
O O14 0.760244 0.948270 0.832887
O O15 0.000000 0.000000 0.000000
#
# Coordination Sequence:
#
# PCOD8019478 Si02
#       7
#     2   2   2   2   2   2   2
#     4  10  23  42  68 102 134 172 222 279 336 394
#     4  10  22  41  68 102 133 176 218 275 336 398
#     4  11  22  41  73 101 131 172 229 276 330 401
#     4  11  22  46  68  95 144 174 222 277 327 406
#     4  11  24  42  69 102 131 182 219 274 346 389
#     4  11  27  45  66  98 139 176 227 282 330 407
#     4  10  26  43  66 100 130 186 222 273 336 392
#
# _framework density 23.340662999999999
#
# number of rings (size 3 to 8) (size 9 to 14) (size 15 to 20)
#    0.000    1.429    2.857    1.714    8.000    2.286 
#   12.857    0.000    0.000    0.000    0.000    0.000 
#    0.000    0.000    0.000    0.000    0.000    0.000 
#
# Total GULP energy -173587.443401 kJ/mol
# GULP energy per Si atom -12399.103100 kJ/mol
# Density = 2.328754 g / cm^3
# Si number density = 23.340663 Si / 1000 Ang^3
#
#
#
# Elastic Constant Matrix: (Units=GPa)
#
#
# Indices 1 2 3 4 5 6 
#
# 1 99.9393 27.7166 18.6548 -3.7858 -24.4116 17.2930
# 2 27.7166 119.7694 35.4806 -9.4159 5.4171 23.2980
# 3 18.6548 35.4806 87.7634 3.9443 -0.9780 12.4481
# 4 -3.7858 -9.4159 3.9443 35.3709 -0.7525 0.8808
# 5 -24.4116 5.4171 -0.9780 -0.7525 23.1904 2.1593
# 6 17.2930 23.2980 12.4481 0.8808 2.1593 38.3396
#
#
#
# Elastic Compliance Matrix: (Units=1/GPa)
#
#
# Indices 1 2 3 4 5 6 
#
# 1 0.016957 -0.002991 -0.001336 0.001738 0.019156 -0.006516
# 2 -0.002991 0.011408 -0.003584 0.003104 -0.005474 -0.004183
# 3 -0.001336 -0.003584 0.013460 -0.002558 0.000059 -0.001535
# 4 0.001738 0.003104 -0.002558 0.029682 0.002206 -0.002646
# 5 0.019156 -0.005474 0.000059 0.002206 0.065483 -0.009071
# 6 -0.006516 -0.004183 -0.001535 -0.002646 -0.009071 0.032634
#
#
# Mechanical properties :
#
#
# Convention : Reuss Voigt Hill
#
# Bulk Modulus (GPa) = 38.45295 52.35290 45.40292
# Shear Modulus (GPa) = 25.75810 34.42152 30.08981
#
# Velocity S-wave (km/s) = 3.32561 3.84441 3.59438
# Velocity P-wave (km/s) = 5.59077 6.49496 6.05975
#
# Compressibility (1/GPa) = 0.02600581
#
# Stress axis : x y z
#
# Youngs Moduli (GPa) = 58.97197 87.65425 74.29278
#
# Poissons Ratio (x) = 0.26215 0.09923
# Poissons Ratio (y) = 0.17637 0.26624
# Poissons Ratio (z) = 0.07877 0.31412
#
# Static dielectric constant tensor:
#      x y z
#    x 4.061590 0.213490 -0.046290 
#    y 0.213490 4.620200 -0.025240 
#    z -0.046290 -0.025240 4.461360 
# 
# 
# High freq. dielectric constant tensor:
#      x y z
#    x 1.927560 0.003140 -0.005580 
#    y 0.003140 1.932550 -0.003890 
#    z -0.005580 -0.003890 1.914170 
# 
# From -- ./inp_files/532609.got.cif
#   From: 2010.06.25/outbox.cif.g09.slc.cpg/sg2_267_cif.got.tgz:532609.got - 2010.06.27 13:26:56.
