data_PCOD8019844
_publ_section_title
;
Structure prediction by ZEFSAII (Michael W. Deem and Ramdas Pophale) SiO2 
 PCOD8019844
Probable space group: P -1
;
_chemical_formula_sum "Si O2"
_cell_formula_units_Z 14
_cell_length_a 11.589862
_cell_length_b 8.117002
_cell_length_c 17.220242
_cell_angle_alpha 146.552352
_cell_angle_beta 47.784385
_cell_angle_gamma 134.606083
_cell_volume 620.250311
_symmetry_space_group_name_H-M "P -1"
_symmetry_group_IT_number 2
_symmetry_cell_setting 'triclinic'
loop_
_space_group_symop_operation_xyz
x,y,z
-x,-y,-z
loop_
_atom_site_type_symbol
_atom_site_label
_atom_site_fract_x
_atom_site_fract_y
_atom_site_fract_z
Si Si1 0.095424 0.726257 0.117573
Si Si2 0.588923 0.048738 0.164237
Si Si3 0.632605 0.095770 0.656847
Si Si4 0.163834 0.184439 0.951155
Si Si5 0.787255 0.786268 0.352759
Si Si6 0.650659 0.863675 0.290024
Si Si7 0.613763 0.726703 0.876692
O O1 0.976351 0.873194 0.275784
O O2 0.248602 0.025901 0.139687
O O3 0.162879 0.537445 0.076276
O O4 0.000000 0.500000 0.000000
O O5 0.713494 0.408149 0.247253
O O6 0.423682 0.029145 0.279493
O O7 0.674090 0.816940 0.076012
O O8 0.545520 0.914742 0.045011
O O9 0.470324 0.956800 0.617793
O O10 0.697737 0.481942 0.779342
O O11 0.771780 0.958654 0.508498
O O12 0.180783 0.041178 0.801423
O O13 0.000000 0.000000 0.000000
O O14 0.696668 0.932302 0.385976
O O15 0.550829 0.477880 0.177306
#
# Coordination Sequence:
#
# PCOD8019844 Si02
#       7
#     2   2   2   2   2   2   2
#     4  12  22  38  63  91 117 162 202 253 299 356
#     4  11  21  38  64  88 120 162 196 253 292 359
#     4   9  23  39  60  92 122 157 198 249 305 351
#     4  11  20  36  58  93 118 150 203 251 293 350
#     4  12  21  39  65  89 125 157 203 242 304 364
#     4   9  22  38  63  88 121 158 202 245 297 352
#     4  10  22  42  59  94 119 158 206 246 304 349
#
# _framework density 22.571532000000001
#
# number of rings (size 3 to 8) (size 9 to 14) (size 15 to 20)
#    0.857    0.571    4.286    1.286    0.000    2.857 
#    0.000    0.000    0.000    0.857    0.000    0.000 
#    0.000    0.000    0.000    0.000    0.000    0.000 
#
# Total GULP energy -173476.126737 kJ/mol
# GULP energy per Si atom -12391.151910 kJ/mol
# Density = 2.252016 g / cm^3
# Si number density = 22.571532 Si / 1000 Ang^3
#
#
#
# Elastic Constant Matrix: (Units=GPa)
#
#
# Indices 1 2 3 4 5 6 
#
# 1 11.6214 11.5109 0.2384 -7.2915 -8.6478 -1.2093
# 2 11.5109 147.0130 40.9110 -33.5919 7.0376 -2.6009
# 3 0.2384 40.9110 124.6734 -41.3340 -3.3994 7.0605
# 4 -7.2915 -33.5919 -41.3340 48.0009 1.0186 -6.0560
# 5 -8.6478 7.0376 -3.3994 1.0186 21.2708 1.7326
# 6 -1.2093 -2.6009 7.0605 -6.0560 1.7326 17.2505
#
#
#
# Elastic Compliance Matrix: (Units=1/GPa)
#
#
# Indices 1 2 3 4 5 6 
#
# 1 0.178300 -0.015411 0.016257 0.029391 0.078292 0.005977
# 2 -0.015411 0.010024 -0.002766 0.002976 -0.010465 0.003659
# 3 0.016257 -0.002766 0.012992 0.011333 0.009183 -0.001539
# 4 0.029391 0.002976 0.011333 0.038220 0.010108 0.010273
# 5 0.078292 -0.010465 0.009183 0.010108 0.083672 -0.004703
# 6 0.005977 0.003659 -0.001539 0.010273 -0.004703 0.063649
#
#
# Mechanical properties :
#
#
# Convention : Reuss Voigt Hill
#
# Bulk Modulus (GPa) = 5.06391 43.18094 24.12243
# Shear Modulus (GPa) = 10.95235 32.68092 21.81664
#
# Velocity S-wave (km/s) = 2.20518 3.80923 3.11232
# Velocity P-wave (km/s) = 2.95502 6.20639 4.86063
#
# Compressibility (1/GPa) = 0.19747573
#
# Stress axis : x y z
#
# Youngs Moduli (GPa) = 5.60853 99.75898 76.96958
#
# Poissons Ratio (x) = 1.53739 -1.25126
# Poissons Ratio (y) = 0.08643 0.21288
# Poissons Ratio (z) = -0.09118 0.27591
#
# Static dielectric constant tensor:
#      x y z
#    x 3.799560 -0.244570 -0.199310 
#    y -0.244570 4.167390 -0.295530 
#    z -0.199310 -0.295530 3.912860 
# 
# 
# High freq. dielectric constant tensor:
#      x y z
#    x 1.858480 -0.021750 -0.017490 
#    y -0.021750 1.901390 -0.025110 
#    z -0.017490 -0.025110 1.874760 
# 
# From -- ./inp_files/567113.got.cif
#   From: 2010.06.25/outbox.cif.g09.slc.cpg/sg2_284_cif.got.tgz:567113.got - 2010.06.27 13:26:56.
