data_PCOD8019468
_publ_section_title
;
Structure prediction by ZEFSAII (Michael W. Deem and Ramdas Pophale) SiO2 
 PCOD8019468
Probable space group: P -1
;
_chemical_formula_sum "Si O2"
_cell_formula_units_Z 16
_cell_length_a 4.919366
_cell_length_b 6.816359
_cell_length_c 22.891089
_cell_angle_alpha 100.953590
_cell_angle_beta 110.871302
_cell_angle_gamma 77.744106
_cell_volume 695.353706
_symmetry_space_group_name_H-M "P -1"
_symmetry_group_IT_number 2
_symmetry_cell_setting 'triclinic'
loop_
_space_group_symop_operation_xyz
x,y,z
-x,-y,-z
loop_
_atom_site_type_symbol
_atom_site_label
_atom_site_fract_x
_atom_site_fract_y
_atom_site_fract_z
Si Si1 0.390190 0.133578 0.732546
Si Si2 0.852507 0.622938 0.577130
Si Si3 0.020520 0.921816 0.062815
Si Si4 0.413386 0.349349 0.936715
Si Si5 0.757645 0.463739 0.183239
Si Si6 0.216003 0.956879 0.349307
Si Si7 0.385758 0.349948 0.561283
Si Si8 0.691280 0.796476 0.819118
O O1 0.330301 0.353169 0.768791
O O2 0.671184 0.111995 0.710365
O O3 0.104902 0.105115 0.671153
O O4 0.460236 0.960858 0.776882
O O5 0.617400 0.483722 0.565442
O O6 0.803354 0.710070 0.511973
O O7 0.172651 0.484535 0.598845
O O8 0.822312 0.802594 0.631682
O O9 0.292050 0.742608 0.079956
O O10 0.730945 0.831333 0.055219
O O11 0.075307 0.103996 0.118832
O O12 0.000000 0.000000 0.000000
O O13 0.211248 0.466640 0.877695
O O14 0.500000 0.500000 0.000000
O O15 0.508550 0.321362 0.161921
O O16 0.090288 0.349093 0.216307
O O17 0.448171 0.853857 0.408808
#
# Coordination Sequence:
#
# PCOD8019468 Si02
#       8
#     2   2   2   2   2   2   2   2
#     4  12  28  44  65  98 136 178 230 286 324 414
#     4  10  22  41  67  99 136 174 222 280 336 397
#     4  12  24  43  70 102 138 168 221 281 340 415
#     4  12  24  43  70 102 138 168 221 281 340 415
#     4  12  26  46  70  95 134 179 225 280 346 400
#     4  12  25  42  68  96 134 180 228 274 340 396
#     4  10  22  41  67  99 136 174 222 280 336 397
#     4  12  26  46  70  95 134 179 225 280 346 400
#
# _framework density 23.009874
#
# number of rings (size 3 to 8) (size 9 to 14) (size 15 to 20)
#    0.000    0.500    1.250    7.125    1.750    6.000 
#    0.000    5.000    0.000    0.000    0.000    0.000 
#    0.000    0.000    0.000    0.000    0.000    0.000 
#
# Total GULP energy -198473.624748 kJ/mol
# GULP energy per Si atom -12404.601547 kJ/mol
# Density = 2.295750 g / cm^3
# Si number density = 23.009874 Si / 1000 Ang^3
#
#
#
# Elastic Constant Matrix: (Units=GPa)
#
#
# Indices 1 2 3 4 5 6 
#
# 1 115.7124 34.1612 10.9957 7.5154 -0.7079 -8.8954
# 2 34.1612 98.6582 22.6812 11.1856 -3.2571 -8.2668
# 3 10.9957 22.6812 64.1395 8.2293 -0.1191 -2.1271
# 4 7.5154 11.1856 8.2293 38.3726 -1.5421 -1.9727
# 5 -0.7079 -3.2571 -0.1191 -1.5421 38.8232 1.7251
# 6 -8.8954 -8.2668 -2.1271 -1.9727 1.7251 51.9182
#
#
#
# Elastic Compliance Matrix: (Units=1/GPa)
#
#
# Indices 1 2 3 4 5 6 
#
# 1 0.009736 -0.003085 -0.000430 -0.000864 -0.000167 0.001132
# 2 -0.003085 0.012388 -0.003534 -0.002154 0.000834 0.001190
# 3 -0.000430 -0.003534 0.017247 -0.002599 -0.000354 -0.000017
# 4 -0.000864 -0.002154 -0.002599 0.027471 0.000868 0.000417
# 5 -0.000167 0.000834 -0.000354 0.000868 0.025891 -0.000738
# 6 0.001132 0.001190 -0.000017 0.000417 -0.000738 0.019684
#
#
# Mechanical properties :
#
#
# Convention : Reuss Voigt Hill
#
# Bulk Modulus (GPa) = 39.56962 46.02070 42.79516
# Shear Modulus (GPa) = 37.05342 39.86758 38.46050
#
# Velocity S-wave (km/s) = 4.01724 4.16700 4.09281
# Velocity P-wave (km/s) = 6.22509 6.57234 6.40107
#
# Compressibility (1/GPa) = 0.02527191
#
# Stress axis : x y z
#
# Youngs Moduli (GPa) = 102.71312 80.72183 57.98136
#
# Poissons Ratio (x) = 0.24902 0.02494
# Poissons Ratio (y) = 0.31687 0.20493
# Poissons Ratio (z) = 0.04417 0.28531
#
# Static dielectric constant tensor:
#      x y z
#    x 4.531010 -0.237590 0.485270 
#    y -0.237590 4.262990 -0.038380 
#    z 0.485270 -0.038380 5.102280 
# 
# 
# High freq. dielectric constant tensor:
#      x y z
#    x 1.925860 -0.011490 0.000510 
#    y -0.011490 1.919350 -0.001020 
#    z 0.000510 -0.001020 1.902080 
# 
# From -- ./inp_files/603342.got.cif
#   From: 2010.06.25/outbox.cif.g09.slc.cpg/sg2_302_cif.got.tgz:603342.got - 2010.06.27 13:26:56.
