data_PCOD8019332
_publ_section_title
;
Structure prediction by ZEFSAII (Michael W. Deem and Ramdas Pophale) SiO2 
 PCOD8019332
Probable space group: P -1
;
_chemical_formula_sum "Si O2"
_cell_formula_units_Z 16
_cell_length_a 21.521553
_cell_length_b 12.176613
_cell_length_c 18.216947
_cell_angle_alpha 151.097731
_cell_angle_beta 161.210057
_cell_angle_gamma 28.793907
_cell_volume 707.641763
_symmetry_space_group_name_H-M "P -1"
_symmetry_group_IT_number 2
_symmetry_cell_setting 'triclinic'
loop_
_space_group_symop_operation_xyz
x,y,z
-x,-y,-z
loop_
_atom_site_type_symbol
_atom_site_label
_atom_site_fract_x
_atom_site_fract_y
_atom_site_fract_z
Si Si1 0.644516 0.182514 0.386219
Si Si2 0.877924 0.002992 0.791897
Si Si3 0.956069 0.491201 0.531675
Si Si4 0.308105 0.269306 0.909723
Si Si5 0.465832 0.403475 0.595069
Si Si6 0.890626 0.759363 0.912920
Si Si7 0.098620 0.976565 0.786640
Si Si8 0.212000 0.273554 0.973707
O O1 0.644887 0.437663 0.504877
O O2 0.858899 0.056029 0.589696
O O3 0.601673 0.012376 0.173004
O O4 0.441639 0.227017 0.234897
O O5 0.837088 0.753776 0.582008
O O6 0.662763 0.201109 0.669780
O O7 0.000000 0.000000 0.000000
O O8 0.023930 0.054713 0.924456
O O9 0.000000 0.500000 0.500000
O O10 0.154597 0.390522 0.744405
O O11 0.820178 0.311386 0.286535
O O12 0.201155 0.298255 0.887310
O O13 0.472954 0.414889 0.174862
O O14 0.294804 0.292731 0.370398
O O15 0.070185 0.520161 0.991936
O O16 0.795671 0.892501 0.960557
O O17 0.129971 0.060968 0.788417
#
# Coordination Sequence:
#
# PCOD8019332 Si02
#       8
#     2   2   2   2   2   2   2   2
#     4  10  22  41  66  98 137 171 218 282 344 397
#     4  12  24  48  68  94 134 186 236 270 334 401
#     4  11  23  46  72  91 136 185 222 279 337 395
#     4  10  22  45  66 100 136 172 227 284 333 407
#     4  11  22  41  68  98 132 176 228 278 334 400
#     4  12  24  41  67 101 139 174 224 284 336 404
#     4  11  25  42  67 103 139 174 222 283 337 408
#     4  11  21  41  67 103 134 172 223 276 348 399
#
# _framework density 22.610309999999998
#
# number of rings (size 3 to 8) (size 9 to 14) (size 15 to 20)
#    0.000    1.000    6.250    1.875    0.000    4.000 
#    9.000    1.875    0.000    0.000    0.000    0.000 
#    0.000    0.000    0.000    0.000    0.000    0.000 
#
# Total GULP energy -198267.495656 kJ/mol
# GULP energy per Si atom -12391.718478 kJ/mol
# Density = 2.255885 g / cm^3
# Si number density = 22.610310 Si / 1000 Ang^3
#
#
#
# Elastic Constant Matrix: (Units=GPa)
#
#
# Indices 1 2 3 4 5 6 
#
# 1 75.3628 27.1663 27.8469 4.0942 1.7109 16.5266
# 2 27.1663 120.6153 35.3627 29.5948 3.6156 1.3051
# 3 27.8469 35.3627 96.4685 11.3461 12.6266 -0.0072
# 4 4.0942 29.5948 11.3461 38.5954 -1.9896 2.3942
# 5 1.7109 3.6156 12.6266 -1.9896 31.7949 2.0070
# 6 16.5266 1.3051 -0.0072 2.3942 2.0070 33.5896
#
#
#
# Elastic Compliance Matrix: (Units=1/GPa)
#
#
# Indices 1 2 3 4 5 6 
#
# 1 0.017920 -0.003317 -0.004521 0.002629 0.001940 -0.008993
# 2 -0.003317 0.011698 -0.002262 -0.008110 -0.000875 0.001807
# 3 -0.004521 -0.002262 0.013429 -0.002171 -0.005144 0.002777
# 4 0.002629 -0.008110 -0.002171 0.032911 0.003927 -0.003559
# 5 0.001940 -0.000875 -0.005144 0.003927 0.033939 -0.003230
# 6 -0.008993 0.001807 0.002777 -0.003559 -0.003230 0.034573
#
#
# Mechanical properties :
#
#
# Convention : Reuss Voigt Hill
#
# Bulk Modulus (GPa) = 43.76830 52.57758 48.17294
# Shear Modulus (GPa) = 29.02157 34.26737 31.64447
#
# Velocity S-wave (km/s) = 3.58656 3.89725 3.74513
# Velocity P-wave (km/s) = 6.04574 6.59967 6.32877
#
# Compressibility (1/GPa) = 0.02284759
#
# Stress axis : x y z
#
# Youngs Moduli (GPa) = 55.80230 85.48709 74.46465
#
# Poissons Ratio (x) = 0.28353 0.33666
# Poissons Ratio (y) = 0.18508 0.16845
# Poissons Ratio (z) = 0.25228 0.19338
#
# Static dielectric constant tensor:
#      x y z
#    x 4.554940 -0.087970 -0.135970 
#    y -0.087970 4.515140 0.272480 
#    z -0.135970 0.272480 4.303850 
# 
# 
# High freq. dielectric constant tensor:
#      x y z
#    x 1.866590 0.003410 -0.005530 
#    y 0.003410 1.904610 0.018490 
#    z -0.005530 0.018490 1.895200 
# 
# From -- ./inp_files/578054.got.cif
#   From: 2010.06.25/outbox.cif.g09.slc.cpg/sg2_290_cif.got.tgz:578054.got - 2010.06.27 13:26:56.
