data_PCOD8019719
_publ_section_title
;
Structure prediction by ZEFSAII (Michael W. Deem and Ramdas Pophale) SiO2 
 PCOD8019719
Probable space group: P -1
;
_chemical_formula_sum "Si O2"
_cell_formula_units_Z 16
_cell_length_a 9.269362
_cell_length_b 9.627915
_cell_length_c 14.506564
_cell_angle_alpha 117.431670
_cell_angle_beta 85.160587
_cell_angle_gamma 50.228425
_cell_volume 734.261276
_symmetry_space_group_name_H-M "P -1"
_symmetry_group_IT_number 2
_symmetry_cell_setting 'triclinic'
loop_
_space_group_symop_operation_xyz
x,y,z
-x,-y,-z
loop_
_atom_site_type_symbol
_atom_site_label
_atom_site_fract_x
_atom_site_fract_y
_atom_site_fract_z
Si Si1 0.997989 0.824480 0.788535
Si Si2 0.589851 0.098540 0.025082
Si Si3 0.415200 0.039636 0.416318
Si Si4 0.994475 0.818429 0.452376
Si Si5 0.181962 0.480327 0.823780
Si Si6 0.062357 0.133649 0.903642
Si Si7 0.153122 0.523301 0.511644
Si Si8 0.093881 0.584809 0.184747
O O1 0.193356 0.576645 0.761023
O O2 0.028632 0.739430 0.657447
O O3 0.033610 0.977846 0.835934
O O4 0.753364 0.991173 0.896473
O O5 0.364028 0.392885 0.111334
O O6 0.712501 0.032012 0.096404
O O7 0.500000 0.000000 0.000000
O O8 0.381195 0.246861 0.445821
O O9 0.210835 0.084080 0.446313
O O10 0.500000 0.000000 0.500000
O O11 0.596979 0.809159 0.268288
O O12 0.202178 0.582511 0.433069
O O13 0.990020 0.750875 0.331172
O O14 0.000000 0.000000 0.500000
O O15 0.956448 0.559318 0.853046
O O16 0.155224 0.618475 0.953885
O O17 0.053560 0.229782 0.836333
O O18 0.000000 0.500000 0.500000
#
# Coordination Sequence:
#
# PCOD8019719 Si02
#       8
#     2   2   2   2   2   2   2   2
#     4  11  22  44  67  99 140 170 224 285 339 407
#     4  11  24  41  70  99 132 176 220 274 341 398
#     4  11  21  42  69  92 125 179 222 271 334 403
#     4  11  25  43  63  98 136 170 224 286 334 394
#     4  11  21  41  69  94 132 172 228 270 327 415
#     4  11  26  43  68 103 137 178 220 285 347 395
#     4  10  22  41  70  98 128 179 228 276 334 403
#     4  12  24  44  66  97 140 173 230 279 330 411
#
# _framework density 21.790607999999999
#
# number of rings (size 3 to 8) (size 9 to 14) (size 15 to 20)
#    0.000    1.000    5.000    3.375    0.000    5.500 
#    0.000    0.625    0.000    0.000    0.000    0.000 
#    0.000    0.000    0.000    0.000    0.000    0.000 
#
# Total GULP energy -198238.237094 kJ/mol
# GULP energy per Si atom -12389.889818 kJ/mol
# Density = 2.174101 g / cm^3
# Si number density = 21.790608 Si / 1000 Ang^3
#
#
#
# Elastic Constant Matrix: (Units=GPa)
#
#
# Indices 1 2 3 4 5 6 
#
# 1 71.5592 28.1347 42.4131 11.1823 23.8339 8.3634
# 2 28.1347 139.8171 38.5451 -1.4786 15.6392 6.1135
# 3 42.4131 38.5451 112.1156 7.9770 24.4205 -5.9443
# 4 11.1823 -1.4786 7.9770 41.0696 -5.5697 2.8406
# 5 23.8339 15.6392 24.4205 -5.5697 41.8876 11.5151
# 6 8.3634 6.1135 -5.9443 2.8406 11.5151 37.2613
#
#
#
# Elastic Compliance Matrix: (Units=1/GPa)
#
#
# Indices 1 2 3 4 5 6 
#
# 1 0.022149 -0.001917 -0.005482 -0.006075 -0.008858 -0.002331
# 2 -0.001917 0.008245 -0.002246 0.001330 -0.000132 -0.001341
# 3 -0.005482 -0.002246 0.013505 -0.002396 -0.005810 0.005732
# 4 -0.006075 0.001330 -0.002396 0.028064 0.009253 -0.004236
# 5 -0.008858 -0.000132 -0.005810 0.009253 0.036585 -0.010928
# 6 -0.002331 -0.001341 0.005732 -0.004236 -0.010928 0.032195
#
#
# Mechanical properties :
#
#
# Convention : Reuss Voigt Hill
#
# Bulk Modulus (GPa) = 40.63562 60.18641 50.41101
# Shear Modulus (GPa) = 29.71998 38.33698 34.02848
#
# Velocity S-wave (km/s) = 3.69709 4.19899 3.95601
# Velocity P-wave (km/s) = 6.07564 7.15465 6.63711
#
# Compressibility (1/GPa) = 0.02460895
#
# Stress axis : x y z
#
# Youngs Moduli (GPa) = 45.14786 121.28955 74.04577
#
# Poissons Ratio (x) = 0.23255 0.40590
# Poissons Ratio (y) = 0.08656 0.16632
# Poissons Ratio (z) = 0.24749 0.27243
#
# Static dielectric constant tensor:
#      x y z
#    x 4.116320 0.380850 0.196920 
#    y 0.380850 11.483910 2.915070 
#    z 0.196920 2.915070 5.122610 
# 
# 
# High freq. dielectric constant tensor:
#      x y z
#    x 1.837880 0.001350 0.014260 
#    y 0.001350 1.876100 0.003950 
#    z 0.014260 0.003950 1.859960 
# 
# From -- ./inp_files/495592.got.cif
#   From: 2010.06.25/outbox.cif.g09.slc.cpg/sg2_248_cif.got.tgz:495592.got - 2010.06.27 13:26:56.
