data_PCOD8019950
_publ_section_title
;
Structure prediction by ZEFSAII (Michael W. Deem and Ramdas Pophale) SiO2 
 PCOD8019950
Probable space group: P -1
;
_chemical_formula_sum "Si O2"
_cell_formula_units_Z 16
_cell_length_a 5.449883
_cell_length_b 9.300537
_cell_length_c 14.880149
_cell_angle_alpha 82.875943
_cell_angle_beta 79.615343
_cell_angle_gamma 113.473022
_cell_volume 664.260985
_symmetry_space_group_name_H-M "P -1"
_symmetry_group_IT_number 2
_symmetry_cell_setting 'triclinic'
loop_
_space_group_symop_operation_xyz
x,y,z
-x,-y,-z
loop_
_atom_site_type_symbol
_atom_site_label
_atom_site_fract_x
_atom_site_fract_y
_atom_site_fract_z
Si Si1 0.447602 0.429696 0.769603
Si Si2 0.016899 0.434471 0.367913
Si Si3 0.146468 0.824261 0.957722
Si Si4 0.862276 0.711791 0.363231
Si Si5 0.511012 0.201713 0.515666
Si Si6 0.340739 0.024831 0.368301
Si Si7 0.277736 0.689454 0.789067
Si Si8 0.578076 0.807313 0.068844
O O1 0.662135 0.526116 0.667019
O O2 0.182910 0.306446 0.740205
O O3 0.393016 0.560420 0.821752
O O4 0.551671 0.324186 0.833498
O O5 0.993652 0.592795 0.394498
O O6 0.835098 0.288578 0.456969
O O7 0.913414 0.388953 0.276743
O O8 0.109230 0.719929 0.878793
O O9 0.310564 0.013916 0.912228
O O10 0.327585 0.774143 0.019301
O O11 0.836605 0.781254 0.014036
O O12 0.580578 0.671605 0.441083
O O13 0.050815 0.896883 0.359739
O O14 0.475236 0.063554 0.600733
O O15 0.315888 0.128511 0.446479
O O16 0.478326 0.138974 0.265920
#
# Coordination Sequence:
#
# PCOD8019950 Si02
#       8
#     2   2   2   2   2   2   2   2
#     4  11  26  44  65 100 137 183 222 288 348 424
#     4  10  24  43  61  96 141 173 233 280 344 425
#     4  10  24  46  74 107 137 186 228 298 343 433
#     4  11  23  38  67  94 128 187 224 289 343 412
#     4  10  22  42  63  95 132 181 229 286 347 404
#     4  10  23  40  65  97 132 175 232 287 330 421
#     4  10  25  43  67 100 136 181 229 280 356 405
#     4  10  25  46  74 105 145 177 237 285 361 417
#
# _framework density 24.086915999999999
#
# number of rings (size 3 to 8) (size 9 to 14) (size 15 to 20)
#    0.000    1.750    0.000    1.500    8.750   11.000 
#    0.000    0.000    0.000    0.000    0.000    0.000 
#    0.000    0.000    0.000    0.000    0.000    0.000 
#
# Total GULP energy -198333.204258 kJ/mol
# GULP energy per Si atom -12395.825266 kJ/mol
# Density = 2.403209 g / cm^3
# Si number density = 24.086916 Si / 1000 Ang^3
#
#
#
# Elastic Constant Matrix: (Units=GPa)
#
#
# Indices 1 2 3 4 5 6 
#
# 1 88.1743 27.9023 29.5452 8.2071 -5.0707 -13.3330
# 2 27.9023 115.6256 57.5133 11.0808 -4.8888 -8.5873
# 3 29.5452 57.5133 77.0310 7.7399 -1.4963 -6.8638
# 4 8.2071 11.0808 7.7399 44.2401 -11.3332 -7.3705
# 5 -5.0707 -4.8888 -1.4963 -11.3332 31.9375 2.4253
# 6 -13.3330 -8.5873 -6.8638 -7.3705 2.4253 38.2602
#
#
#
# Elastic Compliance Matrix: (Units=1/GPa)
#
#
# Indices 1 2 3 4 5 6 
#
# 1 0.013703 -0.000812 -0.004236 -0.000649 0.001347 0.003623
# 2 -0.000812 0.014004 -0.009932 -0.001219 0.001058 0.000777
# 3 -0.004236 -0.009932 0.022104 -0.000951 -0.001508 0.000172
# 4 -0.000649 -0.001219 -0.000951 0.026036 0.008616 0.003799
# 5 0.001347 0.001058 -0.001508 0.008616 0.034682 -0.000102
# 6 0.003623 0.000777 0.000172 0.003799 -0.000102 0.028343
#
#
# Mechanical properties :
#
#
# Convention : Reuss Voigt Hill
#
# Bulk Modulus (GPa) = 50.37351 56.75028 53.56189
# Shear Modulus (GPa) = 28.49849 33.94557 31.22203
#
# Velocity S-wave (km/s) = 3.44343 3.75813 3.60422
# Velocity P-wave (km/s) = 6.06368 6.51484 6.29331
#
# Compressibility (1/GPa) = 0.01985171
#
# Stress axis : x y z
#
# Youngs Moduli (GPa) = 72.97681 71.40747 45.24136
#
# Poissons Ratio (x) = 0.05796 0.19162
# Poissons Ratio (y) = 0.05924 0.44935
# Poissons Ratio (z) = 0.30910 0.70924
#
# Static dielectric constant tensor:
#      x y z
#    x 4.194320 -0.035880 -0.101300 
#    y -0.035880 4.444800 0.072580 
#    z -0.101300 0.072580 4.133850 
# 
# 
# High freq. dielectric constant tensor:
#      x y z
#    x 1.947650 0.000510 0.000190 
#    y 0.000510 1.971340 0.009640 
#    z 0.000190 0.009640 1.942260 
# 
# From -- ./inp_files/480419.got.cif
#   From: 2010.06.25/outbox.cif.g09.slc.cpg/sg2_241_cif.got.tgz:480419.got - 2010.06.27 13:26:56.
