data_PCOD8019028
_publ_section_title
;
Structure prediction by ZEFSAII (Michael W. Deem and Ramdas Pophale) SiO2 
 PCOD8019028
Probable space group: P -1
;
_chemical_formula_sum "Si O2"
_cell_formula_units_Z 16
_cell_length_a 15.250541
_cell_length_b 12.068021
_cell_length_c 9.786940
_cell_angle_alpha 98.339821
_cell_angle_beta 106.331809
_cell_angle_gamma 27.694849
_cell_volume 781.243178
_symmetry_space_group_name_H-M "P -1"
_symmetry_group_IT_number 2
_symmetry_cell_setting 'triclinic'
loop_
_space_group_symop_operation_xyz
x,y,z
-x,-y,-z
loop_
_atom_site_type_symbol
_atom_site_label
_atom_site_fract_x
_atom_site_fract_y
_atom_site_fract_z
Si Si1 0.460849 0.770865 0.734944
Si Si2 0.867831 0.350012 0.701247
Si Si3 0.038338 0.542241 0.646097
Si Si4 0.082582 0.103745 0.480201
Si Si5 0.341539 0.605393 0.041225
Si Si6 0.116394 0.420787 0.165642
Si Si7 0.049543 0.971344 0.207056
Si Si8 0.549069 0.969673 0.171308
O O1 0.630860 0.599509 0.664246
O O2 0.543417 0.624457 0.883012
O O3 0.287038 0.885203 0.616030
O O4 0.374214 0.986260 0.775562
O O5 0.954443 0.374871 0.796248
O O6 0.974737 0.135540 0.796758
O O7 0.902399 0.297777 0.545072
O O8 0.273169 0.301241 0.741023
O O9 0.000000 0.500000 0.500000
O O10 0.944466 0.764080 0.610952
O O11 0.922504 0.621795 0.738376
O O12 0.092561 0.981158 0.372807
O O13 0.232879 0.795608 0.149536
O O14 0.500000 0.500000 0.000000
O O15 0.161501 0.754153 0.894992
O O16 0.353643 0.159924 0.207282
O O17 0.000000 0.500000 0.000000
O O18 0.500000 0.000000 0.000000
#
# Coordination Sequence:
#
# PCOD8019028 Si02
#       8
#     2   2   2   2   2   2   2   2
#     4  10  23  40  63  90 124 167 210 260 316 384
#     4  10  22  41  64  90 129 165 212 264 318 376
#     4  12  24  42  63  97 132 165 213 271 324 377
#     4  12  24  41  65  93 132 166 208 262 326 378
#     4  10  22  42  63  91 126 163 211 263 312 372
#     4  11  23  41  68  95 127 172 214 264 326 383
#     4  10  24  41  64  95 125 168 213 259 313 385
#     4  11  23  41  65  93 126 169 217 261 323 385
#
# _framework density 20.480180000000001
#
# number of rings (size 3 to 8) (size 9 to 14) (size 15 to 20)
#    0.000    1.250    3.750    1.125    1.750    6.500 
#    2.250    0.000    0.000    0.000    0.000    0.000 
#    0.000    0.000    0.000    0.000    0.000    0.000 
#
# Total GULP energy -198425.169996 kJ/mol
# GULP energy per Si atom -12401.573125 kJ/mol
# Density = 2.043357 g / cm^3
# Si number density = 20.480180 Si / 1000 Ang^3
#
#
#
# Elastic Constant Matrix: (Units=GPa)
#
#
# Indices 1 2 3 4 5 6 
#
# 1 104.6234 42.8176 36.9404 6.8230 -20.9083 -8.9331
# 2 42.8176 80.2730 35.8872 -4.9207 -5.3462 -4.4501
# 3 36.9404 35.8872 120.4431 6.4274 -3.0216 -3.3741
# 4 6.8230 -4.9207 6.4274 47.8236 -1.2392 -7.2068
# 5 -20.9083 -5.3462 -3.0216 -1.2392 40.7200 2.5035
# 6 -8.9331 -4.4501 -3.3741 -7.2068 2.5035 37.0487
#
#
#
# Elastic Compliance Matrix: (Units=1/GPa)
#
#
# Indices 1 2 3 4 5 6 
#
# 1 0.014466 -0.006324 -0.002241 -0.001993 0.006265 0.001713
# 2 -0.006324 0.017562 -0.003470 0.003294 -0.001160 0.000988
# 3 -0.002241 -0.003470 0.010072 -0.001454 -0.000887 -0.000263
# 4 -0.001993 0.003294 -0.001454 0.022347 -0.000274 0.004148
# 5 0.006265 -0.001160 -0.000887 -0.000274 0.027587 -0.000627
# 6 0.001713 0.000988 -0.000263 0.004148 -0.000627 0.028349
#
#
# Mechanical properties :
#
#
# Convention : Reuss Voigt Hill
#
# Bulk Modulus (GPa) = 55.46668 59.62554 57.54611
# Shear Modulus (GPa) = 33.23098 37.76475 35.49787
#
# Velocity S-wave (km/s) = 4.03251 4.29880 4.16778
# Velocity P-wave (km/s) = 6.98738 7.33598 7.16380
#
# Compressibility (1/GPa) = 0.01802884
#
# Stress axis : x y z
#
# Youngs Moduli (GPa) = 69.12870 56.94211 99.28610
#
# Poissons Ratio (x) = 0.36011 0.22248
# Poissons Ratio (y) = 0.43718 0.34455
# Poissons Ratio (z) = 0.15491 0.19760
#
# Static dielectric constant tensor:
#      x y z
#    x 4.397000 0.668370 -0.700860 
#    y 0.668370 5.138450 -0.920640 
#    z -0.700860 -0.920640 4.468230 
# 
# 
# High freq. dielectric constant tensor:
#      x y z
#    x 1.801200 -0.008630 -0.010290 
#    y -0.008630 1.808320 0.001060 
#    z -0.010290 0.001060 1.804750 
# 
# From -- ./inp_files/188161.got.cif
#   From: 2010.06.25/outbox.cif.g09.slc.cpg/sg2_95_cif.got.tgz:188161.got - 2010.06.27 13:26:56.
