data_PCOD8019067
_publ_section_title
;
Structure prediction by ZEFSAII (Michael W. Deem and Ramdas Pophale) SiO2 
 PCOD8019067
Probable space group: P -1
;
_chemical_formula_sum "Si O2"
_cell_formula_units_Z 16
_cell_length_a 6.470450
_cell_length_b 18.413597
_cell_length_c 7.899009
_cell_angle_alpha 62.523485
_cell_angle_beta 61.823392
_cell_angle_gamma 69.770553
_cell_volume 726.104537
_symmetry_space_group_name_H-M "P -1"
_symmetry_group_IT_number 2
_symmetry_cell_setting 'triclinic'
loop_
_space_group_symop_operation_xyz
x,y,z
-x,-y,-z
loop_
_atom_site_type_symbol
_atom_site_label
_atom_site_fract_x
_atom_site_fract_y
_atom_site_fract_z
Si Si1 0.644427 0.744916 0.698085
Si Si2 0.150283 0.669117 0.615853
Si Si3 0.422700 0.017918 0.762705
Si Si4 0.030003 0.593919 0.389141
Si Si5 0.708203 0.100431 0.319559
Si Si6 0.629388 0.405881 0.050761
Si Si7 0.380014 0.264991 0.655048
Si Si8 0.772449 0.884293 0.963059
O O1 0.464800 0.818731 0.780191
O O2 0.658408 0.776374 0.466152
O O3 0.907350 0.731324 0.692243
O O4 0.559865 0.655884 0.823769
O O5 0.111500 0.615927 0.521746
O O6 0.346015 0.726130 0.433680
O O7 0.223166 0.610475 0.813331
O O8 0.606944 0.077172 0.565033
O O9 0.276247 0.983132 0.707065
O O10 0.569531 0.936361 0.875461
O O11 0.229089 0.069735 0.904686
O O12 0.214595 0.612391 0.157199
O O13 0.000000 0.500000 0.500000
O O14 0.776364 0.644060 0.378573
O O15 0.969551 0.123435 0.214701
O O16 0.500000 0.500000 0.000000
O O17 0.293515 0.207616 0.894850
#
# Coordination Sequence:
#
# PCOD8019067 Si02
#       8
#     2   2   2   2   2   2   2   2
#     4  10  22  41  64  93 129 169 214 269 326 392
#     4  10  24  44  65  94 132 174 212 271 330 390
#     4  10  24  40  61  96 126 172 216 265 334 390
#     4  11  24  42  66  97 131 170 218 271 329 394
#     4  11  22  42  64  92 129 169 217 270 327 389
#     4  11  24  42  66  97 131 170 218 271 329 394
#     4  10  22  41  64  93 129 169 214 269 326 392
#     4  11  22  42  64  92 129 169 217 270 327 389
#
# _framework density 22.035395999999999
#
# number of rings (size 3 to 8) (size 9 to 14) (size 15 to 20)
#    0.000    1.500    1.250    3.750    0.000   11.000 
#    9.000    0.000    0.000    0.000    0.000    0.000 
#    0.000    0.000    0.000    0.000    0.000    0.000 
#
# Total GULP energy -198375.915284 kJ/mol
# GULP energy per Si atom -12398.494705 kJ/mol
# Density = 2.198524 g / cm^3
# Si number density = 22.035396 Si / 1000 Ang^3
#
#
#
# Elastic Constant Matrix: (Units=GPa)
#
#
# Indices 1 2 3 4 5 6 
#
# 1 87.6630 21.6296 26.8285 -7.7993 -8.0800 -9.6431
# 2 21.6296 92.1114 17.7421 -15.0221 -0.2891 -16.1631
# 3 26.8285 17.7421 108.9473 -14.4715 -4.2039 -2.5670
# 4 -7.7993 -15.0221 -14.4715 44.4417 -0.0589 0.6694
# 5 -8.0800 -0.2891 -4.2039 -0.0589 32.1168 7.0152
# 6 -9.6431 -16.1631 -2.5670 0.6694 7.0152 23.1287
#
#
#
# Elastic Compliance Matrix: (Units=1/GPa)
#
#
# Indices 1 2 3 4 5 6 
#
# 1 0.013340 -0.001916 -0.002707 0.000767 0.002285 0.003207
# 2 -0.001916 0.013784 -0.001145 0.003806 -0.002547 0.009369
# 3 -0.002707 -0.001145 0.010377 0.002535 0.000918 -0.001129
# 4 0.000767 0.003806 0.002535 0.024710 0.000052 0.002530
# 5 0.002285 -0.002547 0.000918 0.000052 0.034236 -0.011111
# 6 0.003207 0.009369 -0.001129 0.002530 -0.011111 0.054292
#
#
# Mechanical properties :
#
#
# Convention : Reuss Voigt Hill
#
# Bulk Modulus (GPa) = 38.51419 46.79134 42.65276
# Shear Modulus (GPa) = 29.25160 34.77220 32.01190
#
# Velocity S-wave (km/s) = 3.64742 3.97673 3.81563
# Velocity P-wave (km/s) = 5.93755 6.50896 6.22981
#
# Compressibility (1/GPa) = 0.02596446
#
# Stress axis : x y z
#
# Youngs Moduli (GPa) = 74.96061 72.55047 96.36236
#
# Poissons Ratio (x) = 0.13902 0.26090
# Poissons Ratio (y) = 0.14363 0.11032
# Poissons Ratio (z) = 0.20295 0.08306
#
# Static dielectric constant tensor:
#      x y z
#    x 3.797410 -0.137800 0.048080 
#    y -0.137800 4.114680 0.034730 
#    z 0.048080 0.034730 4.831350 
# 
# 
# High freq. dielectric constant tensor:
#      x y z
#    x 1.852950 -0.008560 -0.004250 
#    y -0.008560 1.878210 -0.000780 
#    z -0.004250 -0.000780 1.879200 
# 
# From -- ./inp_files/138678.got.cif
#   From: 2010.06.25/outbox.cif.g09.slc.cpg/sg2_70_cif.got.tgz:138678.got - 2010.06.27 13:26:56.
