data_PCOD8019862
_publ_section_title
;
Structure prediction by ZEFSAII (Michael W. Deem and Ramdas Pophale) SiO2 
 PCOD8019862
Probable space group: P -1
;
_chemical_formula_sum "Si O2"
_cell_formula_units_Z 16
_cell_length_a 8.415609
_cell_length_b 9.103348
_cell_length_c 18.837573
_cell_angle_alpha 55.945771
_cell_angle_beta 44.223747
_cell_angle_gamma 52.614236
_cell_volume 779.200732
_symmetry_space_group_name_H-M "P -1"
_symmetry_group_IT_number 2
_symmetry_cell_setting 'triclinic'
loop_
_space_group_symop_operation_xyz
x,y,z
-x,-y,-z
loop_
_atom_site_type_symbol
_atom_site_label
_atom_site_fract_x
_atom_site_fract_y
_atom_site_fract_z
Si Si1 0.474809 0.480487 0.700528
Si Si2 0.536988 0.900780 0.231260
Si Si3 0.967431 0.525638 0.919595
Si Si4 0.497881 0.117294 0.039411
Si Si5 0.059974 0.806984 0.073944
Si Si6 0.096691 0.457596 0.402017
Si Si7 0.248293 0.035638 0.417919
Si Si8 0.427900 0.354841 0.515364
O O1 0.556232 0.275168 0.693092
O O2 0.672826 0.474126 0.700198
O O3 0.485857 0.631845 0.596669
O O4 0.212910 0.535642 0.804986
O O5 0.358792 0.053879 0.300088
O O6 0.816912 0.824677 0.191780
O O7 0.534825 0.979352 0.131787
O O8 0.763090 0.722857 0.912786
O O9 0.887252 0.361910 0.954661
O O10 0.000000 0.500000 0.000000
O O11 0.706158 0.214571 0.945164
O O12 0.500000 0.000000 0.000000
O O13 0.000000 0.000000 0.000000
O O14 0.000000 0.500000 0.500000
O O15 0.865345 0.579079 0.395678
O O16 0.193343 0.232823 0.420762
O O17 0.446856 0.863125 0.442772
O O18 0.000000 0.000000 0.500000
O O19 0.500000 0.500000 0.500000
#
# Coordination Sequence:
#
# PCOD8019862 Si02
#       8
#     2   2   2   2   2   2   2   2
#     4  10  22  42  61  90 129 163 205 270 313 377
#     4  10  22  42  63  92 125 166 212 259 317 385
#     4  11  23  41  64  92 128 167 210 264 323 380
#     4  11  23  41  65  95 127 166 209 266 325 385
#     4   9  20  41  66  89 126 161 212 261 317 384
#     4  10  23  42  62  94 132 165 216 267 317 379
#     4  12  23  39  69  93 128 172 214 264 316 383
#     4  11  21  42  66  92 126 170 215 257 323 374
#
# _framework density 20.533861000000002
#
# number of rings (size 3 to 8) (size 9 to 14) (size 15 to 20)
#    0.000    1.500    2.500    3.375    1.750    5.000 
#    6.750    0.000    0.000    0.000    0.000    0.000 
#    0.000    0.000    0.000    0.000    0.000    0.000 
#
# Total GULP energy -198321.314885 kJ/mol
# GULP energy per Si atom -12395.082180 kJ/mol
# Density = 2.048713 g / cm^3
# Si number density = 20.533861 Si / 1000 Ang^3
#
#
#
# Elastic Constant Matrix: (Units=GPa)
#
#
# Indices 1 2 3 4 5 6 
#
# 1 141.6195 58.0089 63.7285 10.5876 -30.4494 8.2045
# 2 58.0089 148.2704 45.3160 18.9850 -15.6792 6.6995
# 3 63.7285 45.3160 106.6898 14.9197 -8.6193 8.3449
# 4 10.5876 18.9850 14.9197 34.0644 0.9224 2.6936
# 5 -30.4494 -15.6792 -8.6193 0.9224 45.4603 -0.7403
# 6 8.2045 6.6995 8.3449 2.6936 -0.7403 44.4806
#
#
#
# Elastic Compliance Matrix: (Units=1/GPa)
#
#
# Indices 1 2 3 4 5 6 
#
# 1 0.011840 -0.002244 -0.005557 -0.000105 0.006093 -0.000695
# 2 -0.002244 0.008747 -0.001771 -0.003408 0.001241 -0.000344
# 3 -0.005557 -0.001771 0.013849 -0.003217 -0.001661 -0.001139
# 4 -0.000105 -0.003408 -0.003217 0.032836 -0.002536 -0.000895
# 5 0.006093 0.001241 -0.001661 -0.002536 0.026237 -0.000409
# 6 -0.000695 -0.000344 -0.001139 -0.000895 -0.000409 0.022923
#
#
# Mechanical properties :
#
#
# Convention : Reuss Voigt Hill
#
# Bulk Modulus (GPa) = 65.39904 81.18739 73.29321
# Shear Modulus (GPa) = 35.54317 40.10280 37.82299
#
# Velocity S-wave (km/s) = 4.16499 4.42408 4.29649
# Velocity P-wave (km/s) = 7.41943 8.10684 7.77074
#
# Compressibility (1/GPa) = 0.01529074
#
# Stress axis : x y z
#
# Youngs Moduli (GPa) = 84.46270 114.32576 72.20481
#
# Poissons Ratio (x) = 0.25659 0.40128
# Poissons Ratio (y) = 0.18956 0.12786
# Poissons Ratio (z) = 0.46940 0.20245
#
# Static dielectric constant tensor:
#      x y z
#    x 4.620970 -0.289760 -0.637420 
#    y -0.289760 4.032150 0.214300 
#    z -0.637420 0.214300 4.021090 
# 
# 
# High freq. dielectric constant tensor:
#      x y z
#    x 1.812970 0.003360 -0.018980 
#    y 0.003360 1.807390 0.010150 
#    z -0.018980 0.010150 1.802610 
# 
# From -- ./inp_files/587294.got.cif
#   From: 2010.06.25/outbox.cif.g09.slc.cpg/sg2_294_cif.got.tgz:587294.got - 2010.06.27 13:26:56.
