data_PCOD8019121
_publ_section_title
;
Structure prediction by ZEFSAII (Michael W. Deem and Ramdas Pophale) SiO2 
 PCOD8019121
Probable space group: P -1
;
_chemical_formula_sum "Si O2"
_cell_formula_units_Z 16
_cell_length_a 20.967870
_cell_length_b 12.227337
_cell_length_c 9.700838
_cell_angle_alpha 47.543016
_cell_angle_beta 151.465600
_cell_angle_gamma 140.197330
_cell_volume 760.530995
_symmetry_space_group_name_H-M "P -1"
_symmetry_group_IT_number 2
_symmetry_cell_setting 'triclinic'
loop_
_space_group_symop_operation_xyz
x,y,z
-x,-y,-z
loop_
_atom_site_type_symbol
_atom_site_label
_atom_site_fract_x
_atom_site_fract_y
_atom_site_fract_z
Si Si1 0.918018 0.560124 0.902388
Si Si2 0.839546 0.033833 0.552272
Si Si3 0.928507 0.072789 0.001296
Si Si4 0.686433 0.470514 0.116158
Si Si5 0.392492 0.232991 0.289124
Si Si6 0.487627 0.167066 0.811964
Si Si7 0.594924 0.406693 0.289658
Si Si8 0.031477 0.605787 0.607283
O O1 0.754585 0.529800 0.565401
O O2 0.027164 0.759682 0.969207
O O3 0.891180 0.457167 0.080183
O O4 0.000000 0.500000 0.000000
O O5 0.844753 0.195450 0.350040
O O6 0.669189 0.870407 0.376590
O O7 0.903735 0.098263 0.772784
O O8 0.937301 0.974310 0.697388
O O9 0.777849 0.925224 0.914258
O O10 0.633292 0.360679 0.251210
O O11 0.870284 0.586440 0.368768
O O12 0.613323 0.592340 0.850762
O O13 0.632774 0.332694 0.009618
O O14 0.481064 0.206026 0.606457
O O15 0.488277 0.244292 0.322656
O O16 0.500000 0.000000 0.000000
O O17 0.500000 0.500000 0.000000
O O18 0.000000 0.500000 0.500000
#
# Coordination Sequence:
#
# PCOD8019121 Si02
#       8
#     2   2   2   2   2   2   2   2
#     4  12  26  45  70 100 137 181 223 286 344 401
#     4  10  22  41  65 102 133 175 221 282 338 400
#     4  10  22  43  68  99 134 170 231 278 334 411
#     4  11  23  45  64  96 137 177 226 276 334 411
#     4  10  23  44  69  96 129 182 227 276 339 404
#     4  11  25  39  65 102 139 171 226 286 341 394
#     4  10  25  46  67  95 135 181 227 271 335 408
#     4  12  23  41  70  98 135 173 224 281 342 398
#
# _framework density 21.037932999999999
#
# number of rings (size 3 to 8) (size 9 to 14) (size 15 to 20)
#    0.000    1.250    3.750    1.125    8.750    0.000 
#    2.250    4.375    0.000    0.000    0.000    0.000 
#    0.000    0.000    0.000    0.000    0.000    0.000 
#
# Total GULP energy -198411.610336 kJ/mol
# GULP energy per Si atom -12400.725646 kJ/mol
# Density = 2.099005 g / cm^3
# Si number density = 21.037933 Si / 1000 Ang^3
#
#
#
# Elastic Constant Matrix: (Units=GPa)
#
#
# Indices 1 2 3 4 5 6 
#
# 1 107.9355 32.7774 23.7838 -6.4389 -10.3013 16.2204
# 2 32.7774 116.0004 27.8143 -6.7314 -10.7002 4.0484
# 3 23.7838 27.8143 110.2441 -7.3066 -9.2549 5.5360
# 4 -6.4389 -6.7314 -7.3066 32.9543 9.8025 -0.7860
# 5 -10.3013 -10.7002 -9.2549 9.8025 27.6624 -2.0720
# 6 16.2204 4.0484 5.5360 -0.7860 -2.0720 41.4129
#
#
#
# Elastic Compliance Matrix: (Units=1/GPa)
#
#
# Indices 1 2 3 4 5 6 
#
# 1 0.011131 -0.002443 -0.001365 0.000616 0.002240 -0.003815
# 2 -0.002443 0.009959 -0.001785 0.000519 0.002187 0.000341
# 3 -0.001365 -0.001785 0.010060 0.001066 0.001750 -0.000528
# 4 0.000616 0.000519 0.001066 0.034176 -0.011350 -0.000354
# 5 0.002240 0.002187 0.001750 -0.011350 0.042481 0.000585
# 6 -0.003815 0.000341 -0.000528 -0.000354 0.000585 0.025701
#
#
# Mechanical properties :
#
#
# Convention : Reuss Voigt Hill
#
# Bulk Modulus (GPa) = 50.08678 55.88123 52.98400
# Shear Modulus (GPa) = 33.03678 37.05956 35.04817
#
# Velocity S-wave (km/s) = 3.96706 4.20165 4.08603
# Velocity P-wave (km/s) = 6.69648 7.08225 6.89207
#
# Compressibility (1/GPa) = 0.01996535
#
# Stress axis : x y z
#
# Youngs Moduli (GPa) = 89.83896 100.41450 99.40804
#
# Poissons Ratio (x) = 0.24526 0.13566
# Poissons Ratio (y) = 0.21943 0.17742
# Poissons Ratio (z) = 0.12261 0.17921
#
# Static dielectric constant tensor:
#      x y z
#    x 4.140830 0.338590 0.057990 
#    y 0.338590 3.721290 -0.042950 
#    z 0.057990 -0.042950 3.917060 
# 
# 
# High freq. dielectric constant tensor:
#      x y z
#    x 1.830940 0.018800 0.007300 
#    y 0.018800 1.814070 -0.005420 
#    z 0.007300 -0.005420 1.832070 
# 
# From -- ./inp_files/205397.got.cif
#   From: 2010.06.25/outbox.cif.g09.slc.cpg/sg2_103_cif.got.tgz:205397.got - 2010.06.27 13:26:56.
