data_PCOD8019296
_publ_section_title
;
Structure prediction by ZEFSAII (Michael W. Deem and Ramdas Pophale) SiO2 
 PCOD8019296
Probable space group: P -1
;
_chemical_formula_sum "Si O2"
_cell_formula_units_Z 16
_cell_length_a 12.390099
_cell_length_b 18.876347
_cell_length_c 15.865674
_cell_angle_alpha 29.755748
_cell_angle_beta 51.518926
_cell_angle_gamma 30.055022
_cell_volume 788.028253
_symmetry_space_group_name_H-M "P -1"
_symmetry_group_IT_number 2
_symmetry_cell_setting 'triclinic'
loop_
_space_group_symop_operation_xyz
x,y,z
-x,-y,-z
loop_
_atom_site_type_symbol
_atom_site_label
_atom_site_fract_x
_atom_site_fract_y
_atom_site_fract_z
Si Si1 0.350621 0.256260 0.851266
Si Si2 0.970600 0.386047 0.518377
Si Si3 0.831032 0.728548 0.912468
Si Si4 0.885607 0.051891 0.089647
Si Si5 0.347598 0.277486 0.514350
Si Si6 0.092550 0.024691 0.323197
Si Si7 0.595902 0.344440 0.295918
Si Si8 0.695699 0.204498 0.723511
O O1 0.167360 0.489406 0.632388
O O2 0.551943 0.198857 0.845368
O O3 0.182832 0.349710 0.914192
O O4 0.500000 0.000000 0.000000
O O5 0.769397 0.553935 0.518199
O O6 0.142097 0.378272 0.452107
O O7 0.137277 0.098916 0.737440
O O8 0.946389 0.784535 0.815685
O O9 0.552809 0.983101 0.745696
O O10 0.000000 0.500000 0.000000
O O11 0.605158 0.354884 0.923143
O O12 0.064776 0.956007 0.174266
O O13 0.000000 0.000000 0.000000
O O14 0.467301 0.304470 0.375370
O O15 0.821782 0.180799 0.289767
O O16 0.286897 0.764908 0.554077
O O17 0.207887 0.938361 0.264591
O O18 0.500000 0.500000 0.500000
#
# Coordination Sequence:
#
# PCOD8019296 Si02
#       8
#     2   2   2   2   2   2   2   2
#     4  12  23  43  70  95 134 176 223 271 330 391
#     4  11  23  42  63 101 133 167 223 283 319 394
#     4  11  25  42  69 102 131 177 224 271 335 403
#     4  12  25  39  66 101 132 171 227 272 333 398
#     4  10  22  41  66  94 134 170 220 272 339 384
#     4  10  23  46  66  96 137 170 229 274 333 405
#     4  10  22  41  70  91 129 181 210 276 339 394
#     4  12  25  42  68  98 131 173 225 280 326 395
#
# _framework density 20.303840000000001
#
# number of rings (size 3 to 8) (size 9 to 14) (size 15 to 20)
#    0.000    1.000    5.000    1.500    5.250    3.500 
#    0.000    0.625    0.000    0.000    0.000    0.000 
#    0.000    0.000    0.000    0.000    0.000    0.000 
#
# Total GULP energy -198477.964143 kJ/mol
# GULP energy per Si atom -12404.872759 kJ/mol
# Density = 2.025763 g / cm^3
# Si number density = 20.303840 Si / 1000 Ang^3
#
#
#
# Elastic Constant Matrix: (Units=GPa)
#
#
# Indices 1 2 3 4 5 6 
#
# 1 84.1851 58.7715 36.5800 -9.1587 -9.0830 -1.3532
# 2 58.7715 100.4541 51.0347 0.7575 -8.2905 -10.8507
# 3 36.5800 51.0347 130.2888 -16.3618 -11.4535 1.0231
# 4 -9.1587 0.7575 -16.3618 36.4905 -3.2044 -1.5832
# 5 -9.0830 -8.2905 -11.4535 -3.2044 31.8428 0.9943
# 6 -1.3532 -10.8507 1.0231 -1.5832 0.9943 37.1619
#
#
#
# Elastic Compliance Matrix: (Units=1/GPa)
#
#
# Indices 1 2 3 4 5 6 
#
# 1 0.021807 -0.012793 -0.000034 0.005915 0.003560 -0.002783
# 2 -0.012793 0.020746 -0.005404 -0.005910 -0.000958 0.005514
# 3 -0.000034 -0.005404 0.010720 0.005099 0.003006 -0.001738
# 4 0.005915 -0.005910 0.005099 0.031735 0.005190 -0.000437
# 5 0.003560 -0.000958 0.003006 0.005190 0.033802 -0.000916
# 6 -0.002783 0.005514 -0.001738 -0.000437 -0.000916 0.028472
#
#
# Mechanical properties :
#
#
# Convention : Reuss Voigt Hill
#
# Bulk Modulus (GPa) = 59.48440 67.52228 63.50334
# Shear Modulus (GPa) = 26.40652 32.33517 29.37085
#
# Velocity S-wave (km/s) = 3.61025 3.99502 3.80750
# Velocity P-wave (km/s) = 6.83661 7.38975 7.11856
#
# Compressibility (1/GPa) = 0.01681113
#
# Stress axis : x y z
#
# Youngs Moduli (GPa) = 45.85681 48.20236 93.28405
#
# Poissons Ratio (x) = 0.61663 0.00317
# Poissons Ratio (y) = 0.58663 0.50413
# Poissons Ratio (z) = 0.00156 0.26050
#
# Static dielectric constant tensor:
#      x y z
#    x 3.805720 -0.197160 -0.029630 
#    y -0.197160 3.700890 0.042340 
#    z -0.029630 0.042340 3.992420 
# 
# 
# High freq. dielectric constant tensor:
#      x y z
#    x 1.795340 -0.014910 -0.007590 
#    y -0.014910 1.786670 -0.001360 
#    z -0.007590 -0.001360 1.803550 
# 
# From -- ./inp_files/217125.got.cif
#   From: 2010.06.25/outbox.cif.g09.slc.cpg/sg2_109_cif.got.tgz:217125.got - 2010.06.27 13:26:56.
