data_PCOD8019869
_publ_section_title
;
Structure prediction by ZEFSAII (Michael W. Deem and Ramdas Pophale) SiO2 
 PCOD8019869
Probable space group: P -1
;
_chemical_formula_sum "Si O2"
_cell_formula_units_Z 16
_cell_length_a 15.569386
_cell_length_b 8.582319
_cell_length_c 10.949275
_cell_angle_alpha 39.041185
_cell_angle_beta 55.574561
_cell_angle_gamma 55.791176
_cell_volume 738.500336
_symmetry_space_group_name_H-M "P -1"
_symmetry_group_IT_number 2
_symmetry_cell_setting 'triclinic'
loop_
_space_group_symop_operation_xyz
x,y,z
-x,-y,-z
loop_
_atom_site_type_symbol
_atom_site_label
_atom_site_fract_x
_atom_site_fract_y
_atom_site_fract_z
Si Si1 0.593623 0.545163 0.220801
Si Si2 0.822005 0.453062 0.993568
Si Si3 0.539859 0.283117 0.003595
Si Si4 0.089668 0.068579 0.300618
Si Si5 0.968314 0.938201 0.260345
Si Si6 0.731184 0.385017 0.636511
Si Si7 0.859368 0.526687 0.662853
Si Si8 0.563053 0.747636 0.389702
O O1 0.545963 0.711572 0.039374
O O2 0.561132 0.704935 0.272115
O O3 0.540382 0.303943 0.424802
O O4 0.721402 0.459537 0.158193
O O5 0.782457 0.517413 0.846353
O O6 0.889087 0.654623 0.860630
O O7 0.894580 0.167265 0.105571
O O8 0.652465 0.284939 0.850594
O O9 0.500000 0.500000 0.000000
O O10 0.555984 0.043394 0.226572
O O11 0.200006 0.850517 0.353501
O O12 0.000000 0.000000 0.500000
O O13 0.046083 0.066024 0.200230
O O14 0.894581 0.792935 0.487633
O O15 0.038896 0.715509 0.254319
O O16 0.804278 0.520058 0.579880
O O17 0.671003 0.585971 0.463145
#
# Coordination Sequence:
#
# PCOD8019869 Si02
#       8
#     2   2   2   2   2   2   2   2
#     4  10  24  40  66  97 123 166 212 263 315 376
#     4  12  23  39  68  95 124 168 218 259 322 382
#     4  11  23  43  67  96 131 164 209 267 320 380
#     4  11  23  43  63  94 132 165 212 271 311 371
#     4  10  23  42  62  90 128 174 211 259 321 371
#     4  10  24  42  66  94 128 172 210 259 324 376
#     4  10  22  42  61  92 132 165 213 265 310 377
#     4  10  23  45  65  91 131 166 211 261 321 383
#
# _framework density 21.665527000000001
#
# number of rings (size 3 to 8) (size 9 to 14) (size 15 to 20)
#    0.000    1.500    1.250    2.625    1.750    8.000 
#    4.500    0.000    0.000    0.000    0.000    0.000 
#    0.000    0.000    0.000    0.000    0.000    0.000 
#
# Total GULP energy -198363.929832 kJ/mol
# GULP energy per Si atom -12397.745615 kJ/mol
# Density = 2.161622 g / cm^3
# Si number density = 21.665527 Si / 1000 Ang^3
#
#
#
# Elastic Constant Matrix: (Units=GPa)
#
#
# Indices 1 2 3 4 5 6 
#
# 1 92.1212 33.0783 48.3565 -8.2377 0.2509 -6.7175
# 2 33.0783 98.4098 71.6332 -2.8734 -5.1987 -7.3439
# 3 48.3565 71.6332 137.2594 -13.5631 2.8605 -14.9496
# 4 -8.2377 -2.8734 -13.5631 42.9365 -0.9356 -4.1653
# 5 0.2509 -5.1987 2.8605 -0.9356 30.3996 7.8560
# 6 -6.7175 -7.3439 -14.9496 -4.1653 7.8560 30.4738
#
#
#
# Elastic Compliance Matrix: (Units=1/GPa)
#
#
# Indices 1 2 3 4 5 6 
#
# 1 0.013601 -0.001895 -0.003531 0.001466 -0.000343 0.001098
# 2 -0.001895 0.017256 -0.008850 -0.002104 0.004247 -0.001983
# 3 -0.003531 -0.008850 0.014212 0.003676 -0.004165 0.005637
# 4 0.001466 -0.002104 0.003676 0.025086 -0.001340 0.005394
# 5 -0.000343 0.004247 -0.004165 -0.001340 0.036754 -0.010754
# 6 0.001098 -0.001983 0.005637 0.005394 -0.010754 0.038854
#
#
# Mechanical properties :
#
#
# Convention : Reuss Voigt Hill
#
# Bulk Modulus (GPa) = 60.54507 70.43628 65.49068
# Shear Modulus (GPa) = 27.80532 32.41012 30.10772
#
# Velocity S-wave (km/s) = 3.58633 3.87192 3.73186
# Velocity P-wave (km/s) = 6.71975 7.25054 6.99019
#
# Compressibility (1/GPa) = 0.01651662
#
# Stress axis : x y z
#
# Youngs Moduli (GPa) = 73.52191 57.95226 70.36093
#
# Poissons Ratio (x) = 0.10980 0.24847
# Poissons Ratio (y) = 0.13930 0.62272
# Poissons Ratio (z) = 0.25963 0.51290
#
# Static dielectric constant tensor:
#      x y z
#    x 3.907930 0.011960 -0.096560 
#    y 0.011960 3.884070 0.058820 
#    z -0.096560 0.058820 3.909050 
# 
# 
# High freq. dielectric constant tensor:
#      x y z
#    x 1.849740 0.003000 -0.002050 
#    y 0.003000 1.854900 0.004200 
#    z -0.002050 0.004200 1.855010 
# 
# From -- ./inp_files/345903.got.cif
#   From: 2010.06.25/outbox.cif.g09.slc.cpg/sg2_173_cif.got.tgz:345903.got - 2010.06.27 13:26:56.
