data_PCOD8019088
_publ_section_title
;
Structure prediction by ZEFSAII (Michael W. Deem and Ramdas Pophale) SiO2 
 PCOD8019088
Probable space group: P -1
;
_chemical_formula_sum "Si O2"
_cell_formula_units_Z 14
_cell_length_a 11.819529
_cell_length_b 7.409619
_cell_length_c 9.509670
_cell_angle_alpha 67.014772
_cell_angle_beta 106.665672
_cell_angle_gamma 68.618570
_cell_volume 618.041677
_symmetry_space_group_name_H-M "P -1"
_symmetry_group_IT_number 2
_symmetry_cell_setting 'triclinic'
loop_
_space_group_symop_operation_xyz
x,y,z
-x,-y,-z
loop_
_atom_site_type_symbol
_atom_site_label
_atom_site_fract_x
_atom_site_fract_y
_atom_site_fract_z
Si Si1 0.385071 0.519842 0.347717
Si Si2 0.859295 0.530616 0.000246
Si Si3 0.560523 0.850940 0.706902
Si Si4 0.128198 0.073530 0.656145
Si Si5 0.687603 0.730167 0.388411
Si Si6 0.833442 0.366647 0.326942
Si Si7 0.143352 0.885186 0.004876
O O1 0.500000 0.500000 0.500000
O O2 0.447808 0.375105 0.266842
O O3 0.302515 0.414323 0.425539
O O4 0.274218 0.792480 0.188213
O O5 0.871341 0.494600 0.183423
O O6 0.718929 0.776072 0.829633
O O7 0.835991 0.337103 0.995048
O O8 0.000000 0.500000 0.000000
O O9 0.500000 0.000000 0.500000
O O10 0.458851 0.014743 0.747479
O O11 0.189228 0.220423 0.573555
O O12 0.963394 0.220256 0.522420
O O13 0.204439 0.814767 0.692778
O O14 0.145371 0.054716 0.837772
O O15 0.703109 0.573060 0.306461
O O16 0.000000 0.000000 0.000000
#
# Coordination Sequence:
#
# PCOD8019088 Si02
#       7
#     2   2   2   2   2   2   2
#     4  10  23  43  65  94 131 178 220 267 333 399
#     4  10  23  40  66  95 131 171 222 274 325 406
#     4   9  22  42  61  97 130 172 218 270 333 385
#     4  10  23  42  64 101 136 173 219 280 328 398
#     4  11  23  41  71  91 137 174 220 275 331 397
#     4  10  23  41  66 100 133 175 221 266 349 384
#     4  10  22  41  64  95 131 170 221 275 327 385
#
# _framework density 22.652194000000001
#
# number of rings (size 3 to 8) (size 9 to 14) (size 15 to 20)
#    0.000    2.000    0.000    1.286   10.000    2.857 
#    2.571    2.143    0.000    0.000    0.000    0.000 
#    0.000    0.000    0.000    0.000    0.000    0.000 
#
# Total GULP energy -173452.758839 kJ/mol
# GULP energy per Si atom -12389.482774 kJ/mol
# Density = 2.260064 g / cm^3
# Si number density = 22.652194 Si / 1000 Ang^3
#
#
#
# Elastic Constant Matrix: (Units=GPa)
#
#
# Indices 1 2 3 4 5 6 
#
# 1 76.6347 30.7314 40.7675 -1.8408 -0.0938 0.8976
# 2 30.7314 139.5909 35.2737 4.9226 4.9788 -24.3938
# 3 40.7675 35.2737 154.9208 -13.9967 9.6575 -12.8631
# 4 -1.8408 4.9226 -13.9967 23.7057 -7.8600 1.0009
# 5 -0.0938 4.9788 9.6575 -7.8600 39.4559 -5.9442
# 6 0.8976 -24.3938 -12.8631 1.0009 -5.9442 39.4496
#
#
#
# Elastic Compliance Matrix: (Units=1/GPa)
#
#
# Indices 1 2 3 4 5 6 
#
# 1 0.016512 -0.003298 -0.003938 0.000091 0.000900 -0.003566
# 2 -0.003298 0.009241 -0.001034 -0.003264 -0.000754 0.005421
# 3 -0.003938 -0.001034 0.008341 0.004510 -0.000729 0.001946
# 4 0.000091 -0.003264 0.004510 0.048503 0.008904 -0.000439
# 5 0.000900 -0.000754 -0.000729 0.008904 0.027884 0.003251
# 6 -0.003566 0.005421 0.001946 -0.000439 0.003251 0.029917
#
#
# Mechanical properties :
#
#
# Convention : Reuss Voigt Hill
#
# Bulk Modulus (GPa) = 56.97121 64.96575 60.96848
# Shear Modulus (GPa) = 30.71467 38.14718 34.43092
#
# Velocity S-wave (km/s) = 3.68628 4.10816 3.90292
# Velocity P-wave (km/s) = 6.58204 7.15853 6.87633
#
# Compressibility (1/GPa) = 0.01755273
#
# Stress axis : x y z
#
# Youngs Moduli (GPa) = 60.56353 108.21860 119.88928
#
# Poissons Ratio (x) = 0.35696 0.47212
# Poissons Ratio (y) = 0.19977 0.12394
# Poissons Ratio (z) = 0.23850 0.11187
#
# Static dielectric constant tensor:
#      x y z
#    x 3.697230 -0.076450 -0.064170 
#    y -0.076450 4.605140 -0.150830 
#    z -0.064170 -0.150830 4.552850 
# 
# 
# High freq. dielectric constant tensor:
#      x y z
#    x 1.864060 -0.005050 0.001280 
#    y -0.005050 1.912810 -0.005650 
#    z 0.001280 -0.005650 1.893430 
# 
# From -- ./inp_files/237758.got.cif
#   From: 2010.06.25/outbox.cif.g09.slc.cpg/sg2_119_cif.got.tgz:237758.got - 2010.06.27 13:26:56.
