data_PCOD8019788
_publ_section_title
;
Structure prediction by ZEFSAII (Michael W. Deem and Ramdas Pophale) SiO2 
 PCOD8019788
Probable space group: P -1
;
_chemical_formula_sum "Si O2"
_cell_formula_units_Z 14
_cell_length_a 12.201301
_cell_length_b 17.783542
_cell_length_c 9.914701
_cell_angle_alpha 135.098589
_cell_angle_beta 144.383888
_cell_angle_gamma 28.620641
_cell_volume 600.004215
_symmetry_space_group_name_H-M "P -1"
_symmetry_group_IT_number 2
_symmetry_cell_setting 'triclinic'
loop_
_space_group_symop_operation_xyz
x,y,z
-x,-y,-z
loop_
_atom_site_type_symbol
_atom_site_label
_atom_site_fract_x
_atom_site_fract_y
_atom_site_fract_z
Si Si1 0.148359 0.384845 0.376888
Si Si2 0.253178 0.419476 0.247059
Si Si3 0.277877 0.824920 0.208167
Si Si4 0.460015 0.138215 0.964383
Si Si5 0.999506 0.218464 0.921064
Si Si6 0.163166 0.680816 0.409467
Si Si7 0.741359 0.175969 0.109651
O O1 0.152706 0.466569 0.361007
O O2 0.458635 0.227637 0.530859
O O3 0.000000 0.500000 0.500000
O O4 0.999165 0.340004 0.122905
O O5 0.464768 0.231921 0.200693
O O6 0.355446 0.494839 0.396453
O O7 0.000000 0.500000 0.000000
O O8 0.174556 0.773042 0.133011
O O9 0.350091 0.747585 0.033654
O O10 0.061148 0.010023 0.213534
O O11 0.550963 0.154323 0.934282
O O12 0.687809 0.956342 0.006652
O O13 0.157674 0.212057 0.737623
O O14 0.834193 0.279980 0.692709
O O15 0.291467 0.717104 0.679618
#
# Coordination Sequence:
#
# PCOD8019788 Si02
#       7
#     2   2   2   2   2   2   2
#     4  12  27  45  68  95 142 180 218 277 334 402
#     4  10  23  43  64 100 134 170 226 270 335 396
#     4  10  26  45  64 102 137 177 227 267 337 404
#     4  10  22  41  72  97 133 168 229 279 326 393
#     4  11  24  43  71 102 126 178 225 280 333 387
#     4  11  23  40  69  99 133 174 224 272 338 390
#     4  10  24  43  69  98 137 177 221 280 329 397
#
# _framework density 23.333169000000002
#
# number of rings (size 3 to 8) (size 9 to 14) (size 15 to 20)
#    0.000    1.429    2.857    1.286   10.000    2.286 
#    0.000    4.286    0.000    0.000    0.000    0.000 
#    0.000    0.000    0.000    0.000    0.000    0.000 
#
# Total GULP energy -173615.603073 kJ/mol
# GULP energy per Si atom -12401.114505 kJ/mol
# Density = 2.328006 g / cm^3
# Si number density = 23.333169 Si / 1000 Ang^3
#
#
#
# Elastic Constant Matrix: (Units=GPa)
#
#
# Indices 1 2 3 4 5 6 
#
# 1 136.7863 17.9214 34.7101 6.0688 -37.1186 9.0493
# 2 17.9214 87.6754 17.0936 10.9557 -18.8938 7.6751
# 3 34.7101 17.0936 102.7110 8.1298 -27.0286 10.2723
# 4 6.0688 10.9557 8.1298 41.7577 0.2111 3.8814
# 5 -37.1186 -18.8938 -27.0286 0.2111 45.6852 2.7367
# 6 9.0493 7.6751 10.2723 3.8814 2.7367 34.5772
#
#
#
# Elastic Compliance Matrix: (Units=1/GPa)
#
#
# Indices 1 2 3 4 5 6 
#
# 1 0.009851 0.000215 -0.000973 -0.001075 0.007691 -0.002825
# 2 0.000215 0.013312 -0.000216 -0.003229 0.005750 -0.003040
# 3 -0.000973 -0.000216 0.012376 -0.001902 0.006672 -0.003689
# 4 -0.001075 -0.003229 -0.001902 0.025434 -0.003390 -0.001024
# 5 0.007691 0.005750 0.006672 -0.003390 0.034937 -0.007656
# 6 -0.002825 -0.003040 -0.003689 -0.001024 -0.007656 0.032152
#
#
# Mechanical properties :
#
#
# Convention : Reuss Voigt Hill
#
# Bulk Modulus (GPa) = 29.76891 51.84699 40.80795
# Shear Modulus (GPa) = 35.40905 41.56719 38.48812
#
# Velocity S-wave (km/s) = 3.89979 4.22532 4.06581
# Velocity P-wave (km/s) = 5.75010 6.78771 6.29034
#
# Compressibility (1/GPa) = 0.03359209
#
# Stress axis : x y z
#
# Youngs Moduli (GPa) = 101.51095 75.11816 80.80140
#
# Poissons Ratio (x) = -0.01616 0.07865
# Poissons Ratio (y) = -0.02184 0.01742
# Poissons Ratio (z) = 0.09880 0.01619
#
# Static dielectric constant tensor:
#      x y z
#    x 4.636200 -0.030940 -0.021290 
#    y -0.030940 4.587220 0.057240 
#    z -0.021290 0.057240 4.297890 
# 
# 
# High freq. dielectric constant tensor:
#      x y z
#    x 1.945500 -0.006190 0.003680 
#    y -0.006190 1.929270 -0.010550 
#    z 0.003680 -0.010550 1.920640 
# 
# From -- ./inp_files/280002.got.cif
#   From: 2010.06.25/outbox.cif.g09.slc.cpg/sg2_141_cif.got.tgz:280002.got - 2010.06.27 13:26:56.
