data_PCOD8019130
_publ_section_title
;
Structure prediction by ZEFSAII (Michael W. Deem and Ramdas Pophale) SiO2 
 PCOD8019130
Probable space group: P -1
;
_chemical_formula_sum "Si O2"
_cell_formula_units_Z 16
_cell_length_a 8.014732
_cell_length_b 15.457535
_cell_length_c 15.174179
_cell_angle_alpha 35.492913
_cell_angle_beta 96.082414
_cell_angle_gamma 121.191082
_cell_volume 720.801865
_symmetry_space_group_name_H-M "P -1"
_symmetry_group_IT_number 2
_symmetry_cell_setting 'triclinic'
loop_
_space_group_symop_operation_xyz
x,y,z
-x,-y,-z
loop_
_atom_site_type_symbol
_atom_site_label
_atom_site_fract_x
_atom_site_fract_y
_atom_site_fract_z
Si Si1 0.647684 0.486912 0.582329
Si Si2 0.391862 0.695178 0.741068
Si Si3 0.793382 0.742270 0.727241
Si Si4 0.125541 0.699592 0.032409
Si Si5 0.243540 0.008118 0.927931
Si Si6 0.393297 0.584774 0.163394
Si Si7 0.766170 0.147566 0.276470
Si Si8 0.097855 0.941803 0.170447
O O1 0.500000 0.500000 0.500000
O O2 0.575412 0.470477 0.693465
O O3 0.949091 0.707767 0.404750
O O4 0.541303 0.252018 0.746296
O O5 0.562242 0.680552 0.812266
O O6 0.261285 0.712431 0.792347
O O7 0.172475 0.472757 0.855798
O O8 0.569517 0.902147 0.510922
O O9 0.663377 0.586376 0.763429
O O10 0.939130 0.712759 0.816236
O O11 0.000000 0.000000 0.500000
O O12 0.163368 0.549033 0.176446
O O13 0.221239 0.846692 0.002334
O O14 0.285471 0.863471 0.820758
O O15 0.148129 0.913515 0.099327
O O16 0.076641 0.028210 0.860329
O O17 0.648009 0.847284 0.937398
#
# Coordination Sequence:
#
# PCOD8019130 Si02
#       8
#     2   2   2   2   2   2   2   2
#     4   9  20  39  65  86 124 162 204 270 312 373
#     4  10  22  41  65  87 128 174 208 265 313 367
#     4  10  22  42  67  92 127 172 213 263 312 374
#     4  12  24  39  62  92 133 166 209 266 316 379
#     4   9  20  38  61  90 120 160 205 260 315 373
#     4  11  23  39  59  95 125 160 216 264 306 383
#     4  10  23  44  60  93 132 167 213 264 314 372
#     4   9  19  39  62  88 120 156 211 259 310 381
#
# _framework density 22.197502
#
# number of rings (size 3 to 8) (size 9 to 14) (size 15 to 20)
#    0.000    2.000    1.250    1.875    0.000    8.500 
#    2.250    1.250    0.000    0.000    0.000    0.000 
#    0.000    0.000    0.000    0.000    0.000    0.000 
#
# Total GULP energy -198331.077736 kJ/mol
# GULP energy per Si atom -12395.692358 kJ/mol
# Density = 2.214698 g / cm^3
# Si number density = 22.197502 Si / 1000 Ang^3
#
#
#
# Elastic Constant Matrix: (Units=GPa)
#
#
# Indices 1 2 3 4 5 6 
#
# 1 118.2881 26.5108 28.1333 -5.2763 -1.5015 -1.2403
# 2 26.5108 99.7294 35.7696 -18.0207 3.1009 -11.7171
# 3 28.1333 35.7696 98.3870 -21.9996 -15.5286 -4.2914
# 4 -5.2763 -18.0207 -21.9996 39.3460 7.6947 4.8157
# 5 -1.5015 3.1009 -15.5286 7.6947 28.8872 -6.4639
# 6 -1.2403 -11.7171 -4.2914 4.8157 -6.4639 32.4226
#
#
#
# Elastic Compliance Matrix: (Units=1/GPa)
#
#
# Indices 1 2 3 4 5 6 
#
# 1 0.009365 -0.001861 -0.002258 -0.000691 -0.000479 -0.000606
# 2 -0.001861 0.013075 -0.003832 0.004048 -0.004024 0.002743
# 3 -0.002258 -0.003832 0.014368 0.004442 0.007100 0.001186
# 4 -0.000691 0.004048 0.004442 0.031623 -0.007436 -0.004155
# 5 -0.000479 -0.004024 0.007100 -0.007436 0.042862 0.009117
# 6 -0.000606 0.002743 0.001186 -0.004155 0.009117 0.034403
#
#
# Mechanical properties :
#
#
# Convention : Reuss Voigt Hill
#
# Bulk Modulus (GPa) = 47.83086 55.24800 51.53943
# Shear Modulus (GPa) = 29.66200 35.19720 32.42960
#
# Velocity S-wave (km/s) = 3.65948 3.98633 3.82639
# Velocity P-wave (km/s) = 6.28095 6.79198 6.54146
#
# Compressibility (1/GPa) = 0.02090700
#
# Stress axis : x y z
#
# Youngs Moduli (GPa) = 106.78395 76.48190 69.59746
#
# Poissons Ratio (x) = 0.14232 0.15714
# Poissons Ratio (y) = 0.19870 0.26669
# Poissons Ratio (z) = 0.24110 0.29307
#
# Static dielectric constant tensor:
#      x y z
#    x 4.236720 0.035690 -0.217710 
#    y 0.035690 4.069420 -0.093240 
#    z -0.217710 -0.093240 4.370450 
# 
# 
# High freq. dielectric constant tensor:
#      x y z
#    x 1.865330 0.008520 -0.003690 
#    y 0.008520 1.865170 -0.012400 
#    z -0.003690 -0.012400 1.886700 
# 
# From -- ./inp_files/505286.got.cif
#   From: 2010.06.25/outbox.cif.g09.slc.cpg/sg2_253_cif.got.tgz:505286.got - 2010.06.27 13:26:56.
