data_PCOD8019401
_publ_section_title
;
Structure prediction by ZEFSAII (Michael W. Deem and Ramdas Pophale) SiO2 
 PCOD8019401
Probable space group: P -1
;
_chemical_formula_sum "Si O2"
_cell_formula_units_Z 12
_cell_length_a 8.300344
_cell_length_b 18.915420
_cell_length_c 7.210420
_cell_angle_alpha 50.534700
_cell_angle_beta 36.408205
_cell_angle_gamma 45.171278
_cell_volume 470.236879
_symmetry_space_group_name_H-M "P -1"
_symmetry_group_IT_number 2
_symmetry_cell_setting 'triclinic'
loop_
_space_group_symop_operation_xyz
x,y,z
-x,-y,-z
loop_
_atom_site_type_symbol
_atom_site_label
_atom_site_fract_x
_atom_site_fract_y
_atom_site_fract_z
Si Si1 0.590563 0.984623 0.153303
Si Si2 0.406607 0.499925 0.297671
Si Si3 0.740179 0.142122 0.294992
Si Si4 0.548714 0.316020 0.912630
Si Si5 0.442447 0.810584 0.199635
Si Si6 0.064334 0.388672 0.966758
O O1 0.375107 0.941918 0.523687
O O2 0.921793 0.898023 0.018986
O O3 0.500000 0.000000 0.000000
O O4 0.551178 0.094140 0.078927
O O5 0.154020 0.458925 0.626011
O O6 0.500000 0.500000 0.000000
O O7 0.287079 0.613556 0.300031
O O8 0.708659 0.425717 0.251227
O O9 0.541463 0.249936 0.206740
O O10 0.735048 0.154488 0.502306
O O11 0.713528 0.241124 0.710612
O O12 0.206048 0.388983 0.040604
O O13 0.782666 0.726506 0.063380
#
# Coordination Sequence:
#
# PCOD8019401 Si02
#       6
#     2   2   2   2   2   2
#     4  10  22  41  67  94 133 174 216 269 325 382
#     4  12  24  44  69  96 130 175 215 269 329 389
#     4  11  23  43  65  97 132 173 219 265 327 390
#     4  10  25  44  68 101 130 176 217 273 324 393
#     4   9  22  43  65  97 130 174 214 272 322 379
#     4  10  25  43  65  95 136 163 221 269 323 386
#
# _framework density 25.519054000000001
#
# number of rings (size 3 to 8) (size 9 to 14) (size 15 to 20)
#    1.000    0.667    0.000    4.500    0.000   10.667 
#    0.000    0.000    0.000    0.000    0.000    0.000 
#    0.000    0.000    0.000    0.000    0.000    0.000 
#
# Total GULP energy -148712.408147 kJ/mol
# GULP energy per Si atom -12392.700679 kJ/mol
# Density = 2.546097 g / cm^3
# Si number density = 25.519054 Si / 1000 Ang^3
#
#
#
# Elastic Constant Matrix: (Units=GPa)
#
#
# Indices 1 2 3 4 5 6 
#
# 1 73.0213 22.7593 12.9781 -9.7059 12.2383 4.3015
# 2 22.7593 106.3195 26.5065 -27.0773 -2.1484 21.4650
# 3 12.9781 26.5065 75.0454 -3.1685 0.8891 -4.6819
# 4 -9.7059 -27.0773 -3.1685 32.5225 -10.0916 -1.1991
# 5 12.2383 -2.1484 0.8891 -10.0916 28.2633 -4.3627
# 6 4.3015 21.4650 -4.6819 -1.1991 -4.3627 49.5878
#
#
#
# Elastic Compliance Matrix: (Units=1/GPa)
#
#
# Indices 1 2 3 4 5 6 
#
# 1 0.016222 -0.003075 -0.001696 -0.000220 -0.007421 -0.000894
# 2 -0.003075 0.016340 -0.005123 0.014055 0.006772 -0.006354
# 3 -0.001696 -0.005123 0.015525 -0.003364 -0.000776 0.003681
# 4 -0.000220 0.014055 -0.003364 0.047388 0.017620 -0.003686
# 5 -0.007421 0.006772 -0.000776 0.017620 0.045748 0.002090
# 6 -0.000894 -0.006354 0.003681 -0.003686 0.002090 0.023437
#
#
# Mechanical properties :
#
#
# Convention : Reuss Voigt Hill
#
# Bulk Modulus (GPa) = 35.33790 42.09712 38.71751
# Shear Modulus (GPa) = 25.78903 34.88423 30.33663
#
# Velocity S-wave (km/s) = 3.18241 3.70129 3.45161
# Velocity P-wave (km/s) = 5.23272 5.89900 5.57582
#
# Compressibility (1/GPa) = 0.02829823
#
# Stress axis : x y z
#
# Youngs Moduli (GPa) = 61.64549 61.19864 64.41270
#
# Poissons Ratio (x) = 0.18819 0.10927
# Poissons Ratio (y) = 0.18956 0.32998
# Poissons Ratio (z) = 0.10458 0.31352
#
# Static dielectric constant tensor:
#      x y z
#    x 4.550470 0.043470 -0.128540 
#    y 0.043470 5.129660 -0.689470 
#    z -0.128540 -0.689470 4.466260 
# 
# 
# High freq. dielectric constant tensor:
#      x y z
#    x 2.007930 0.001710 0.004600 
#    y 0.001710 2.029690 -0.027160 
#    z 0.004600 -0.027160 2.002030 
# 
# From -- ./inp_files/222945.got.cif
#   From: 2010.06.25/outbox.cif.g09.slc.cpg/sg2_112_cif.got.tgz:222945.got - 2010.06.27 13:26:56.
