data_PCOD8019035
_publ_section_title
;
Structure prediction by ZEFSAII (Michael W. Deem and Ramdas Pophale) SiO2 
 PCOD8019035
Probable space group: P -1
;
_chemical_formula_sum "Si O2"
_cell_formula_units_Z 16
_cell_length_a 12.898148
_cell_length_b 11.444332
_cell_length_c 13.760158
_cell_angle_alpha 30.793959
_cell_angle_beta 135.074874
_cell_angle_gamma 123.903561
_cell_volume 727.149822
_symmetry_space_group_name_H-M "P -1"
_symmetry_group_IT_number 2
_symmetry_cell_setting 'triclinic'
loop_
_space_group_symop_operation_xyz
x,y,z
-x,-y,-z
loop_
_atom_site_type_symbol
_atom_site_label
_atom_site_fract_x
_atom_site_fract_y
_atom_site_fract_z
Si Si1 0.770078 0.766481 0.687206
Si Si2 0.018135 0.067204 0.596847
Si Si3 0.697199 0.915353 0.920834
Si Si4 0.477777 0.446090 0.831895
Si Si5 0.813607 0.303041 0.146721
Si Si6 0.692836 0.069349 0.600355
Si Si7 0.496884 0.627484 0.507555
Si Si8 0.991996 0.769483 0.313985
O O1 0.898364 0.890256 0.640381
O O2 0.649556 0.733190 0.548984
O O3 0.683264 0.915989 0.608761
O O4 0.846056 0.519879 0.951048
O O5 0.162164 0.931438 0.735348
O O6 0.934622 0.286144 0.325982
O O7 0.062836 0.151109 0.671098
O O8 0.664210 0.910058 0.787418
O O9 0.635756 0.166447 0.740006
O O10 0.630937 0.714962 0.078286
O O11 0.872940 0.888870 0.073590
O O12 0.432680 0.708151 0.652425
O O13 0.468366 0.456524 0.700040
O O14 0.645575 0.345250 0.046599
O O15 0.850957 0.154090 0.658975
O O16 0.500000 0.500000 0.500000
O O17 0.000000 0.500000 0.500000
#
# Coordination Sequence:
#
# PCOD8019035 Si02
#       8
#     2   2   2   2   2   2   2   2
#     4  10  22  42  68  92 127 164 213 266 314 372
#     4  10  23  43  62  95 124 167 219 256 312 379
#     4  11  23  41  66  93 130 176 203 264 326 368
#     4  10  22  42  67  95 129 164 217 262 318 379
#     4  10  22  41  64  91 124 168 212 265 312 370
#     4  10  23  43  65  98 125 165 219 262 316 383
#     4  10  24  43  62  98 130 166 214 258 318 385
#     4  11  23  42  65  93 132 166 213 264 314 383
#
# _framework density 22.003720000000001
#
# number of rings (size 3 to 8) (size 9 to 14) (size 15 to 20)
#    0.000    1.750    1.250    1.500    5.250    5.000 
#    4.500    4.375    0.000    0.000    0.000    0.000 
#    0.000    0.000    0.000    0.000    0.000    0.000 
#
# Total GULP energy -198384.565575 kJ/mol
# GULP energy per Si atom -12399.035348 kJ/mol
# Density = 2.195364 g / cm^3
# Si number density = 22.003720 Si / 1000 Ang^3
#
#
#
# Elastic Constant Matrix: (Units=GPa)
#
#
# Indices 1 2 3 4 5 6 
#
# 1 40.3754 10.6444 35.3474 7.7895 5.8153 -1.8745
# 2 10.6444 92.0244 35.6972 6.9407 3.7170 -7.8508
# 3 35.3474 35.6972 136.3873 -0.4805 23.9606 -5.3763
# 4 7.7895 6.9407 -0.4805 16.8843 5.3953 1.1743
# 5 5.8153 3.7170 23.9606 5.3953 40.3427 2.1673
# 6 -1.8745 -7.8508 -5.3763 1.1743 2.1673 41.9377
#
#
#
# Elastic Compliance Matrix: (Units=1/GPa)
#
#
# Indices 1 2 3 4 5 6 
#
# 1 0.036824 0.001162 -0.010454 -0.018870 0.003270 0.000883
# 2 0.001162 0.012856 -0.003916 -0.006635 0.001751 0.002052
# 3 -0.010454 -0.003916 0.012282 0.008871 -0.006639 0.000469
# 4 -0.018870 -0.006635 0.008871 0.074858 -0.011818 -0.002434
# 5 0.003270 0.001751 -0.006639 -0.011818 0.029763 -0.001584
# 6 0.000883 0.002052 0.000469 -0.002434 -0.001584 0.024479
#
#
# Mechanical properties :
#
#
# Convention : Reuss Voigt Hill
#
# Bulk Modulus (GPa) = 28.13213 48.01834 38.07523
# Shear Modulus (GPa) = 21.80295 32.30613 27.05454
#
# Velocity S-wave (km/s) = 3.15123 3.83588 3.51029
# Velocity P-wave (km/s) = 5.10424 6.44119 5.81129
#
# Compressibility (1/GPa) = 0.03554655
#
# Stress axis : x y z
#
# Youngs Moduli (GPa) = 27.15639 77.78396 81.41711
#
# Poissons Ratio (x) = -0.09041 0.85113
# Poissons Ratio (y) = -0.03156 0.31885
# Poissons Ratio (z) = 0.28389 0.30462
#
# Static dielectric constant tensor:
#      x y z
#    x 4.195250 0.036710 0.124210 
#    y 0.036710 3.718820 -0.003900 
#    z 0.124210 -0.003900 4.281290 
# 
# 
# High freq. dielectric constant tensor:
#      x y z
#    x 1.874160 -0.001560 0.007170 
#    y -0.001560 1.847080 -0.000480 
#    z 0.007170 -0.000480 1.885920 
# 
# From -- ./inp_files/532301.got.cif
#   From: 2010.06.25/outbox.cif.g09.slc.cpg/sg2_267_cif.got.tgz:532301.got - 2010.06.27 13:26:56.
