data_PCOD8019855
_publ_section_title
;
Structure prediction by ZEFSAII (Michael W. Deem and Ramdas Pophale) SiO2 
 PCOD8019855
Probable space group: P -1
;
_chemical_formula_sum "Si O2"
_cell_formula_units_Z 16
_cell_length_a 18.826337
_cell_length_b 7.049812
_cell_length_c 5.391081
_cell_angle_alpha 64.331652
_cell_angle_beta 71.043622
_cell_angle_gamma 83.196439
_cell_volume 609.722689
_symmetry_space_group_name_H-M "P -1"
_symmetry_group_IT_number 2
_symmetry_cell_setting 'triclinic'
loop_
_space_group_symop_operation_xyz
x,y,z
-x,-y,-z
loop_
_atom_site_type_symbol
_atom_site_label
_atom_site_fract_x
_atom_site_fract_y
_atom_site_fract_z
Si Si1 0.572611 0.749714 0.437172
Si Si2 0.033719 0.598628 0.152883
Si Si3 0.823763 0.120058 0.646279
Si Si4 0.590167 0.333761 0.355917
Si Si5 0.855305 0.541518 0.563137
Si Si6 0.658872 0.037977 0.856368
Si Si7 0.894040 0.978976 0.147219
Si Si8 0.313704 0.381127 0.203232
O O1 0.572493 0.570225 0.329818
O O2 0.486459 0.764451 0.622447
O O3 0.628223 0.680455 0.621603
O O4 0.600830 0.984349 0.177846
O O5 0.121871 0.534389 0.139624
O O6 0.000000 0.500000 0.500000
O O7 0.035016 0.856783 0.994944
O O8 0.000000 0.500000 0.000000
O O9 0.866344 0.347978 0.469133
O O10 0.735595 0.162466 0.768658
O O11 0.838430 0.008498 0.430536
O O12 0.853464 0.991291 0.921489
O O13 0.615699 0.168907 0.625695
O O14 0.658033 0.383904 0.055694
O O15 0.770284 0.611082 0.605068
O O16 0.913153 0.729448 0.289350
O O17 0.686530 0.804942 0.889510
#
# Coordination Sequence:
#
# PCOD8019855 Si02
#       8
#     2   2   2   2   2   2   2   2
#     4  10  22  42  60  95 136 186 241 296 362 433
#     4  11  26  49  73 110 147 185 236 287 354 439
#     4  11  25  43  70 108 147 183 245 302 352 422
#     4  10  23  39  64  91 137 187 237 299 365 424
#     4  11  25  45  76 103 146 190 234 300 361 421
#     4  11  23  38  65  95 142 181 247 297 362 423
#     4  11  25  47  75 109 144 188 237 290 357 430
#     4  11  23  41  65 102 133 183 242 299 360 429
#
# _framework density 26.241437999999999
#
# number of rings (size 3 to 8) (size 9 to 14) (size 15 to 20)
#    0.000    1.250    1.250    3.750    3.500    6.500 
#    4.500    0.000    0.000    0.000    0.000    0.000 
#    0.000    0.000    0.000    0.000    0.000    0.000 
#
# Total GULP energy -198287.302534 kJ/mol
# GULP energy per Si atom -12392.956408 kJ/mol
# Density = 2.618171 g / cm^3
# Si number density = 26.241438 Si / 1000 Ang^3
#
#
#
# Elastic Constant Matrix: (Units=GPa)
#
#
# Indices 1 2 3 4 5 6 
#
# 1 127.4454 23.4019 63.1153 -22.4429 12.8201 34.7032
# 2 23.4019 80.9898 42.0987 -23.9950 -0.7393 6.7209
# 3 63.1153 42.0987 176.9348 -30.7322 -0.5680 13.6311
# 4 -22.4429 -23.9950 -30.7322 55.7772 7.4149 0.1735
# 5 12.8201 -0.7393 -0.5680 7.4149 52.7410 -4.9541
# 6 34.7032 6.7209 13.6311 0.1735 -4.9541 32.2941
#
#
#
# Elastic Compliance Matrix: (Units=1/GPa)
#
#
# Indices 1 2 3 4 5 6 
#
# 1 0.015428 0.000150 -0.003404 0.005250 -0.006038 -0.016128
# 2 0.000150 0.015451 -0.002609 0.005388 -0.000834 -0.002432
# 3 -0.003404 -0.002609 0.007693 0.001645 0.000742 0.001059
# 4 0.005250 0.005388 0.001645 0.024002 -0.005347 -0.008406
# 5 -0.006038 -0.000834 0.000742 -0.005347 0.022094 0.009767
# 6 -0.016128 -0.002432 0.001059 -0.008406 0.009767 0.049899
#
#
# Mechanical properties :
#
#
# Convention : Reuss Voigt Hill
#
# Bulk Modulus (GPa) = 37.25000 71.40020 54.32510
# Shear Modulus (GPa) = 32.20771 45.27939 38.74355
#
# Velocity S-wave (km/s) = 3.50717 4.15841 3.84660
# Velocity P-wave (km/s) = 5.53410 7.09398 6.36203
#
# Compressibility (1/GPa) = 0.02684563
#
# Stress axis : x y z
#
# Youngs Moduli (GPa) = 64.81614 64.72213 129.98030
#
# Poissons Ratio (x) = -0.00972 0.44249
# Poissons Ratio (y) = -0.00973 0.33915
# Poissons Ratio (z) = 0.22065 0.16887
#
# Static dielectric constant tensor:
#      x y z
#    x 5.697890 0.194190 -0.385000 
#    y 0.194190 7.192150 -1.371150 
#    z -0.385000 -1.371150 5.391860 
# 
# 
# High freq. dielectric constant tensor:
#      x y z
#    x 2.077560 0.003080 -0.014350 
#    y 0.003080 2.063810 -0.026110 
#    z -0.014350 -0.026110 2.057440 
# 
# From -- ./inp_files/106079.got.cif
#   From: 2010.06.25/outbox.cif.g09.slc.cpg/sg2_54_cif.got.tgz:106079.got - 2010.06.27 13:26:56.
