data_PCOD8019239
_publ_section_title
;
Structure prediction by ZEFSAII (Michael W. Deem and Ramdas Pophale) SiO2 
 PCOD8019239
Probable space group: P -1
;
_chemical_formula_sum "Si O2"
_cell_formula_units_Z 16
_cell_length_a 11.434692
_cell_length_b 11.876940
_cell_length_c 11.461577
_cell_angle_alpha 108.079008
_cell_angle_beta 76.695720
_cell_angle_gamma 41.057009
_cell_volume 650.123300
_symmetry_space_group_name_H-M "P -1"
_symmetry_group_IT_number 2
_symmetry_cell_setting 'triclinic'
loop_
_space_group_symop_operation_xyz
x,y,z
-x,-y,-z
loop_
_atom_site_type_symbol
_atom_site_label
_atom_site_fract_x
_atom_site_fract_y
_atom_site_fract_z
Si Si1 0.766049 0.747757 0.429186
Si Si2 0.949644 0.804577 0.301069
Si Si3 0.634463 0.601559 0.102241
Si Si4 0.984180 0.681320 0.881832
Si Si5 0.462003 0.849295 0.684230
Si Si6 0.805712 0.001778 0.820724
Si Si7 0.573588 0.468175 0.827050
Si Si8 0.338596 0.580584 0.463020
O O1 0.684565 0.754117 0.570820
O O2 0.893762 0.767835 0.414414
O O3 0.983678 0.481497 0.219658
O O4 0.500000 0.000000 0.500000
O O5 0.117248 0.771400 0.291684
O O6 0.119624 0.582008 0.095238
O O7 0.681471 0.071461 0.376431
O O8 0.381201 0.897935 0.204524
O O9 0.538569 0.548139 0.083489
O O10 0.730230 0.537690 0.191951
O O11 0.952689 0.783683 0.804161
O O12 0.735575 0.918846 0.100896
O O13 0.605961 0.608701 0.626950
O O14 0.625200 0.247056 0.019331
O O15 0.029801 0.874710 0.656818
O O16 0.575864 0.430005 0.678747
O O17 0.500000 0.500000 0.500000
#
# Coordination Sequence:
#
# PCOD8019239 Si02
#       8
#     2   2   2   2   2   2   2   2
#     4  10  22  42  71  98 131 172 229 279 329 402
#     4   9  21  42  69  92 131 174 223 274 334 395
#     4  10  24  41  69 102 132 178 224 271 335 406
#     4  11  22  43  73  96 133 182 219 275 345 385
#     4  10  22  41  66 100 131 173 228 271 330 406
#     4  11  23  42  67  95 141 171 224 273 330 402
#     4  11  24  45  65  97 137 178 214 280 341 390
#     4  12  26  38  66 102 134 178 224 269 334 404
#
# _framework density 24.610717000000001
#
# number of rings (size 3 to 8) (size 9 to 14) (size 15 to 20)
#    0.000    1.500    2.500    2.250    5.250    8.000 
#    0.000    4.375    5.500    0.000    0.000    0.000 
#    0.000    0.000    0.000    0.000    0.000    0.000 
#
# Total GULP energy -198228.443385 kJ/mol
# GULP energy per Si atom -12389.277712 kJ/mol
# Density = 2.455470 g / cm^3
# Si number density = 24.610717 Si / 1000 Ang^3
#
#
#
# Elastic Constant Matrix: (Units=GPa)
#
#
# Indices 1 2 3 4 5 6 
#
# 1 49.0123 18.3959 19.0750 -10.5941 -19.3125 1.0223
# 2 18.3959 109.3285 16.8715 -8.3369 -6.4091 -19.8827
# 3 19.0750 16.8715 107.2291 -14.9555 -9.1174 0.5416
# 4 -10.5941 -8.3369 -14.9555 21.7426 4.2153 -14.0975
# 5 -19.3125 -6.4091 -9.1174 4.2153 35.7211 -0.7865
# 6 1.0223 -19.8827 0.5416 -14.0975 -0.7865 31.9246
#
#
#
# Elastic Compliance Matrix: (Units=1/GPa)
#
#
# Indices 1 2 3 4 5 6 
#
# 1 0.030108 -0.002526 -0.002205 0.011315 0.013989 0.002841
# 2 -0.002526 0.013055 0.000107 0.012904 -0.000213 0.013903
# 3 -0.002205 0.000107 0.010983 0.008927 0.000663 0.003909
# 4 0.011315 0.012904 0.008927 0.094377 0.000658 0.049215
# 5 0.013989 -0.000213 0.000663 0.000658 0.035624 0.000576
# 6 0.002841 0.013903 0.003909 0.049215 0.000576 0.061572
#
#
# Mechanical properties :
#
#
# Convention : Reuss Voigt Hill
#
# Bulk Modulus (GPa) = 22.27329 41.58384 31.92857
# Shear Modulus (GPa) = 18.52305 31.95949 25.24127
#
# Velocity S-wave (km/s) = 2.74641 3.60752 3.20601
# Velocity P-wave (km/s) = 4.37343 5.85539 5.16781
#
# Compressibility (1/GPa) = 0.04489682
#
# Stress axis : x y z
#
# Youngs Moduli (GPa) = 33.21374 76.59729 91.04949
#
# Poissons Ratio (x) = 0.19350 0.20079
# Poissons Ratio (y) = 0.08390 -0.00971
# Poissons Ratio (z) = 0.07325 -0.00817
#
# Static dielectric constant tensor:
#      x y z
#    x 4.286360 0.021510 -0.342210 
#    y 0.021510 4.685990 -0.089200 
#    z -0.342210 -0.089200 4.634210 
# 
# 
# High freq. dielectric constant tensor:
#      x y z
#    x 1.948460 0.001370 -0.011830 
#    y 0.001370 1.985420 -0.004890 
#    z -0.011830 -0.004890 1.993850 
# 
# From -- ./inp_files/428373.got.cif
#   From: 2010.06.25/outbox.cif.g09.slc.cpg/sg2_215_cif.got.tgz:428373.got - 2010.06.27 13:26:56.
