data_PCOD8019531
_publ_section_title
;
Structure prediction by ZEFSAII (Michael W. Deem and Ramdas Pophale) SiO2 
 PCOD8019531
Probable space group: P -1
;
_chemical_formula_sum "Si O2"
_cell_formula_units_Z 14
_cell_length_a 8.745993
_cell_length_b 9.020206
_cell_length_c 11.711102
_cell_angle_alpha 72.924512
_cell_angle_beta 114.273149
_cell_angle_gamma 132.664850
_cell_volume 619.154582
_symmetry_space_group_name_H-M "P -1"
_symmetry_group_IT_number 2
_symmetry_cell_setting 'triclinic'
loop_
_space_group_symop_operation_xyz
x,y,z
-x,-y,-z
loop_
_atom_site_type_symbol
_atom_site_label
_atom_site_fract_x
_atom_site_fract_y
_atom_site_fract_z
Si Si1 0.162245 0.512209 0.827247
Si Si2 0.090261 0.386984 0.586744
Si Si3 0.001653 0.247083 0.232962
Si Si4 0.249847 0.983917 0.578927
Si Si5 0.408837 0.302463 0.380900
Si Si6 0.564656 0.904237 0.763491
Si Si7 0.047828 0.852042 0.015905
O O1 0.071913 0.366666 0.722206
O O2 0.412433 0.706640 0.841108
O O3 0.022323 0.584267 0.791353
O O4 0.147221 0.381594 0.956763
O O5 0.337465 0.506355 0.593262
O O6 0.000000 0.500000 0.500000
O O7 0.941886 0.169159 0.534277
O O8 0.258449 0.364560 0.301703
O O9 0.858464 0.059601 0.320039
O O10 0.908964 0.141882 0.105700
O O11 0.429857 0.956445 0.645751
O O12 0.363394 0.205977 0.515433
O O13 0.332664 0.137611 0.296323
O O14 0.743585 0.082536 0.862288
O O15 0.000000 0.000000 0.000000
#
# Coordination Sequence:
#
# PCOD8019531 Si02
#       7
#     2   2   2   2   2   2   2
#     4  10  24  44  66  93 134 168 215 272 316 384
#     4  11  21  41  67  97 128 173 215 253 330 396
#     4  11  24  44  62 102 134 166 219 270 319 384
#     4  11  23  40  66  96 135 167 213 266 319 388
#     4  11  22  40  66  99 132 168 209 268 325 382
#     4  10  22  41  68  95 124 174 222 252 327 388
#     4  12  25  44  70  92 125 176 224 264 320 380
#
# _framework density 22.611478000000002
#
# number of rings (size 3 to 8) (size 9 to 14) (size 15 to 20)
#    0.000    1.143    5.714    2.143    2.000    3.429 
#    0.000    4.286    0.000    0.000    0.000    0.000 
#    0.000    0.000    0.000    0.000    0.000    0.000 
#
# Total GULP energy -173614.292766 kJ/mol
# GULP energy per Si atom -12401.020912 kJ/mol
# Density = 2.256001 g / cm^3
# Si number density = 22.611478 Si / 1000 Ang^3
#
#
#
# Elastic Constant Matrix: (Units=GPa)
#
#
# Indices 1 2 3 4 5 6 
#
# 1 117.8694 32.4012 50.4845 -18.0770 -3.7726 5.6144
# 2 32.4012 61.1218 50.4857 -8.7241 -1.4548 3.4075
# 3 50.4845 50.4857 115.4174 1.9522 -24.9066 5.6502
# 4 -18.0770 -8.7241 1.9522 34.4226 0.5515 2.6816
# 5 -3.7726 -1.4548 -24.9066 0.5515 37.9257 3.0412
# 6 5.6144 3.4075 5.6502 2.6816 3.0412 18.7629
#
#
#
# Elastic Compliance Matrix: (Units=1/GPa)
#
#
# Indices 1 2 3 4 5 6 
#
# 1 0.012103 -0.000968 -0.005349 0.006638 -0.002249 -0.002419
# 2 -0.000968 0.029962 -0.014663 0.008093 -0.008655 -0.000490
# 3 -0.005349 -0.014663 0.020417 -0.007665 0.012653 -0.002840
# 4 0.006638 0.008093 -0.007665 0.035522 -0.004134 -0.005555
# 5 -0.002249 -0.008655 0.012653 -0.004134 0.034711 -0.006601
# 6 -0.002419 -0.000490 -0.002840 -0.005555 -0.006601 0.056829
#
#
# Mechanical properties :
#
#
# Convention : Reuss Voigt Hill
#
# Bulk Modulus (GPa) = 48.73229 62.35014 55.54121
# Shear Modulus (GPa) = 20.97807 28.95803 24.96805
#
# Velocity S-wave (km/s) = 3.04922 3.58254 3.32659
# Velocity P-wave (km/s) = 5.83059 6.68933 6.27467
#
# Compressibility (1/GPa) = 0.02052028
#
# Stress axis : x y z
#
# Youngs Moduli (GPa) = 82.62660 33.37550 48.97864
#
# Poissons Ratio (x) = 0.03232 0.26200
# Poissons Ratio (y) = 0.08002 0.71817
# Poissons Ratio (z) = 0.44200 0.48938
#
# Static dielectric constant tensor:
#      x y z
#    x 4.176680 0.133370 -0.118840 
#    y 0.133370 3.914300 0.062260 
#    z -0.118840 0.062260 4.306900 
# 
# 
# High freq. dielectric constant tensor:
#      x y z
#    x 1.900930 0.006250 -0.006870 
#    y 0.006250 1.877590 -0.005370 
#    z -0.006870 -0.005370 1.896340 
# 
# From -- ./inp_files/378828.got.cif
#   From: 2010.06.25/outbox.cif.g09.slc.cpg/sg2_190_cif.got.tgz:378828.got - 2010.06.27 13:26:56.
