data_PCOD8019821
_publ_section_title
;
Structure prediction by ZEFSAII (Michael W. Deem and Ramdas Pophale) SiO2 
 PCOD8019821
Probable space group: P -1
;
_chemical_formula_sum "Si O2"
_cell_formula_units_Z 16
_cell_length_a 11.741789
_cell_length_b 12.659008
_cell_length_c 11.981792
_cell_angle_alpha 142.832968
_cell_angle_beta 93.762689
_cell_angle_gamma 113.779066
_cell_volume 703.265298
_symmetry_space_group_name_H-M "P -1"
_symmetry_group_IT_number 2
_symmetry_cell_setting 'triclinic'
loop_
_space_group_symop_operation_xyz
x,y,z
-x,-y,-z
loop_
_atom_site_type_symbol
_atom_site_label
_atom_site_fract_x
_atom_site_fract_y
_atom_site_fract_z
Si Si1 0.862879 0.539497 0.182892
Si Si2 0.452529 0.275292 0.741505
Si Si3 0.820980 0.863535 0.543599
Si Si4 0.544094 0.599947 0.463566
Si Si5 0.366005 0.935797 0.077668
Si Si6 0.785803 0.182999 0.501762
Si Si7 0.366844 0.059954 0.940673
Si Si8 0.188705 0.457394 0.063700
O O1 0.784006 0.634655 0.291785
O O2 0.071121 0.787615 0.418928
O O3 0.796864 0.304176 0.057743
O O4 0.811174 0.440241 0.968363
O O5 0.295615 0.126506 0.519491
O O6 0.624226 0.417930 0.803646
O O7 0.394828 0.064520 0.652543
O O8 0.500000 0.500000 0.000000
O O9 0.743932 0.779988 0.594610
O O10 0.027238 0.136100 0.784593
O O11 0.500000 0.500000 0.500000
O O12 0.520399 0.784463 0.612632
O O13 0.418920 0.326654 0.151867
O O14 0.469968 0.878565 0.015923
O O15 0.294860 0.935709 0.956067
O O16 0.841339 0.444680 0.754112
O O17 0.774143 0.146797 0.337073
#
# Coordination Sequence:
#
# PCOD8019821 Si02
#       8
#     2   2   2   2   2   2   2   2
#     4  12  23  44  67  97 144 185 228 291 348 411
#     4  12  24  42  67  96 134 185 229 287 345 411
#     4  12  24  44  69 100 141 184 234 286 352 415
#     4  10  22  42  73 100 132 183 233 285 351 414
#     4  10  22  41  74  94 134 181 226 294 346 407
#     4  12  26  42  65  98 142 182 237 290 340 419
#     4  10  22  45  65 103 132 176 239 284 347 411
#     4  12  26  44  66 102 143 187 236 281 350 419
#
# _framework density 22.751017000000001
#
# number of rings (size 3 to 8) (size 9 to 14) (size 15 to 20)
#    0.000    0.750    3.750    4.125    3.500    0.500 
#    0.000    0.000    0.000    3.000    0.000    0.000 
#    0.000    0.000    0.000    0.000    0.000    0.000 
#
# Total GULP energy -198316.674224 kJ/mol
# GULP energy per Si atom -12394.792139 kJ/mol
# Density = 2.269923 g / cm^3
# Si number density = 22.751017 Si / 1000 Ang^3
#
#
#
# Elastic Constant Matrix: (Units=GPa)
#
#
# Indices 1 2 3 4 5 6 
#
# 1 75.6852 34.8101 34.5327 -11.2936 -1.7793 3.1255
# 2 34.8101 104.5952 51.6165 8.0661 -7.5116 13.7512
# 3 34.5327 51.6165 118.4873 -4.2251 -22.1034 -5.6304
# 4 -11.2936 8.0661 -4.2251 38.9453 5.2085 -1.1342
# 5 -1.7793 -7.5116 -22.1034 5.2085 45.9909 0.7023
# 6 3.1255 13.7512 -5.6304 -1.1342 0.7023 28.5790
#
#
#
# Elastic Compliance Matrix: (Units=1/GPa)
#
#
# Indices 1 2 3 4 5 6 
#
# 1 0.017857 -0.005008 -0.003242 0.006187 -0.002388 0.000122
# 2 -0.005008 0.015717 -0.005935 -0.005635 0.000288 -0.008415
# 3 -0.003242 -0.005935 0.013225 0.001218 0.005036 0.005740
# 4 0.006187 -0.005635 0.001218 0.029337 -0.003472 0.003524
# 5 -0.002388 0.000288 0.005036 -0.003472 0.024506 0.000375
# 6 0.000122 -0.008415 0.005740 0.003524 0.000375 0.040288
#
#
# Mechanical properties :
#
#
# Convention : Reuss Voigt Hill
#
# Bulk Modulus (GPa) = 54.25483 60.07626 57.16554
# Shear Modulus (GPa) = 28.49928 34.55694 31.52811
#
# Velocity S-wave (km/s) = 3.54313 3.90156 3.72666
# Velocity P-wave (km/s) = 6.37474 6.83809 6.61048
#
# Compressibility (1/GPa) = 0.01843154
#
# Stress axis : x y z
#
# Youngs Moduli (GPa) = 56.00049 63.62344 75.61174
#
# Poissons Ratio (x) = 0.31861 0.24512
# Poissons Ratio (y) = 0.28044 0.44873
# Poissons Ratio (z) = 0.18154 0.37758
#
# Static dielectric constant tensor:
#      x y z
#    x 4.255660 0.136030 -0.268830 
#    y 0.136030 4.373780 0.077930 
#    z -0.268830 0.077930 4.396030 
# 
# 
# High freq. dielectric constant tensor:
#      x y z
#    x 1.889750 0.015260 -0.025430 
#    y 0.015260 1.900880 0.005070 
#    z -0.025430 0.005070 1.896760 
# 
# From -- ./inp_files/429083.got.cif
#   From: 2010.06.25/outbox.cif.g09.slc.cpg/sg2_215_cif.got.tgz:429083.got - 2010.06.27 13:26:56.
