data_PCOD8019972
_publ_section_title
;
Structure prediction by ZEFSAII (Michael W. Deem and Ramdas Pophale) SiO2 
 PCOD8019972
Probable space group: P -1
;
_chemical_formula_sum "Si O2"
_cell_formula_units_Z 16
_cell_length_a 8.702900
_cell_length_b 9.577978
_cell_length_c 22.066580
_cell_angle_alpha 123.515269
_cell_angle_beta 31.538610
_cell_angle_gamma 124.128710
_cell_volume 784.722817
_symmetry_space_group_name_H-M "P -1"
_symmetry_group_IT_number 2
_symmetry_cell_setting 'triclinic'
loop_
_space_group_symop_operation_xyz
x,y,z
-x,-y,-z
loop_
_atom_site_type_symbol
_atom_site_label
_atom_site_fract_x
_atom_site_fract_y
_atom_site_fract_z
Si Si1 0.212027 0.655337 0.767593
Si Si2 0.361811 0.986152 0.976662
Si Si3 0.628708 0.687235 0.026831
Si Si4 0.856427 0.160524 0.576834
Si Si5 0.785057 0.758312 0.767689
Si Si6 0.143213 0.340681 0.409005
Si Si7 0.196665 0.573282 0.244779
Si Si8 0.214471 0.974159 0.768921
O O1 0.497038 0.602771 0.690106
O O2 0.334452 0.822832 0.726005
O O3 0.048126 0.501107 0.742120
O O4 0.989721 0.704810 0.906109
O O5 0.484860 0.829524 0.868105
O O6 0.465974 0.163701 0.946640
O O7 0.500000 0.000000 0.000000
O O8 0.998970 0.943974 0.094039
O O9 0.490652 0.691795 0.141958
O O10 0.500000 0.500000 0.000000
O O11 0.951703 0.310301 0.631084
O O12 0.976193 0.210318 0.482446
O O13 0.494716 0.116788 0.687595
O O14 0.000000 0.000000 0.500000
O O15 0.942121 0.735346 0.646547
O O16 0.699569 0.581957 0.792037
O O17 0.020080 0.899930 0.758425
O O18 0.000000 0.500000 0.500000
#
# Coordination Sequence:
#
# PCOD8019972 Si02
#       8
#     2   2   2   2   2   2   2   2
#     4   9  20  41  66  85 120 161 196 242 305 363
#     4   9  18  36  63  93 124 152 192 250 308 358
#     4   9  18  36  63  95 119 152 203 243 296 371
#     4  12  25  41  62  87 121 158 215 252 282 360
#     4  10  22  42  64  87 126 159 194 250 312 353
#     4  12  25  43  58  89 123 160 206 253 297 348
#     4  10  22  42  64  90 119 162 202 244 300 366
#     4   9  20  41  64  89 118 159 198 244 302 361
#
# _framework density 20.389365999999999
#
# number of rings (size 3 to 8) (size 9 to 14) (size 15 to 20)
#    0.000    2.000    2.500    2.250    1.750    3.000 
#   11.250    3.750    0.000    0.000    0.000    0.000 
#    0.000    0.000    0.000    0.000    0.000    0.000 
#
# Total GULP energy -198289.627697 kJ/mol
# GULP energy per Si atom -12393.101731 kJ/mol
# Density = 2.034296 g / cm^3
# Si number density = 20.389366 Si / 1000 Ang^3
#
#
#
# Elastic Constant Matrix: (Units=GPa)
#
#
# Indices 1 2 3 4 5 6 
#
# 1 54.5088 26.1373 32.0557 -4.8033 -4.1165 -17.6589
# 2 26.1373 95.3821 41.7430 0.4621 -4.8315 -25.0528
# 3 32.0557 41.7430 109.7450 -1.2895 4.4080 -14.0978
# 4 -4.8033 0.4621 -1.2895 47.9113 -6.5584 -0.3347
# 5 -4.1165 -4.8315 4.4080 -6.5584 40.6979 -1.1341
# 6 -17.6589 -25.0528 -14.0978 -0.3347 -1.1341 32.0551
#
#
#
# Elastic Compliance Matrix: (Units=1/GPa)
#
#
# Indices 1 2 3 4 5 6 
#
# 1 0.026756 -0.001679 -0.005884 0.003159 0.003960 0.011013
# 2 -0.001679 0.015370 -0.004257 -0.000042 0.002368 0.009299
# 3 -0.005884 -0.004257 0.012390 -0.000576 -0.002569 -0.001216
# 4 0.003159 -0.000042 -0.000576 0.021724 0.003928 0.001820
# 5 0.003960 0.002368 -0.002569 0.003928 0.026272 0.003873
# 6 0.011013 0.009299 -0.001216 0.001820 0.003873 0.044152
#
#
# Mechanical properties :
#
#
# Convention : Reuss Voigt Hill
#
# Bulk Modulus (GPa) = 32.38700 51.05641 41.72170
# Shear Modulus (GPa) = 27.68622 34.77954 31.23288
#
# Velocity S-wave (km/s) = 3.68893 4.13458 3.91810
# Velocity P-wave (km/s) = 5.83636 6.92012 6.40121
#
# Compressibility (1/GPa) = 0.03087658
#
# Stress axis : x y z
#
# Youngs Moduli (GPa) = 37.37451 65.06330 80.71020
#
# Poissons Ratio (x) = 0.10924 0.47489
# Poissons Ratio (y) = 0.06275 0.34356
# Poissons Ratio (z) = 0.21991 0.27696
#
# Static dielectric constant tensor:
#      x y z
#    x 3.500980 -0.103910 0.047940 
#    y -0.103910 3.613790 -0.010860 
#    z 0.047940 -0.010860 4.211170 
# 
# 
# High freq. dielectric constant tensor:
#      x y z
#    x 1.782830 -0.011370 0.006880 
#    y -0.011370 1.792980 0.005480 
#    z 0.006880 0.005480 1.814210 
# 
# From -- ./inp_files/177382.got.cif
#   From: 2010.06.25/outbox.cif.g09.slc.cpg/sg2_89_cif.got.tgz:177382.got - 2010.06.27 13:26:56.
