data_PCOD8019429
_publ_section_title
;
Structure prediction by ZEFSAII (Michael W. Deem and Ramdas Pophale) SiO2 
 PCOD8019429
Probable space group: P -1
;
_chemical_formula_sum "Si O2"
_cell_formula_units_Z 16
_cell_length_a 7.364367
_cell_length_b 11.104705
_cell_length_c 12.162349
_cell_angle_alpha 75.042171
_cell_angle_beta 58.675552
_cell_angle_gamma 53.671681
_cell_volume 682.705481
_symmetry_space_group_name_H-M "P -1"
_symmetry_group_IT_number 2
_symmetry_cell_setting 'triclinic'
loop_
_space_group_symop_operation_xyz
x,y,z
-x,-y,-z
loop_
_atom_site_type_symbol
_atom_site_label
_atom_site_fract_x
_atom_site_fract_y
_atom_site_fract_z
Si Si1 0.324754 0.766039 0.558858
Si Si2 0.942055 0.187659 0.025938
Si Si3 0.639819 0.045176 0.189518
Si Si4 0.881290 0.755920 0.605410
Si Si5 0.226775 0.670620 0.181320
Si Si6 0.168034 0.083321 0.622253
Si Si7 0.148079 0.438319 0.675685
Si Si8 0.280964 0.574016 0.793798
O O1 0.575562 0.693520 0.422494
O O2 0.386810 0.650680 0.665544
O O3 0.092788 0.790927 0.552784
O O4 0.225377 0.930946 0.590428
O O5 0.810368 0.112178 0.143599
O O6 0.944678 0.299294 0.086551
O O7 0.764579 0.268817 0.955375
O O8 0.239309 0.064611 0.928514
O O9 0.337114 0.172988 0.246442
O O10 0.668491 0.947500 0.310887
O O11 0.758527 0.829407 0.507519
O O12 0.014692 0.578051 0.600009
O O13 0.503754 0.537587 0.162197
O O14 0.127352 0.800990 0.274633
O O15 0.031576 0.620367 0.242477
O O16 0.174216 0.495825 0.773233
#
# Coordination Sequence:
#
# PCOD8019429 Si02
#       8
#     2   2   2   2   2   2   2   2
#     4  11  24  42  65  97 136 164 212 269 325 391
#     4  10  22  42  68  93 129 171 223 270 312 378
#     4  10  22  41  67  96 128 167 220 269 321 382
#     4  11  23  41  65  99 132 167 211 264 330 393
#     4  11  25  42  69  97 128 175 222 259 323 388
#     4  11  23  40  67  97 127 170 208 266 332 379
#     4  11  26  42  65 101 136 166 214 267 322 396
#     4  11  22  45  67  92 134 176 209 270 327 375
#
# _framework density 23.436167999999999
#
# number of rings (size 3 to 8) (size 9 to 14) (size 15 to 20)
#    0.000    1.250    1.250    4.875    5.250    1.500 
#    0.000    3.750    2.750    0.000    0.000    0.000 
#    0.000    0.000    0.000    0.000    0.000    0.000 
#
# Total GULP energy -198338.010906 kJ/mol
# GULP energy per Si atom -12396.125682 kJ/mol
# Density = 2.338283 g / cm^3
# Si number density = 23.436168 Si / 1000 Ang^3
#
#
#
# Elastic Constant Matrix: (Units=GPa)
#
#
# Indices 1 2 3 4 5 6 
#
# 1 62.3665 44.5653 31.7571 11.7553 -4.3749 -0.1611
# 2 44.5653 120.5681 45.5070 25.8979 5.6721 12.6867
# 3 31.7571 45.5070 95.8763 18.3283 9.6139 -3.6298
# 4 11.7553 25.8979 18.3283 48.8826 -0.9615 9.2748
# 5 -4.3749 5.6721 9.6139 -0.9615 30.6299 9.6812
# 6 -0.1611 12.6867 -3.6298 9.2748 9.6812 23.5677
#
#
#
# Elastic Compliance Matrix: (Units=1/GPa)
#
#
# Indices 1 2 3 4 5 6 
#
# 1 0.024427 -0.007468 -0.005130 -0.000036 0.006209 0.000860
# 2 -0.007468 0.013815 -0.003761 -0.002832 -0.000386 -0.006794
# 3 -0.005130 -0.003761 0.016034 -0.004801 -0.008304 0.009760
# 4 -0.000036 -0.002832 -0.004801 0.026234 0.006740 -0.012308
# 5 0.006209 -0.000386 -0.008304 0.006740 0.043196 -0.021426
# 6 0.000860 -0.006794 0.009760 -0.012308 -0.021426 0.061242
#
#
# Mechanical properties :
#
#
# Convention : Reuss Voigt Hill
#
# Bulk Modulus (GPa) = 46.38252 58.05219 52.21736
# Shear Modulus (GPa) = 22.23683 31.08148 26.65915
#
# Velocity S-wave (km/s) = 3.08364 3.64568 3.37638
# Velocity P-wave (km/s) = 5.70197 6.52268 6.12609
#
# Compressibility (1/GPa) = 0.02155984
#
# Stress axis : x y z
#
# Youngs Moduli (GPa) = 40.93830 72.38399 62.36642
#
# Poissons Ratio (x) = 0.54055 0.31992
# Poissons Ratio (y) = 0.30572 0.23456
# Poissons Ratio (z) = 0.21000 0.27223
#
# Static dielectric constant tensor:
#      x y z
#    x 3.795120 -0.067140 0.154230 
#    y -0.067140 4.694830 0.161910 
#    z 0.154230 0.161910 4.416700 
# 
# 
# High freq. dielectric constant tensor:
#      x y z
#    x 1.890690 -0.004290 0.007170 
#    y -0.004290 1.955160 0.010410 
#    z 0.007170 0.010410 1.937400 
# 
# From -- ./inp_files/392442.got.cif
#   From: 2010.06.25/outbox.cif.g09.slc.cpg/sg2_197_cif.got.tgz:392442.got - 2010.06.27 13:26:56.
