data_PCOD8019334
_publ_section_title
;
Structure prediction by ZEFSAII (Michael W. Deem and Ramdas Pophale) SiO2 
 PCOD8019334
Probable space group: P -1
;
_chemical_formula_sum "Si O2"
_cell_formula_units_Z 16
_cell_length_a 12.014582
_cell_length_b 16.113209
_cell_length_c 12.208607
_cell_angle_alpha 123.160693
_cell_angle_beta 71.622614
_cell_angle_gamma 154.749204
_cell_volume 729.723591
_symmetry_space_group_name_H-M "P -1"
_symmetry_group_IT_number 2
_symmetry_cell_setting 'triclinic'
loop_
_space_group_symop_operation_xyz
x,y,z
-x,-y,-z
loop_
_atom_site_type_symbol
_atom_site_label
_atom_site_fract_x
_atom_site_fract_y
_atom_site_fract_z
Si Si1 0.261759 0.407440 0.150525
Si Si2 0.925628 0.002459 0.809034
Si Si3 0.664581 0.218388 0.358599
Si Si4 0.347028 0.008854 0.871648
Si Si5 0.858093 0.143982 0.575894
Si Si6 0.831773 0.778096 0.339095
Si Si7 0.705775 0.894979 0.241331
Si Si8 0.646086 0.322796 0.217470
O O1 0.479858 0.533439 0.267455
O O2 0.439424 0.615196 0.160542
O O3 0.002694 0.271595 0.187655
O O4 0.119680 0.201728 0.988920
O O5 0.037938 0.140742 0.762742
O O6 0.988493 0.933042 0.740921
O O7 0.574433 0.753989 0.755966
O O8 0.579070 0.036503 0.242863
O O9 0.614649 0.228223 0.263351
O O10 0.000000 0.500000 0.500000
O O11 0.435074 0.084389 0.421632
O O12 0.393888 0.136297 0.865512
O O13 0.563311 0.194803 0.043031
O O14 0.120357 0.281395 0.646487
O O15 0.009457 0.369884 0.676352
O O16 0.761902 0.027448 0.404011
O O17 0.000000 0.000000 0.500000
#
# Coordination Sequence:
#
# PCOD8019334 Si02
#       8
#     2   2   2   2   2   2   2   2
#     4  10  23  41  66  98 137 178 212 268 334 391
#     4  10  22  41  66  98 142 172 211 269 333 398
#     4  12  27  50  71  91 134 175 227 279 329 387
#     4  11  27  44  70  97 134 177 222 273 325 396
#     4  12  26  41  69 101 130 177 222 272 331 391
#     4  11  20  38  66  98 138 173 215 268 331 389
#     4  11  23  41  64 104 134 174 216 264 332 395
#     4  11  27  44  69 102 129 176 224 274 329 392
#
# _framework density 21.926110999999999
#
# number of rings (size 3 to 8) (size 9 to 14) (size 15 to 20)
#    0.000    1.000    3.750    3.375    5.250    6.000 
#    0.000    0.000    0.000    0.000    0.000    0.000 
#    0.000    0.000    0.000    0.000    0.000    0.000 
#
# Total GULP energy -198451.903839 kJ/mol
# GULP energy per Si atom -12403.243990 kJ/mol
# Density = 2.187621 g / cm^3
# Si number density = 21.926111 Si / 1000 Ang^3
#
#
#
# Elastic Constant Matrix: (Units=GPa)
#
#
# Indices 1 2 3 4 5 6 
#
# 1 87.5266 33.1642 33.8383 -4.1044 0.0221 -10.1565
# 2 33.1642 79.3898 30.7682 7.3627 7.8417 -8.8897
# 3 33.8383 30.7682 110.7479 -8.1447 9.1591 8.8044
# 4 -4.1044 7.3627 -8.1447 33.0368 -1.0264 4.9220
# 5 0.0221 7.8417 9.1591 -1.0264 34.2064 -2.0778
# 6 -10.1565 -8.8897 8.8044 4.9220 -2.0778 27.6868
#
#
#
# Elastic Compliance Matrix: (Units=1/GPa)
#
#
# Indices 1 2 3 4 5 6 
#
# 1 0.015400 -0.004662 -0.003950 0.001255 0.002481 0.005371
# 2 -0.004662 0.017801 -0.004286 -0.006633 -0.002744 0.006341
# 3 -0.003950 -0.004286 0.012622 0.004664 -0.002733 -0.007873
# 4 0.001255 -0.006633 0.004664 0.034450 0.000745 -0.009221
# 5 0.002481 -0.002744 -0.002733 0.000745 0.030803 0.003077
# 6 0.005371 0.006341 -0.007873 -0.009221 0.003077 0.044499
#
#
# Mechanical properties :
#
#
# Convention : Reuss Voigt Hill
#
# Bulk Modulus (GPa) = 49.93323 52.57842 51.25582
# Shear Modulus (GPa) = 26.58897 30.97890 28.78394
#
# Velocity S-wave (km/s) = 3.48611 3.76290 3.62715
# Velocity P-wave (km/s) = 6.24714 6.55066 6.40070
#
# Compressibility (1/GPa) = 0.02002674
#
# Stress axis : x y z
#
# Youngs Moduli (GPa) = 64.93359 56.17622 79.22599
#
# Poissons Ratio (x) = 0.26192 0.31294
# Poissons Ratio (y) = 0.30275 0.33956
# Poissons Ratio (z) = 0.25649 0.24077
#
# Static dielectric constant tensor:
#      x y z
#    x 3.938570 0.704260 -0.176130 
#    y 0.704260 4.858620 -0.430870 
#    z -0.176130 -0.430870 4.057740 
# 
# 
# High freq. dielectric constant tensor:
#      x y z
#    x 1.862050 0.000050 0.003310 
#    y 0.000050 1.862130 -0.007480 
#    z 0.003310 -0.007480 1.871920 
# 
# From -- ./inp_files/434208.got.cif
#   From: 2010.06.25/outbox.cif.g09.slc.cpg/sg2_218_cif.got.tgz:434208.got - 2010.06.27 13:26:56.
