data_PCOD8019513
_publ_section_title
;
Structure prediction by ZEFSAII (Michael W. Deem and Ramdas Pophale) SiO2 
 PCOD8019513
Probable space group: P -1
;
_chemical_formula_sum "Si O2"
_cell_formula_units_Z 14
_cell_length_a 5.311883
_cell_length_b 9.022271
_cell_length_c 18.899824
_cell_angle_alpha 119.894227
_cell_angle_beta 85.418924
_cell_angle_gamma 121.810168
_cell_volume 646.437776
_symmetry_space_group_name_H-M "P -1"
_symmetry_group_IT_number 2
_symmetry_cell_setting 'triclinic'
loop_
_space_group_symop_operation_xyz
x,y,z
-x,-y,-z
loop_
_atom_site_type_symbol
_atom_site_label
_atom_site_fract_x
_atom_site_fract_y
_atom_site_fract_z
Si Si1 0.310773 0.353005 0.905766
Si Si2 0.006892 0.679606 0.296071
Si Si3 0.236482 0.655118 0.884242
Si Si4 0.203339 0.451888 0.578395
Si Si5 0.907156 0.694569 0.605629
Si Si6 0.352035 0.155262 0.730786
Si Si7 0.871997 0.075681 0.962546
O O1 0.248723 0.485866 0.887357
O O2 0.464268 0.265631 0.831998
O O3 0.023098 0.144123 0.897931
O O4 0.500000 0.500000 0.000000
O O5 0.366170 0.839990 0.309223
O O6 0.919442 0.457580 0.213465
O O7 0.982667 0.678885 0.380465
O O8 0.778371 0.735827 0.285200
O O9 0.531325 0.880123 0.910267
O O10 0.055582 0.711790 0.953763
O O11 0.563447 0.564486 0.613012
O O12 0.108153 0.296729 0.477412
O O13 0.109157 0.609588 0.602307
O O14 0.071440 0.919664 0.689115
O O15 0.000000 0.000000 0.000000
#
# Coordination Sequence:
#
# PCOD8019513 Si02
#       7
#     2   2   2   2   2   2   2
#     4  11  22  41  63  86 132 167 208 274 320 366
#     4  11  24  42  64  92 128 169 205 268 315 377
#     4  10  24  40  59  90 127 160 223 261 320 385
#     4  10  22  41  68  92 132 167 199 270 317 372
#     4  10  22  42  64  99 127 163 215 252 321 387
#     4  11  25  41  64  95 125 167 218 256 320 385
#     4  11  22  39  62  90 115 173 216 263 321 385
#
# _framework density 21.657150000000001
#
# number of rings (size 3 to 8) (size 9 to 14) (size 15 to 20)
#    0.000    1.429    1.429    3.000    4.000    3.429 
#    0.000    0.000    0.000    0.000    0.000    0.000 
#    0.000    0.000    0.000    0.000    0.000    0.000 
#
# Total GULP energy -173456.647238 kJ/mol
# GULP energy per Si atom -12389.760517 kJ/mol
# Density = 2.160786 g / cm^3
# Si number density = 21.657150 Si / 1000 Ang^3
#
#
#
# Elastic Constant Matrix: (Units=GPa)
#
#
# Indices 1 2 3 4 5 6 
#
# 1 76.3165 6.9094 20.7757 -7.5459 -7.3607 13.8316
# 2 6.9094 84.3956 36.4003 -13.0944 -9.4247 6.0737
# 3 20.7757 36.4003 89.7667 -6.1572 -2.4971 4.5347
# 4 -7.5459 -13.0944 -6.1572 41.9132 8.3815 -6.8030
# 5 -7.3607 -9.4247 -2.4971 8.3815 26.7079 -1.1992
# 6 13.8316 6.0737 4.5347 -6.8030 -1.1992 26.6874
#
#
#
# Elastic Compliance Matrix: (Units=1/GPa)
#
#
# Indices 1 2 3 4 5 6 
#
# 1 0.015792 0.001387 -0.003678 0.000731 0.003931 -0.007512
# 2 0.001387 0.015492 -0.006167 0.002971 0.004239 -0.002249
# 3 -0.003678 -0.006167 0.014403 0.000017 -0.001813 0.000785
# 4 0.000731 0.002971 0.000017 0.027234 -0.007045 0.005568
# 5 0.003931 0.004239 -0.001813 -0.007045 0.041946 -0.002605
# 6 -0.007512 -0.002249 0.000785 0.005568 -0.002605 0.043045
#
#
# Mechanical properties :
#
#
# Convention : Reuss Voigt Hill
#
# Bulk Modulus (GPa) = 34.76008 42.07218 38.41613
# Shear Modulus (GPa) = 27.11218 31.48793 29.30006
#
# Velocity S-wave (km/s) = 3.54203 3.81718 3.68218
# Velocity P-wave (km/s) = 5.72826 6.23670 5.98788
#
# Compressibility (1/GPa) = 0.02876864
#
# Stress axis : x y z
#
# Youngs Moduli (GPa) = 63.32302 64.55090 69.42898
#
# Poissons Ratio (x) = -0.08950 0.25537
# Poissons Ratio (y) = -0.08780 0.42820
# Poissons Ratio (z) = 0.23291 0.39812
#
# Static dielectric constant tensor:
#      x y z
#    x 3.945020 0.150430 -0.637960 
#    y 0.150430 3.739810 0.127280 
#    z -0.637960 0.127280 -5.109100 
# 
# 
# High freq. dielectric constant tensor:
#      x y z
#    x 1.849850 0.006970 -0.007770 
#    y 0.006970 1.849380 -0.000880 
#    z -0.007770 -0.000880 1.862100 
# 
# From -- ./inp_files/43937.got.cif
#   From: 2010.06.25/outbox.cif.g09.slc.cpg/sg2_22_cif.got.tgz:43937.got - 2010.06.27 13:26:56.
