data_PCOD8019452
_publ_section_title
;
Structure prediction by ZEFSAII (Michael W. Deem and Ramdas Pophale) SiO2 
 PCOD8019452
Probable space group: P -1
;
_chemical_formula_sum "Si O2"
_cell_formula_units_Z 16
_cell_length_a 13.860881
_cell_length_b 7.936362
_cell_length_c 26.837169
_cell_angle_alpha 138.998297
_cell_angle_beta 22.773925
_cell_angle_gamma 137.471625
_cell_volume 739.887799
_symmetry_space_group_name_H-M "P -1"
_symmetry_group_IT_number 2
_symmetry_cell_setting 'triclinic'
loop_
_space_group_symop_operation_xyz
x,y,z
-x,-y,-z
loop_
_atom_site_type_symbol
_atom_site_label
_atom_site_fract_x
_atom_site_fract_y
_atom_site_fract_z
Si Si1 0.927713 0.130884 0.710047
Si Si2 0.247984 0.454404 0.802872
Si Si3 0.236194 0.404834 0.909260
Si Si4 0.712442 0.247483 0.691434
Si Si5 0.803628 0.763649 0.594632
Si Si6 0.907380 0.599335 0.760705
Si Si7 0.214517 0.011346 0.642509
Si Si8 0.569725 0.000883 0.025147
O O1 0.024578 0.419729 0.705203
O O2 0.121639 0.053532 0.640575
O O3 0.894079 0.910709 0.634952
O O4 0.666082 0.141937 0.863977
O O5 0.201330 0.322850 0.849929
O O6 0.544270 0.564950 0.681394
O O7 0.155962 0.242905 0.757365
O O8 0.039915 0.654641 0.944714
O O9 0.438711 0.236088 0.795026
O O10 0.349181 0.709931 0.928754
O O11 0.703202 0.406834 0.782557
O O12 0.954626 0.367722 0.568000
O O13 0.738689 0.951046 0.623478
O O14 0.108624 0.732639 0.654554
O O15 0.782980 0.825652 0.896226
O O16 0.500000 0.000000 0.500000
O O17 0.500000 0.000000 0.000000
#
# Coordination Sequence:
#
# PCOD8019452 Si02
#       8
#     2   2   2   2   2   2   2   2
#     4  11  24  43  70  96 127 176 220 267 329 385
#     4  11  24  42  61  94 131 169 213 268 329 391
#     4  11  22  39  65  91 131 173 210 268 334 382
#     4  10  22  41  67  98 125 171 220 275 320 386
#     4  10  23  43  66  95 131 167 224 268 321 399
#     4  11  23  42  69  98 130 169 222 272 323 393
#     4  12  26  44  65  97 135 175 216 271 328 392
#     4  12  19  40  68  95 129 166 216 274 325 385
#
# _framework density 21.624901000000001
#
# number of rings (size 3 to 8) (size 9 to 14) (size 15 to 20)
#    0.000    1.000    5.000    1.125    1.750    1.500 
#    2.250    0.000    0.000    0.000    0.000    0.000 
#    0.000    0.000    0.000    0.000    0.000    0.000 
#
# Total GULP energy -198302.356715 kJ/mol
# GULP energy per Si atom -12393.897295 kJ/mol
# Density = 2.157568 g / cm^3
# Si number density = 21.624901 Si / 1000 Ang^3
#
#
#
# Elastic Constant Matrix: (Units=GPa)
#
#
# Indices 1 2 3 4 5 6 
#
# 1 125.4698 38.2417 38.9256 -4.3545 -4.2991 -7.7750
# 2 38.2417 58.1884 -4.1589 2.6276 -2.9919 -8.4330
# 3 38.9256 -4.1589 109.1313 -9.6449 -10.2161 -7.8320
# 4 -4.3545 2.6276 -9.6449 23.1216 6.8643 3.6098
# 5 -4.2991 -2.9919 -10.2161 6.8643 33.0730 1.1007
# 6 -7.7750 -8.4330 -7.8320 3.6098 1.1007 32.0530
#
#
#
# Elastic Compliance Matrix: (Units=1/GPa)
#
#
# Indices 1 2 3 4 5 6 
#
# 1 0.011923 -0.008369 -0.004554 0.001666 -0.000941 -0.000578
# 2 -0.008369 0.024180 0.004224 -0.004387 0.003123 0.005750
# 3 -0.004554 0.004224 0.011592 0.002273 0.002816 0.002486
# 4 0.001666 -0.004387 0.002273 0.048634 -0.009394 -0.005349
# 5 -0.000941 0.003123 0.002816 -0.009394 0.033176 0.001200
# 6 -0.000578 0.005750 0.002486 -0.005349 0.001200 0.033740
#
#
# Mechanical properties :
#
#
# Convention : Reuss Voigt Hill
#
# Bulk Modulus (GPa) = 33.00721 48.75625 40.88173
# Shear Modulus (GPa) = 26.21340 32.30159 29.25750
#
# Velocity S-wave (km/s) = 3.48542 3.86906 3.68224
# Velocity P-wave (km/s) = 5.61197 6.52341 6.08478
#
# Compressibility (1/GPa) = 0.03029641
#
# Stress axis : x y z
#
# Youngs Moduli (GPa) = 83.86806 41.35705 86.26923
#
# Poissons Ratio (x) = 0.34612 0.39288
# Poissons Ratio (y) = 0.70189 -0.36440
# Poissons Ratio (z) = 0.38195 -0.17469
#
# Static dielectric constant tensor:
#      x y z
#    x 3.681950 -0.142190 -0.055690 
#    y -0.142190 3.204420 -0.467560 
#    z -0.055690 -0.467560 3.917200 
# 
# 
# High freq. dielectric constant tensor:
#      x y z
#    x 1.851040 0.007340 0.007770 
#    y 0.007340 1.829610 0.000350 
#    z 0.007770 0.000350 1.867490 
# 
# From -- ./inp_files/451117.got.cif
#   From: 2010.06.25/outbox.cif.g09.slc.cpg/sg2_226_cif.got.tgz:451117.got - 2010.06.27 13:26:56.
