data_PCOD8019976
_publ_section_title
;
Structure prediction by ZEFSAII (Michael W. Deem and Ramdas Pophale) SiO2 
 PCOD8019976
Probable space group: P -1
;
_chemical_formula_sum "Si O2"
_cell_formula_units_Z 14
_cell_length_a 8.655166
_cell_length_b 17.542501
_cell_length_c 10.753709
_cell_angle_alpha 40.676424
_cell_angle_beta 102.411200
_cell_angle_gamma 132.622187
_cell_volume 612.758093
_symmetry_space_group_name_H-M "P -1"
_symmetry_group_IT_number 2
_symmetry_cell_setting 'triclinic'
loop_
_space_group_symop_operation_xyz
x,y,z
-x,-y,-z
loop_
_atom_site_type_symbol
_atom_site_label
_atom_site_fract_x
_atom_site_fract_y
_atom_site_fract_z
Si Si1 0.252985 0.135741 0.465902
Si Si2 0.584629 0.894029 0.942275
Si Si3 0.261410 0.443422 0.888626
Si Si4 0.672725 0.078308 0.310377
Si Si5 0.863402 0.725934 0.331992
Si Si6 0.167815 0.164112 0.060195
Si Si7 0.606098 0.392522 0.545436
O O1 0.481665 0.373242 0.205580
O O2 0.393287 0.095012 0.518132
O O3 0.000000 0.000000 0.500000
O O4 0.119337 0.060983 0.671144
O O5 0.401288 0.885309 0.865016
O O6 0.604750 0.799429 0.962999
O O7 0.483991 0.787273 0.192677
O O8 0.878768 0.124854 0.721141
O O9 0.258281 0.534867 0.658253
O O10 0.276921 0.322024 0.984563
O O11 0.994013 0.291782 0.115766
O O12 0.500000 0.000000 0.500000
O O13 0.807190 0.560958 0.478792
O O14 0.616547 0.637312 0.472801
O O15 0.916151 0.838113 0.083894
#
# Coordination Sequence:
#
# PCOD8019976 Si02
#       7
#     2   2   2   2   2   2   2
#     4  11  23  43  67  86 114 161 211 255 301 361
#     4  11  20  36  63  92 128 161 195 248 300 358
#     4  10  22  42  64  89 123 157 205 256 296 363
#     4  11  27  44  58  88 124 161 207 252 310 363
#     4   9  17  32  59  94 128 157 196 244 294 360
#     4   9  19  36  62  94 122 160 205 246 298 356
#     4   9  18  34  60  94 122 158 201 242 301 356
#
# _framework density 22.847515000000001
#
# number of rings (size 3 to 8) (size 9 to 14) (size 15 to 20)
#    0.000    2.000    0.000    5.143    0.000    4.571 
#    0.000   15.714    0.000    0.000    0.000    0.000 
#    0.000    0.000    0.000    0.000    0.000    0.000 
#
# Total GULP energy -173472.630728 kJ/mol
# GULP energy per Si atom -12390.902195 kJ/mol
# Density = 2.279551 g / cm^3
# Si number density = 22.847515 Si / 1000 Ang^3
#
#
#
# Elastic Constant Matrix: (Units=GPa)
#
#
# Indices 1 2 3 4 5 6 
#
# 1 74.8410 31.1593 24.5182 -8.2806 -0.7592 -2.3922
# 2 31.1593 91.7962 32.1356 -28.9843 -7.6733 3.0785
# 3 24.5182 32.1356 110.7005 -17.3385 -24.3117 -7.2629
# 4 -8.2806 -28.9843 -17.3385 41.2500 -4.9227 -8.4422
# 5 -0.7592 -7.6733 -24.3117 -4.9227 38.7481 7.0728
# 6 -2.3922 3.0785 -7.2629 -8.4422 7.0728 25.7950
#
#
#
# Elastic Compliance Matrix: (Units=1/GPa)
#
#
# Indices 1 2 3 4 5 6 
#
# 1 0.016396 -0.005422 -0.002911 -0.001782 -0.003100 0.001615
# 2 -0.005422 0.016849 -0.001197 0.010623 0.003910 -0.000446
# 3 -0.002911 -0.001197 0.012835 0.005554 0.007891 0.003141
# 4 -0.001782 0.010623 0.005554 0.036701 0.008421 0.009833
# 5 -0.003100 0.003910 0.007891 0.008421 0.033445 -0.004947
# 6 0.001615 -0.000446 0.003141 0.009833 -0.004947 0.044429
#
#
# Mechanical properties :
#
#
# Convention : Reuss Voigt Hill
#
# Bulk Modulus (GPa) = 37.01143 50.32931 43.67037
# Shear Modulus (GPa) = 26.49400 33.79358 30.14379
#
# Velocity S-wave (km/s) = 3.40899 3.85007 3.63622
# Velocity P-wave (km/s) = 5.63289 6.46840 6.06505
#
# Compressibility (1/GPa) = 0.02701868
#
# Stress axis : x y z
#
# Youngs Moduli (GPa) = 60.99074 59.35004 77.91444
#
# Poissons Ratio (x) = 0.32180 0.22684
# Poissons Ratio (y) = 0.33070 0.09326
# Poissons Ratio (z) = 0.17757 0.07104
#
# Static dielectric constant tensor:
#      x y z
#    x 3.210100 0.178140 0.488340 
#    y 0.178140 3.705450 -0.272250 
#    z 0.488340 -0.272250 4.098460 
# 
# 
# High freq. dielectric constant tensor:
#      x y z
#    x 1.867800 -0.010660 -0.005170 
#    y -0.010660 1.888150 -0.001570 
#    z -0.005170 -0.001570 1.925250 
# 
# From -- ./inp_files/402841.got.cif
#   From: 2010.06.25/outbox.cif.g09.slc.cpg/sg2_202_cif.got.tgz:402841.got - 2010.06.27 13:26:56.
