data_PCOD8019705
_publ_section_title
;
Structure prediction by ZEFSAII (Michael W. Deem and Ramdas Pophale) SiO2 
 PCOD8019705
Probable space group: P -1
;
_chemical_formula_sum "Si O2"
_cell_formula_units_Z 10
_cell_length_a 19.308392
_cell_length_b 14.628492
_cell_length_c 11.473576
_cell_angle_alpha 147.589739
_cell_angle_beta 23.048897
_cell_angle_gamma 160.544679
_cell_volume 415.743921
_symmetry_space_group_name_H-M "P -1"
_symmetry_group_IT_number 2
_symmetry_cell_setting 'triclinic'
loop_
_space_group_symop_operation_xyz
x,y,z
-x,-y,-z
loop_
_atom_site_type_symbol
_atom_site_label
_atom_site_fract_x
_atom_site_fract_y
_atom_site_fract_z
Si Si1 0.625079 0.759106 0.448066
Si Si2 0.673565 0.209965 0.601193
Si Si3 0.741331 0.375318 0.334874
Si Si4 0.290910 0.564613 0.986913
Si Si5 0.783541 0.624939 0.739692
O O1 0.506613 0.730882 0.476566
O O2 0.435614 0.700687 0.781984
O O3 0.597999 0.533900 0.245261
O O4 0.964649 0.066974 0.263907
O O5 0.673816 0.400505 0.758139
O O6 0.399872 0.881132 0.640716
O O7 0.641558 0.221038 0.803053
O O8 0.943315 0.303327 0.239217
O O9 0.903919 0.631285 0.442760
O O10 0.000000 0.500000 0.000000
O O11 0.500000 0.500000 0.000000
#
# Coordination Sequence:
#
# PCOD8019705 Si02
#       5
#     2   2   2   2   2
#     4  11  24  45  66  96 134 169 214 267 320 380
#     4  11  23  41  65  97 130 168 218 265 317 384
#     4  12  26  43  68  97 130 172 216 265 323 383
#     4  10  22  41  70  95 128 174 212 263 324 379
#     4  12  26  43  68  97 130 172 216 265 323 383
#
# _framework density 24.053267000000002
#
# number of rings (size 3 to 8) (size 9 to 14) (size 15 to 20)
#    0.000    0.800    0.000    7.800    0.000    8.000 
#    0.000    7.000    0.000    0.000    0.000    0.000 
#    0.000    0.000    0.000    0.000    0.000    0.000 
#
# Total GULP energy -123936.691098 kJ/mol
# GULP energy per Si atom -12393.669110 kJ/mol
# Density = 2.399852 g / cm^3
# Si number density = 24.053267 Si / 1000 Ang^3
#
#
#
# Elastic Constant Matrix: (Units=GPa)
#
#
# Indices 1 2 3 4 5 6 
#
# 1 67.4086 5.1251 -9.8803 -1.3820 -4.1035 -1.1348
# 2 5.1251 71.7497 -5.8502 -7.3953 -6.8068 2.4062
# 3 -9.8803 -5.8502 87.4403 -7.8496 0.4450 -6.0714
# 4 -1.3820 -7.3953 -7.8496 34.3546 4.9806 2.8819
# 5 -4.1035 -6.8068 0.4450 4.9806 33.7394 1.2424
# 6 -1.1348 2.4062 -6.0714 2.8819 1.2424 46.0278
#
#
#
# Elastic Compliance Matrix: (Units=1/GPa)
#
#
# Indices 1 2 3 4 5 6 
#
# 1 0.015267 -0.000757 0.001758 0.000577 0.001575 0.000569
# 2 -0.000757 0.014661 0.001099 0.003100 0.002427 -0.000900
# 3 0.001758 0.001099 0.012074 0.002980 -0.000215 0.001398
# 4 0.000577 0.003100 0.002980 0.031178 -0.003887 -0.001602
# 5 0.001575 0.002427 -0.000215 -0.003887 0.030923 -0.000708
# 6 0.000569 -0.000900 0.001398 -0.001602 -0.000708 0.022091
#
#
# Mechanical properties :
#
#
# Convention : Reuss Voigt Hill
#
# Bulk Modulus (GPa) = 21.64474 22.82087 22.23280
# Shear Modulus (GPa) = 36.39120 38.63797 37.51458
#
# Velocity S-wave (km/s) = 3.89388 4.01228 3.95352
# Velocity P-wave (km/s) = 5.40690 5.56532 5.48668
#
# Compressibility (1/GPa) = 0.04620061
#
# Stress axis : x y z
#
# Youngs Moduli (GPa) = 65.49906 68.20828 82.82144
#
# Poissons Ratio (x) = 0.05167 -0.14558
# Poissons Ratio (y) = 0.04962 -0.09100
# Poissons Ratio (z) = -0.11513 -0.07495
#
# Static dielectric constant tensor:
#      x y z
#    x 4.911270 -0.423850 0.209810 
#    y -0.423850 4.095830 0.117500 
#    z 0.209810 0.117500 4.506820 
# 
# 
# High freq. dielectric constant tensor:
#      x y z
#    x 1.963650 -0.000110 0.012780 
#    y -0.000110 1.949390 0.008150 
#    z 0.012780 0.008150 1.975870 
# 
# From -- ./inp_files/144242.got.cif
#   From: 2010.06.25/outbox.cif.g09.slc.cpg/sg2_73_cif.got.tgz:144242.got - 2010.06.27 13:26:56.
