data_PCOD8019297
_publ_section_title
;
Structure prediction by ZEFSAII (Michael W. Deem and Ramdas Pophale) SiO2 
 PCOD8019297
Probable space group: P -1
;
_chemical_formula_sum "Si O2"
_cell_formula_units_Z 16
_cell_length_a 12.028356
_cell_length_b 18.032698
_cell_length_c 8.936361
_cell_angle_alpha 148.563979
_cell_angle_beta 122.919575
_cell_angle_gamma 44.559796
_cell_volume 698.224672
_symmetry_space_group_name_H-M "P -1"
_symmetry_group_IT_number 2
_symmetry_cell_setting 'triclinic'
loop_
_space_group_symop_operation_xyz
x,y,z
-x,-y,-z
loop_
_atom_site_type_symbol
_atom_site_label
_atom_site_fract_x
_atom_site_fract_y
_atom_site_fract_z
Si Si1 0.501132 0.927807 0.642992
Si Si2 0.071930 0.652035 0.368464
Si Si3 0.748799 0.176351 0.238114
Si Si4 0.832488 0.614576 0.263101
Si Si5 0.765375 0.002885 0.653647
Si Si6 0.869499 0.458927 0.318730
Si Si7 0.970580 0.082878 0.782313
Si Si8 0.467850 0.243877 0.327118
O O1 0.679045 0.811977 0.501955
O O2 0.381631 0.982001 0.510425
O O3 0.479926 0.822442 0.577505
O O4 0.470560 0.099395 0.985064
O O5 0.195728 0.704770 0.586225
O O6 0.992098 0.621387 0.402703
O O7 0.167813 0.470609 0.039272
O O8 0.919122 0.803540 0.422616
O O9 0.588610 0.284992 0.410450
O O10 0.717391 0.083756 0.923389
O O11 0.887057 0.032701 0.197536
O O12 0.819971 0.499015 0.177830
O O13 0.807026 0.116798 0.784012
O O14 0.710659 0.581018 0.512765
O O15 0.000000 0.500000 0.500000
O O16 0.953804 0.260416 0.068959
O O17 0.000000 0.000000 0.500000
#
# Coordination Sequence:
#
# PCOD8019297 Si02
#       8
#     2   2   2   2   2   2   2   2
#     4  10  23  43  65  97 132 177 221 271 334 393
#     4  10  22  41  66  94 134 173 217 270 333 391
#     4  11  24  43  68  96 137 174 222 274 332 399
#     4  10  23  42  65  97 131 173 217 277 329 395
#     4  11  24  41  67  98 135 177 224 269 334 398
#     4  11  26  40  70  99 131 167 224 279 329 389
#     4  11  24  43  71 100 133 179 224 272 331 397
#     4  10  24  43  68  95 134 173 220 279 330 393
#
# _framework density 22.915258000000001
#
# number of rings (size 3 to 8) (size 9 to 14) (size 15 to 20)
#    0.000    1.500    0.000    4.500   12.250    3.000 
#    2.250    4.375    0.000    0.000    0.000    0.000 
#    0.000    0.000    0.000    0.000    0.000    0.000 
#
# Total GULP energy -198363.293914 kJ/mol
# GULP energy per Si atom -12397.705870 kJ/mol
# Density = 2.286310 g / cm^3
# Si number density = 22.915258 Si / 1000 Ang^3
#
#
#
# Elastic Constant Matrix: (Units=GPa)
#
#
# Indices 1 2 3 4 5 6 
#
# 1 148.4938 19.5138 44.5372 10.8536 -12.0022 -10.0595
# 2 19.5138 49.9845 31.8884 -10.5301 -5.6484 -6.7975
# 3 44.5372 31.8884 124.7386 6.0031 -11.8233 -0.1603
# 4 10.8536 -10.5301 6.0031 36.2042 5.9772 2.6261
# 5 -12.0022 -5.6484 -11.8233 5.9772 39.7602 3.0298
# 6 -10.0595 -6.7975 -0.1603 2.6261 3.0298 30.6503
#
#
#
# Elastic Compliance Matrix: (Units=1/GPa)
#
#
# Indices 1 2 3 4 5 6 
#
# 1 0.008156 -0.002007 -0.002068 -0.003161 0.001861 0.002308
# 2 -0.002007 0.027781 -0.006887 0.009566 -0.000503 0.004697
# 3 -0.002068 -0.006887 0.010897 -0.003421 0.002311 -0.002084
# 4 -0.003161 0.009566 -0.003421 0.032909 -0.005467 -0.001213
# 5 0.001861 -0.000503 0.002311 -0.005467 0.027281 -0.001717
# 6 0.002308 0.004697 -0.002084 -0.001213 -0.001717 0.034688
#
#
# Mechanical properties :
#
#
# Convention : Reuss Voigt Hill
#
# Bulk Modulus (GPa) = 40.14470 57.23285 48.68878
# Shear Modulus (GPa) = 29.08036 36.47477 32.77756
#
# Velocity S-wave (km/s) = 3.56622 3.99397 3.78614
# Velocity P-wave (km/s) = 5.87487 6.80435 6.35662
#
# Compressibility (1/GPa) = 0.02490989
#
# Stress axis : x y z
#
# Youngs Moduli (GPa) = 122.61084 35.99624 91.77135
#
# Poissons Ratio (x) = 0.07223 0.18974
# Poissons Ratio (y) = 0.24604 0.63207
# Poissons Ratio (z) = 0.25350 0.24792
#
# Static dielectric constant tensor:
#      x y z
#    x 5.048470 0.455860 0.088090 
#    y 0.455860 4.043180 -0.023270 
#    z 0.088090 -0.023270 3.988780 
# 
# 
# High freq. dielectric constant tensor:
#      x y z
#    x 1.927400 0.012640 -0.005200 
#    y 0.012640 1.890140 0.000200 
#    z -0.005200 0.000200 1.904130 
# 
# From -- ./inp_files/280280.got.cif
#   From: 2010.06.25/outbox.cif.g09.slc.cpg/sg2_141_cif.got.tgz:280280.got - 2010.06.27 13:26:56.
