data_PCOD8019691
_publ_section_title
;
Structure prediction by ZEFSAII (Michael W. Deem and Ramdas Pophale) SiO2 
 PCOD8019691
Probable space group: P -1
;
_chemical_formula_sum "Si O2"
_cell_formula_units_Z 14
_cell_length_a 11.793391
_cell_length_b 7.391600
_cell_length_c 7.928234
_cell_angle_alpha 119.993234
_cell_angle_beta 72.634418
_cell_angle_gamma 94.424912
_cell_volume 569.111274
_symmetry_space_group_name_H-M "P -1"
_symmetry_group_IT_number 2
_symmetry_cell_setting 'triclinic'
loop_
_space_group_symop_operation_xyz
x,y,z
-x,-y,-z
loop_
_atom_site_type_symbol
_atom_site_label
_atom_site_fract_x
_atom_site_fract_y
_atom_site_fract_z
Si Si1 0.390513 0.464931 0.419479
Si Si2 0.589414 0.765931 0.022707
Si Si3 0.652003 0.305353 0.775310
Si Si4 0.945366 0.266324 0.104742
Si Si5 0.189020 0.065385 0.843988
Si Si6 0.815878 0.691166 0.383076
Si Si7 0.116778 0.946636 0.312628
O O1 0.500000 0.500000 0.500000
O O2 0.354162 0.669885 0.414704
O O3 0.294948 0.439168 0.595441
O O4 0.414536 0.259412 0.191572
O O5 0.454715 0.834500 0.181203
O O6 0.684665 0.928850 0.111310
O O7 0.631185 0.536838 0.979415
O O8 0.782867 0.212655 0.722037
O O9 0.925597 0.517823 0.214748
O O10 0.859547 0.168274 0.237475
O O11 0.917409 0.143784 0.890519
O O12 0.086224 0.217925 0.056298
O O13 0.205048 0.140592 0.680132
O O14 0.833965 0.822467 0.608481
O O15 0.000000 0.000000 0.500000
#
# Coordination Sequence:
#
# PCOD8019691 Si02
#       7
#     2   2   2   2   2   2   2
#     4  10  22  41  70 108 141 184 248 302 366 436
#     4   9  20  43  74 102 145 192 240 305 379 417
#     4   9  22  42  74 105 146 196 239 308 366 439
#     4  11  27  46  71 107 147 194 245 304 365 443
#     4  11  23  45  72 102 142 192 247 299 371 435
#     4  12  26  43  73 107 144 196 240 302 371 430
#     4  12  26  47  71 110 149 191 251 293 364 445
#
# _framework density 24.599757
#
# number of rings (size 3 to 8) (size 9 to 14) (size 15 to 20)
#    0.857    0.571    1.429    3.000    6.000    0.000 
#    2.571    7.143    0.000    0.000    0.000    0.000 
#    0.000    0.000    0.000    0.000    0.000    0.000 
#
# Total GULP energy -173453.760767 kJ/mol
# GULP energy per Si atom -12389.554340 kJ/mol
# Density = 2.454377 g / cm^3
# Si number density = 24.599757 Si / 1000 Ang^3
#
#
#
# Elastic Constant Matrix: (Units=GPa)
#
#
# Indices 1 2 3 4 5 6 
#
# 1 125.5761 14.5313 21.5353 -15.2674 -17.8071 2.4451
# 2 14.5313 60.7734 20.5320 -14.4679 2.6379 -6.4824
# 3 21.5353 20.5320 77.1841 -14.3369 -1.6627 -7.8769
# 4 -15.2674 -14.4679 -14.3369 43.4613 11.7349 -4.5815
# 5 -17.8071 2.6379 -1.6627 11.7349 39.5531 -4.8481
# 6 2.4451 -6.4824 -7.8769 -4.5815 -4.8481 36.4176
#
#
#
# Elastic Compliance Matrix: (Units=1/GPa)
#
#
# Indices 1 2 3 4 5 6 
#
# 1 0.009140 -0.001532 -0.001952 0.000968 0.003764 -0.000686
# 2 -0.001532 0.019994 -0.003472 0.006295 -0.003642 0.003218
# 3 -0.001952 -0.003472 0.015442 0.003790 -0.000726 0.003233
# 4 0.000968 0.006295 0.003790 0.029322 -0.007972 0.004503
# 5 0.003764 -0.003642 -0.000726 -0.007972 0.029788 0.001905
# 6 -0.000686 0.003218 0.003233 0.004503 0.001905 0.029597
#
#
# Mechanical properties :
#
#
# Convention : Reuss Voigt Hill
#
# Bulk Modulus (GPa) = 32.61048 41.85897 37.23472
# Shear Modulus (GPa) = 31.76287 37.68208 34.72247
#
# Velocity S-wave (km/s) = 3.59721 3.91808 3.76106
# Velocity P-wave (km/s) = 5.52616 6.12547 5.83351
#
# Compressibility (1/GPa) = 0.03066499
#
# Stress axis : x y z
#
# Youngs Moduli (GPa) = 109.40841 50.01549 64.75678
#
# Poissons Ratio (x) = 0.07662 0.12638
# Poissons Ratio (y) = 0.16762 0.22483
# Poissons Ratio (z) = 0.21353 0.17365
#
# Static dielectric constant tensor:
#      x y z
#    x 4.672920 0.447610 0.022960 
#    y 0.447610 5.202950 0.062780 
#    z 0.022960 0.062780 5.149740 
# 
# 
# High freq. dielectric constant tensor:
#      x y z
#    x 1.983190 0.010610 -0.014270 
#    y 0.010610 1.969140 -0.010030 
#    z -0.014270 -0.010030 1.971920 
# 
# From -- ./inp_files/245330.got.cif
#   From: 2010.06.25/outbox.cif.g09.slc.cpg/sg2_123_cif.got.tgz:245330.got - 2010.06.27 13:26:56.
