data_PCOD8019319
_publ_section_title
;
Structure prediction by ZEFSAII (Michael W. Deem and Ramdas Pophale) SiO2 
 PCOD8019319
Probable space group: P -1
;
_chemical_formula_sum "Si O2"
_cell_formula_units_Z 16
_cell_length_a 8.831502
_cell_length_b 14.675965
_cell_length_c 13.300646
_cell_angle_alpha 150.452804
_cell_angle_beta 91.859593
_cell_angle_gamma 80.034431
_cell_volume 812.172123
_symmetry_space_group_name_H-M "P -1"
_symmetry_group_IT_number 2
_symmetry_cell_setting 'triclinic'
loop_
_space_group_symop_operation_xyz
x,y,z
-x,-y,-z
loop_
_atom_site_type_symbol
_atom_site_label
_atom_site_fract_x
_atom_site_fract_y
_atom_site_fract_z
Si Si1 0.442296 0.962125 0.354254
Si Si2 0.083795 0.952677 0.349605
Si Si3 0.360921 0.442935 0.997406
Si Si4 0.393633 0.311433 0.542612
Si Si5 0.861943 0.482811 0.117139
Si Si6 0.124946 0.667036 0.357951
Si Si7 0.467356 0.218057 0.242065
Si Si8 0.646893 0.435963 0.568736
O O1 0.260072 0.968748 0.365523
O O2 0.559341 0.751558 0.123152
O O3 0.500000 0.000000 0.500000
O O4 0.463791 0.117948 0.424214
O O5 0.084091 0.745302 0.112652
O O6 0.000000 0.000000 0.500000
O O7 0.973433 0.109032 0.422372
O O8 0.240528 0.409138 0.876554
O O9 0.500000 0.500000 0.000000
O O10 0.272862 0.619593 0.238045
O O11 0.237054 0.455749 0.724201
O O12 0.355486 0.250544 0.370332
O O13 0.521798 0.431822 0.651582
O O14 0.020707 0.541366 0.188307
O O15 0.181494 0.614168 0.423133
O O16 0.627967 0.277734 0.332598
O O17 0.382266 0.354284 0.279835
O O18 0.500000 0.000000 0.000000
#
# Coordination Sequence:
#
# PCOD8019319 Si02
#       8
#     2   2   2   2   2   2   2   2
#     4  12  24  37  63  95 128 172 226 260 317 386
#     4  12  26  40  59  88 138 182 217 261 318 384
#     4  12  23  39  61  91 131 182 224 266 310 373
#     4  10  22  41  66  97 129 167 219 270 328 389
#     4  12  24  41  61  93 138 179 211 269 330 378
#     4  12  25  41  62  95 137 171 219 265 329 391
#     4   9  21  43  73 100 124 160 220 280 333 385
#     4   9  23  43  68  98 128 161 220 271 331 389
#
# _framework density 19.700257000000001
#
# number of rings (size 3 to 8) (size 9 to 14) (size 15 to 20)
#    0.750    0.250    5.000    1.125    5.250    1.000 
#    0.000    0.625    0.000    1.500    0.000    0.000 
#    0.000    0.000    0.000    0.000    0.000    0.000 
#
# Total GULP energy -198293.244228 kJ/mol
# GULP energy per Si atom -12393.327764 kJ/mol
# Density = 1.965542 g / cm^3
# Si number density = 19.700257 Si / 1000 Ang^3
#
#
#
# Elastic Constant Matrix: (Units=GPa)
#
#
# Indices 1 2 3 4 5 6 
#
# 1 76.0699 59.2482 43.0659 10.8032 -6.5323 -20.4477
# 2 59.2482 149.7933 67.1314 25.3155 -1.5310 -11.1760
# 3 43.0659 67.1314 155.0547 22.9085 -12.9120 -2.6399
# 4 10.8032 25.3155 22.9085 36.3639 0.7493 0.4390
# 5 -6.5323 -1.5310 -12.9120 0.7493 29.3621 -0.1955
# 6 -20.4477 -11.1760 -2.6399 0.4390 -0.1955 35.7222
#
#
#
# Elastic Compliance Matrix: (Units=1/GPa)
#
#
# Indices 1 2 3 4 5 6 
#
# 1 0.023749 -0.007126 -0.002946 -0.000450 0.003702 0.011173
# 2 -0.007126 0.011209 -0.002445 -0.004097 -0.001976 -0.000713
# 3 -0.002946 -0.002445 0.009035 -0.003161 0.003260 -0.001727
# 4 -0.000450 -0.004097 -0.003161 0.032556 -0.002549 -0.002187
# 5 0.003702 -0.001976 0.003260 -0.002549 0.036290 0.001972
# 6 0.011173 -0.000713 -0.001727 -0.002187 0.001972 0.034076
#
#
# Mechanical properties :
#
#
# Convention : Reuss Voigt Hill
#
# Bulk Modulus (GPa) = 52.74521 79.97876 66.36199
# Shear Modulus (GPa) = 28.04766 34.38781 31.21773
#
# Velocity S-wave (km/s) = 3.77732 4.18251 3.98507
# Velocity P-wave (km/s) = 6.77172 8.00066 7.41170
#
# Compressibility (1/GPa) = 0.01895907
#
# Stress axis : x y z
#
# Youngs Moduli (GPa) = 42.10787 89.21292 110.67660
#
# Poissons Ratio (x) = 0.63569 0.32606
# Poissons Ratio (y) = 0.30004 0.27065
# Poissons Ratio (z) = 0.12405 0.21816
#
# Static dielectric constant tensor:
#      x y z
#    x 3.604730 -0.143180 -0.058550 
#    y -0.143180 3.764110 0.253570 
#    z -0.058550 0.253570 3.849020 
# 
# 
# High freq. dielectric constant tensor:
#      x y z
#    x 1.759240 -0.005030 0.005080 
#    y -0.005030 1.764500 0.010660 
#    z 0.005080 0.010660 1.771710 
# 
# From -- ./inp_files/504666.got.cif
#   From: 2010.06.25/outbox.cif.g09.slc.cpg/sg2_253_cif.got.tgz:504666.got - 2010.06.27 13:26:56.
