data_PCOD8019013
_publ_section_title
;
Structure prediction by ZEFSAII (Michael W. Deem and Ramdas Pophale) SiO2 
 PCOD8019013
Probable space group: P -1
;
_chemical_formula_sum "Si O2"
_cell_formula_units_Z 16
_cell_length_a 21.015697
_cell_length_b 10.685779
_cell_length_c 6.620022
_cell_angle_alpha 62.607506
_cell_angle_beta 99.631778
_cell_angle_gamma 144.111622
_cell_volume 710.954815
_symmetry_space_group_name_H-M "P -1"
_symmetry_group_IT_number 2
_symmetry_cell_setting 'triclinic'
loop_
_space_group_symop_operation_xyz
x,y,z
-x,-y,-z
loop_
_atom_site_type_symbol
_atom_site_label
_atom_site_fract_x
_atom_site_fract_y
_atom_site_fract_z
Si Si1 0.472523 0.861053 0.289907
Si Si2 0.304214 0.308236 0.670495
Si Si3 0.276861 0.000261 0.156281
Si Si4 0.138207 0.126886 0.019186
Si Si5 0.650754 0.131804 0.524596
Si Si6 0.102064 0.379147 0.877642
Si Si7 0.825690 0.012335 0.549724
Si Si8 0.932673 0.500791 0.850934
O O1 0.412392 0.597228 0.421091
O O2 0.386177 0.800014 0.419791
O O3 0.591541 0.039472 0.341804
O O4 0.500000 0.000000 0.000000
O O5 0.217945 0.267334 0.755599
O O6 0.240224 0.105801 0.609976
O O7 0.339309 0.250568 0.896255
O O8 0.376416 0.063835 0.221375
O O9 0.211533 0.918655 0.393286
O O10 0.180874 0.760723 0.132548
O O11 0.104238 0.215127 0.020660
O O12 0.214044 0.196215 0.187995
O O13 0.024666 0.818655 0.142058
O O14 0.792076 0.382285 0.389759
O O15 0.113787 0.468610 0.037666
O O16 0.967488 0.254510 0.424607
O O17 0.000000 0.500000 0.000000
#
# Coordination Sequence:
#
# PCOD8019013 Si02
#       8
#     2   2   2   2   2   2   2   2
#     4  11  28  49  75  95 132 180 238 297 345 400
#     4  11  23  46  68 102 136 182 228 280 347 407
#     4  11  25  41  71 100 143 181 230 281 335 418
#     4  10  22  41  64 105 141 179 220 281 344 413
#     4  11  26  47  70 102 135 180 230 291 342 402
#     4  11  22  40  69  99 145 178 225 278 340 420
#     4  11  22  39  66  98 146 185 214 277 338 411
#     4  12  21  38  65 103 145 189 220 264 344 416
#
# _framework density 22.504943999999998
#
# number of rings (size 3 to 8) (size 9 to 14) (size 15 to 20)
#    0.000    1.000    3.750    2.625    3.500    2.000 
#    0.000    1.250    0.000    0.000    0.000    0.000 
#    0.000    0.000    0.000    0.000    0.000    0.000 
#
# Total GULP energy -198281.005558 kJ/mol
# GULP energy per Si atom -12392.562847 kJ/mol
# Density = 2.245372 g / cm^3
# Si number density = 22.504944 Si / 1000 Ang^3
#
#
#
# Elastic Constant Matrix: (Units=GPa)
#
#
# Indices 1 2 3 4 5 6 
#
# 1 92.5794 35.7531 32.5907 11.7351 8.6010 -16.6265
# 2 35.7531 80.7952 60.0294 -1.9208 8.2503 -12.2719
# 3 32.5907 60.0294 123.1748 6.1390 14.5219 -3.6978
# 4 11.7351 -1.9208 6.1390 39.2521 0.5702 -2.1071
# 5 8.6010 8.2503 14.5219 0.5702 38.0413 9.1295
# 6 -16.6265 -12.2719 -3.6978 -2.1071 9.1295 31.5012
#
#
#
# Elastic Compliance Matrix: (Units=1/GPa)
#
#
# Indices 1 2 3 4 5 6 
#
# 1 0.014992 -0.004726 -0.000828 -0.004170 -0.003603 0.006740
# 2 -0.004726 0.022918 -0.009755 0.004411 -0.001702 0.006077
# 3 -0.000828 -0.009755 0.013414 -0.002411 -0.002261 -0.002169
# 4 -0.004170 0.004411 -0.002411 0.027365 0.000259 0.000990
# 5 -0.003603 -0.001702 -0.002261 0.000259 0.031174 -0.011848
# 6 0.006740 0.006077 -0.002169 0.000990 -0.011848 0.040915
#
#
# Mechanical properties :
#
#
# Convention : Reuss Voigt Hill
#
# Bulk Modulus (GPa) = 48.30018 61.47731 54.88874
# Shear Modulus (GPa) = 26.55345 32.97066 29.76205
#
# Velocity S-wave (km/s) = 3.43869 3.83174 3.64052
# Velocity P-wave (km/s) = 6.10530 6.85221 6.48951
#
# Compressibility (1/GPa) = 0.02070386
#
# Stress axis : x y z
#
# Youngs Moduli (GPa) = 66.70175 43.63330 74.55078
#
# Poissons Ratio (x) = 0.20622 0.06176
# Poissons Ratio (y) = 0.31525 0.72728
# Poissons Ratio (z) = 0.05526 0.42566
#
# Static dielectric constant tensor:
#      x y z
#    x 2.851670 -0.550370 2.157260 
#    y -0.550370 3.804120 0.791490 
#    z 2.157260 0.791490 0.672660 
# 
# 
# High freq. dielectric constant tensor:
#      x y z
#    x 1.890400 -0.013260 0.007260 
#    y -0.013260 1.874460 0.005190 
#    z 0.007260 0.005190 1.895250 
# 
# From -- ./inp_files/123598.got.cif
#   From: 2010.06.25/outbox.cif.g09.slc.cpg/sg2_62_cif.got.tgz:123598.got - 2010.06.27 13:26:56.
