data_PCOD8019576
_publ_section_title
;
Structure prediction by ZEFSAII (Michael W. Deem and Ramdas Pophale) SiO2 
 PCOD8019576
Probable space group: P -1
;
_chemical_formula_sum "Si O2"
_cell_formula_units_Z 16
_cell_length_a 14.277995
_cell_length_b 9.331591
_cell_length_c 23.222462
_cell_angle_alpha 49.847649
_cell_angle_beta 160.498433
_cell_angle_gamma 119.696369
_cell_volume 708.715487
_symmetry_space_group_name_H-M "P -1"
_symmetry_group_IT_number 2
_symmetry_cell_setting 'triclinic'
loop_
_space_group_symop_operation_xyz
x,y,z
-x,-y,-z
loop_
_atom_site_type_symbol
_atom_site_label
_atom_site_fract_x
_atom_site_fract_y
_atom_site_fract_z
Si Si1 0.266190 0.966761 0.243500
Si Si2 0.155198 0.195055 0.756095
Si Si3 0.928245 0.061806 0.138165
Si Si4 0.117403 0.288909 0.275556
Si Si5 0.751900 0.873717 0.291837
Si Si6 0.777938 0.306589 0.183573
Si Si7 0.860066 0.621905 0.529621
Si Si8 0.768266 0.330288 0.797164
O O1 0.081246 0.954405 0.195596
O O2 0.615060 0.906851 0.483866
O O3 0.259063 0.800714 0.237828
O O4 0.091280 0.198507 0.053863
O O5 0.023189 0.253369 0.598958
O O6 0.134421 0.396415 0.727275
O O7 0.947433 0.112564 0.694029
O O8 0.500000 0.000000 0.000000
O O9 0.032410 0.235080 0.176865
O O10 0.561334 0.152039 0.893360
O O11 0.227357 0.467265 0.281366
O O12 0.818731 0.354733 0.127786
O O13 0.877599 0.778803 0.451058
O O14 0.705218 0.109876 0.200785
O O15 0.081093 0.288242 0.399644
O O16 0.500000 0.500000 0.000000
O O17 0.525569 0.615016 0.343899
#
# Coordination Sequence:
#
# PCOD8019576 Si02
#       8
#     2   2   2   2   2   2   2   2
#     4  11  24  47  72 103 141 188 233 298 348 419
#     4  10  22  41  68  99 135 185 228 279 354 422
#     4  11  23  44  71  94 144 186 232 285 354 415
#     4  12  26  45  69 106 141 188 235 290 353 420
#     4  11  24  47  69 101 144 184 234 290 351 428
#     4  12  27  44  71 105 142 185 239 285 358 428
#     4  12  24  46  73 104 138 186 234 300 357 411
#     4  11  26  46  75 105 142 180 242 293 356 416
#
# _framework density 22.576053999999999
#
# number of rings (size 3 to 8) (size 9 to 14) (size 15 to 20)
#    0.000    0.750    3.750    3.750    5.250    0.500 
#    4.500    0.000    0.000    0.000    0.000    0.000 
#    0.000    0.000    0.000    0.000    0.000    0.000 
#
# Total GULP energy -198269.826585 kJ/mol
# GULP energy per Si atom -12391.864162 kJ/mol
# Density = 2.252467 g / cm^3
# Si number density = 22.576054 Si / 1000 Ang^3
#
#
#
# Elastic Constant Matrix: (Units=GPa)
#
#
# Indices 1 2 3 4 5 6 
#
# 1 145.3093 26.0005 14.7970 -16.7426 2.1190 -0.0648
# 2 26.0005 96.9647 32.8234 -2.3559 -3.5971 -6.9201
# 3 14.7970 32.8234 78.1937 -2.7608 -1.8172 1.8016
# 4 -16.7426 -2.3559 -2.7608 26.0645 -4.1125 0.4873
# 5 2.1190 -3.5971 -1.8172 -4.1125 23.6943 -1.5228
# 6 -0.0648 -6.9201 1.8016 0.4873 -1.5228 37.6244
#
#
#
# Elastic Compliance Matrix: (Units=1/GPa)
#
#
# Indices 1 2 3 4 5 6 
#
# 1 0.007817 -0.001832 -0.000538 0.004772 -0.000214 -0.000368
# 2 -0.001832 0.012761 -0.005040 -0.000318 0.001830 0.002663
# 3 -0.000538 -0.005040 0.015087 0.000905 0.000492 -0.001642
# 4 0.004772 -0.000318 0.000905 0.042605 0.006966 -0.000364
# 5 -0.000214 0.001830 0.000492 0.006966 0.043876 0.001998
# 6 -0.000368 0.002663 -0.001642 -0.000364 0.001998 0.027232
#
#
# Mechanical properties :
#
#
# Convention : Reuss Voigt Hill
#
# Bulk Modulus (GPa) = 47.97380 51.96773 49.97077
# Shear Modulus (GPa) = 29.21463 33.93310 31.57386
#
# Velocity S-wave (km/s) = 3.60120 3.88113 3.74378
# Velocity P-wave (km/s) = 6.21188 6.56911 6.39299
#
# Compressibility (1/GPa) = 0.02084471
#
# Stress axis : x y z
#
# Youngs Moduli (GPa) = 127.92130 78.36606 66.28044
#
# Poissons Ratio (x) = 0.14359 0.03567
# Poissons Ratio (y) = 0.23439 0.33404
# Poissons Ratio (z) = 0.06885 0.39495
#
# Static dielectric constant tensor:
#      x y z
#    x 4.931910 -0.224160 -0.154410 
#    y -0.224160 4.122580 0.084980 
#    z -0.154410 0.084980 4.107420 
# 
# 
# High freq. dielectric constant tensor:
#      x y z
#    x 1.917750 -0.013300 0.000060 
#    y -0.013300 1.885320 0.001880 
#    z 0.000060 0.001880 1.872530 
# 
# From -- ./inp_files/611759.got.cif
#   From: 2010.06.25/outbox.cif.g09.slc.cpg/sg2_306_cif.got.tgz:611759.got - 2010.06.27 13:26:56.
