data_PCOD8019805
_publ_section_title
;
Structure prediction by ZEFSAII (Michael W. Deem and Ramdas Pophale) SiO2 
 PCOD8019805
Probable space group: P -1
;
_chemical_formula_sum "Si O2"
_cell_formula_units_Z 16
_cell_length_a 15.988722
_cell_length_b 15.021627
_cell_length_c 15.435864
_cell_angle_alpha 145.933126
_cell_angle_beta 25.994847
_cell_angle_gamma 153.626338
_cell_volume 716.712875
_symmetry_space_group_name_H-M "P -1"
_symmetry_group_IT_number 2
_symmetry_cell_setting 'triclinic'
loop_
_space_group_symop_operation_xyz
x,y,z
-x,-y,-z
loop_
_atom_site_type_symbol
_atom_site_label
_atom_site_fract_x
_atom_site_fract_y
_atom_site_fract_z
Si Si1 0.000873 0.315259 0.368177
Si Si2 0.967630 0.665060 0.831737
Si Si3 0.484461 0.061366 0.406435
Si Si4 0.200150 0.241491 0.273738
Si Si5 0.636568 0.247850 0.869170
Si Si6 0.189125 0.202318 0.761631
Si Si7 0.748055 0.714517 0.421045
Si Si8 0.894941 0.142205 0.646811
O O1 0.093651 0.290408 0.169338
O O2 0.192300 0.375189 0.315462
O O3 0.000000 0.500000 0.500000
O O4 0.729582 0.111411 0.472089
O O5 0.863753 0.431022 0.749006
O O6 0.256972 0.811278 0.686690
O O7 0.825399 0.685681 0.055142
O O8 0.429576 0.216009 0.555358
O O9 0.496914 0.958163 0.226458
O O10 0.086437 0.237979 0.466918
O O11 0.465248 0.309081 0.101129
O O12 0.047997 0.026002 0.195811
O O13 0.724423 0.208509 0.844670
O O14 0.191579 0.295346 0.742683
O O15 0.500000 0.500000 0.500000
O O16 0.966124 0.759266 0.313138
O O17 0.735856 0.898724 0.597952
#
# Coordination Sequence:
#
# PCOD8019805 Si02
#       8
#     2   2   2   2   2   2   2   2
#     4  11  22  45  69 101 133 182 226 272 331 396
#     4  12  26  40  70  99 131 179 226 266 341 388
#     4  11  23  46  66  95 143 174 217 280 328 396
#     4  10  22  42  69  93 141 171 223 276 326 396
#     4  12  23  42  70  97 134 183 216 273 336 398
#     4  10  23  45  65  98 134 174 217 280 333 392
#     4  10  22  41  73  96 129 175 223 273 336 401
#     4  10  22  45  66  97 133 177 218 271 341 394
#
# _framework density 22.324141999999998
#
# number of rings (size 3 to 8) (size 9 to 14) (size 15 to 20)
#    0.000    1.250    6.250    0.375    3.500    3.500 
#    2.250    7.500    0.000    0.000    0.000    0.000 
#    0.000    0.000    0.000    0.000    0.000    0.000 
#
# Total GULP energy -198336.980796 kJ/mol
# GULP energy per Si atom -12396.061300 kJ/mol
# Density = 2.227333 g / cm^3
# Si number density = 22.324142 Si / 1000 Ang^3
#
#
#
# Elastic Constant Matrix: (Units=GPa)
#
#
# Indices 1 2 3 4 5 6 
#
# 1 163.6822 42.4126 72.9697 8.9854 -2.9998 -24.3965
# 2 42.4126 73.8802 24.2076 -12.3892 -10.8491 -6.1420
# 3 72.9697 24.2076 105.5226 1.4714 -11.4566 -2.2010
# 4 8.9854 -12.3892 1.4714 13.9289 3.0778 -0.1130
# 5 -2.9998 -10.8491 -11.4566 3.0778 44.8675 4.2967
# 6 -24.3965 -6.1420 -2.2010 -0.1130 4.2967 29.1257
#
#
#
# Elastic Compliance Matrix: (Units=1/GPa)
#
#
# Indices 1 2 3 4 5 6 
#
# 1 0.013442 -0.007110 -0.007574 -0.013512 -0.002741 0.009539
# 2 -0.007110 0.021913 -0.000107 0.023332 0.003363 -0.001748
# 3 -0.007574 -0.000107 0.014986 0.002346 0.003686 -0.005769
# 4 -0.013512 0.023332 0.002346 0.101203 -0.001062 -0.005671
# 5 -0.002741 0.003363 0.003686 -0.001062 0.024402 -0.004912
# 6 0.009539 -0.001748 -0.005769 -0.005671 -0.004912 0.042222
#
#
# Mechanical properties :
#
#
# Convention : Reuss Voigt Hill
#
# Bulk Modulus (GPa) = 48.17363 69.14052 58.65708
# Shear Modulus (GPa) = 19.63322 31.15074 25.39198
#
# Velocity S-wave (km/s) = 2.96879 3.73954 3.37623
# Velocity P-wave (km/s) = 5.77734 7.04868 6.44444
#
# Compressibility (1/GPa) = 0.02075824
#
# Stress axis : x y z
#
# Youngs Moduli (GPa) = 74.39596 45.63445 66.72959
#
# Poissons Ratio (x) = 0.32446 0.50542
# Poissons Ratio (y) = 0.52896 0.00715
# Poissons Ratio (z) = 0.56348 0.00489
#
# Static dielectric constant tensor:
#      x y z
#    x 4.612960 -0.079040 -0.019780 
#    y -0.079040 4.012650 0.067730 
#    z -0.019780 0.067730 3.800880 
# 
# 
# High freq. dielectric constant tensor:
#      x y z
#    x 1.890900 -0.002680 0.001190 
#    y -0.002680 1.883790 0.003490 
#    z 0.001190 0.003490 1.857280 
# 
# From -- ./inp_files/533814.got.cif
#   From: 2010.06.25/outbox.cif.g09.slc.cpg/sg2_267_cif.got.tgz:533814.got - 2010.06.27 13:26:56.
