data_PCOD8019275
_publ_section_title
;
Structure prediction by ZEFSAII (Michael W. Deem and Ramdas Pophale) SiO2 
 PCOD8019275
Probable space group: P -1
;
_chemical_formula_sum "Si O2"
_cell_formula_units_Z 16
_cell_length_a 13.456238
_cell_length_b 12.034283
_cell_length_c 17.620883
_cell_angle_alpha 55.831362
_cell_angle_beta 158.887005
_cell_angle_gamma 112.103939
_cell_volume 738.738167
_symmetry_space_group_name_H-M "P -1"
_symmetry_group_IT_number 2
_symmetry_cell_setting 'triclinic'
loop_
_space_group_symop_operation_xyz
x,y,z
-x,-y,-z
loop_
_atom_site_type_symbol
_atom_site_label
_atom_site_fract_x
_atom_site_fract_y
_atom_site_fract_z
Si Si1 0.428688 0.662019 0.027807
Si Si2 0.655510 0.119476 0.238906
Si Si3 0.693285 0.827774 0.425444
Si Si4 0.735566 0.587351 0.435953
Si Si5 0.554282 0.582999 0.625200
Si Si6 0.148685 0.339574 0.062861
Si Si7 0.844498 0.166075 0.861712
Si Si8 0.619236 0.616123 0.951043
O O1 0.526117 0.765502 0.004798
O O2 0.504889 0.506761 0.095607
O O3 0.049441 0.758829 0.740161
O O4 0.655803 0.614301 0.280273
O O5 0.513696 0.012016 0.208323
O O6 0.655640 0.223503 0.270173
O O7 0.000000 0.000000 0.500000
O O8 0.711590 0.742579 0.392586
O O9 0.481528 0.797176 0.345095
O O10 0.479180 0.551892 0.306036
O O11 0.083003 0.443980 0.756086
O O12 0.614524 0.686132 0.689645
O O13 0.234492 0.704356 0.308627
O O14 0.830035 0.502088 0.789850
O O15 0.297080 0.354103 0.084666
O O16 0.086815 0.192609 0.076876
O O17 0.000000 0.000000 0.000000
#
# Coordination Sequence:
#
# PCOD8019275 Si02
#       8
#     2   2   2   2   2   2   2   2
#     4  10  22  41  66  93 117 160 210 264 309 353
#     4  10  23  45  64  87 126 167 206 258 314 362
#     4  10  23  40  62  87 126 167 206 249 309 370
#     4  11  21  38  66  94 123 159 207 257 303 366
#     4  11  22  38  63  94 128 163 204 248 303 364
#     4  11  22  38  66  93 126 164 203 249 305 365
#     4  12  24  38  59  90 132 168 199 247 307 370
#     4  11  21  39  67  94 122 160 209 255 307 365
#
# _framework density 21.658552
#
# number of rings (size 3 to 8) (size 9 to 14) (size 15 to 20)
#    0.000    1.250    3.750    3.000    1.750    1.500 
#    0.000    5.000    0.000    0.000    0.000    0.000 
#    0.000    0.000    0.000    0.000    0.000    0.000 
#
# Total GULP energy -198345.106772 kJ/mol
# GULP energy per Si atom -12396.569173 kJ/mol
# Density = 2.160926 g / cm^3
# Si number density = 21.658552 Si / 1000 Ang^3
#
#
#
# Elastic Constant Matrix: (Units=GPa)
#
#
# Indices 1 2 3 4 5 6 
#
# 1 81.8757 33.0512 31.7151 -18.0003 -12.6898 -20.6201
# 2 33.0512 133.6735 37.7224 -15.5763 -7.5897 -13.1773
# 3 31.7151 37.7224 39.0563 -5.8031 -1.6902 -17.1717
# 4 -18.0003 -15.5763 -5.8031 37.3099 -1.6770 -2.5934
# 5 -12.6898 -7.5897 -1.6902 -1.6770 23.8371 -7.5710
# 6 -20.6201 -13.1773 -17.1717 -2.5934 -7.5710 40.0970
#
#
#
# Elastic Compliance Matrix: (Units=1/GPa)
#
#
# Indices 1 2 3 4 5 6 
#
# 1 0.025558 0.001287 -0.014361 0.012222 0.017514 0.011514
# 2 0.001287 0.010849 -0.010486 0.003743 0.003885 0.000712
# 3 -0.014361 -0.010486 0.051227 -0.002831 -0.004342 0.010104
# 4 0.012222 0.003743 -0.002831 0.035202 0.013509 0.011130
# 5 0.017514 0.003885 -0.004342 0.013509 0.059688 0.020568
# 6 0.011514 0.000712 0.010104 0.011130 0.020568 0.040025
#
#
# Mechanical properties :
#
#
# Convention : Reuss Voigt Hill
#
# Bulk Modulus (GPa) = 24.68263 51.06474 37.87369
# Shear Modulus (GPa) = 17.65700 30.38991 24.02345
#
# Velocity S-wave (km/s) = 2.85835 3.74991 3.33406
# Velocity P-wave (km/s) = 4.72382 6.50980 5.68735
#
# Compressibility (1/GPa) = 0.04051432
#
# Stress axis : x y z
#
# Youngs Moduli (GPa) = 39.12659 92.17604 19.52083
#
# Poissons Ratio (x) = -0.11862 0.28034
# Poissons Ratio (y) = -0.05035 0.20469
# Poissons Ratio (z) = 0.56190 0.96654
#
# Static dielectric constant tensor:
#      x y z
#    x 4.066610 0.158270 0.007750 
#    y 0.158270 4.390240 -0.222560 
#    z 0.007750 -0.222560 3.842210 
# 
# 
# High freq. dielectric constant tensor:
#      x y z
#    x 1.860690 0.002710 -0.001110 
#    y 0.002710 1.862670 -0.007390 
#    z -0.001110 -0.007390 1.820950 
# 
# From -- ./inp_files/273099.got.cif
#   From: 2010.06.25/outbox.cif.g09.slc.cpg/sg2_137_cif.got.tgz:273099.got - 2010.06.27 13:26:56.
