data_PCOD8019775
_publ_section_title
;
Structure prediction by ZEFSAII (Michael W. Deem and Ramdas Pophale) SiO2 
 PCOD8019775
Probable space group: P -1
;
_chemical_formula_sum "Si O2"
_cell_formula_units_Z 16
_cell_length_a 9.845465
_cell_length_b 11.424238
_cell_length_c 21.635149
_cell_angle_alpha 28.175494
_cell_angle_beta 38.649076
_cell_angle_gamma 51.146458
_cell_volume 702.037192
_symmetry_space_group_name_H-M "P -1"
_symmetry_group_IT_number 2
_symmetry_cell_setting 'triclinic'
loop_
_space_group_symop_operation_xyz
x,y,z
-x,-y,-z
loop_
_atom_site_type_symbol
_atom_site_label
_atom_site_fract_x
_atom_site_fract_y
_atom_site_fract_z
Si Si1 0.060377 0.517217 0.110655
Si Si2 0.957424 0.825282 0.312281
Si Si3 0.660234 0.099294 0.777063
Si Si4 0.299455 0.589531 0.494208
Si Si5 0.408535 0.492193 0.902656
Si Si6 0.117900 0.510478 0.230949
Si Si7 0.802943 0.948046 0.994717
Si Si8 0.288444 0.825943 0.687501
O O1 0.125145 0.427721 0.196005
O O2 0.946462 0.750944 0.057008
O O3 0.893901 0.280012 0.249735
O O4 0.279128 0.612179 0.946643
O O5 0.795273 0.605224 0.435967
O O6 0.104877 0.736654 0.356457
O O7 0.804866 0.007578 0.306706
O O8 0.144561 0.975253 0.130077
O O9 0.626294 0.149303 0.692363
O O10 0.457750 0.179609 0.848564
O O11 0.665617 0.807637 0.922512
O O12 0.500000 0.500000 0.500000
O O13 0.112346 0.629054 0.590874
O O14 0.674330 0.584604 0.768454
O O15 0.342348 0.581440 0.817448
O O16 0.143370 0.811909 0.090040
O O17 0.500000 0.000000 0.500000
#
# Coordination Sequence:
#
# PCOD8019775 Si02
#       8
#     2   2   2   2   2   2   2   2
#     4  12  22  45  71  99 141 185 231 279 346 411
#     4  11  23  45  68 103 135 183 229 285 339 414
#     4  11  23  44  74 103 135 177 236 287 340 405
#     4  11  26  46  69 102 142 180 230 287 349 405
#     4  11  24  47  70 102 139 179 233 286 342 409
#     4  10  25  43  68 104 136 182 230 285 344 406
#     4  10  22  41  72 103 136 176 232 287 339 407
#     4  12  28  44  70 102 145 183 228 281 352 410
#
# _framework density 22.790814000000001
#
# number of rings (size 3 to 8) (size 9 to 14) (size 15 to 20)
#    0.000    1.000    2.500    3.375    5.250    5.000 
#    2.250    1.250    0.000    0.000    0.000    0.000 
#    0.000    0.000    0.000    0.000    0.000    0.000 
#
# Total GULP energy -198406.364874 kJ/mol
# GULP energy per Si atom -12400.397805 kJ/mol
# Density = 2.273894 g / cm^3
# Si number density = 22.790814 Si / 1000 Ang^3
#
#
#
# Elastic Constant Matrix: (Units=GPa)
#
#
# Indices 1 2 3 4 5 6 
#
# 1 132.9107 32.5653 40.6082 14.9105 8.6620 -6.5514
# 2 32.5653 105.1340 37.6996 24.2676 -5.8485 -8.8353
# 3 40.6082 37.6996 109.8723 23.5840 8.6691 -8.7720
# 4 14.9105 24.2676 23.5840 33.3271 -8.8726 -4.5954
# 5 8.6620 -5.8485 8.6691 -8.8726 28.7371 8.9022
# 6 -6.5514 -8.8353 -8.7720 -4.5954 8.9022 38.9340
#
#
#
# Elastic Compliance Matrix: (Units=1/GPa)
#
#
# Indices 1 2 3 4 5 6 
#
# 1 0.009071 -0.001701 -0.001899 -0.002259 -0.003598 0.001269
# 2 -0.001701 0.012466 -0.002403 -0.006058 0.001621 0.000916
# 3 -0.001899 -0.002403 0.013218 -0.008322 -0.007344 0.002810
# 4 -0.002259 -0.006058 -0.008322 0.045460 0.016635 -0.002068
# 5 -0.003598 0.001621 -0.007344 0.016635 0.046861 -0.010644
# 6 0.001269 0.000916 0.002810 -0.002068 -0.010644 0.028929
#
#
# Mechanical properties :
#
#
# Convention : Reuss Voigt Hill
#
# Bulk Modulus (GPa) = 43.95805 63.29591 53.62698
# Shear Modulus (GPa) = 28.47481 36.00258 32.23869
#
# Velocity S-wave (km/s) = 3.53852 3.97885 3.76513
# Velocity P-wave (km/s) = 6.00202 6.99580 6.51788
#
# Compressibility (1/GPa) = 0.02274896
#
# Stress axis : x y z
#
# Youngs Moduli (GPa) = 110.23827 80.22056 75.65438
#
# Poissons Ratio (x) = 0.13645 0.14366
# Poissons Ratio (y) = 0.18751 0.18180
# Poissons Ratio (z) = 0.20934 0.19277
#
# Static dielectric constant tensor:
#      x y z
#    x 4.186030 -0.182370 0.066660 
#    y -0.182370 4.282300 0.257350 
#    z 0.066660 0.257350 4.139160 
# 
# 
# High freq. dielectric constant tensor:
#      x y z
#    x 1.907300 -0.009020 0.004520 
#    y -0.009020 1.905510 0.017910 
#    z 0.004520 0.017910 1.894030 
# 
# From -- ./inp_files/216349.got.cif
#   From: 2010.06.25/outbox.cif.g09.slc.cpg/sg2_109_cif.got.tgz:216349.got - 2010.06.27 13:26:56.
