data_PCOD8019140
_publ_section_title
;
Structure prediction by ZEFSAII (Michael W. Deem and Ramdas Pophale) SiO2 
 PCOD8019140
Probable space group: P -1
;
_chemical_formula_sum "Si O2"
_cell_formula_units_Z 12
_cell_length_a 9.995661
_cell_length_b 5.162990
_cell_length_c 15.275601
_cell_angle_alpha 74.282863
_cell_angle_beta 101.857223
_cell_angle_gamma 129.061401
_cell_volume 588.595096
_symmetry_space_group_name_H-M "P -1"
_symmetry_group_IT_number 2
_symmetry_cell_setting 'triclinic'
loop_
_space_group_symop_operation_xyz
x,y,z
-x,-y,-z
loop_
_atom_site_type_symbol
_atom_site_label
_atom_site_fract_x
_atom_site_fract_y
_atom_site_fract_z
Si Si1 0.409300 0.328039 0.245312
Si Si2 0.411231 0.337615 0.594278
Si Si3 0.971020 0.193606 0.792300
Si Si4 0.279496 0.609790 0.666398
Si Si5 0.062453 0.728533 0.902122
Si Si6 0.541077 0.753401 0.059414
O O1 0.441289 0.521834 0.323858
O O2 0.557044 0.273874 0.259961
O O3 0.422475 0.548386 0.145728
O O4 0.220095 0.968775 0.253523
O O5 0.500000 0.500000 0.500000
O O6 0.286461 0.436281 0.595135
O O7 0.292112 0.932762 0.609535
O O8 0.100611 0.337830 0.715235
O O9 0.028506 0.500669 0.835415
O O10 0.964469 0.895342 0.866207
O O11 0.262447 0.037817 0.904746
O O12 0.000000 0.500000 0.000000
O O13 0.500000 0.500000 0.000000
O O14 0.500000 0.000000 0.000000
#
# Coordination Sequence:
#
# PCOD8019140 Si02
#       6
#     2   2   2   2   2   2
#     4  10  25  39  67  90 128 167 212 255 321 367
#     4  10  22  43  70  93 127 163 207 262 322 379
#     4  12  23  41  63  90 126 168 210 258 319 369
#     4  10  22  41  65  89 128 159 211 252 323 368
#     4  12  24  40  59  91 129 166 218 268 304 363
#     4  12  24  39  61  91 126 167 213 254 305 370
#
# _framework density 20.387530999999999
#
# number of rings (size 3 to 8) (size 9 to 14) (size 15 to 20)
#    1.000    0.000    1.667    6.000    4.667    0.000 
#    0.000    1.667    0.000    0.000    0.000    0.000 
#    0.000    0.000    0.000    0.000    0.000    0.000 
#
# Total GULP energy -148795.820547 kJ/mol
# GULP energy per Si atom -12399.651712 kJ/mol
# Density = 2.034113 g / cm^3
# Si number density = 20.387531 Si / 1000 Ang^3
#
#
#
# Elastic Constant Matrix: (Units=GPa)
#
#
# Indices 1 2 3 4 5 6 
#
# 1 75.1573 55.1487 20.0611 2.2628 -11.9246 6.3860
# 2 55.1487 127.8892 48.2739 -10.0035 -13.3381 -6.6685
# 3 20.0611 48.2739 127.0818 -6.8150 -22.3603 2.4573
# 4 2.2628 -10.0035 -6.8150 30.0687 -3.4877 -7.7683
# 5 -11.9246 -13.3381 -22.3603 -3.4877 26.8464 -10.8722
# 6 6.3860 -6.6685 2.4573 -7.7683 -10.8722 53.0051
#
#
#
# Elastic Compliance Matrix: (Units=1/GPa)
#
#
# Indices 1 2 3 4 5 6 
#
# 1 0.021227 -0.009733 0.000622 -0.005416 0.002773 -0.004036
# 2 -0.009733 0.014220 -0.003121 0.006273 0.002821 0.004604
# 3 0.000622 -0.003121 0.010528 0.002549 0.008277 0.001116
# 4 -0.005416 0.006273 0.002549 0.040218 0.011977 0.009674
# 5 0.002773 0.002821 0.008277 0.011977 0.053326 0.012330
# 6 -0.004036 0.004604 0.001116 0.009674 0.012330 0.023827
#
#
# Mechanical properties :
#
#
# Convention : Reuss Voigt Hill
#
# Bulk Modulus (GPa) = 46.49077 64.12175 55.30626
# Shear Modulus (GPa) = 25.64349 35.76034 30.70191
#
# Velocity S-wave (km/s) = 3.55040 4.19266 3.88482
# Velocity P-wave (km/s) = 6.29763 7.41334 6.87814
#
# Compressibility (1/GPa) = 0.02150965
#
# Stress axis : x y z
#
# Youngs Moduli (GPa) = 47.10882 70.32525 94.98490
#
# Poissons Ratio (x) = 0.68450 -0.05907
# Poissons Ratio (y) = 0.45853 0.29648
# Poissons Ratio (z) = -0.02930 0.21951
#
# Static dielectric constant tensor:
#      x y z
#    x 4.831670 0.505360 -0.314200 
#    y 0.505360 4.018720 -0.193780 
#    z -0.314200 -0.193780 3.676300 
# 
# 
# High freq. dielectric constant tensor:
#      x y z
#    x 1.793900 -0.006730 -0.011910 
#    y -0.006730 1.807170 -0.011010 
#    z -0.011910 -0.011010 1.789250 
# 
# From -- ./inp_files/32253.got.cif
#   From: 2010.06.25/outbox.cif.g09.slc.cpg/sg2_17_cif.got.tgz:32253.got - 2010.06.27 13:26:56.
