data_PCOD8019246
_publ_section_title
;
Structure prediction by ZEFSAII (Michael W. Deem and Ramdas Pophale) SiO2 
 PCOD8019246
Probable space group: P -1
;
_chemical_formula_sum "Si O2"
_cell_formula_units_Z 16
_cell_length_a 15.794400
_cell_length_b 8.568107
_cell_length_c 11.574891
_cell_angle_alpha 123.682739
_cell_angle_beta 72.271741
_cell_angle_gamma 63.072054
_cell_volume 770.022650
_symmetry_space_group_name_H-M "P -1"
_symmetry_group_IT_number 2
_symmetry_cell_setting 'triclinic'
loop_
_space_group_symop_operation_xyz
x,y,z
-x,-y,-z
loop_
_atom_site_type_symbol
_atom_site_label
_atom_site_fract_x
_atom_site_fract_y
_atom_site_fract_z
Si Si1 0.113080 0.195572 0.088012
Si Si2 0.558880 0.820380 0.281972
Si Si3 0.078305 0.255680 0.468417
Si Si4 0.040793 0.215798 0.885852
Si Si5 0.398369 0.888816 0.741802
Si Si6 0.856999 0.165574 0.884484
Si Si7 0.385968 0.791002 0.246572
Si Si8 0.640926 0.315843 0.532436
O O1 0.019290 0.539370 0.294209
O O2 0.096919 0.071777 0.144205
O O3 0.047556 0.184413 0.006886
O O4 0.271770 0.006544 0.917167
O O5 0.429445 0.930443 0.317299
O O6 0.500000 0.000000 0.500000
O O7 0.625651 0.857462 0.178823
O O8 0.687576 0.460855 0.099052
O O9 0.000000 0.500000 0.500000
O O10 0.094957 0.005527 0.328977
O O11 0.238230 0.061347 0.350103
O O12 0.925642 0.257661 0.905152
O O13 0.192626 0.911682 0.643334
O O14 0.000000 0.500000 0.000000
O O15 0.541683 0.648847 0.662764
O O16 0.411939 0.768254 0.560954
O O17 0.379969 0.684033 0.323873
O O18 0.500000 0.500000 0.000000
#
# Coordination Sequence:
#
# PCOD8019246 Si02
#       8
#     2   2   2   2   2   2   2   2
#     4  10  22  41  68  94 131 177 226 284 337 401
#     4  12  25  40  70 101 134 177 231 276 340 413
#     4  10  24  43  67  96 136 184 229 281 337 408
#     4  11  23  40  64  98 133 168 231 286 342 400
#     4  10  22  41  66 101 134 171 229 285 337 400
#     4  11  23  43  65  96 133 180 226 275 344 408
#     4  12  24  45  69  97 140 181 227 277 339 411
#     4  10  22  41  66  94 137 177 216 288 341 392
#
# _framework density 20.778608999999999
#
# number of rings (size 3 to 8) (size 9 to 14) (size 15 to 20)
#    0.000    1.250    2.500    3.375    7.000    2.000 
#    2.250    2.500    0.000    0.000    0.000    0.000 
#    0.000    0.000    0.000    0.000    0.000    0.000 
#
# Total GULP energy -198255.733631 kJ/mol
# GULP energy per Si atom -12390.983352 kJ/mol
# Density = 2.073132 g / cm^3
# Si number density = 20.778609 Si / 1000 Ang^3
#
#
#
# Elastic Constant Matrix: (Units=GPa)
#
#
# Indices 1 2 3 4 5 6 
#
# 1 139.5174 44.7244 51.1306 5.2454 3.5299 -3.6715
# 2 44.7244 74.9754 36.9252 3.1245 -5.9610 -7.9646
# 3 51.1306 36.9252 153.9642 4.6544 7.3314 -10.5438
# 4 5.2454 3.1245 4.6544 34.8841 -5.1136 -4.5830
# 5 3.5299 -5.9610 7.3314 -5.1136 31.1864 8.5391
# 6 -3.6715 -7.9646 -10.5438 -4.5830 8.5391 36.2164
#
#
#
# Elastic Compliance Matrix: (Units=1/GPa)
#
#
# Indices 1 2 3 4 5 6 
#
# 1 0.009490 -0.004850 -0.001909 -0.001028 -0.001608 -0.000411
# 2 -0.004850 0.018134 -0.002835 0.000333 0.004269 0.001707
# 3 -0.001909 -0.002835 0.008117 -0.000690 -0.002936 0.002151
# 4 -0.001028 0.000333 -0.000690 0.029877 0.004564 0.002473
# 5 -0.001608 0.004269 -0.002936 0.004564 0.036737 -0.008163
# 6 -0.000411 0.001707 0.002151 0.002473 -0.008163 0.030809
#
#
# Mechanical properties :
#
#
# Convention : Reuss Voigt Hill
#
# Bulk Modulus (GPa) = 60.41021 70.44640 65.42830
# Shear Modulus (GPa) = 31.67173 36.16915 33.92044
#
# Velocity S-wave (km/s) = 3.90840 4.17669 4.04477
# Velocity P-wave (km/s) = 7.03589 7.56548 7.30549
#
# Compressibility (1/GPa) = 0.01655349
#
# Stress axis : x y z
#
# Youngs Moduli (GPa) = 105.37001 55.14610 123.20000
#
# Poissons Ratio (x) = 0.26744 0.23520
# Poissons Ratio (y) = 0.51101 0.34926
# Poissons Ratio (z) = 0.20116 0.15633
#
# Static dielectric constant tensor:
#      x y z
#    x 3.869700 -0.332240 0.282590 
#    y -0.332240 3.697560 0.006550 
#    z 0.282590 0.006550 4.207200 
# 
# 
# High freq. dielectric constant tensor:
#      x y z
#    x 1.805850 -0.014750 0.000500 
#    y -0.014750 1.812740 0.005500 
#    z 0.000500 0.005500 1.829760 
# 
# From -- ./inp_files/448195.got.cif
#   From: 2010.06.25/outbox.cif.g09.slc.cpg/sg2_225_cif.got.tgz:448195.got - 2010.06.27 13:26:56.
