data_PCOD8019589
_publ_section_title
;
Structure prediction by ZEFSAII (Michael W. Deem and Ramdas Pophale) SiO2 
 PCOD8019589
Probable space group: P -1
;
_chemical_formula_sum "Si O2"
_cell_formula_units_Z 16
_cell_length_a 7.762506
_cell_length_b 11.612772
_cell_length_c 12.798279
_cell_angle_alpha 40.404940
_cell_angle_beta 73.884738
_cell_angle_gamma 92.617435
_cell_volume 654.366267
_symmetry_space_group_name_H-M "P -1"
_symmetry_group_IT_number 2
_symmetry_cell_setting 'triclinic'
loop_
_space_group_symop_operation_xyz
x,y,z
-x,-y,-z
loop_
_atom_site_type_symbol
_atom_site_label
_atom_site_fract_x
_atom_site_fract_y
_atom_site_fract_z
Si Si1 0.279085 0.766022 0.781420
Si Si2 0.540443 0.099813 0.814702
Si Si3 0.484649 0.203875 0.481706
Si Si4 0.881823 0.744277 0.535692
Si Si5 0.144059 0.348026 0.163196
Si Si6 0.174469 0.577165 0.560862
Si Si7 0.241928 0.123258 0.137356
Si Si8 0.193814 0.181480 0.864638
O O1 0.432575 0.760161 0.673861
O O2 0.079455 0.745447 0.773526
O O3 0.371113 0.971723 0.684766
O O4 0.229290 0.583623 0.995083
O O5 0.738561 0.303478 0.643658
O O6 0.357988 0.154591 0.781628
O O7 0.582700 0.951384 0.831360
O O8 0.500000 0.000000 0.000000
O O9 0.329093 0.303795 0.449651
O O10 0.661979 0.298782 0.466909
O O11 0.851150 0.753959 0.658178
O O12 0.960934 0.575598 0.620301
O O13 0.035833 0.948238 0.323192
O O14 0.281282 0.297776 0.091593
O O15 0.156254 0.361497 0.703327
O O16 0.240088 0.203088 0.965230
O O17 0.000000 0.000000 0.000000
#
# Coordination Sequence:
#
# PCOD8019589 Si02
#       8
#     2   2   2   2   2   2   2   2
#     4  10  23  38  64  96 144 188 228 269 327 410
#     4   9  22  46  68  98 132 176 228 295 344 403
#     4  11  23  42  65 101 137 190 231 268 341 409
#     4  11  24  41  68 106 141 185 225 280 338 423
#     4  11  21  42  66 101 150 183 223 283 336 408
#     4  11  24  47  73 100 142 181 230 289 353 414
#     4  10  22  41  69 101 138 182 228 280 355 402
#     4  11  25  47  73 100 132 178 235 298 360 403
#
# _framework density 24.451136999999999
#
# number of rings (size 3 to 8) (size 9 to 14) (size 15 to 20)
#    0.000    1.500    2.500    1.500    3.500    1.500 
#    9.000    4.375    0.000    0.000    0.000    0.000 
#    0.000    0.000    0.000    0.000    0.000    0.000 
#
# Total GULP energy -198312.410528 kJ/mol
# GULP energy per Si atom -12394.525658 kJ/mol
# Density = 2.439548 g / cm^3
# Si number density = 24.451137 Si / 1000 Ang^3
#
#
#
# Elastic Constant Matrix: (Units=GPa)
#
#
# Indices 1 2 3 4 5 6 
#
# 1 106.2578 63.2044 29.6394 -2.3324 4.0643 -44.8820
# 2 63.2044 91.1181 35.3927 -7.4624 -4.1438 -45.7477
# 3 29.6394 35.3927 111.6801 -4.5869 8.9383 -16.2720
# 4 -2.3324 -7.4624 -4.5869 45.8688 -1.1338 1.5683
# 5 4.0643 -4.1438 8.9383 -1.1338 33.3157 1.5163
# 6 -44.8820 -45.7477 -16.2720 1.5683 1.5163 49.6522
#
#
#
# Elastic Compliance Matrix: (Units=1/GPa)
#
#
# Indices 1 2 3 4 5 6 
#
# 1 0.018399 -0.008209 -0.000730 -0.000866 -0.003507 0.008962
# 2 -0.008209 0.026501 -0.004243 0.003064 0.004841 0.015361
# 3 -0.000730 -0.004243 0.010617 0.000289 -0.003232 -0.001001
# 4 -0.000866 0.003064 0.000289 0.022264 0.001103 0.001398
# 5 -0.003507 0.004841 -0.003232 0.001103 0.031986 -0.000780
# 6 0.008962 0.015361 -0.001001 0.001398 -0.000780 0.042046
#
#
# Mechanical properties :
#
#
# Convention : Reuss Voigt Hill
#
# Bulk Modulus (GPa) = 34.30391 62.83657 48.57024
# Shear Modulus (GPa) = 26.61053 37.82199 32.21626
#
# Velocity S-wave (km/s) = 3.30254 3.93725 3.63378
# Velocity P-wave (km/s) = 5.34812 6.81351 6.12480
#
# Compressibility (1/GPa) = 0.02915119
#
# Stress axis : x y z
#
# Youngs Moduli (GPa) = 54.35216 37.73484 94.18480
#
# Poissons Ratio (x) = 0.30977 0.06879
# Poissons Ratio (y) = 0.44619 0.39964
# Poissons Ratio (z) = 0.03970 0.16012
#
# Static dielectric constant tensor:
#      x y z
#    x 4.625460 -0.522350 0.261020 
#    y -0.522350 4.621020 0.190260 
#    z 0.261020 0.190260 4.392220 
# 
# 
# High freq. dielectric constant tensor:
#      x y z
#    x 1.971550 -0.031840 0.006730 
#    y -0.031840 1.958580 0.009180 
#    z 0.006730 0.009180 1.989070 
# 
# From -- ./inp_files/498746.got.cif
#   From: 2010.06.25/outbox.cif.g09.slc.cpg/sg2_250_cif.got.tgz:498746.got - 2010.06.27 13:26:56.
