data_PCOD8019851
_publ_section_title
;
Structure prediction by ZEFSAII (Michael W. Deem and Ramdas Pophale) SiO2 
 PCOD8019851
Probable space group: P -1
;
_chemical_formula_sum "Si O2"
_cell_formula_units_Z 14
_cell_length_a 6.768104
_cell_length_b 8.837317
_cell_length_c 15.653201
_cell_angle_alpha 50.649200
_cell_angle_beta 62.464148
_cell_angle_gamma 57.198436
_cell_volume 598.289830
_symmetry_space_group_name_H-M "P -1"
_symmetry_group_IT_number 2
_symmetry_cell_setting 'triclinic'
loop_
_space_group_symop_operation_xyz
x,y,z
-x,-y,-z
loop_
_atom_site_type_symbol
_atom_site_label
_atom_site_fract_x
_atom_site_fract_y
_atom_site_fract_z
Si Si1 0.461719 0.293070 0.334096
Si Si2 0.927506 0.327146 0.178888
Si Si3 0.455944 0.168251 0.568289
Si Si4 0.273388 0.009607 0.888303
Si Si5 0.721972 0.089429 0.706645
Si Si6 0.035472 0.688357 0.302015
Si Si7 0.976011 0.275427 0.990164
O O1 0.641476 0.400208 0.221775
O O2 0.528227 0.240106 0.439001
O O3 0.187699 0.453738 0.321607
O O4 0.499348 0.080246 0.350884
O O5 0.028110 0.504145 0.126908
O O6 0.041685 0.113882 0.287135
O O7 0.012595 0.269499 0.085726
O O8 0.622105 0.208259 0.595084
O O9 0.179608 0.306895 0.593906
O O10 0.534110 0.999417 0.817947
O O11 0.204447 0.093463 0.968017
O O12 0.072643 0.159746 0.810183
O O13 0.261939 0.775395 0.967179
O O14 0.774184 0.247078 0.704726
#
# Coordination Sequence:
#
# PCOD8019851 Si02
#       7
#     2   2   2   2   2   2   2
#     4  11  23  44  68  94 131 169 211 264 319 380
#     4  11  22  41  63  96 128 169 214 260 316 377
#     4  10  24  44  66  98 128 166 214 261 321 382
#     4  10  22  42  62  95 125 170 214 257 317 377
#     4  11  22  41  68  92 134 165 207 273 311 380
#     4  11  22  44  66  96 131 167 209 268 312 383
#     4  10  22  42  60  91 132 163 220 259 309 380
#
# _framework density 23.400027999999999
#
# number of rings (size 3 to 8) (size 9 to 14) (size 15 to 20)
#    0.000    1.429    2.857    2.143    2.000    2.286 
#   10.286    0.000    0.000    0.000    0.000    0.000 
#    0.000    0.000    0.000    0.000    0.000    0.000 
#
# Total GULP energy -173600.511288 kJ/mol
# GULP energy per Si atom -12400.036521 kJ/mol
# Density = 2.334677 g / cm^3
# Si number density = 23.400028 Si / 1000 Ang^3
#
#
#
# Elastic Constant Matrix: (Units=GPa)
#
#
# Indices 1 2 3 4 5 6 
#
# 1 87.2426 37.6285 12.8960 4.7410 -0.6849 -0.1028
# 2 37.6285 104.5460 13.2697 0.8394 0.4078 -6.7435
# 3 12.8960 13.2697 62.5582 8.8416 1.6769 6.5399
# 4 4.7410 0.8394 8.8416 36.1461 2.2186 0.5271
# 5 -0.6849 0.4078 1.6769 2.2186 15.4555 -3.9279
# 6 -0.1028 -6.7435 6.5399 0.5271 -3.9279 33.6095
#
#
#
# Elastic Compliance Matrix: (Units=1/GPa)
#
#
# Indices 1 2 3 4 5 6 
#
# 1 0.013855 -0.004804 -0.001622 -0.001363 0.000993 -0.000468
# 2 -0.004804 0.011703 -0.001892 0.000765 0.000265 0.002720
# 3 -0.001622 -0.001892 0.017759 -0.003879 -0.002424 -0.004063
# 4 -0.001363 0.000765 -0.003879 0.029010 -0.003823 0.000002
# 5 0.000993 0.000265 -0.002424 -0.003823 0.067711 0.008501
# 6 -0.000468 0.002720 -0.004063 0.000002 0.008501 0.032082
#
#
# Mechanical properties :
#
#
# Convention : Reuss Voigt Hill
#
# Bulk Modulus (GPa) = 37.47993 42.43723 39.95858
# Shear Modulus (GPa) = 25.29730 29.74573 27.52152
#
# Velocity S-wave (km/s) = 3.29155 3.56923 3.43320
# Velocity P-wave (km/s) = 5.52245 5.92966 5.72967
#
# Compressibility (1/GPa) = 0.02668095
#
# Stress axis : x y z
#
# Youngs Moduli (GPa) = 72.17365 85.45048 56.31028
#
# Poissons Ratio (x) = 0.41052 0.09135
# Poissons Ratio (y) = 0.34673 0.10652
# Poissons Ratio (z) = 0.11708 0.16164
#
# Static dielectric constant tensor:
#      x y z
#    x 4.006620 0.147860 -0.076180 
#    y 0.147860 4.346130 0.037000 
#    z -0.076180 0.037000 4.140590 
# 
# 
# High freq. dielectric constant tensor:
#      x y z
#    x 1.911800 0.010310 -0.005780 
#    y 0.010310 1.931950 0.011170 
#    z -0.005780 0.011170 1.923510 
# 
# From -- ./inp_files/38414.got.cif
#   From: 2010.06.25/outbox.cif.g09.slc.cpg/sg2_20_cif.got.tgz:38414.got - 2010.06.27 13:26:56.
