data_PCOD8019554
_publ_section_title
;
Structure prediction by ZEFSAII (Michael W. Deem and Ramdas Pophale) SiO2 
 PCOD8019554
Probable space group: P -1
;
_chemical_formula_sum "Si O2"
_cell_formula_units_Z 10
_cell_length_a 15.334138
_cell_length_b 6.585287
_cell_length_c 7.349134
_cell_angle_alpha 84.540817
_cell_angle_beta 37.301896
_cell_angle_gamma 74.121667
_cell_volume 422.912160
_symmetry_space_group_name_H-M "P -1"
_symmetry_group_IT_number 2
_symmetry_cell_setting 'triclinic'
loop_
_space_group_symop_operation_xyz
x,y,z
-x,-y,-z
loop_
_atom_site_type_symbol
_atom_site_label
_atom_site_fract_x
_atom_site_fract_y
_atom_site_fract_z
Si Si1 0.092961 0.758724 0.321843
Si Si2 0.959926 0.536353 0.849018
Si Si3 0.635149 0.849439 0.410470
Si Si4 0.407941 0.626660 0.927307
Si Si5 0.572029 0.164532 0.777659
O O1 0.036076 0.688604 0.232064
O O2 0.081396 0.613257 0.528312
O O3 0.271924 0.732614 0.002299
O O4 0.000000 0.000000 0.500000
O O5 0.793798 0.711984 0.067524
O O6 0.000000 0.500000 0.000000
O O7 0.563889 0.677888 0.630824
O O8 0.500000 0.000000 0.500000
O O9 0.681703 0.012137 0.457632
O O10 0.443464 0.368665 0.880745
O O11 0.343874 0.731277 0.222848
O O12 0.500000 0.000000 0.000000
#
# Coordination Sequence:
#
# PCOD8019554 Si02
#       5
#     2   2   2   2   2
#     4  11  26  47  69  97 143 185 223 281 349 411
#     4  11  28  45  68 102 144 178 228 286 346 408
#     4  11  23  42  67  99 135 175 223 284 341 401
#     4  10  22  41  68  97 127 173 231 272 328 410
#     4   9  21  37  65  94 128 166 220 277 331 385
#
# _framework density 23.645572000000001
#
# number of rings (size 3 to 8) (size 9 to 14) (size 15 to 20)
#    0.000    1.600    0.000    2.400   11.200    8.800 
#    0.000    0.000    0.000    0.000    0.000    0.000 
#    0.000    0.000    0.000    0.000    0.000    0.000 
#
# Total GULP energy -123887.728727 kJ/mol
# GULP energy per Si atom -12388.772873 kJ/mol
# Density = 2.359175 g / cm^3
# Si number density = 23.645572 Si / 1000 Ang^3
#
#
#
# Elastic Constant Matrix: (Units=GPa)
#
#
# Indices 1 2 3 4 5 6 
#
# 1 98.0572 29.3483 25.3397 6.2145 12.3292 4.9279
# 2 29.3483 119.2971 30.4987 37.8751 6.2347 16.1945
# 3 25.3397 30.4987 81.9266 20.2850 1.1640 16.3912
# 4 6.2145 37.8751 20.2850 38.1900 3.0482 4.8802
# 5 12.3292 6.2347 1.1640 3.0482 44.0369 7.7507
# 6 4.9279 16.1945 16.3912 4.8802 7.7507 38.6590
#
#
#
# Elastic Compliance Matrix: (Units=1/GPa)
#
#
# Indices 1 2 3 4 5 6 
#
# 1 0.012218 -0.003087 -0.003661 0.003086 -0.003378 0.001576
# 2 -0.003087 0.013648 -0.000312 -0.012429 0.000454 -0.003714
# 3 -0.003661 -0.000312 0.016387 -0.007222 0.002170 -0.005874
# 4 0.003086 -0.012429 -0.007222 0.041637 -0.002339 0.003088
# 5 -0.003378 0.000454 0.002170 -0.002339 0.024631 -0.005323
# 6 0.001576 -0.003714 -0.005874 0.003088 -0.005323 0.030390
#
#
# Mechanical properties :
#
#
# Convention : Reuss Voigt Hill
#
# Bulk Modulus (GPa) = 35.54566 52.18379 43.86473
# Shear Modulus (GPa) = 30.78634 38.45010 34.61822
#
# Velocity S-wave (km/s) = 3.61223 4.03687 3.83044
# Velocity P-wave (km/s) = 5.69762 6.62159 6.17691
#
# Compressibility (1/GPa) = 0.02813283
#
# Stress axis : x y z
#
# Youngs Moduli (GPa) = 81.84556 73.27030 61.02367
#
# Poissons Ratio (x) = 0.22618 0.22343
# Poissons Ratio (y) = 0.25266 0.01904
# Poissons Ratio (z) = 0.29966 0.02286
#
# Static dielectric constant tensor:
#      x y z
#    x 4.566290 0.394460 0.442360 
#    y 0.394460 4.566610 0.177790 
#    z 0.442360 0.177790 4.378960 
# 
# 
# High freq. dielectric constant tensor:
#      x y z
#    x 1.932290 0.012940 0.015910 
#    y 0.012940 1.951280 0.016090 
#    z 0.015910 0.016090 1.925120 
# 
# From -- ./inp_files/287966.got.cif
#   From: 2010.06.25/outbox.cif.g09.slc.cpg/sg2_144_cif.got.tgz:287966.got - 2010.06.27 13:26:56.
