data_PCOD8019301
_publ_section_title
;
Structure prediction by ZEFSAII (Michael W. Deem and Ramdas Pophale) SiO2 
 PCOD8019301
Probable space group: P -1
;
_chemical_formula_sum "Si O2"
_cell_formula_units_Z 16
_cell_length_a 12.521858
_cell_length_b 11.587334
_cell_length_c 8.727665
_cell_angle_alpha 55.469886
_cell_angle_beta 59.136125
_cell_angle_gamma 94.369329
_cell_volume 765.494199
_symmetry_space_group_name_H-M "P -1"
_symmetry_group_IT_number 2
_symmetry_cell_setting 'triclinic'
loop_
_space_group_symop_operation_xyz
x,y,z
-x,-y,-z
loop_
_atom_site_type_symbol
_atom_site_label
_atom_site_fract_x
_atom_site_fract_y
_atom_site_fract_z
Si Si1 0.574707 0.377153 0.942407
Si Si2 0.771232 0.933143 0.078354
Si Si3 0.605334 0.646840 0.203812
Si Si4 0.984529 0.473484 0.280409
Si Si5 0.204494 0.735700 0.148413
Si Si6 0.304149 0.263003 0.410980
Si Si7 0.108391 0.365873 0.008508
Si Si8 0.964050 0.007874 0.345794
O O1 0.474227 0.354836 0.889551
O O2 0.650650 0.272634 0.949195
O O3 0.699895 0.569568 0.720462
O O4 0.470608 0.312682 0.217362
O O5 0.658307 0.820805 0.114791
O O6 0.749001 0.815483 0.324789
O O7 0.934759 0.016976 0.829816
O O8 0.741770 0.073532 0.048860
O O9 0.500000 0.500000 0.500000
O O10 0.740790 0.625431 0.084663
O O11 0.103387 0.639326 0.151695
O O12 0.067120 0.404461 0.174040
O O13 0.881863 0.333202 0.578849
O O14 0.881162 0.506761 0.222597
O O15 0.200704 0.135051 0.454813
O O16 0.984963 0.186482 0.172931
O O17 0.000000 0.000000 0.500000
#
# Coordination Sequence:
#
# PCOD8019301 Si02
#       8
#     2   2   2   2   2   2   2   2
#     4  11  26  41  65  95 132 180 212 261 326 396
#     4  11  24  41  67  97 127 170 218 274 321 376
#     4  11  22  43  67  94 130 170 223 261 322 392
#     4  10  23  40  64  92 135 166 215 262 334 380
#     4  11  25  40  63  96 132 169 210 271 323 386
#     4  11  24  42  64  95 130 170 225 262 322 392
#     4  10  22  41  66  95 123 176 213 272 317 383
#     4  11  23  39  68  96 129 164 223 277 318 373
#
# _framework density 20.901532
#
# number of rings (size 3 to 8) (size 9 to 14) (size 15 to 20)
#    0.000    1.250    1.250    4.125   10.500    1.000 
#    0.000    2.500    0.000    0.000    0.000    0.000 
#    0.000    0.000    0.000    0.000    0.000    0.000 
#
# Total GULP energy -198465.539571 kJ/mol
# GULP energy per Si atom -12404.096223 kJ/mol
# Density = 2.085396 g / cm^3
# Si number density = 20.901532 Si / 1000 Ang^3
#
#
#
# Elastic Constant Matrix: (Units=GPa)
#
#
# Indices 1 2 3 4 5 6 
#
# 1 46.5059 16.0719 28.0161 15.5868 3.8955 -1.8274
# 2 16.0719 122.6816 38.8348 -0.8179 -4.6080 -13.5643
# 3 28.0161 38.8348 98.7622 2.7348 -7.3927 -8.3779
# 4 15.5868 -0.8179 2.7348 37.8032 7.2993 0.4666
# 5 3.8955 -4.6080 -7.3927 7.2993 21.7161 -2.3118
# 6 -1.8274 -13.5643 -8.3779 0.4666 -2.3118 37.7661
#
#
#
# Elastic Compliance Matrix: (Units=1/GPa)
#
#
# Indices 1 2 3 4 5 6 
#
# 1 0.031362 -0.001871 -0.008333 -0.011356 -0.005168 -0.001179
# 2 -0.001871 0.009704 -0.002968 0.000894 0.001383 0.002810
# 3 -0.008333 -0.002968 0.014202 0.001260 0.005490 0.002002
# 4 -0.011356 0.000894 0.001260 0.032701 -0.008428 -0.000869
# 5 -0.005168 0.001383 0.005490 -0.008428 0.052480 0.004781
# 6 -0.001179 0.002810 0.002002 -0.000869 0.004781 0.028178
#
#
# Mechanical properties :
#
#
# Convention : Reuss Voigt Hill
#
# Bulk Modulus (GPa) = 34.57323 48.19950 41.38637
# Shear Modulus (GPa) = 24.43622 31.79221 28.11421
#
# Velocity S-wave (km/s) = 3.42294 3.90429 3.67151
# Velocity P-wave (km/s) = 5.67441 6.59052 6.14955
#
# Compressibility (1/GPa) = 0.02892411
#
# Stress axis : x y z
#
# Youngs Moduli (GPa) = 31.88576 103.04566 70.41176
#
# Poissons Ratio (x) = 0.19279 0.58676
# Poissons Ratio (y) = 0.05965 0.20899
# Poissons Ratio (z) = 0.26571 0.30585
#
# Static dielectric constant tensor:
#      x y z
#    x 3.654400 0.203690 -0.010510 
#    y 0.203690 4.282190 -0.205570 
#    z -0.010510 -0.205570 4.185650 
# 
# 
# High freq. dielectric constant tensor:
#      x y z
#    x 1.808150 0.009740 0.004560 
#    y 0.009740 1.832500 0.003830 
#    z 0.004560 0.003830 1.830730 
# 
# From -- ./inp_files/223428.got.cif
#   From: 2010.06.25/outbox.cif.g09.slc.cpg/sg2_112_cif.got.tgz:223428.got - 2010.06.27 13:26:56.
