data_PCOD8019936
_publ_section_title
;
Structure prediction by ZEFSAII (Michael W. Deem and Ramdas Pophale) SiO2 
 PCOD8019936
Probable space group: P -1
;
_chemical_formula_sum "Si O2"
_cell_formula_units_Z 16
_cell_length_a 19.132240
_cell_length_b 6.812789
_cell_length_c 16.912999
_cell_angle_alpha 59.207543
_cell_angle_beta 25.648037
_cell_angle_gamma 67.976884
_cell_volume 797.191945
_symmetry_space_group_name_H-M "P -1"
_symmetry_group_IT_number 2
_symmetry_cell_setting 'triclinic'
loop_
_space_group_symop_operation_xyz
x,y,z
-x,-y,-z
loop_
_atom_site_type_symbol
_atom_site_label
_atom_site_fract_x
_atom_site_fract_y
_atom_site_fract_z
Si Si1 0.087984 0.687923 0.185518
Si Si2 0.274631 0.632600 0.849504
Si Si3 0.404678 0.356767 0.388735
Si Si4 0.021852 0.189105 0.155352
Si Si5 0.606480 0.377268 0.022368
Si Si6 0.867146 0.061191 0.182551
Si Si7 0.804894 0.293536 0.493632
Si Si8 0.416623 0.132785 0.120739
O O1 0.928032 0.470656 0.390251
O O2 0.179887 0.715996 0.002078
O O3 0.209650 0.643919 0.139209
O O4 0.032700 0.924003 0.215180
O O5 0.465427 0.644476 0.672826
O O6 0.260412 0.807772 0.756308
O O7 0.198285 0.364463 0.957220
O O8 0.480031 0.300352 0.240116
O O9 0.358827 0.608734 0.377298
O O10 0.235403 0.169506 0.620662
O O11 0.970298 0.228242 0.110005
O O12 0.886350 0.260969 0.334213
O O13 0.541442 0.206540 0.051365
O O14 0.627342 0.645925 0.921665
O O15 0.000000 0.000000 0.000000
O O16 0.752453 0.041882 0.641516
O O17 0.500000 0.000000 0.000000
#
# Coordination Sequence:
#
# PCOD8019936 Si02
#       8
#     2   2   2   2   2   2   2   2
#     4  10  22  42  63  91 129 165 207 255 308 370
#     4  10  23  39  62  93 124 167 213 256 305 364
#     4  11  22  42  64  92 129 164 209 257 311 370
#     4  11  22  41  64  89 128 169 206 254 314 367
#     4  10  24  42  66  94 126 166 203 258 315 365
#     4  12  21  41  64  90 130 166 209 261 306 364
#     4  11  23  40  65  94 123 167 207 253 316 371
#     4  11  23  41  67  96 127 158 209 257 310 375
#
# _framework density 20.070449
#
# number of rings (size 3 to 8) (size 9 to 14) (size 15 to 20)
#    0.000    1.250    3.750    2.250    1.750    1.500 
#    0.000    2.500    0.000    0.000    0.000    0.000 
#    0.000    0.000    0.000    0.000    0.000    0.000 
#
# Total GULP energy -198459.205009 kJ/mol
# GULP energy per Si atom -12403.700313 kJ/mol
# Density = 2.002477 g / cm^3
# Si number density = 20.070449 Si / 1000 Ang^3
#
#
#
# Elastic Constant Matrix: (Units=GPa)
#
#
# Indices 1 2 3 4 5 6 
#
# 1 143.8871 58.9638 37.4548 5.5902 -7.7342 -4.1627
# 2 58.9638 114.5993 35.5231 -4.1885 -7.1779 7.9766
# 3 37.4548 35.5231 81.8421 -6.8132 -1.0025 -1.2538
# 4 5.5902 -4.1885 -6.8132 33.1043 -6.8651 3.2016
# 5 -7.7342 -7.1779 -1.0025 -6.8651 28.6660 2.6197
# 6 -4.1627 7.9766 -1.2538 3.2016 2.6197 33.2324
#
#
#
# Elastic Compliance Matrix: (Units=1/GPa)
#
#
# Indices 1 2 3 4 5 6 
#
# 1 0.009654 -0.004363 -0.002720 -0.002867 0.000512 0.002390
# 2 -0.004363 0.012547 -0.003257 0.002651 0.002866 -0.004162
# 3 -0.002720 -0.003257 0.015135 0.003013 -0.000367 0.000751
# 4 -0.002867 0.002651 0.003013 0.033887 0.008552 -0.004820
# 5 0.000512 0.002866 -0.000367 0.008552 0.038184 -0.004471
# 6 0.002390 -0.004162 0.000751 -0.004820 -0.004471 0.032235
#
#
# Mechanical properties :
#
#
# Convention : Reuss Voigt Hill
#
# Bulk Modulus (GPa) = 60.04129 67.13465 63.58797
# Shear Modulus (GPa) = 29.78433 32.89300 31.33867
#
# Velocity S-wave (km/s) = 3.85644 4.05270 3.95578
# Velocity P-wave (km/s) = 7.05760 7.44455 7.25365
#
# Compressibility (1/GPa) = 0.01665520
#
# Stress axis : x y z
#
# Youngs Moduli (GPa) = 103.58462 79.70275 66.07162
#
# Poissons Ratio (x) = 0.34775 0.17972
# Poissons Ratio (y) = 0.45194 0.21520
# Poissons Ratio (z) = 0.28176 0.25960
#
# Static dielectric constant tensor:
#      x y z
#    x 3.872280 -0.045360 0.052190 
#    y -0.045360 3.828780 -0.273110 
#    z 0.052190 -0.273110 3.804470 
# 
# 
# High freq. dielectric constant tensor:
#      x y z
#    x 1.793700 0.000760 -0.002060 
#    y 0.000760 1.791090 -0.006000 
#    z -0.002060 -0.006000 1.778770 
# 
# From -- ./inp_files/37277.got.cif
#   From: 2010.06.25/outbox.cif.g09.slc.cpg/sg2_19_cif.got.tgz:37277.got - 2010.06.27 13:26:56.
