data_PCOD8019278
_publ_section_title
;
Structure prediction by ZEFSAII (Michael W. Deem and Ramdas Pophale) SiO2 
 PCOD8019278
Probable space group: P -1
;
_chemical_formula_sum "Si O2"
_cell_formula_units_Z 14
_cell_length_a 21.101575
_cell_length_b 9.648200
_cell_length_c 17.123276
_cell_angle_alpha 131.080598
_cell_angle_beta 20.199042
_cell_angle_gamma 142.230898
_cell_volume 675.460629
_symmetry_space_group_name_H-M "P -1"
_symmetry_group_IT_number 2
_symmetry_cell_setting 'triclinic'
loop_
_space_group_symop_operation_xyz
x,y,z
-x,-y,-z
loop_
_atom_site_type_symbol
_atom_site_label
_atom_site_fract_x
_atom_site_fract_y
_atom_site_fract_z
Si Si1 0.408498 0.054366 0.908483
Si Si2 0.045158 0.461635 0.519957
Si Si3 0.826839 0.333061 0.266826
Si Si4 0.361296 0.001757 0.769639
Si Si5 0.961364 0.991263 0.452233
Si Si6 0.765346 0.397126 0.973789
Si Si7 0.541736 0.482373 0.678754
O O1 0.667274 0.334421 0.714925
O O2 0.356259 0.931224 0.838222
O O3 0.409144 0.897005 0.916675
O O4 0.190498 0.053980 0.167382
O O5 0.000000 0.500000 0.500000
O O6 0.944701 0.191416 0.525566
O O7 0.897325 0.466402 0.762416
O O8 0.864271 0.242579 0.109345
O O9 0.736258 0.482373 0.406662
O O10 0.613128 0.087753 0.473296
O O11 0.060559 0.489853 0.110358
O O12 0.364264 0.228448 0.841564
O O13 0.000000 0.000000 0.500000
O O14 0.699610 0.721727 0.639275
O O15 0.619506 0.492807 0.181032
#
# Coordination Sequence:
#
# PCOD8019278 Si02
#       7
#     2   2   2   2   2   2   2
#     4  12  23  43  67  93 127 176 213 262 322 379
#     4  12  27  40  61  97 129 170 217 262 316 382
#     4   9  19  45  65  93 132 164 211 265 320 377
#     4   9  20  41  70  91 127 170 212 260 323 383
#     4  12  23  42  65  90 130 173 214 263 319 373
#     4  12  24  43  66  96 134 162 217 271 309 382
#     4  10  22  41  66  93 127 169 209 264 318 373
#
# _framework density 20.726595
#
# number of rings (size 3 to 8) (size 9 to 14) (size 15 to 20)
#    0.857    0.286    4.286    2.143    4.000    2.286 
#    0.000    0.714    0.000    0.000    0.000    0.000 
#    0.000    0.000    0.000    0.000    0.000    0.000 
#
# Total GULP energy -173440.804148 kJ/mol
# GULP energy per Si atom -12388.628868 kJ/mol
# Density = 2.067942 g / cm^3
# Si number density = 20.726595 Si / 1000 Ang^3
#
#
#
# Elastic Constant Matrix: (Units=GPa)
#
#
# Indices 1 2 3 4 5 6 
#
# 1 123.0619 63.7679 41.9708 13.1712 2.3393 6.0116
# 2 63.7679 130.9016 34.6304 4.6977 -9.4844 -1.0081
# 3 41.9708 34.6304 72.4211 11.6039 -14.5199 4.8354
# 4 13.1712 4.6977 11.6039 22.1771 -10.2744 -5.5089
# 5 2.3393 -9.4844 -14.5199 -10.2744 29.3917 5.9377
# 6 6.0116 -1.0081 4.8354 -5.5089 5.9377 37.8067
#
#
#
# Elastic Compliance Matrix: (Units=1/GPa)
#
#
# Indices 1 2 3 4 5 6 
#
# 1 0.014191 -0.005721 -0.005709 -0.008545 -0.008461 -0.001595
# 2 -0.005721 0.011103 -0.001924 0.004417 0.004346 0.001413
# 3 -0.005709 -0.001924 0.020797 -0.003574 0.009633 -0.003837
# 4 -0.008545 0.004417 -0.003574 0.062607 0.020647 0.007813
# 5 -0.008461 0.004346 0.009633 0.020647 0.048976 -0.004454
# 6 -0.001595 0.001413 -0.003837 0.007813 -0.004454 0.029070
#
#
# Mechanical properties :
#
#
# Convention : Reuss Voigt Hill
#
# Bulk Modulus (GPa) = 51.59492 67.45811 59.52652
# Shear Modulus (GPa) = 22.73613 30.27612 26.50613
#
# Velocity S-wave (km/s) = 3.31562 3.82611 3.57998
# Velocity P-wave (km/s) = 6.29325 7.22053 6.77278
#
# Compressibility (1/GPa) = 0.01938175
#
# Stress axis : x y z
#
# Youngs Moduli (GPa) = 70.46633 90.06758 48.08366
#
# Poissons Ratio (x) = 0.51532 0.27452
# Poissons Ratio (y) = 0.40317 0.09252
# Poissons Ratio (z) = 0.40230 0.17330
#
# Static dielectric constant tensor:
#      x y z
#    x 3.731270 0.072320 0.001360 
#    y 0.072320 3.933810 -0.182700 
#    z 0.001360 -0.182700 3.467850 
# 
# 
# High freq. dielectric constant tensor:
#      x y z
#    x 1.812700 0.007920 -0.000520 
#    y 0.007920 1.821310 -0.012250 
#    z -0.000520 -0.012250 1.791500 
# 
# From -- ./inp_files/577413.got.cif
#   From: 2010.06.25/outbox.cif.g09.slc.cpg/sg2_289_cif.got.tgz:577413.got - 2010.06.27 13:26:56.
