data_PCOD8019341
_publ_section_title
;
Structure prediction by ZEFSAII (Michael W. Deem and Ramdas Pophale) SiO2 
 PCOD8019341
Probable space group: P -1
;
_chemical_formula_sum "Si O2"
_cell_formula_units_Z 16
_cell_length_a 10.646701
_cell_length_b 8.810986
_cell_length_c 17.135073
_cell_angle_alpha 132.023266
_cell_angle_beta 35.017162
_cell_angle_gamma 120.831573
_cell_volume 682.787708
_symmetry_space_group_name_H-M "P -1"
_symmetry_group_IT_number 2
_symmetry_cell_setting 'triclinic'
loop_
_space_group_symop_operation_xyz
x,y,z
-x,-y,-z
loop_
_atom_site_type_symbol
_atom_site_label
_atom_site_fract_x
_atom_site_fract_y
_atom_site_fract_z
Si Si1 0.030286 0.419278 0.143280
Si Si2 0.584032 0.919196 0.163338
Si Si3 0.460039 0.136893 0.142060
Si Si4 0.007344 0.905403 0.682846
Si Si5 0.851640 0.146800 0.567495
Si Si6 0.433825 0.643785 0.654152
Si Si7 0.114402 0.503953 0.580707
Si Si8 0.139765 0.658441 0.031434
O O1 0.160969 0.581246 0.084155
O O2 0.803794 0.393605 0.201261
O O3 0.954291 0.495210 0.293128
O O4 0.182717 0.208950 0.997397
O O5 0.388627 0.796434 0.254463
O O6 0.532987 0.992922 0.127494
O O7 0.589161 0.122161 0.284173
O O8 0.198958 0.191124 0.288672
O O9 0.615084 0.329043 0.125066
O O10 0.500000 0.000000 0.000000
O O11 0.162458 0.954545 0.546813
O O12 0.116064 0.730841 0.624318
O O13 0.970658 0.107393 0.825556
O O14 0.942687 0.366841 0.581128
O O15 0.000000 0.000000 0.500000
O O16 0.500000 0.500000 0.500000
O O17 0.637967 0.608963 0.599281
O O18 0.000000 0.500000 0.000000
#
# Coordination Sequence:
#
# PCOD8019341 Si02
#       8
#     2   2   2   2   2   2   2   2
#     4  11  25  43  71  99 138 181 238 279 348 416
#     4  12  24  43  70 102 139 182 230 287 348 416
#     4  10  22  41  66  99 140 178 221 287 353 402
#     4  11  24  45  71 102 146 179 232 288 356 420
#     4  12  23  42  72 105 138 178 233 290 347 413
#     4  10  23  43  69  97 137 182 227 284 348 418
#     4  11  24  45  74 103 138 183 230 287 357 417
#     4  11  25  44  69 102 141 185 236 294 341 410
#
# _framework density 23.433343000000001
#
# number of rings (size 3 to 8) (size 9 to 14) (size 15 to 20)
#    0.000    1.000    2.500    3.750    5.250    2.500 
#    2.250    0.625    0.000    0.000    0.000    0.000 
#    0.000    0.000    0.000    0.000    0.000    0.000 
#
# Total GULP energy -198261.640527 kJ/mol
# GULP energy per Si atom -12391.352533 kJ/mol
# Density = 2.338001 g / cm^3
# Si number density = 23.433343 Si / 1000 Ang^3
#
#
#
# Elastic Constant Matrix: (Units=GPa)
#
#
# Indices 1 2 3 4 5 6 
#
# 1 65.0334 36.8003 29.8656 -13.2849 0.6520 2.9799
# 2 36.8003 125.5780 56.1388 -6.7689 -3.5645 -0.9907
# 3 29.8656 56.1388 139.2254 -9.8149 -19.2765 1.4750
# 4 -13.2849 -6.7689 -9.8149 49.1964 -3.4793 1.1055
# 5 0.6520 -3.5645 -19.2765 -3.4793 37.3723 -2.3462
# 6 2.9799 -0.9907 1.4750 1.1055 -2.3462 49.0602
#
#
#
# Elastic Compliance Matrix: (Units=1/GPa)
#
#
# Indices 1 2 3 4 5 6 
#
# 1 0.020029 -0.004654 -0.002343 0.004212 -0.001699 -0.001416
# 2 -0.004654 0.010857 -0.003522 -0.000529 -0.000712 0.000586
# 3 -0.002343 -0.003522 0.009869 0.001199 0.004906 -0.000018
# 4 0.004212 -0.000529 0.001199 0.021821 0.002484 -0.000676
# 5 -0.001699 -0.000712 0.004906 0.002484 0.029563 0.001299
# 6 -0.001416 0.000586 -0.000018 -0.000676 0.001299 0.020559
#
#
# Mechanical properties :
#
#
# Convention : Reuss Voigt Hill
#
# Bulk Modulus (GPa) = 50.71612 63.93844 57.32728
# Shear Modulus (GPa) = 35.63572 40.92791 38.28181
#
# Velocity S-wave (km/s) = 3.90388 4.18373 4.04622
# Velocity P-wave (km/s) = 6.48152 7.11917 6.80781
#
# Compressibility (1/GPa) = 0.01971759
#
# Stress axis : x y z
#
# Youngs Moduli (GPa) = 49.92801 92.10380 101.32578
#
# Poissons Ratio (x) = 0.42868 0.23740
# Poissons Ratio (y) = 0.23238 0.35683
# Poissons Ratio (z) = 0.11698 0.32435
#
# Static dielectric constant tensor:
#      x y z
#    x 5.113260 0.729440 -0.868130 
#    y 0.729440 4.619200 -1.203550 
#    z -0.868130 -1.203550 5.947730 
# 
# 
# High freq. dielectric constant tensor:
#      x y z
#    x 1.920500 0.001380 0.018560 
#    y 0.001380 1.928230 -0.011780 
#    z 0.018560 -0.011780 1.945960 
# 
# From -- ./inp_files/594231.got.cif
#   From: 2010.06.25/outbox.cif.g09.slc.cpg/sg2_298_cif.got.tgz:594231.got - 2010.06.27 13:26:56.
