data_PCOD8019051
_publ_section_title
;
Structure prediction by ZEFSAII (Michael W. Deem and Ramdas Pophale) SiO2 
 PCOD8019051
Probable space group: P -1
;
_chemical_formula_sum "Si O2"
_cell_formula_units_Z 16
_cell_length_a 11.927502
_cell_length_b 15.438475
_cell_length_c 9.752430
_cell_angle_alpha 144.367806
_cell_angle_beta 54.951667
_cell_angle_gamma 105.767235
_cell_volume 781.629605
_symmetry_space_group_name_H-M "P -1"
_symmetry_group_IT_number 2
_symmetry_cell_setting 'triclinic'
loop_
_space_group_symop_operation_xyz
x,y,z
-x,-y,-z
loop_
_atom_site_type_symbol
_atom_site_label
_atom_site_fract_x
_atom_site_fract_y
_atom_site_fract_z
Si Si1 0.867224 0.605387 0.125955
Si Si2 0.874186 0.324501 0.345854
Si Si3 0.138071 0.352705 0.124307
Si Si4 0.680029 0.290635 0.201531
Si Si5 0.361279 0.545745 0.843971
Si Si6 0.359503 0.031708 0.233397
Si Si7 0.629279 0.324793 0.718698
Si Si8 0.538629 0.889797 0.461635
O O1 0.740442 0.537514 0.131581
O O2 0.783251 0.797055 0.473269
O O3 0.930330 0.585190 0.900563
O O4 0.000000 0.500000 0.000000
O O5 0.869401 0.506961 0.582841
O O6 0.812583 0.282918 0.196729
O O7 0.790944 0.293640 0.496906
O O8 0.058344 0.236074 0.093234
O O9 0.313231 0.264132 0.873031
O O10 0.525748 0.403134 0.527922
O O11 0.701606 0.365466 0.139771
O O12 0.698104 0.108572 0.929857
O O13 0.358217 0.679892 0.130795
O O14 0.431500 0.013491 0.309721
O O15 0.500000 0.000000 0.000000
O O16 0.588347 0.178292 0.505312
O O17 0.500000 0.500000 0.000000
O O18 0.500000 0.000000 0.500000
#
# Coordination Sequence:
#
# PCOD8019051 Si02
#       8
#     2   2   2   2   2   2   2   2
#     4  11  22  42  64  90 128 171 209 256 323 381
#     4  11  21  38  66  89 121 163 212 257 313 368
#     4  10  22  41  64  92 126 165 213 260 317 375
#     4  11  22  36  61  93 126 161 207 266 312 370
#     4  11  21  36  59  94 122 158 219 257 305 378
#     4  11  22  41  61  94 128 164 210 264 313 376
#     4  12  19  38  64  91 117 165 213 258 305 365
#     4  11  23  41  63  91 128 167 206 258 321 375
#
# _framework density 20.470054000000001
#
# number of rings (size 3 to 8) (size 9 to 14) (size 15 to 20)
#    0.000    1.000    5.000    3.000    0.000    1.000 
#    4.500    7.500    0.000    0.000    0.000    0.000 
#    0.000    0.000    0.000    0.000    0.000    0.000 
#
# Total GULP energy -198270.118254 kJ/mol
# GULP energy per Si atom -12391.882391 kJ/mol
# Density = 2.042346 g / cm^3
# Si number density = 20.470054 Si / 1000 Ang^3
#
#
#
# Elastic Constant Matrix: (Units=GPa)
#
#
# Indices 1 2 3 4 5 6 
#
# 1 102.6091 45.9554 44.6225 0.3008 28.4306 13.6325
# 2 45.9554 97.6432 41.0796 -5.8450 2.7695 12.8936
# 3 44.6225 41.0796 79.7725 -4.8251 24.3344 6.3614
# 4 0.3008 -5.8450 -4.8251 33.4696 7.9883 -1.7250
# 5 28.4306 2.7695 24.3344 7.9883 32.6985 -3.7627
# 6 13.6325 12.8936 6.3614 -1.7250 -3.7627 44.8363
#
#
#
# Elastic Compliance Matrix: (Units=1/GPa)
#
#
# Indices 1 2 3 4 5 6 
#
# 1 0.018263 -0.006750 -0.001693 0.001758 -0.015002 -0.004563
# 2 -0.006750 0.016492 -0.007886 -0.000724 0.010434 -0.000724
# 3 -0.001693 -0.007886 0.023126 0.005871 -0.016697 -0.001674
# 4 0.001758 -0.000724 0.005871 0.033928 -0.014246 -0.001050
# 5 -0.015002 0.010434 -0.016697 -0.014246 0.059613 0.008384
# 6 -0.004563 -0.000724 -0.001674 -0.001050 0.008384 0.024799
#
#
# Mechanical properties :
#
#
# Convention : Reuss Voigt Hill
#
# Bulk Modulus (GPa) = 39.64760 60.37107 50.00933
# Shear Modulus (GPa) = 23.01098 32.09206 27.55152
#
# Velocity S-wave (km/s) = 3.35644 3.96379 3.67269
# Velocity P-wave (km/s) = 5.86784 7.10670 6.51678
#
# Compressibility (1/GPa) = 0.02522221
#
# Stress axis : x y z
#
# Youngs Moduli (GPa) = 54.75622 60.63492 43.24144
#
# Poissons Ratio (x) = 0.40926 0.07323
# Poissons Ratio (y) = 0.36958 0.34101
# Poissons Ratio (z) = 0.09273 0.47818
#
# Static dielectric constant tensor:
#      x y z
#    x 3.987020 0.362950 0.107730 
#    y 0.362950 3.921320 -0.275780 
#    z 0.107730 -0.275780 3.636170 
# 
# 
# High freq. dielectric constant tensor:
#      x y z
#    x 1.809170 0.016980 0.015040 
#    y 0.016980 1.799960 -0.026040 
#    z 0.015040 -0.026040 1.797150 
# 
# From -- ./inp_files/274586.got.cif
#   From: 2010.06.25/outbox.cif.g09.slc.cpg/sg2_138_cif.got.tgz:274586.got - 2010.06.27 13:26:56.
