data_PCOD8019825
_publ_section_title
;
Structure prediction by ZEFSAII (Michael W. Deem and Ramdas Pophale) SiO2 
 PCOD8019825
Probable space group: P -1
;
_chemical_formula_sum "Si O2"
_cell_formula_units_Z 16
_cell_length_a 8.860814
_cell_length_b 18.365842
_cell_length_c 13.991758
_cell_angle_alpha 149.360329
_cell_angle_beta 40.184209
_cell_angle_gamma 136.883210
_cell_volume 730.262316
_symmetry_space_group_name_H-M "P -1"
_symmetry_group_IT_number 2
_symmetry_cell_setting 'triclinic'
loop_
_space_group_symop_operation_xyz
x,y,z
-x,-y,-z
loop_
_atom_site_type_symbol
_atom_site_label
_atom_site_fract_x
_atom_site_fract_y
_atom_site_fract_z
Si Si1 0.082532 0.613946 0.865079
Si Si2 0.775297 0.080690 0.954940
Si Si3 0.144664 0.423987 0.771727
Si Si4 0.130497 0.870269 0.512464
Si Si5 0.151451 0.885340 0.825985
Si Si6 0.517471 0.929143 0.556653
Si Si7 0.629397 0.639106 0.226654
Si Si8 0.087148 0.566527 0.432222
O O1 0.258453 0.552561 0.785155
O O2 0.087172 0.522692 0.663237
O O3 0.179698 0.786189 0.992517
O O4 0.817050 0.573710 0.998557
O O5 0.857586 0.147763 0.094825
O O6 0.928236 0.963481 0.721603
O O7 0.500000 0.000000 0.000000
O O8 0.324909 0.358071 0.676764
O O9 0.983875 0.297748 0.642360
O O10 0.000000 0.500000 0.000000
O O11 0.287644 0.884297 0.547545
O O12 0.302773 0.925592 0.401682
O O13 0.422063 0.957259 0.740369
O O14 0.067446 0.735479 0.637136
O O15 0.000000 0.000000 0.000000
O O16 0.660401 0.800779 0.350687
O O17 0.354352 0.549583 0.253042
O O18 0.000000 0.500000 0.500000
#
# Coordination Sequence:
#
# PCOD8019825 Si02
#       8
#     2   2   2   2   2   2   2   2
#     4  11  23  48  65  99 137 175 229 280 338 400
#     4  12  27  45  69  97 137 181 223 277 345 406
#     4  10  24  43  65  99 137 171 223 275 342 398
#     4  11  23  44  71 101 130 179 227 279 336 404
#     4  11  23  44  62 100 135 175 223 272 333 401
#     4  10  22  41  74  99 129 175 233 279 327 397
#     4  10  22  42  69 101 131 179 224 277 336 402
#     4  11  23  41  69  97 134 175 222 277 336 402
#
# _framework density 21.909934
#
# number of rings (size 3 to 8) (size 9 to 14) (size 15 to 20)
#    0.000    1.250    3.750    1.875    3.500    3.500 
#    6.750    1.250    0.000    0.000    0.000    0.000 
#    0.000    0.000    0.000    0.000    0.000    0.000 
#
# Total GULP energy -198273.943206 kJ/mol
# GULP energy per Si atom -12392.121450 kJ/mol
# Density = 2.186007 g / cm^3
# Si number density = 21.909934 Si / 1000 Ang^3
#
#
#
# Elastic Constant Matrix: (Units=GPa)
#
#
# Indices 1 2 3 4 5 6 
#
# 1 91.8679 36.0132 27.5262 19.2449 -11.6009 -20.8228
# 2 36.0132 113.4430 43.1783 5.7730 -6.4192 -29.2910
# 3 27.5262 43.1783 108.8662 11.1983 0.1605 -2.3018
# 4 19.2449 5.7730 11.1983 30.7522 -10.4626 -3.0030
# 5 -11.6009 -6.4192 0.1605 -10.4626 30.3104 2.6427
# 6 -20.8228 -29.2910 -2.3018 -3.0030 2.6427 40.4140
#
#
#
# Elastic Compliance Matrix: (Units=1/GPa)
#
#
# Indices 1 2 3 4 5 6 
#
# 1 0.015450 -0.002100 -0.002234 -0.007041 0.002560 0.005621
# 2 -0.002100 0.013535 -0.004875 0.002079 0.002068 0.008470
# 3 -0.002234 -0.004875 0.011949 -0.003375 -0.002761 -0.004074
# 4 -0.007041 0.002079 -0.003375 0.041926 0.012235 0.000002
# 5 0.002560 0.002068 -0.002761 0.012235 0.038556 0.001048
# 6 0.005621 0.008470 -0.004074 0.000002 0.001048 0.033478
#
#
# Mechanical properties :
#
#
# Convention : Reuss Voigt Hill
#
# Bulk Modulus (GPa) = 44.41337 58.62363 51.51850
# Shear Modulus (GPa) = 27.65199 34.12596 30.88897
#
# Velocity S-wave (km/s) = 3.55642 3.95087 3.75882
# Velocity P-wave (km/s) = 6.09747 6.90125 6.51177
#
# Compressibility (1/GPa) = 0.02251574
#
# Stress axis : x y z
#
# Youngs Moduli (GPa) = 64.72465 73.88083 83.68761
#
# Poissons Ratio (x) = 0.15514 0.18698
# Poissons Ratio (y) = 0.13592 0.40800
# Poissons Ratio (z) = 0.14461 0.36019
#
# Static dielectric constant tensor:
#      x y z
#    x 4.432730 -0.459680 -0.116340 
#    y -0.459680 4.157540 -0.030900 
#    z -0.116340 -0.030900 3.903200 
# 
# 
# High freq. dielectric constant tensor:
#      x y z
#    x 1.859640 -0.034150 -0.004010 
#    y -0.034150 1.864900 -0.000550 
#    z -0.004010 -0.000550 1.864980 
# 
# From -- ./inp_files/507325.got.cif
#   From: 2010.06.25/outbox.cif.g09.slc.cpg/sg2_254_cif.got.tgz:507325.got - 2010.06.27 13:26:56.
