data_PCOD8019977
_publ_section_title
;
Structure prediction by ZEFSAII (Michael W. Deem and Ramdas Pophale) SiO2 
 PCOD8019977
Probable space group: P -1
;
_chemical_formula_sum "Si O2"
_cell_formula_units_Z 16
_cell_length_a 8.252915
_cell_length_b 10.124349
_cell_length_c 16.910740
_cell_angle_alpha 59.633822
_cell_angle_beta 34.435583
_cell_angle_gamma 62.549764
_cell_volume 686.583899
_symmetry_space_group_name_H-M "P -1"
_symmetry_group_IT_number 2
_symmetry_cell_setting 'triclinic'
loop_
_space_group_symop_operation_xyz
x,y,z
-x,-y,-z
loop_
_atom_site_type_symbol
_atom_site_label
_atom_site_fract_x
_atom_site_fract_y
_atom_site_fract_z
Si Si1 0.394620 0.062370 0.798675
Si Si2 0.755166 0.623215 0.164510
Si Si3 0.570736 0.117969 0.003173
Si Si4 0.961472 0.799715 0.318368
Si Si5 0.033369 0.807535 0.461380
Si Si6 0.676905 0.491758 0.511932
Si Si7 0.911076 0.674970 0.916234
Si Si8 0.638994 0.090599 0.300029
O O1 0.220603 0.230006 0.832290
O O2 0.733174 0.078954 0.636139
O O3 0.258386 0.977059 0.806350
O O4 0.344778 0.958948 0.925185
O O5 0.503257 0.531368 0.329185
O O6 0.032968 0.497722 0.088222
O O7 0.710894 0.676091 0.075329
O O8 0.832382 0.206973 0.838542
O O9 0.283194 0.231549 0.099207
O O10 0.500000 0.000000 0.000000
O O11 0.780482 0.656810 0.428814
O O12 0.135212 0.784907 0.335563
O O13 0.743354 0.956286 0.360829
O O14 0.070043 0.649327 0.545905
O O15 0.703751 0.874062 0.573982
O O16 0.500000 0.500000 0.500000
O O17 0.203794 0.755883 0.792050
#
# Coordination Sequence:
#
# PCOD8019977 Si02
#       8
#     2   2   2   2   2   2   2   2
#     4  11  23  42  67  92 134 171 208 276 332 384
#     4  10  22  42  64  89 124 169 212 259 323 382
#     4  12  21  43  65  97 128 171 223 266 326 389
#     4  12  23  41  69  94 132 177 218 269 327 394
#     4  11  23  42  65  94 133 173 222 263 324 398
#     4  11  25  43  65  95 136 174 215 271 332 389
#     4  11  23  42  69  94 125 169 224 274 312 393
#     4  12  25  40  66 104 130 167 221 276 333 378
#
# _framework density 23.30378
#
# number of rings (size 3 to 8) (size 9 to 14) (size 15 to 20)
#    0.000    0.750    3.750    4.125    0.000    8.000 
#    0.000    0.000    0.000    7.500    0.000    0.000 
#    0.000    0.000    0.000    0.000    0.000    0.000 
#
# Total GULP energy -198311.426568 kJ/mol
# GULP energy per Si atom -12394.464160 kJ/mol
# Density = 2.325074 g / cm^3
# Si number density = 23.303780 Si / 1000 Ang^3
#
#
#
# Elastic Constant Matrix: (Units=GPa)
#
#
# Indices 1 2 3 4 5 6 
#
# 1 71.7614 34.1757 9.5377 -9.7817 9.4597 -12.2817
# 2 34.1757 123.2633 39.2189 -3.8538 1.3885 -20.1419
# 3 9.5377 39.2189 107.4877 -10.6930 -2.3682 -0.0499
# 4 -9.7817 -3.8538 -10.6930 45.3544 -7.3392 0.0918
# 5 9.4597 1.3885 -2.3682 -7.3392 24.6693 0.6233
# 6 -12.2817 -20.1419 -0.0499 0.0918 0.6233 32.9526
#
#
#
# Elastic Compliance Matrix: (Units=1/GPa)
#
#
# Indices 1 2 3 4 5 6 
#
# 1 0.017723 -0.004095 0.000044 0.002518 -0.005918 0.004208
# 2 -0.004095 0.011323 -0.003842 -0.000807 0.000188 0.005388
# 3 0.000044 -0.003842 0.011007 0.002622 0.002096 -0.002362
# 4 0.002518 -0.000807 0.002622 0.024196 0.006523 0.000258
# 5 -0.005918 0.000188 0.002096 0.006523 0.045012 -0.002958
# 6 0.004208 0.005388 -0.002362 0.000258 -0.002958 0.035260
#
#
# Mechanical properties :
#
#
# Convention : Reuss Voigt Hill
#
# Bulk Modulus (GPa) = 41.20748 52.04189 46.62469
# Shear Modulus (GPa) = 29.69168 35.23392 32.46280
#
# Velocity S-wave (km/s) = 3.57335 3.89259 3.73638
# Velocity P-wave (km/s) = 5.89459 6.52560 6.21810
#
# Compressibility (1/GPa) = 0.02426744
#
# Stress axis : x y z
#
# Youngs Moduli (GPa) = 56.42406 88.31194 90.84923
#
# Poissons Ratio (x) = 0.36161 -0.00395
# Poissons Ratio (y) = 0.23104 0.34904
# Poissons Ratio (z) = -0.00246 0.33929
#
# Static dielectric constant tensor:
#      x y z
#    x 2.654100 -0.956650 -0.733390 
#    y -0.956650 4.236770 -0.440190 
#    z -0.733390 -0.440190 3.987640 
# 
# 
# High freq. dielectric constant tensor:
#      x y z
#    x 1.907700 -0.015520 0.003040 
#    y -0.015520 1.934330 -0.008060 
#    z 0.003040 -0.008060 1.927710 
# 
# From -- ./inp_files/559735.got.cif
#   From: 2010.06.25/outbox.cif.g09.slc.cpg/sg2_280_cif.got.tgz:559735.got - 2010.06.27 13:26:56.
