data_PCOD8019917
_publ_section_title
;
Structure prediction by ZEFSAII (Michael W. Deem and Ramdas Pophale) SiO2 
 PCOD8019917
Probable space group: P -1
;
_chemical_formula_sum "Si O2"
_cell_formula_units_Z 16
_cell_length_a 13.518919
_cell_length_b 12.519131
_cell_length_c 9.492411
_cell_angle_alpha 121.017639
_cell_angle_beta 143.856429
_cell_angle_gamma 76.331386
_cell_volume 758.940227
_symmetry_space_group_name_H-M "P -1"
_symmetry_group_IT_number 2
_symmetry_cell_setting 'triclinic'
loop_
_space_group_symop_operation_xyz
x,y,z
-x,-y,-z
loop_
_atom_site_type_symbol
_atom_site_label
_atom_site_fract_x
_atom_site_fract_y
_atom_site_fract_z
Si Si1 0.739388 0.455907 0.781338
Si Si2 0.108483 0.447625 0.270970
Si Si3 0.820615 0.701326 0.215646
Si Si4 0.910389 0.773065 0.685421
Si Si5 0.478109 0.210010 0.187429
Si Si6 0.794687 0.255191 0.369172
Si Si7 0.416074 0.993914 0.188276
Si Si8 0.256622 0.007759 0.296518
O O1 0.784936 0.539160 0.743925
O O2 0.551307 0.333316 0.464948
O O3 0.715291 0.548876 0.942542
O O4 0.896650 0.399101 0.960398
O O5 0.154168 0.343474 0.352239
O O6 0.172362 0.590527 0.522114
O O7 0.871109 0.705894 0.441077
O O8 0.009150 0.756085 0.380412
O O9 0.687135 0.781656 0.090127
O O10 0.812529 0.877494 0.659677
O O11 0.116970 0.860128 0.007515
O O12 0.650218 0.206350 0.295706
O O13 0.390745 0.072319 0.075818
O O14 0.711370 0.161214 0.076424
O O15 0.621220 0.004969 0.442383
O O16 0.367680 0.058468 0.315739
#
# Coordination Sequence:
#
# PCOD8019917 Si02
#       8
#     2   2   2   2   2   2   2   2
#     4   9  20  40  61  98 126 164 215 261 303 391
#     4   9  20  39  69  91 129 168 207 259 328 364
#     4  11  23  40  65  97 131 161 219 260 311 386
#     4  11  22  43  64  97 124 170 206 269 320 368
#     4  11  23  40  66  93 129 172 207 262 323 367
#     4  10  22  42  62  97 129 159 213 269 301 385
#     4  11  22  44  62  91 124 176 209 259 321 374
#     4  10  24  41  64  88 133 159 221 260 308 392
#
# _framework density 21.082028999999999
#
# number of rings (size 3 to 8) (size 9 to 14) (size 15 to 20)
#    0.000    1.750    1.250    3.000    1.750    2.500 
#    6.750    3.125    0.000    0.000    0.000    0.000 
#    0.000    0.000    0.000    0.000    0.000    0.000 
#
# Total GULP energy -198334.337416 kJ/mol
# GULP energy per Si atom -12395.896089 kJ/mol
# Density = 2.103405 g / cm^3
# Si number density = 21.082029 Si / 1000 Ang^3
#
#
#
# Elastic Constant Matrix: (Units=GPa)
#
#
# Indices 1 2 3 4 5 6 
#
# 1 63.3708 20.3710 22.2183 7.1768 -5.0845 -5.0651
# 2 20.3710 77.2021 35.9641 10.4711 -11.6933 10.0835
# 3 22.2183 35.9641 113.0725 9.9568 -2.3167 -11.6205
# 4 7.1768 10.4711 9.9568 24.0087 -3.7907 -6.4094
# 5 -5.0845 -11.6933 -2.3167 -3.7907 32.7365 4.9697
# 6 -5.0651 10.0835 -11.6205 -6.4094 4.9697 18.3265
#
#
#
# Elastic Compliance Matrix: (Units=1/GPa)
#
#
# Indices 1 2 3 4 5 6 
#
# 1 0.018492 -0.005093 -0.001227 -0.001002 -0.000188 0.006836
# 2 -0.005093 0.024981 -0.008535 -0.011513 0.010354 -0.027398
# 3 -0.001227 -0.008535 0.013031 0.001860 -0.004293 0.014434
# 4 -0.001002 -0.011513 0.001860 0.052901 -0.002000 0.026281
# 5 -0.000188 0.010354 -0.004293 -0.002000 0.036579 -0.019090
# 6 0.006836 -0.027398 0.014434 0.026281 -0.019090 0.095050
#
#
# Mechanical properties :
#
#
# Convention : Reuss Voigt Hill
#
# Bulk Modulus (GPa) = 37.31999 45.63912 41.47955
# Shear Modulus (GPa) = 17.87786 26.68713 22.28250
#
# Velocity S-wave (km/s) = 2.91523 3.56177 3.25459
# Velocity P-wave (km/s) = 5.39186 6.21372 5.81732
#
# Compressibility (1/GPa) = 0.02679529
#
# Stress axis : x y z
#
# Youngs Moduli (GPa) = 54.07635 40.03031 76.73966
#
# Poissons Ratio (x) = 0.20389 0.09414
# Poissons Ratio (y) = 0.27543 0.65494
# Poissons Ratio (z) = 0.06634 0.34164
#
# Static dielectric constant tensor:
#      x y z
#    x 3.728660 -0.202240 0.045430 
#    y -0.202240 3.557190 0.183130 
#    z 0.045430 0.183130 4.063820 
# 
# 
# High freq. dielectric constant tensor:
#      x y z
#    x 1.821350 -0.018720 0.000070 
#    y -0.018720 1.806090 0.011580 
#    z 0.000070 0.011580 1.840720 
# 
# From -- ./inp_files/308240.got.cif
#   From: 2010.06.25/outbox.cif.g09.slc.cpg/sg2_155_cif.got.tgz:308240.got - 2010.06.27 13:26:56.
