data_PCOD8019006
_publ_section_title
;
Structure prediction by ZEFSAII (Michael W. Deem and Ramdas Pophale) SiO2 
 PCOD8019006
Probable space group: P -1
;
_chemical_formula_sum "Si O2"
_cell_formula_units_Z 16
_cell_length_a 12.328596
_cell_length_b 5.223826
_cell_length_c 12.185463
_cell_angle_alpha 61.338423
_cell_angle_beta 101.100786
_cell_angle_gamma 95.526785
_cell_volume 675.722579
_symmetry_space_group_name_H-M "P -1"
_symmetry_group_IT_number 2
_symmetry_cell_setting 'triclinic'
loop_
_space_group_symop_operation_xyz
x,y,z
-x,-y,-z
loop_
_atom_site_type_symbol
_atom_site_label
_atom_site_fract_x
_atom_site_fract_y
_atom_site_fract_z
Si Si1 0.058714 0.814311 0.144844
Si Si2 0.688874 0.156092 0.863740
Si Si3 0.464132 0.850235 0.355006
Si Si4 0.639270 0.287887 0.269267
Si Si5 0.833798 0.885606 0.458278
Si Si6 0.975871 0.853069 0.702354
Si Si7 0.371920 0.503702 0.003648
Si Si8 0.336013 0.526195 0.544710
O O1 0.185629 0.750293 0.153195
O O2 0.001447 0.494247 0.208925
O O3 0.050824 0.996433 0.218308
O O4 0.000000 0.000000 0.000000
O O5 0.603889 0.291057 0.731516
O O6 0.652961 0.265124 0.953872
O O7 0.681622 0.807773 0.919601
O O8 0.374732 0.847007 0.439986
O O9 0.573370 0.682084 0.451645
O O10 0.511445 0.169806 0.263632
O O11 0.642019 0.545037 0.307019
O O12 0.723898 0.071891 0.389787
O O13 0.686762 0.380258 0.142488
O O14 0.877373 0.906526 0.586020
O O15 0.791221 0.552616 0.495185
O O16 0.918268 0.985442 0.360964
O O17 0.500000 0.500000 0.000000
#
# Coordination Sequence:
#
# PCOD8019006 Si02
#       8
#     2   2   2   2   2   2   2   2
#     4  12  29  50  77 105 146 188 247 297 362 424
#     4  12  27  45  72 102 140 196 232 294 355 422
#     4  10  22  41  64 100 142 181 231 283 351 439
#     4  11  24  39  69 101 140 186 232 291 352 431
#     4  10  26  42  74 104 140 185 238 300 365 416
#     4  11  27  50  74 108 141 187 242 306 356 427
#     4  12  26  44  71 104 147 185 243 285 352 427
#     4  10  22  41  67 102 140 181 230 285 359 425
#
# _framework density 23.678355
#
# number of rings (size 3 to 8) (size 9 to 14) (size 15 to 20)
#    0.000    1.000    1.250    3.375   12.250    1.000 
#    0.000    0.000    0.000    0.000    0.000    0.000 
#    0.000    0.000    0.000    0.000    0.000    0.000 
#
# Total GULP energy -198225.016719 kJ/mol
# GULP energy per Si atom -12389.063545 kJ/mol
# Density = 2.362446 g / cm^3
# Si number density = 23.678355 Si / 1000 Ang^3
#
#
#
# Elastic Constant Matrix: (Units=GPa)
#
#
# Indices 1 2 3 4 5 6 
#
# 1 119.9548 42.6678 51.4021 13.8429 -5.2374 23.4807
# 2 42.6678 97.9382 38.9805 20.8151 -11.0253 6.7738
# 3 51.4021 38.9805 147.9320 27.0071 -8.0664 3.8945
# 4 13.8429 20.8151 27.0071 50.6907 -2.2961 -5.4162
# 5 -5.2374 -11.0253 -8.0664 -2.2961 29.3808 0.4891
# 6 23.4807 6.7738 3.8945 -5.4162 0.4891 37.3759
#
#
#
# Elastic Compliance Matrix: (Units=1/GPa)
#
#
# Indices 1 2 3 4 5 6 
#
# 1 0.012345 -0.003460 -0.002987 -0.001099 0.000112 -0.006978
# 2 -0.003460 0.013576 -0.001463 -0.003756 0.003795 -0.000728
# 3 -0.002987 -0.001463 0.008795 -0.003140 0.001075 0.000756
# 4 -0.001099 -0.003756 -0.003140 0.023762 -0.000696 0.005151
# 5 0.000112 0.003795 0.001075 -0.000696 0.035745 -0.001439
# 6 -0.006978 -0.000728 0.000756 0.005151 -0.001439 0.031957
#
#
# Mechanical properties :
#
#
# Convention : Reuss Voigt Hill
#
# Bulk Modulus (GPa) = 52.92387 70.21398 61.56893
# Shear Modulus (GPa) = 33.71534 39.00776 36.36155
#
# Velocity S-wave (km/s) = 3.77754 4.06322 3.92298
# Velocity P-wave (km/s) = 6.43631 7.19240 6.82483
#
# Compressibility (1/GPa) = 0.01889506
#
# Stress axis : x y z
#
# Youngs Moduli (GPa) = 81.00399 73.65779 113.69658
#
# Poissons Ratio (x) = 0.25489 0.33964
# Poissons Ratio (y) = 0.28031 0.16636
# Poissons Ratio (z) = 0.24198 0.10777
#
# Static dielectric constant tensor:
#      x y z
#    x 4.276830 0.311050 -0.234880 
#    y 0.311050 4.890880 0.161900 
#    z -0.234880 0.161900 4.978430 
# 
# 
# High freq. dielectric constant tensor:
#      x y z
#    x 1.939680 0.018630 -0.008030 
#    y 0.018630 1.933880 0.007660 
#    z -0.008030 0.007660 1.956600 
# 
# From -- ./inp_files/409892.got.cif
#   From: 2010.06.25/outbox.cif.g09.slc.cpg/sg2_205_cif.got.tgz:409892.got - 2010.06.27 13:26:56.
