data_PCOD8019638
_publ_section_title
;
Structure prediction by ZEFSAII (Michael W. Deem and Ramdas Pophale) SiO2 
 PCOD8019638
Probable space group: P -1
;
_chemical_formula_sum "Si O2"
_cell_formula_units_Z 16
_cell_length_a 8.951242
_cell_length_b 11.902391
_cell_length_c 10.260768
_cell_angle_alpha 123.667973
_cell_angle_beta 111.989199
_cell_angle_gamma 54.574902
_cell_volume 739.118548
_symmetry_space_group_name_H-M "P -1"
_symmetry_group_IT_number 2
_symmetry_cell_setting 'triclinic'
loop_
_space_group_symop_operation_xyz
x,y,z
-x,-y,-z
loop_
_atom_site_type_symbol
_atom_site_label
_atom_site_fract_x
_atom_site_fract_y
_atom_site_fract_z
Si Si1 0.713357 0.157220 0.965111
Si Si2 0.548764 0.369455 0.542970
Si Si3 0.976122 0.816517 0.771099
Si Si4 0.078299 0.709968 0.463191
Si Si5 0.982244 0.664965 0.125137
Si Si6 0.386184 0.171879 0.018600
Si Si7 0.362930 0.625690 0.136464
Si Si8 0.769591 0.638148 0.662219
O O1 0.826044 0.225352 0.128580
O O2 0.515439 0.214203 0.001241
O O3 0.677943 0.212581 0.838935
O O4 0.822574 0.972984 0.885088
O O5 0.500000 0.500000 0.500000
O O6 0.762256 0.251394 0.508372
O O7 0.533266 0.421282 0.721658
O O8 0.418344 0.289815 0.439515
O O9 0.920797 0.685831 0.702196
O O10 0.973022 0.832007 0.622435
O O11 0.147343 0.543700 0.444539
O O12 0.963048 0.713005 0.301597
O O13 0.794258 0.807718 0.102323
O O14 0.160070 0.646689 0.096600
O O15 0.000000 0.500000 0.000000
O O16 0.303173 0.308503 0.183106
O O17 0.500000 0.000000 0.000000
O O18 0.500000 0.500000 0.000000
#
# Coordination Sequence:
#
# PCOD8019638 Si02
#       8
#     2   2   2   2   2   2   2   2
#     4  11  26  43  66  96 144 177 233 290 349 418
#     4   9  22  42  64 100 136 174 220 282 350 414
#     4  11  24  43  65 101 135 186 228 289 354 409
#     4  10  22  41  69  95 136 177 230 291 346 415
#     4  11  23  43  69 100 137 177 236 291 346 419
#     4  12  24  44  67  99 136 190 232 281 353 422
#     4  11  25  42  70 105 137 181 230 292 349 407
#     4  11  21  40  70  98 130 177 242 278 349 419
#
# _framework density 21.647406
#
# number of rings (size 3 to 8) (size 9 to 14) (size 15 to 20)
#    0.000    1.250    2.500    2.625    8.750    2.000 
#    2.250    2.500    0.000    0.000    0.000    0.000 
#    0.000    0.000    0.000    0.000    0.000    0.000 
#
# Total GULP energy -198235.305061 kJ/mol
# GULP energy per Si atom -12389.706566 kJ/mol
# Density = 2.159814 g / cm^3
# Si number density = 21.647406 Si / 1000 Ang^3
#
#
#
# Elastic Constant Matrix: (Units=GPa)
#
#
# Indices 1 2 3 4 5 6 
#
# 1 161.3601 27.0724 69.3465 -13.2594 4.7102 -2.9451
# 2 27.0724 61.3277 21.9689 -21.9269 7.8661 -1.1792
# 3 69.3465 21.9689 140.6631 -29.1383 -5.4127 -8.5257
# 4 -13.2594 -21.9269 -29.1383 35.2836 -0.1569 1.0989
# 5 4.7102 7.8661 -5.4127 -0.1569 45.9501 -3.2640
# 6 -2.9451 -1.1792 -8.5257 1.0989 -3.2640 32.6114
#
#
#
# Elastic Compliance Matrix: (Units=1/GPa)
#
#
# Indices 1 2 3 4 5 6 
#
# 1 0.008295 -0.002799 -0.004134 -0.002026 -0.000897 -0.000454
# 2 -0.002799 0.022597 0.000481 0.013376 -0.003487 -0.000110
# 3 -0.004134 0.000481 0.010875 0.007659 0.001820 0.002411
# 4 -0.002026 0.013376 0.007659 0.042189 -0.000980 0.000783
# 5 -0.000897 -0.003487 0.001820 -0.000980 0.022847 0.002588
# 6 -0.000454 -0.000110 0.002411 0.000783 0.002588 0.031482
#
#
# Mechanical properties :
#
#
# Convention : Reuss Voigt Hill
#
# Bulk Modulus (GPa) = 34.64772 66.68072 50.66422
# Shear Modulus (GPa) = 31.09277 39.09990 35.09633
#
# Velocity S-wave (km/s) = 3.79400 4.25457 4.03087
# Velocity P-wave (km/s) = 5.93573 7.41655 6.71707
#
# Compressibility (1/GPa) = 0.02886193
#
# Stress axis : x y z
#
# Youngs Moduli (GPa) = 120.55509 44.25453 91.95476
#
# Poissons Ratio (x) = 0.12386 0.38014
# Poissons Ratio (y) = 0.33741 -0.04419
# Poissons Ratio (z) = 0.49838 -0.02127
#
# Static dielectric constant tensor:
#      x y z
#    x 4.490780 -0.187330 0.156360 
#    y -0.187330 3.835580 -0.332480 
#    z 0.156360 -0.332480 4.100030 
# 
# 
# High freq. dielectric constant tensor:
#      x y z
#    x 1.871680 -0.004650 -0.002410 
#    y -0.004650 1.824400 -0.012460 
#    z -0.002410 -0.012460 1.856420 
# 
# From -- ./inp_files/190270.got.cif
#   From: 2010.06.25/outbox.cif.g09.slc.cpg/sg2_96_cif.got.tgz:190270.got - 2010.06.27 13:26:56.
