data_PCOD8019388
_publ_section_title
;
Structure prediction by ZEFSAII (Michael W. Deem and Ramdas Pophale) SiO2 
 PCOD8019388
Probable space group: P -1
;
_chemical_formula_sum "Si O2"
_cell_formula_units_Z 14
_cell_length_a 11.079425
_cell_length_b 10.636025
_cell_length_c 14.336087
_cell_angle_alpha 31.533970
_cell_angle_beta 52.170042
_cell_angle_gamma 73.623874
_cell_volume 567.015887
_symmetry_space_group_name_H-M "P -1"
_symmetry_group_IT_number 2
_symmetry_cell_setting 'triclinic'
loop_
_space_group_symop_operation_xyz
x,y,z
-x,-y,-z
loop_
_atom_site_type_symbol
_atom_site_label
_atom_site_fract_x
_atom_site_fract_y
_atom_site_fract_z
Si Si1 0.642802 0.413039 0.400456
Si Si2 0.987375 0.055593 0.148633
Si Si3 0.561410 0.905386 0.121728
Si Si4 0.079290 0.727635 0.181633
Si Si5 0.061843 0.892683 0.404599
Si Si6 0.705181 0.636060 0.857299
Si Si7 0.682263 0.072649 0.239578
O O1 0.591786 0.646722 0.262303
O O2 0.586337 0.218837 0.644365
O O3 0.538020 0.181997 0.510118
O O4 0.869148 0.599738 0.171102
O O5 0.786851 0.992312 0.314833
O O6 0.964559 0.842183 0.209878
O O7 0.089949 0.042196 0.197940
O O8 0.500000 0.000000 0.000000
O O9 0.759612 0.214161 0.859056
O O10 0.932268 0.384597 0.443773
O O11 0.197803 0.908965 0.919191
O O12 0.861303 0.792452 0.603987
O O13 0.238264 0.123874 0.240629
O O14 0.500000 0.500000 0.000000
O O15 0.708096 0.371829 0.066695
#
# Coordination Sequence:
#
# PCOD8019388 Si02
#       7
#     2   2   2   2   2   2   2
#     4   9  21  39  56  95 137 174 223 274 326 395
#     4  11  22  40  64 102 141 171 214 273 352 411
#     4   9  18  36  61  90 136 189 227 257 321 407
#     4   9  20  40  60 102 137 177 212 266 340 413
#     4  10  23  43  68 100 130 172 233 277 333 409
#     4  10  24  49  70  92 128 178 235 290 334 392
#     4  10  22  41  67  93 135 178 222 276 336 398
#
# _framework density 24.690667999999999
#
# number of rings (size 3 to 8) (size 9 to 14) (size 15 to 20)
#    0.000    2.286    0.000    1.714    2.000    5.143 
#   23.143    4.286    0.000    0.000    0.000    0.000 
#    0.000    0.000    0.000    0.000    0.000    0.000 
#
# Total GULP energy -173441.720052 kJ/mol
# GULP energy per Si atom -12388.694289 kJ/mol
# Density = 2.463447 g / cm^3
# Si number density = 24.690668 Si / 1000 Ang^3
#
#
#
# Elastic Constant Matrix: (Units=GPa)
#
#
# Indices 1 2 3 4 5 6 
#
# 1 119.8111 33.0449 40.6660 -21.8539 -7.7657 3.2261
# 2 33.0449 80.7248 58.6754 -39.0050 -21.0955 7.8829
# 3 40.6660 58.6754 91.2151 -31.3908 -5.5876 14.5202
# 4 -21.8539 -39.0050 -31.3908 38.7511 11.0397 -8.1796
# 5 -7.7657 -21.0955 -5.5876 11.0397 43.1086 -1.9573
# 6 3.2261 7.8829 14.5202 -8.1796 -1.9573 27.0478
#
#
#
# Elastic Compliance Matrix: (Units=1/GPa)
#
#
# Indices 1 2 3 4 5 6 
#
# 1 0.010144 -0.000080 -0.003748 0.002776 0.000670 0.001713
# 2 -0.000080 0.037682 -0.016699 0.022466 0.010761 0.005565
# 3 -0.003748 -0.016699 0.024669 0.001163 -0.006312 -0.008034
# 4 0.002776 0.022466 0.001163 0.053164 -0.001586 0.008460
# 5 0.000670 0.010761 -0.006312 -0.001586 0.028251 0.001737
# 6 0.001713 0.005565 -0.008034 0.008460 0.001737 0.042142
#
#
# Mechanical properties :
#
#
# Convention : Reuss Voigt Hill
#
# Bulk Modulus (GPa) = 31.80530 61.83595 46.82063
# Shear Modulus (GPa) = 20.19506 32.40581 26.30044
#
# Velocity S-wave (km/s) = 2.86304 3.62674 3.26728
# Velocity P-wave (km/s) = 4.88250 6.52964 5.76520
#
# Compressibility (1/GPa) = 0.03144130
#
# Stress axis : x y z
#
# Youngs Moduli (GPa) = 98.58023 26.53776 40.53731
#
# Poissons Ratio (x) = 0.00211 0.15192
# Poissons Ratio (y) = 0.00784 0.67695
# Poissons Ratio (z) = 0.36945 0.44317
#
# Static dielectric constant tensor:
#      x y z
#    x 4.566510 0.180490 -0.318040 
#    y 0.180490 4.240310 -0.109450 
#    z -0.318040 -0.109450 4.633580 
# 
# 
# High freq. dielectric constant tensor:
#      x y z
#    x 1.994790 0.006740 -0.008280 
#    y 0.006740 1.957480 -0.012880 
#    z -0.008280 -0.012880 1.981430 
# 
# From -- ./inp_files/519473.got.cif
#   From: 2010.06.25/outbox.cif.g09.slc.cpg/sg2_260_cif.got.tgz:519473.got - 2010.06.27 13:26:56.
