data_PCOD8019079
_publ_section_title
;
Structure prediction by ZEFSAII (Michael W. Deem and Ramdas Pophale) SiO2 
 PCOD8019079
Probable space group: P -1
;
_chemical_formula_sum "Si O2"
_cell_formula_units_Z 16
_cell_length_a 17.864609
_cell_length_b 20.933246
_cell_length_c 6.856606
_cell_angle_alpha 115.785874
_cell_angle_beta 65.284179
_cell_angle_gamma 160.785002
_cell_volume 759.626512
_symmetry_space_group_name_H-M "P -1"
_symmetry_group_IT_number 2
_symmetry_cell_setting 'triclinic'
loop_
_space_group_symop_operation_xyz
x,y,z
-x,-y,-z
loop_
_atom_site_type_symbol
_atom_site_label
_atom_site_fract_x
_atom_site_fract_y
_atom_site_fract_z
Si Si1 0.294981 0.794631 0.546790
Si Si2 0.949058 0.707971 0.840110
Si Si3 0.190534 0.813476 0.028076
Si Si4 0.499858 0.155283 0.375538
Si Si5 0.876110 0.046849 0.312335
Si Si6 0.047447 0.415393 0.623498
Si Si7 0.552601 0.654286 0.125921
Si Si8 0.626603 0.584825 0.672472
O O1 0.231359 0.779986 0.800247
O O2 0.381100 0.783912 0.481676
O O3 0.082434 0.624243 0.401197
O O4 0.500000 0.000000 0.500000
O O5 0.997242 0.691426 0.591698
O O6 0.681991 0.500288 0.901081
O O7 0.063078 0.774840 0.004310
O O8 0.060413 0.871746 0.864634
O O9 0.041283 0.664792 0.169794
O O10 0.427923 0.035507 0.144919
O O11 0.685310 0.355015 0.340787
O O12 0.278596 0.022109 0.494353
O O13 0.113912 0.229270 0.411771
O O14 0.748796 0.870224 0.200102
O O15 0.509104 0.587557 0.300584
O O16 0.638241 0.662633 0.899411
O O17 0.500000 0.500000 0.500000
#
# Coordination Sequence:
#
# PCOD8019079 Si02
#       8
#     2   2   2   2   2   2   2   2
#     4  11  23  45  66  87 133 174 213 270 321 370
#     4  10  22  41  64  94 131 171 208 269 317 373
#     4  11  24  42  64  93 131 172 218 264 319 369
#     4  12  23  40  66  95 126 170 219 266 318 378
#     4  11  22  43  67  94 133 167 211 262 322 379
#     4  11  23  42  63  91 131 170 217 267 316 374
#     4  10  22  43  67  95 131 166 210 255 323 385
#     4  10  24  43  69  96 130 166 207 262 316 381
#
# _framework density 21.062982000000002
#
# number of rings (size 3 to 8) (size 9 to 14) (size 15 to 20)
#    0.000    1.250    3.750    1.875    1.750    2.000 
#    6.750    0.000    0.000    0.000    0.000    0.000 
#    0.000    0.000    0.000    0.000    0.000    0.000 
#
# Total GULP energy -198440.302945 kJ/mol
# GULP energy per Si atom -12402.518934 kJ/mol
# Density = 2.101504 g / cm^3
# Si number density = 21.062982 Si / 1000 Ang^3
#
#
#
# Elastic Constant Matrix: (Units=GPa)
#
#
# Indices 1 2 3 4 5 6 
#
# 1 131.4257 60.2076 44.0491 -3.0992 19.8825 12.5769
# 2 60.2076 157.5944 53.7764 -7.2011 15.8759 -1.5916
# 3 44.0491 53.7764 78.0095 -15.7397 18.2664 -0.0871
# 4 -3.0992 -7.2011 -15.7397 21.9993 4.0723 -5.9333
# 5 19.8825 15.8759 18.2664 4.0723 33.7305 1.6313
# 6 12.5769 -1.5916 -0.0871 -5.9333 1.6313 44.6527
#
#
#
# Elastic Compliance Matrix: (Units=1/GPa)
#
#
# Indices 1 2 3 4 5 6 
#
# 1 0.010890 -0.002588 -0.004449 -0.003019 -0.002258 -0.003487
# 2 -0.002588 0.008970 -0.004835 -0.000620 -0.000050 0.000959
# 3 -0.004449 -0.004835 0.025100 0.018910 -0.011174 0.004051
# 4 -0.003019 -0.000620 0.018910 0.064082 -0.016389 0.009979
# 5 -0.002258 -0.000050 -0.011174 -0.016389 0.039176 -0.002996
# 6 -0.003487 0.000959 0.004051 0.009979 -0.002996 0.024855
#
#
# Mechanical properties :
#
#
# Convention : Reuss Voigt Hill
#
# Bulk Modulus (GPa) = 47.13205 75.89953 61.51579
# Shear Modulus (GPa) = 24.52314 34.00961 29.26637
#
# Velocity S-wave (km/s) = 3.41585 4.02265 3.73160
# Velocity P-wave (km/s) = 6.16301 7.59529 6.91632
#
# Compressibility (1/GPa) = 0.02121698
#
# Stress axis : x y z
#
# Youngs Moduli (GPa) = 91.82991 111.48044 39.84005
#
# Poissons Ratio (x) = 0.28848 0.17726
# Poissons Ratio (y) = 0.23763 0.19261
# Poissons Ratio (z) = 0.40857 0.53897
#
# Static dielectric constant tensor:
#      x y z
#    x 4.193730 0.112510 0.018870 
#    y 0.112510 3.880000 -0.088460 
#    z 0.018870 -0.088460 3.594950 
# 
# 
# High freq. dielectric constant tensor:
#      x y z
#    x 1.840730 0.005560 0.001110 
#    y 0.005560 1.838770 -0.012010 
#    z 0.001110 -0.012010 1.804310 
# 
# From -- ./inp_files/112472.got.cif
#   From: 2010.06.25/outbox.cif.g09.slc.cpg/sg2_57_cif.got.tgz:112472.got - 2010.06.27 13:26:56.
