data_PCOD8019353
_publ_section_title
;
Structure prediction by ZEFSAII (Michael W. Deem and Ramdas Pophale) SiO2 
 PCOD8019353
Probable space group: P -1
;
_chemical_formula_sum "Si O2"
_cell_formula_units_Z 16
_cell_length_a 22.278331
_cell_length_b 6.785034
_cell_length_c 11.254722
_cell_angle_alpha 58.860204
_cell_angle_beta 28.663765
_cell_angle_gamma 69.683344
_cell_volume 674.524093
_symmetry_space_group_name_H-M "P -1"
_symmetry_group_IT_number 2
_symmetry_cell_setting 'triclinic'
loop_
_space_group_symop_operation_xyz
x,y,z
-x,-y,-z
loop_
_atom_site_type_symbol
_atom_site_label
_atom_site_fract_x
_atom_site_fract_y
_atom_site_fract_z
Si Si1 0.890360 0.753245 0.752205
Si Si2 0.405017 0.250362 0.695577
Si Si3 0.096011 0.835672 0.756355
Si Si4 0.050126 0.541669 0.705110
Si Si5 0.549146 0.660245 0.051625
Si Si6 0.644489 0.103863 0.586732
Si Si7 0.465340 0.141099 0.356835
Si Si8 0.172866 0.325838 0.375128
O O1 0.893913 0.662052 0.639086
O O2 0.922130 0.561589 0.848363
O O3 0.745912 0.766844 0.025949
O O4 0.000000 0.000000 0.500000
O O5 0.500000 0.500000 0.500000
O O6 0.433254 0.207748 0.523021
O O7 0.430127 0.015855 0.788177
O O8 0.101401 0.768272 0.629261
O O9 0.218991 0.789031 0.624115
O O10 0.093395 0.108614 0.664900
O O11 0.975283 0.683156 0.088999
O O12 0.160343 0.543905 0.413440
O O13 0.436189 0.695350 0.326372
O O14 0.517097 0.401296 0.124983
O O15 0.679641 0.686696 0.895664
O O16 0.565643 0.859476 0.861180
O O17 0.657729 0.022266 0.452051
#
# Coordination Sequence:
#
# PCOD8019353 Si02
#       8
#     2   2   2   2   2   2   2   2
#     4  12  26  46  72 102 139 182 233 288 344 409
#     4  11  27  48  68 100 141 179 228 291 348 404
#     4  10  24  45  66  98 136 178 224 289 339 408
#     4  11  25  44  69  95 136 184 227 279 346 408
#     4  10  23  40  67 101 138 173 224 287 341 407
#     4  10  22  41  67 101 135 173 226 284 346 406
#     4  11  23  42  71  98 131 183 229 277 348 417
#     4  11  23  45  68  99 137 179 230 282 345 411
#
# _framework density 23.720426
#
# number of rings (size 3 to 8) (size 9 to 14) (size 15 to 20)
#    0.000    1.250    1.250    3.375    5.250    6.000 
#    6.750    0.000    0.000    0.000    0.000    0.000 
#    0.000    0.000    0.000    0.000    0.000    0.000 
#
# Total GULP energy -198250.738906 kJ/mol
# GULP energy per Si atom -12390.671182 kJ/mol
# Density = 2.366644 g / cm^3
# Si number density = 23.720426 Si / 1000 Ang^3
#
#
#
# Elastic Constant Matrix: (Units=GPa)
#
#
# Indices 1 2 3 4 5 6 
#
# 1 146.7296 50.6676 9.4099 17.1338 -13.0352 21.0284
# 2 50.6676 117.6217 24.0329 7.4796 -2.6475 7.5443
# 3 9.4099 24.0329 53.2493 3.7998 -15.1975 2.7345
# 4 17.1338 7.4796 3.7998 29.6944 -1.3575 9.6663
# 5 -13.0352 -2.6475 -15.1975 -1.3575 28.5033 -2.4522
# 6 21.0284 7.5443 2.7345 9.6663 -2.4522 47.5556
#
#
#
# Elastic Compliance Matrix: (Units=1/GPa)
#
#
# Indices 1 2 3 4 5 6 
#
# 1 0.009202 -0.003829 0.001739 -0.003514 0.004387 -0.002621
# 2 -0.003829 0.011173 -0.005385 -0.000101 -0.003584 0.000066
# 3 0.001739 -0.005385 0.024907 -0.002149 0.013454 -0.000216
# 4 -0.003514 -0.000101 -0.002149 0.037919 -0.001480 -0.006091
# 5 0.004387 -0.003584 0.013454 -0.001480 0.043896 0.000419
# 6 -0.002621 0.000066 -0.000216 -0.006091 0.000419 0.023449
#
#
# Mechanical properties :
#
#
# Convention : Reuss Voigt Hill
#
# Bulk Modulus (GPa) = 32.96780 53.98015 43.47397
# Shear Modulus (GPa) = 28.47296 36.71666 32.59481
#
# Velocity S-wave (km/s) = 3.46837 3.93859 3.71094
# Velocity P-wave (km/s) = 5.47432 6.59466 6.06043
#
# Compressibility (1/GPa) = 0.03033263
#
# Stress axis : x y z
#
# Youngs Moduli (GPa) = 108.67784 89.50154 40.14948
#
# Poissons Ratio (x) = 0.34269 -0.06984
# Poissons Ratio (y) = 0.41611 0.21620
# Poissons Ratio (z) = -0.18904 0.48196
#
# Static dielectric constant tensor:
#      x y z
#    x 4.479370 -0.015870 0.122020 
#    y -0.015870 4.545550 -0.215420 
#    z 0.122020 -0.215420 3.944440 
# 
# 
# High freq. dielectric constant tensor:
#      x y z
#    x 1.959550 0.003390 0.010680 
#    y 0.003390 1.953230 -0.007360 
#    z 0.010680 -0.007360 1.912810 
# 
# From -- ./inp_files/473359.got.cif
#   From: 2010.06.25/outbox.cif.g09.slc.cpg/sg2_237_cif.got.tgz:473359.got - 2010.06.27 13:26:56.
