data_PCOD8019688
_publ_section_title
;
Structure prediction by ZEFSAII (Michael W. Deem and Ramdas Pophale) SiO2 
 PCOD8019688
Probable space group: P -1
;
_chemical_formula_sum "Si O2"
_cell_formula_units_Z 16
_cell_length_a 19.969053
_cell_length_b 8.565143
_cell_length_c 9.379791
_cell_angle_alpha 115.994282
_cell_angle_beta 62.824734
_cell_angle_gamma 149.257480
_cell_volume 725.859363
_symmetry_space_group_name_H-M "P -1"
_symmetry_group_IT_number 2
_symmetry_cell_setting 'triclinic'
loop_
_space_group_symop_operation_xyz
x,y,z
-x,-y,-z
loop_
_atom_site_type_symbol
_atom_site_label
_atom_site_fract_x
_atom_site_fract_y
_atom_site_fract_z
Si Si1 0.873605 0.857882 0.117694
Si Si2 0.408689 0.318729 0.878485
Si Si3 0.732804 0.374487 0.627589
Si Si4 0.030483 0.403655 0.538779
Si Si5 0.373606 0.644304 0.009126
Si Si6 0.792959 0.732245 0.456782
Si Si7 0.500074 0.801167 0.473556
Si Si8 0.115525 0.744867 0.872233
O O1 0.875899 0.846374 0.280778
O O2 0.884193 0.069311 0.128657
O O3 0.739033 0.510581 0.054458
O O4 0.000000 0.000000 0.000000
O O5 0.466602 0.279014 0.707576
O O6 0.253338 0.975113 0.916413
O O7 0.500000 0.500000 0.000000
O O8 0.414313 0.523086 0.890607
O O9 0.863155 0.520273 0.614518
O O10 0.685925 0.436160 0.806456
O O11 0.771709 0.529215 0.499004
O O12 0.608864 0.003428 0.576242
O O13 0.098883 0.579921 0.692537
O O14 0.000000 0.500000 0.500000
O O15 0.887643 0.047741 0.573850
O O16 0.500000 0.000000 0.000000
O O17 0.649490 0.534296 0.466268
O O18 0.500000 0.000000 0.500000
O O19 0.000000 0.500000 0.000000
#
# Coordination Sequence:
#
# PCOD8019688 Si02
#       8
#     2   2   2   2   2   2   2   2
#     4  11  25  45  67 101 141 185 231 288 352 420
#     4  11  24  46  71 104 140 182 236 291 352 420
#     4  11  24  46  72 100 139 187 236 292 348 426
#     4  12  25  45  68 103 142 181 239 289 352 416
#     4  11  26  46  69 104 144 182 236 290 358 419
#     4  11  24  42  72 100 135 184 235 282 353 421
#     4  10  22  41  70 103 138 177 234 290 348 416
#     4  11  27  44  69 104 141 183 235 292 352 425
#
# _framework density 22.042838
#
# number of rings (size 3 to 8) (size 9 to 14) (size 15 to 20)
#    0.000    1.000    2.500    3.375    7.000    3.000 
#    0.000    2.500    0.000    0.000    0.000    0.000 
#    0.000    0.000    0.000    0.000    0.000    0.000 
#
# Total GULP energy -198315.113101 kJ/mol
# GULP energy per Si atom -12394.694569 kJ/mol
# Density = 2.199267 g / cm^3
# Si number density = 22.042838 Si / 1000 Ang^3
#
#
#
# Elastic Constant Matrix: (Units=GPa)
#
#
# Indices 1 2 3 4 5 6 
#
# 1 107.4520 55.9134 46.5302 -3.8011 -11.3474 16.4184
# 2 55.9134 168.8385 40.2031 10.0964 -8.3434 28.5024
# 3 46.5302 40.2031 126.2598 0.7301 -14.0206 -3.3721
# 4 -3.8011 10.0964 0.7301 45.2272 4.1676 6.1683
# 5 -11.3474 -8.3434 -14.0206 4.1676 43.2050 1.7849
# 6 16.4184 28.5024 -3.3721 6.1683 1.7849 35.7100
#
#
#
# Elastic Compliance Matrix: (Units=1/GPa)
#
#
# Indices 1 2 3 4 5 6 
#
# 1 0.013493 -0.002732 -0.004061 0.002322 0.001677 -0.004892
# 2 -0.002732 0.008231 -0.001671 -0.001385 0.000681 -0.005266
# 3 -0.004061 -0.001671 0.010273 -0.000882 0.001855 0.004231
# 4 0.002322 -0.001385 -0.000882 0.023359 -0.002033 -0.003979
# 5 0.001677 0.000681 0.001855 -0.002033 0.024599 -0.002018
# 6 -0.004892 -0.005266 0.004231 -0.003979 -0.002018 0.035643
#
#
# Mechanical properties :
#
#
# Convention : Reuss Voigt Hill
#
# Bulk Modulus (GPa) = 66.35847 76.42708 71.39277
# Shear Modulus (GPa) = 36.35097 42.15533 39.25315
#
# Velocity S-wave (km/s) = 4.06532 4.37788 4.22449
# Velocity P-wave (km/s) = 7.22534 7.76542 7.50024
#
# Compressibility (1/GPa) = 0.01506967
#
# Stress axis : x y z
#
# Youngs Moduli (GPa) = 74.11272 121.49375 97.34458
#
# Poissons Ratio (x) = 0.33189 0.39528
# Poissons Ratio (y) = 0.20246 0.16268
# Poissons Ratio (z) = 0.30094 0.20304
#
# Static dielectric constant tensor:
#      x y z
#    x 3.997740 0.506260 -0.165000 
#    y 0.506260 4.660640 0.243490 
#    z -0.165000 0.243490 4.025010 
# 
# 
# High freq. dielectric constant tensor:
#      x y z
#    x 1.863740 0.026480 -0.006510 
#    y 0.026480 1.888650 0.014390 
#    z -0.006510 0.014390 1.868280 
# 
# From -- ./inp_files/343761.got.cif
#   From: 2010.06.25/outbox.cif.g09.slc.cpg/sg2_172_cif.got.tgz:343761.got - 2010.06.27 13:26:56.
