data_PCOD8019440
_publ_section_title
;
Structure prediction by ZEFSAII (Michael W. Deem and Ramdas Pophale) SiO2 
 PCOD8019440
Probable space group: P -1
;
_chemical_formula_sum "Si O2"
_cell_formula_units_Z 16
_cell_length_a 9.790996
_cell_length_b 11.923646
_cell_length_c 15.023581
_cell_angle_alpha 27.945397
_cell_angle_beta 84.127710
_cell_angle_gamma 94.550613
_cell_volume 761.511532
_symmetry_space_group_name_H-M "P -1"
_symmetry_group_IT_number 2
_symmetry_cell_setting 'triclinic'
loop_
_space_group_symop_operation_xyz
x,y,z
-x,-y,-z
loop_
_atom_site_type_symbol
_atom_site_label
_atom_site_fract_x
_atom_site_fract_y
_atom_site_fract_z
Si Si1 0.451271 0.735212 0.240225
Si Si2 0.731363 0.029801 0.347369
Si Si3 0.218658 0.549499 0.806569
Si Si4 0.777984 0.233210 0.532063
Si Si5 0.487640 0.506343 0.227156
Si Si6 0.995056 0.017314 0.239860
Si Si7 0.541085 0.025752 0.197993
Si Si8 0.855609 0.561451 0.454707
O O1 0.497086 0.540775 0.310848
O O2 0.274804 0.623753 0.343919
O O3 0.532677 0.796906 0.288180
O O4 0.500000 0.000000 0.000000
O O5 0.747666 0.279241 0.227971
O O6 0.888926 0.004465 0.339582
O O7 0.672535 0.065514 0.229065
O O8 0.623946 0.782262 0.581564
O O9 0.193246 0.709927 0.613346
O O10 0.351874 0.451936 0.849093
O O11 0.069690 0.307544 0.998987
O O12 0.806859 0.500069 0.397752
O O13 0.610309 0.043024 0.689311
O O14 0.883706 0.093005 0.658386
O O15 0.427476 0.707319 0.043830
O O16 0.897596 0.856234 0.275890
O O17 0.000000 0.500000 0.500000
#
# Coordination Sequence:
#
# PCOD8019440 Si02
#       8
#     2   2   2   2   2   2   2   2
#     4   9  19  37  64  97 125 156 206 257 317 379
#     4  12  26  42  64  95 126 163 224 263 296 376
#     4  12  26  42  64  92 126 173 218 251 310 377
#     4  10  22  42  67  93 128 164 206 256 320 382
#     4  11  22  41  66  93 126 164 207 265 315 362
#     4  11  24  45  64  90 132 167 203 268 317 365
#     4  10  22  41  67  97 125 162 205 262 321 372
#     4   9  19  38  64  92 127 162 201 256 318 379
#
# _framework density 21.010843999999999
#
# number of rings (size 3 to 8) (size 9 to 14) (size 15 to 20)
#    0.000    1.500    3.750    0.750    1.750    5.000 
#    2.250    0.000    0.000    0.000    0.000    0.000 
#    0.000    0.000    0.000    0.000    0.000    0.000 
#
# Total GULP energy -198382.971618 kJ/mol
# GULP energy per Si atom -12398.935726 kJ/mol
# Density = 2.096302 g / cm^3
# Si number density = 21.010844 Si / 1000 Ang^3
#
#
#
# Elastic Constant Matrix: (Units=GPa)
#
#
# Indices 1 2 3 4 5 6 
#
# 1 58.9715 37.2072 19.3052 -4.3385 -21.3125 -7.1943
# 2 37.2072 140.2929 40.9576 -11.0768 -9.4503 1.2994
# 3 19.3052 40.9576 97.1824 -9.9993 -18.4618 19.9982
# 4 -4.3385 -11.0768 -9.9993 29.2503 2.8758 0.1623
# 5 -21.3125 -9.4503 -18.4618 2.8758 32.3847 0.1579
# 6 -7.1943 1.2994 19.9982 0.1623 0.1579 26.2126
#
#
#
# Elastic Compliance Matrix: (Units=1/GPa)
#
#
# Indices 1 2 3 4 5 6 
#
# 1 0.028155 -0.005908 -0.002156 -0.000381 0.015563 0.009574
# 2 -0.005908 0.009616 -0.003389 0.001917 -0.003187 0.000495
# 3 -0.002156 -0.003389 0.016465 0.003435 0.006737 -0.013047
# 4 -0.000381 0.001917 0.003435 0.036140 -0.000928 -0.003039
# 5 0.015563 -0.003187 0.006737 -0.000928 0.044119 -0.000970
# 6 0.009574 0.000495 -0.013047 -0.003039 -0.000970 0.050731
#
#
# Mechanical properties :
#
#
# Convention : Reuss Voigt Hill
#
# Bulk Modulus (GPa) = 31.91815 54.59856 43.25835
# Shear Modulus (GPa) = 22.87544 30.83463 26.85503
#
# Velocity S-wave (km/s) = 3.30319 3.83503 3.57900
# Velocity P-wave (km/s) = 5.45641 6.75664 6.14103
#
# Compressibility (1/GPa) = 0.03133014
#
# Stress axis : x y z
#
# Youngs Moduli (GPa) = 35.51735 103.98889 60.73661
#
# Poissons Ratio (x) = 0.61438 0.13094
# Poissons Ratio (y) = 0.20984 0.20584
# Poissons Ratio (z) = 0.07657 0.35243
#
# Static dielectric constant tensor:
#      x y z
#    x 3.686490 -0.059200 -0.212200 
#    y -0.059200 4.250360 -0.140680 
#    z -0.212200 -0.140680 3.756670 
# 
# 
# High freq. dielectric constant tensor:
#      x y z
#    x 1.818910 -0.007500 -0.017010 
#    y -0.007500 1.832890 -0.006300 
#    z -0.017010 -0.006300 1.819470 
# 
# From -- ./inp_files/206722.got.cif
#   From: 2010.06.25/outbox.cif.g09.slc.cpg/sg2_104_cif.got.tgz:206722.got - 2010.06.27 13:26:56.
