data_PCOD8019835
_publ_section_title
;
Structure prediction by ZEFSAII (Michael W. Deem and Ramdas Pophale) SiO2 
 PCOD8019835
Probable space group: P -1
;
_chemical_formula_sum "Si O2"
_cell_formula_units_Z 12
_cell_length_a 5.299207
_cell_length_b 11.875229
_cell_length_c 9.566922
_cell_angle_alpha 62.796363
_cell_angle_beta 73.704819
_cell_angle_gamma 71.573675
_cell_volume 501.344288
_symmetry_space_group_name_H-M "P -1"
_symmetry_group_IT_number 2
_symmetry_cell_setting 'triclinic'
loop_
_space_group_symop_operation_xyz
x,y,z
-x,-y,-z
loop_
_atom_site_type_symbol
_atom_site_label
_atom_site_fract_x
_atom_site_fract_y
_atom_site_fract_z
Si Si1 0.903902 0.627348 0.611573
Si Si2 0.265387 0.249772 0.144611
Si Si3 0.906075 0.654479 0.168587
Si Si4 0.774186 0.144881 0.016271
Si Si5 0.237050 0.978222 0.185218
Si Si6 0.436962 0.707169 0.411632
O O1 0.860777 0.718069 0.703315
O O2 0.657654 0.676014 0.518044
O O3 0.903937 0.479813 0.734969
O O4 0.199410 0.627760 0.502770
O O5 0.320273 0.096069 0.185822
O O6 0.089479 0.341132 0.003980
O O7 0.578159 0.257709 0.075319
O O8 0.599641 0.669627 0.263042
O O9 0.019926 0.777684 0.135701
O O10 0.625039 0.078056 0.954498
O O11 0.923334 0.029968 0.161046
O O12 0.288093 0.858876 0.353856
#
# Coordination Sequence:
#
# PCOD8019835 Si02
#       6
#     2   2   2   2   2   2
#     4  12  30  46  70 107 149 184 229 289 361 414
#     4  11  25  44  74 104 139 183 234 301 345 409
#     4  11  25  47  74 101 135 192 243 283 339 423
#     4  10  22  41  77 105 132 182 243 299 333 409
#     4  10  23  42  72 104 136 183 240 287 348 417
#     4  12  27  47  71 104 145 191 227 288 351 427
#
# _framework density 23.935648
#
# number of rings (size 3 to 8) (size 9 to 14) (size 15 to 20)
#    0.000    1.000    1.667    3.000   14.000    2.000 
#    0.000    0.000    0.000    0.000    0.000    0.000 
#    0.000    0.000    0.000    0.000    0.000    0.000 
#
# Total GULP energy -148675.693216 kJ/mol
# GULP energy per Si atom -12389.641101 kJ/mol
# Density = 2.388117 g / cm^3
# Si number density = 23.935648 Si / 1000 Ang^3
#
#
#
# Elastic Constant Matrix: (Units=GPa)
#
#
# Indices 1 2 3 4 5 6 
#
# 1 106.5743 28.1812 32.4871 -19.8027 15.5830 -4.2582
# 2 28.1812 96.0897 24.2923 -16.3991 6.4003 -5.0841
# 3 32.4871 24.2923 59.9237 -18.7000 19.6651 -3.6065
# 4 -19.8027 -16.3991 -18.7000 52.3734 -15.2132 8.0816
# 5 15.5830 6.4003 19.6651 -15.2132 39.2096 -1.2076
# 6 -4.2582 -5.0841 -3.6065 8.0816 -1.2076 27.4653
#
#
#
# Elastic Compliance Matrix: (Units=1/GPa)
#
#
# Indices 1 2 3 4 5 6 
#
# 1 0.011838 -0.001890 -0.004625 0.001789 -0.001374 0.000291
# 2 -0.001890 0.012201 -0.003695 0.002060 0.001441 0.000937
# 3 -0.004625 -0.003695 0.024569 0.003299 -0.008586 0.000477
# 4 0.001789 0.002060 0.003299 0.024401 0.006587 -0.005798
# 5 -0.001374 0.001441 -0.008586 0.006587 0.032628 -0.001577
# 6 0.000291 0.000937 0.000477 -0.005798 -0.001577 0.038328
#
#
# Mechanical properties :
#
#
# Convention : Reuss Voigt Hill
#
# Bulk Modulus (GPa) = 35.47679 48.05655 41.76667
# Shear Modulus (GPa) = 28.77200 35.65147 32.21173
#
# Velocity S-wave (km/s) = 3.47083 3.86355 3.67245
# Velocity P-wave (km/s) = 5.56023 6.32643 5.95566
#
# Compressibility (1/GPa) = 0.02818744
#
# Stress axis : x y z
#
# Youngs Moduli (GPa) = 84.47632 81.96308 40.70163
#
# Poissons Ratio (x) = 0.15494 0.18824
# Poissons Ratio (y) = 0.15969 0.15038
# Poissons Ratio (z) = 0.39069 0.30283
#
# Static dielectric constant tensor:
#      x y z
#    x 4.501330 -0.232050 -0.017320 
#    y -0.232050 4.253840 -0.173920 
#    z -0.017320 -0.173920 4.271940 
# 
# 
# High freq. dielectric constant tensor:
#      x y z
#    x 1.962750 -0.011160 0.008560 
#    y -0.011160 1.947470 -0.020000 
#    z 0.008560 -0.020000 1.935700 
# 
# From -- ./inp_files/20260.got.cif
#   From: 2010.06.25/outbox.cif.g09.slc.cpg/sg2_11_cif.got.tgz:20260.got - 2010.06.27 13:26:56.
