data_PCOD8019528
_publ_section_title
;
Structure prediction by ZEFSAII (Michael W. Deem and Ramdas Pophale) SiO2 
 PCOD8019528
Probable space group: P -1
;
_chemical_formula_sum "Si O2"
_cell_formula_units_Z 14
_cell_length_a 10.643835
_cell_length_b 8.206236
_cell_length_c 15.019206
_cell_angle_alpha 127.131036
_cell_angle_beta 49.085036
_cell_angle_gamma 90.491567
_cell_volume 605.997558
_symmetry_space_group_name_H-M "P -1"
_symmetry_group_IT_number 2
_symmetry_cell_setting 'triclinic'
loop_
_space_group_symop_operation_xyz
x,y,z
-x,-y,-z
loop_
_atom_site_type_symbol
_atom_site_label
_atom_site_fract_x
_atom_site_fract_y
_atom_site_fract_z
Si Si1 0.435487 0.300833 0.203853
Si Si2 0.357108 0.343354 0.536843
Si Si3 0.424018 0.832470 0.292353
Si Si4 0.176220 0.876507 0.722455
Si Si5 0.911212 0.143732 0.437331
Si Si6 0.591037 0.146679 0.890917
Si Si7 0.726556 0.419529 0.159575
O O1 0.186052 0.550391 0.420155
O O2 0.467112 0.042764 0.126704
O O3 0.583990 0.325311 0.207250
O O4 0.494326 0.328714 0.083929
O O5 0.189350 0.622126 0.652716
O O6 0.608746 0.200685 0.359510
O O7 0.295951 0.410362 0.691025
O O8 0.334951 0.133709 0.440191
O O9 0.208190 0.875157 0.431811
O O10 0.634492 0.621777 0.185577
O O11 0.507681 0.716061 0.114028
O O12 0.154740 0.929372 0.644533
O O13 0.974091 0.152611 0.950951
O O14 0.163269 0.976848 0.273587
#
# Coordination Sequence:
#
# PCOD8019528 Si02
#       7
#     2   2   2   2   2   2   2
#     4  10  22  41  68  94 131 175 222 276 316 388
#     4  11  24  45  66  97 135 171 229 266 324 398
#     4  11  25  43  67 101 140 173 211 278 335 393
#     4  11  23  42  71  92 131 181 218 273 320 390
#     4  11  22  43  66  95 136 175 216 270 335 389
#     4  11  23  43  66  97 133 171 228 267 327 393
#     4  11  23  44  66  99 136 170 219 272 336 386
#
# _framework density 23.102404
#
# number of rings (size 3 to 8) (size 9 to 14) (size 15 to 20)
#    0.000    1.143    4.286    2.571    2.000    2.857 
#    2.571    0.000    0.000    0.000    0.000    0.000 
#    0.000    0.000    0.000    0.000    0.000    0.000 
#
# Total GULP energy -173495.094261 kJ/mol
# GULP energy per Si atom -12392.506733 kJ/mol
# Density = 2.304982 g / cm^3
# Si number density = 23.102404 Si / 1000 Ang^3
#
#
#
# Elastic Constant Matrix: (Units=GPa)
#
#
# Indices 1 2 3 4 5 6 
#
# 1 95.2732 37.1170 13.6805 0.8852 21.0141 4.0963
# 2 37.1170 92.4853 7.1504 -4.8055 -0.3875 -8.5027
# 3 13.6805 7.1504 115.6643 6.2064 -20.8613 -15.8721
# 4 0.8852 -4.8055 6.2064 38.3230 -2.9508 12.5845
# 5 21.0141 -0.3875 -20.8613 -2.9508 32.1497 3.2363
# 6 4.0963 -8.5027 -15.8721 12.5845 3.2363 42.7855
#
#
#
# Elastic Compliance Matrix: (Units=1/GPa)
#
#
# Indices 1 2 3 4 5 6 
#
# 1 0.017049 -0.006894 -0.004550 -0.000435 -0.013865 -0.003513
# 2 -0.006894 0.013849 0.001294 0.001048 0.005288 0.003184
# 3 -0.004550 0.001294 0.011706 -0.002523 0.009847 0.005032
# 4 -0.000435 0.001048 -0.002523 0.030011 0.002391 -0.009694
# 5 -0.013865 0.005288 0.009847 0.002391 0.046659 0.001799
# 6 -0.003513 0.003184 0.005032 -0.009694 0.001799 0.028924
#
#
# Mechanical properties :
#
#
# Convention : Reuss Voigt Hill
#
# Bulk Modulus (GPa) = 44.83720 46.59098 45.71409
# Shear Modulus (GPa) = 28.42024 39.01663 33.71843
#
# Velocity S-wave (km/s) = 3.51120 4.11403 3.82451
# Velocity P-wave (km/s) = 5.99068 6.54048 6.27161
#
# Compressibility (1/GPa) = 0.02230291
#
# Stress axis : x y z
#
# Youngs Moduli (GPa) = 58.65617 72.20952 85.42764
#
# Poissons Ratio (x) = 0.49781 0.38867
# Poissons Ratio (y) = 0.40438 -0.11052
# Poissons Ratio (z) = 0.26687 -0.09342
#
# Static dielectric constant tensor:
#      x y z
#    x 4.064990 -0.116260 0.271210 
#    y -0.116260 4.255060 -0.033420 
#    z 0.271210 -0.033420 4.319300 
# 
# 
# High freq. dielectric constant tensor:
#      x y z
#    x 1.904580 -0.005900 0.019510 
#    y -0.005900 1.915060 -0.000010 
#    z 0.019510 -0.000010 1.921350 
# 
# From -- ./inp_files/256587.got.cif
#   From: 2010.06.25/outbox.cif.g09.slc.cpg/sg2_129_cif.got.tgz:256587.got - 2010.06.27 13:26:56.
