data_PCOD8019333
_publ_section_title
;
Structure prediction by ZEFSAII (Michael W. Deem and Ramdas Pophale) SiO2 
 PCOD8019333
Probable space group: P -1
;
_chemical_formula_sum "Si O2"
_cell_formula_units_Z 16
_cell_length_a 8.491147
_cell_length_b 14.366766
_cell_length_c 15.186318
_cell_angle_alpha 28.538912
_cell_angle_beta 127.147266
_cell_angle_gamma 128.209848
_cell_volume 686.368814
_symmetry_space_group_name_H-M "P -1"
_symmetry_group_IT_number 2
_symmetry_cell_setting 'triclinic'
loop_
_space_group_symop_operation_xyz
x,y,z
-x,-y,-z
loop_
_atom_site_type_symbol
_atom_site_label
_atom_site_fract_x
_atom_site_fract_y
_atom_site_fract_z
Si Si1 0.664945 0.386307 0.122224
Si Si2 0.700098 0.946222 0.725390
Si Si3 0.416071 0.961846 0.216722
Si Si4 0.953690 0.296620 0.424295
Si Si5 0.314961 0.609185 0.341327
Si Si6 0.907955 0.725042 0.839390
Si Si7 0.763989 0.782993 0.557629
Si Si8 0.323887 0.681687 0.087660
O O1 0.545308 0.153005 0.273033
O O2 0.856175 0.432861 0.213654
O O3 0.500000 0.500000 0.000000
O O4 0.771407 0.491409 0.980540
O O5 0.827795 0.812840 0.828182
O O6 0.749885 0.988484 0.811107
O O7 0.759666 0.162018 0.520042
O O8 0.319323 0.770082 0.285192
O O9 0.598890 0.911083 0.378906
O O10 0.480353 0.161195 0.013868
O O11 0.107819 0.437017 0.426406
O O12 0.077027 0.169873 0.509978
O O13 0.500000 0.500000 0.500000
O O14 0.310088 0.724091 0.151882
O O15 0.880191 0.840230 0.643408
O O16 0.139827 0.728843 0.930338
O O17 0.656511 0.547254 0.721402
#
# Coordination Sequence:
#
# PCOD8019333 Si02
#       8
#     2   2   2   2   2   2   2   2
#     4  10  22  41  66  98 140 181 219 276 355 416
#     4  11  27  41  65 102 143 180 226 276 356 426
#     4  12  26  44  70 106 138 184 234 286 342 417
#     4  11  23  44  68  97 137 182 229 285 343 408
#     4  11  23  49  74 100 134 182 241 295 339 391
#     4  11  23  43  68  99 143 183 221 293 349 416
#     4  11  24  41  71 107 138 179 235 287 348 407
#     4  11  23  45  74 100 134 179 239 290 344 400
#
# _framework density 23.311081999999999
#
# number of rings (size 3 to 8) (size 9 to 14) (size 15 to 20)
#    0.000    1.000    5.000    2.625    7.000    1.500 
#    0.000    0.625    0.000    0.000    0.000    0.000 
#    0.000    0.000    0.000    0.000    0.000    0.000 
#
# Total GULP energy -198215.024358 kJ/mol
# GULP energy per Si atom -12388.439022 kJ/mol
# Density = 2.325802 g / cm^3
# Si number density = 23.311082 Si / 1000 Ang^3
#
#
#
# Elastic Constant Matrix: (Units=GPa)
#
#
# Indices 1 2 3 4 5 6 
#
# 1 86.6142 49.5676 16.9066 -3.3018 -23.6171 -20.0700
# 2 49.5676 111.4618 23.9727 -4.1688 -9.3147 -18.6321
# 3 16.9066 23.9727 68.7998 6.0660 -20.7376 0.7913
# 4 -3.3018 -4.1688 6.0660 29.1617 4.0377 -0.0667
# 5 -23.6171 -9.3147 -20.7376 4.0377 46.8931 -2.1329
# 6 -20.0700 -18.6321 0.7913 -0.0667 -2.1329 40.0636
#
#
#
# Elastic Compliance Matrix: (Units=1/GPa)
#
#
# Indices 1 2 3 4 5 6 
#
# 1 0.019423 -0.006755 0.000163 -0.000007 0.008834 0.007055
# 2 -0.006755 0.013136 -0.003938 0.002300 -0.002611 0.002668
# 3 0.000163 -0.003938 0.018792 -0.005567 0.008012 -0.001703
# 4 -0.000007 0.002300 -0.005567 0.036487 -0.005106 0.000965
# 5 0.008834 -0.002611 0.008012 -0.005106 0.029448 0.004612
# 6 0.007055 0.002668 -0.001703 0.000965 0.004612 0.030016
#
#
# Mechanical properties :
#
#
# Convention : Reuss Voigt Hill
#
# Bulk Modulus (GPa) = 33.01190 49.75218 41.38204
# Shear Modulus (GPa) = 28.01754 34.98560 31.50157
#
# Velocity S-wave (km/s) = 3.47060 3.87824 3.68007
# Velocity P-wave (km/s) = 5.50021 6.43765 5.98731
#
# Compressibility (1/GPa) = 0.03029211
#
# Stress axis : x y z
#
# Youngs Moduli (GPa) = 51.48601 76.12423 53.21304
#
# Poissons Ratio (x) = 0.51423 -0.00868
# Poissons Ratio (y) = 0.34779 0.20954
# Poissons Ratio (z) = -0.00840 0.29975
#
# Static dielectric constant tensor:
#      x y z
#    x 4.155760 0.016310 -0.485850 
#    y 0.016310 4.587640 -0.272460 
#    z -0.485850 -0.272460 4.369110 
# 
# 
# High freq. dielectric constant tensor:
#      x y z
#    x 1.916810 -0.006020 -0.019790 
#    y -0.006020 1.921170 -0.018700 
#    z -0.019790 -0.018700 1.925770 
# 
# From -- ./inp_files/505174.got.cif
#   From: 2010.06.25/outbox.cif.g09.slc.cpg/sg2_253_cif.got.tgz:505174.got - 2010.06.27 13:26:56.
