data_PCOD8019683
_publ_section_title
;
Structure prediction by ZEFSAII (Michael W. Deem and Ramdas Pophale) SiO2 
 PCOD8019683
Probable space group: P -1
;
_chemical_formula_sum "Si O2"
_cell_formula_units_Z 16
_cell_length_a 8.520249
_cell_length_b 9.590086
_cell_length_c 20.777044
_cell_angle_alpha 151.818291
_cell_angle_beta 120.327156
_cell_angle_gamma 60.022590
_cell_volume 685.819312
_symmetry_space_group_name_H-M "P -1"
_symmetry_group_IT_number 2
_symmetry_cell_setting 'triclinic'
loop_
_space_group_symop_operation_xyz
x,y,z
-x,-y,-z
loop_
_atom_site_type_symbol
_atom_site_label
_atom_site_fract_x
_atom_site_fract_y
_atom_site_fract_z
Si Si1 0.478991 0.797117 0.520249
Si Si2 0.830408 0.332817 0.380620
Si Si3 0.903605 0.353496 0.657972
Si Si4 0.472368 0.568212 0.221446
Si Si5 0.229720 0.164998 0.081802
Si Si6 0.584462 0.409917 0.049875
Si Si7 0.134783 0.711774 0.777939
Si Si8 0.220281 0.060561 0.676005
O O1 0.636428 0.523627 0.434474
O O2 0.301916 0.727972 0.415602
O O3 0.571684 0.080589 0.627966
O O4 0.403372 0.861685 0.604081
O O5 0.846170 0.212486 0.262264
O O6 0.000000 0.500000 0.500000
O O7 0.841203 0.047642 0.312245
O O8 0.917397 0.599400 0.817171
O O9 0.960762 0.527218 0.676414
O O10 0.052526 0.063883 0.590313
O O11 0.381107 0.347580 0.157318
O O12 0.429934 0.503268 0.111142
O O13 0.690858 0.506643 0.250273
O O14 0.334569 0.936435 0.063413
O O15 0.123575 0.011357 0.940752
O O16 0.750594 0.600068 0.171066
O O17 0.500000 0.500000 0.000000
#
# Coordination Sequence:
#
# PCOD8019683 Si02
#       8
#     2   2   2   2   2   2   2   2
#     4  11  25  47  74  99 138 193 235 281 357 420
#     4  12  29  46  71 104 146 179 233 297 357 412
#     4  12  24  45  75  99 141 188 239 286 342 428
#     4  10  23  43  70 101 139 183 243 282 341 419
#     4  11  24  43  71 103 138 186 239 282 351 416
#     4  10  22  41  70 101 142 181 233 290 355 410
#     4  11  23  45  68 102 139 184 229 296 340 416
#     4  11  25  46  67 107 141 183 234 292 346 419
#
# _framework density 23.329761999999999
#
# number of rings (size 3 to 8) (size 9 to 14) (size 15 to 20)
#    0.000    1.000    3.750    4.125    8.750    1.000 
#    2.250    0.625    0.000    0.000    0.000    0.000 
#    0.000    0.000    0.000    0.000    0.000    0.000 
#
# Total GULP energy -198304.635344 kJ/mol
# GULP energy per Si atom -12394.039709 kJ/mol
# Density = 2.327666 g / cm^3
# Si number density = 23.329762 Si / 1000 Ang^3
#
#
#
# Elastic Constant Matrix: (Units=GPa)
#
#
# Indices 1 2 3 4 5 6 
#
# 1 106.0592 47.0848 23.3851 7.5355 15.2687 12.1191
# 2 47.0848 118.0400 18.8577 -6.9010 13.6360 33.1096
# 3 23.3851 18.8577 55.4868 3.1327 17.1488 18.6881
# 4 7.5355 -6.9010 3.1327 37.9653 9.8149 4.2277
# 5 15.2687 13.6360 17.1488 9.8149 34.6293 0.4756
# 6 12.1191 33.1096 18.6881 4.2277 0.4756 46.1317
#
#
#
# Elastic Compliance Matrix: (Units=1/GPa)
#
#
# Indices 1 2 3 4 5 6 
#
# 1 0.012661 -0.005162 -0.003945 -0.003192 -0.000723 0.002277
# 2 -0.005162 0.014059 0.002335 0.006071 -0.005998 -0.010175
# 3 -0.003945 0.002335 0.026727 0.003745 -0.013317 -0.011673
# 4 -0.003192 0.006071 0.003745 0.031664 -0.011705 -0.007817
# 5 -0.000723 -0.005998 -0.013317 -0.011705 0.041325 0.010536
# 6 0.002277 -0.010175 -0.011673 -0.007817 0.010536 0.033718
#
#
# Mechanical properties :
#
#
# Convention : Reuss Voigt Hill
#
# Bulk Modulus (GPa) = 25.06008 50.91570 37.98789
# Shear Modulus (GPa) = 26.73811 36.42915 31.58363
#
# Velocity S-wave (km/s) = 3.38907 3.95585 3.68338
# Velocity P-wave (km/s) = 5.10680 6.53734 5.86584
#
# Compressibility (1/GPa) = 0.03990411
#
# Stress axis : x y z
#
# Youngs Moduli (GPa) = 78.98413 71.12631 37.41552
#
# Poissons Ratio (x) = 0.36714 0.14760
# Poissons Ratio (y) = 0.40770 -0.08737
# Poissons Ratio (z) = 0.31158 -0.16609
#
# Static dielectric constant tensor:
#      x y z
#    x 4.354000 0.402890 -0.180230 
#    y 0.402890 4.319630 -0.213700 
#    z -0.180230 -0.213700 4.624240 
# 
# 
# High freq. dielectric constant tensor:
#      x y z
#    x 1.929930 0.021120 0.004300 
#    y 0.021120 1.902860 0.002230 
#    z 0.004300 0.002230 1.939980 
# 
# From -- ./inp_files/588290.got.cif
#   From: 2010.06.25/outbox.cif.g09.slc.cpg/sg2_295_cif.got.tgz:588290.got - 2010.06.27 13:26:56.
