data_PCOD8019337
_publ_section_title
;
Structure prediction by ZEFSAII (Michael W. Deem and Ramdas Pophale) SiO2 
 PCOD8019337
Probable space group: P -1
;
_chemical_formula_sum "Si O2"
_cell_formula_units_Z 16
_cell_length_a 10.910062
_cell_length_b 5.513677
_cell_length_c 17.336067
_cell_angle_alpha 105.172044
_cell_angle_beta 124.010879
_cell_angle_gamma 52.238035
_cell_volume 678.180747
_symmetry_space_group_name_H-M "P -1"
_symmetry_group_IT_number 2
_symmetry_cell_setting 'triclinic'
loop_
_space_group_symop_operation_xyz
x,y,z
-x,-y,-z
loop_
_atom_site_type_symbol
_atom_site_label
_atom_site_fract_x
_atom_site_fract_y
_atom_site_fract_z
Si Si1 0.069912 0.187799 0.459302
Si Si2 0.122282 0.471215 0.892297
Si Si3 0.960845 0.871025 0.725810
Si Si4 0.625783 0.344689 0.958378
Si Si5 0.297630 0.895286 0.814014
Si Si6 0.658316 0.339798 0.761475
Si Si7 0.270028 0.823214 0.635112
Si Si8 0.233250 0.213982 0.129318
O O1 0.000000 0.500000 0.500000
O O2 0.914139 0.138620 0.409181
O O3 0.111313 0.186727 0.383376
O O4 0.253528 0.947893 0.553102
O O5 0.283692 0.121927 0.894376
O O6 0.200778 0.648036 0.970543
O O7 0.007923 0.614869 0.784685
O O8 0.982339 0.512375 0.912666
O O9 0.795851 0.205800 0.726270
O O10 0.141407 0.851648 0.774760
O O11 0.705027 0.980339 0.946182
O O12 0.495316 0.559897 0.859207
O O13 0.500000 0.500000 0.000000
O O14 0.280517 0.007810 0.727979
O O15 0.454263 0.476479 0.672221
O O16 0.718189 0.063321 0.818418
O O17 0.660545 0.628903 0.815968
#
# Coordination Sequence:
#
# PCOD8019337 Si02
#       8
#     2   2   2   2   2   2   2   2
#     4  10  22  41  66  99 131 174 221 280 339 406
#     4  11  23  42  65  93 134 182 222 281 340 400
#     4  10  22  42  64  96 133 174 226 273 342 400
#     4  12  25  40  65 103 129 179 233 283 337 402
#     4  11  21  42  64  95 132 176 227 281 334 403
#     4  11  24  45  71 100 134 186 223 279 340 406
#     4  10  23  39  67  96 134 169 228 270 344 390
#     4  11  26  46  67  99 140 183 227 278 343 403
#
# _framework density 23.592528000000001
#
# number of rings (size 3 to 8) (size 9 to 14) (size 15 to 20)
#    0.000    1.250    3.750    1.500    3.500    1.500 
#    0.000    3.125    0.000    0.000    0.000    0.000 
#    0.000    0.000    0.000    0.000    0.000    0.000 
#
# Total GULP energy -198211.103119 kJ/mol
# GULP energy per Si atom -12388.193945 kJ/mol
# Density = 2.353883 g / cm^3
# Si number density = 23.592528 Si / 1000 Ang^3
#
#
#
# Elastic Constant Matrix: (Units=GPa)
#
#
# Indices 1 2 3 4 5 6 
#
# 1 64.2088 4.0403 16.6347 -0.3423 -7.8475 -12.1944
# 2 4.0403 95.8584 14.2078 18.8547 1.3260 -16.0322
# 3 16.6347 14.2078 95.4628 11.6219 -11.9779 -11.8392
# 4 -0.3423 18.8547 11.6219 37.2800 -11.7156 3.1438
# 5 -7.8475 1.3260 -11.9779 -11.7156 25.2665 1.3780
# 6 -12.1944 -16.0322 -11.8392 3.1438 1.3780 41.1196
#
#
#
# Elastic Compliance Matrix: (Units=1/GPa)
#
#
# Indices 1 2 3 4 5 6 
#
# 1 0.017588 -0.000249 -0.002124 0.002262 0.005291 0.004157
# 2 -0.000249 0.013311 -0.000865 -0.008683 -0.005524 0.005716
# 3 -0.002124 -0.000865 0.012062 -0.002339 0.003881 0.002555
# 4 0.002262 -0.008683 -0.002339 0.038258 0.018166 -0.006922
# 5 0.005291 -0.005524 0.003881 0.018166 0.051916 -0.002596
# 6 0.004157 0.005716 0.002555 -0.006922 -0.002596 0.029132
#
#
# Mechanical properties :
#
#
# Convention : Reuss Voigt Hill
#
# Bulk Modulus (GPa) = 27.40761 36.14393 31.77577
# Shear Modulus (GPa) = 27.63873 35.44305 31.54089
#
# Velocity S-wave (km/s) = 3.42644 3.88016 3.66033
# Velocity P-wave (km/s) = 5.22458 5.95210 5.60017
#
# Compressibility (1/GPa) = 0.03648621
#
# Stress axis : x y z
#
# Youngs Moduli (GPa) = 56.85601 75.12608 82.90164
#
# Poissons Ratio (x) = 0.01874 0.17605
# Poissons Ratio (y) = 0.01418 0.07169
# Poissons Ratio (z) = 0.12074 0.06497
#
# Static dielectric constant tensor:
#      x y z
#    x 4.361750 -0.437730 -0.296520 
#    y -0.437730 4.496170 -0.170060 
#    z -0.296520 -0.170060 4.953940 
# 
# 
# High freq. dielectric constant tensor:
#      x y z
#    x 1.935550 -0.022870 -0.014030 
#    y -0.022870 1.933870 -0.004130 
#    z -0.014030 -0.004130 1.938170 
# 
# From -- ./inp_files/37608.got.cif
#   From: 2010.06.25/outbox.cif.g09.slc.cpg/sg2_19_cif.got.tgz:37608.got - 2010.06.27 13:26:56.
