data_PCOD8019143
_publ_section_title
;
Structure prediction by ZEFSAII (Michael W. Deem and Ramdas Pophale) SiO2 
 PCOD8019143
Probable space group: P -1
;
_chemical_formula_sum "Si O2"
_cell_formula_units_Z 14
_cell_length_a 8.613729
_cell_length_b 20.014156
_cell_length_c 7.777785
_cell_angle_alpha 57.385532
_cell_angle_beta 145.642064
_cell_angle_gamma 123.174136
_cell_volume 622.490178
_symmetry_space_group_name_H-M "P -1"
_symmetry_group_IT_number 2
_symmetry_cell_setting 'triclinic'
loop_
_space_group_symop_operation_xyz
x,y,z
-x,-y,-z
loop_
_atom_site_type_symbol
_atom_site_label
_atom_site_fract_x
_atom_site_fract_y
_atom_site_fract_z
Si Si1 0.200687 0.416337 0.032366
Si Si2 0.886748 0.755104 0.717355
Si Si3 0.628685 0.094006 0.502746
Si Si4 0.778839 0.818509 0.162461
Si Si5 0.371411 0.788628 0.379661
Si Si6 0.717134 0.511111 0.523940
Si Si7 0.085713 0.328403 0.690591
O O1 0.180312 0.341193 0.251042
O O2 0.503820 0.478088 0.219489
O O3 0.182083 0.379568 0.877627
O O4 0.953317 0.457909 0.817874
O O5 0.839359 0.802359 0.438033
O O6 0.674673 0.771017 0.647952
O O7 0.195356 0.784151 0.046294
O O8 0.573821 0.122493 0.606724
O O9 0.962501 0.110923 0.759280
O O10 0.500000 0.000000 0.500000
O O11 0.498406 0.145395 0.167900
O O12 0.738496 0.737229 0.121584
O O13 0.227975 0.722529 0.484438
O O14 0.500000 0.500000 0.500000
O O15 0.887117 0.603964 0.527842
#
# Coordination Sequence:
#
# PCOD8019143 Si02
#       7
#     2   2   2   2   2   2   2
#     4  11  23  40  60  85 121 165 205 258 308 359
#     4  11  22  42  64  94 126 162 212 256 307 366
#     4  11  23  43  66  95 127 163 204 249 307 377
#     4  11  24  41  67  94 123 164 206 257 307 366
#     4  10  22  41  65  90 124 167 205 255 309 374
#     4  12  25  39  58  88 123 161 207 265 310 350
#     4  10  23  40  62  88 120 164 213 250 305 374
#
# _framework density 22.490314999999999
#
# number of rings (size 3 to 8) (size 9 to 14) (size 15 to 20)
#    0.000    1.143    0.000    7.714    0.000    6.857 
#    0.000    4.286    0.000    0.000    0.000    0.000 
#    0.000    0.000    0.000    0.000    0.000    0.000 
#
# Total GULP energy -173484.253091 kJ/mol
# GULP energy per Si atom -12391.732364 kJ/mol
# Density = 2.243913 g / cm^3
# Si number density = 22.490315 Si / 1000 Ang^3
#
#
#
# Elastic Constant Matrix: (Units=GPa)
#
#
# Indices 1 2 3 4 5 6 
#
# 1 50.3223 23.1018 -6.3589 -20.1131 -7.5297 -4.6555
# 2 23.1018 118.8852 7.6562 -12.1844 -5.2394 -16.9101
# 3 -6.3589 7.6562 65.7514 -6.5039 2.0664 0.4584
# 4 -20.1131 -12.1844 -6.5039 29.0705 1.5990 -1.7373
# 5 -7.5297 -5.2394 2.0664 1.5990 36.8115 -1.3705
# 6 -4.6555 -16.9101 0.4584 -1.7373 -1.3705 18.8128
#
#
#
# Elastic Compliance Matrix: (Units=1/GPa)
#
#
# Indices 1 2 3 4 5 6 
#
# 1 0.032483 -0.003034 0.005514 0.022607 0.005206 0.007644
# 2 -0.003034 0.010723 -0.001390 0.002570 0.001216 0.009248
# 3 0.005514 -0.001390 0.016602 0.006983 -0.000293 0.000334
# 4 0.022607 0.002570 0.006983 0.053296 0.002762 0.012858
# 5 0.005206 0.001216 -0.000293 0.002762 0.028475 0.004718
# 6 0.007644 0.009248 0.000334 0.012858 0.004718 0.064882
#
#
# Mechanical properties :
#
#
# Convention : Reuss Voigt Hill
#
# Bulk Modulus (GPa) = 16.13226 31.52858 23.83042
# Shear Modulus (GPa) = 22.22779 30.97628 26.60203
#
# Velocity S-wave (km/s) = 3.14718 3.71525 3.44295
# Velocity P-wave (km/s) = 4.51607 5.69678 5.14043
#
# Compressibility (1/GPa) = 0.06198758
#
# Stress axis : x y z
#
# Youngs Moduli (GPa) = 30.78528 93.25855 60.23532
#
# Poissons Ratio (x) = 0.28290 -0.33214
# Poissons Ratio (y) = 0.09339 0.08375
# Poissons Ratio (z) = -0.16975 0.12967
#
# Static dielectric constant tensor:
#      x y z
#    x 4.083740 -0.063630 0.016990 
#    y -0.063630 4.372720 0.167330 
#    z 0.016990 0.167330 4.037160 
# 
# 
# High freq. dielectric constant tensor:
#      x y z
#    x 1.891350 -0.010560 0.003570 
#    y -0.010560 1.882030 0.011100 
#    z 0.003570 0.011100 1.888650 
# 
# From -- ./inp_files/83005.got.cif
#   From: 2010.06.25/outbox.cif.g09.slc.cpg/sg2_42_cif.got.tgz:83005.got - 2010.06.27 13:26:56.
