data_PCOD8019331
_publ_section_title
;
Structure prediction by ZEFSAII (Michael W. Deem and Ramdas Pophale) SiO2 
 PCOD8019331
Probable space group: P -1
;
_chemical_formula_sum "Si O2"
_cell_formula_units_Z 16
_cell_length_a 15.761682
_cell_length_b 14.268905
_cell_length_c 6.318695
_cell_angle_alpha 69.373275
_cell_angle_beta 137.113434
_cell_angle_gamma 133.303807
_cell_volume 670.625186
_symmetry_space_group_name_H-M "P -1"
_symmetry_group_IT_number 2
_symmetry_cell_setting 'triclinic'
loop_
_space_group_symop_operation_xyz
x,y,z
-x,-y,-z
loop_
_atom_site_type_symbol
_atom_site_label
_atom_site_fract_x
_atom_site_fract_y
_atom_site_fract_z
Si Si1 0.675830 0.187011 0.349098
Si Si2 0.044667 0.698704 0.549953
Si Si3 0.658129 0.905925 0.202907
Si Si4 0.988699 0.132809 0.885629
Si Si5 0.344947 0.289046 0.423606
Si Si6 0.809411 0.095596 0.967974
Si Si7 0.167283 0.544023 0.375447
Si Si8 0.588923 0.486692 0.362280
O O1 0.795384 0.263545 0.304107
O O2 0.699521 0.096948 0.593197
O O3 0.703690 0.297087 0.467776
O O4 0.483506 0.089311 0.993412
O O5 0.957032 0.728112 0.206592
O O6 0.899891 0.540578 0.461877
O O7 0.106228 0.782592 0.812660
O O8 0.587197 0.756592 0.246041
O O9 0.825318 0.014052 0.553074
O O10 0.697855 0.949158 0.993824
O O11 0.955035 0.116391 0.088843
O O12 0.151403 0.151097 0.122557
O O13 0.452597 0.349221 0.357488
O O14 0.332376 0.389425 0.434059
O O15 0.264448 0.510371 0.445988
O O16 0.000000 0.500000 0.000000
O O17 0.500000 0.500000 0.000000
#
# Coordination Sequence:
#
# PCOD8019331 Si02
#       8
#     2   2   2   2   2   2   2   2
#     4  11  24  41  66  99 140 179 223 282 343 407
#     4  10  22  41  66  98 136 176 220 280 343 405
#     4  11  25  41  65  99 132 182 231 278 335 400
#     4  10  23  42  67  94 136 179 228 277 335 403
#     4  11  25  45  71  98 138 180 227 280 339 405
#     4  10  22  42  65  96 134 180 223 281 334 401
#     4  12  24  42  73 104 134 177 227 282 346 408
#     4  11  26  47  72 101 141 179 225 283 348 412
#
# _framework density 23.858333999999999
#
# number of rings (size 3 to 8) (size 9 to 14) (size 15 to 20)
#    0.000    1.250    1.250    3.375    3.500   10.000 
#    0.000    0.000    0.000    0.000    0.000    0.000 
#    0.000    0.000    0.000    0.000    0.000    0.000 
#
# Total GULP energy -198322.613626 kJ/mol
# GULP energy per Si atom -12395.163352 kJ/mol
# Density = 2.380403 g / cm^3
# Si number density = 23.858334 Si / 1000 Ang^3
#
#
#
# Elastic Constant Matrix: (Units=GPa)
#
#
# Indices 1 2 3 4 5 6 
#
# 1 159.9971 56.8344 56.5445 -23.7433 16.9800 30.4406
# 2 56.8344 126.2849 32.3602 -39.4034 3.4214 32.8862
# 3 56.5445 32.3602 90.6746 -8.3756 22.9685 17.2622
# 4 -23.7433 -39.4034 -8.3756 35.0701 -0.4283 -5.0057
# 5 16.9800 3.4214 22.9685 -0.4283 39.4455 -1.5552
# 6 30.4406 32.8862 17.2622 -5.0057 -1.5552 40.9001
#
#
#
# Elastic Compliance Matrix: (Units=1/GPa)
#
#
# Indices 1 2 3 4 5 6 
#
# 1 0.009576 -0.000903 -0.004006 0.003875 -0.001839 -0.004306
# 2 -0.000903 0.016282 -0.001911 0.015843 -0.000120 -0.009678
# 3 -0.004006 -0.001911 0.016660 -0.001404 -0.007944 -0.002987
# 4 0.003875 0.015843 -0.001404 0.047246 -0.002079 -0.009327
# 5 -0.001839 -0.000120 -0.007944 -0.002079 0.030983 0.005742
# 6 -0.004306 -0.009678 -0.002987 -0.009327 0.005742 0.035774
#
#
# Mechanical properties :
#
#
# Convention : Reuss Voigt Hill
#
# Bulk Modulus (GPa) = 34.62921 74.27054 54.44987
# Shear Modulus (GPa) = 27.81087 38.49765 33.15426
#
# Velocity S-wave (km/s) = 3.41789 4.02131 3.73182
# Velocity P-wave (km/s) = 5.48835 7.26352 6.43742
#
# Compressibility (1/GPa) = 0.02887736
#
# Stress axis : x y z
#
# Youngs Moduli (GPa) = 104.42753 61.41912 60.02526
#
# Poissons Ratio (x) = 0.05546 0.24045
# Poissons Ratio (y) = 0.09430 0.11472
# Poissons Ratio (z) = 0.41832 0.11738
#
# Static dielectric constant tensor:
#      x y z
#    x 4.410930 0.110390 0.139430 
#    y 0.110390 4.832580 -0.375320 
#    z 0.139430 -0.375320 4.235620 
# 
# 
# High freq. dielectric constant tensor:
#      x y z
#    x 1.947920 0.009560 0.010620 
#    y 0.009560 1.959750 -0.012440 
#    z 0.010620 -0.012440 1.943020 
# 
# From -- ./inp_files/98010.got.cif
#   From: 2010.06.25/outbox.cif.g09.slc.cpg/sg2_50_cif.got.tgz:98010.got - 2010.06.27 13:26:56.
