data_PCOD8019563
_publ_section_title
;
Structure prediction by ZEFSAII (Michael W. Deem and Ramdas Pophale) SiO2 
 PCOD8019563
Probable space group: P -1
;
_chemical_formula_sum "Si O2"
_cell_formula_units_Z 14
_cell_length_a 11.314862
_cell_length_b 14.709026
_cell_length_c 8.922890
_cell_angle_alpha 116.057536
_cell_angle_beta 70.098586
_cell_angle_gamma 53.267428
_cell_volume 583.910700
_symmetry_space_group_name_H-M "P -1"
_symmetry_group_IT_number 2
_symmetry_cell_setting 'triclinic'
loop_
_space_group_symop_operation_xyz
x,y,z
-x,-y,-z
loop_
_atom_site_type_symbol
_atom_site_label
_atom_site_fract_x
_atom_site_fract_y
_atom_site_fract_z
Si Si1 0.255067 0.519664 0.727608
Si Si2 0.046769 0.724803 0.666622
Si Si3 0.366146 0.934121 0.679904
Si Si4 0.799509 0.702072 0.127744
Si Si5 0.222425 0.400637 0.238483
Si Si6 0.066464 0.827865 0.191382
Si Si7 0.815193 0.027678 0.760613
O O1 0.443020 0.290125 0.498992
O O2 0.277025 0.552432 0.573602
O O3 0.297402 0.577506 0.876253
O O4 0.937527 0.709674 0.023983
O O5 0.100241 0.600951 0.429617
O O6 0.024621 0.845238 0.669696
O O7 0.759157 0.918639 0.016762
O O8 0.524195 0.907030 0.493781
O O9 0.147655 0.027374 0.745994
O O10 0.741814 0.669463 0.991016
O O11 0.000000 0.500000 0.000000
O O12 0.000000 0.500000 0.500000
O O13 0.518872 0.190926 0.035133
O O14 0.211585 0.832522 0.129127
O O15 0.928244 0.906206 0.466479
#
# Coordination Sequence:
#
# PCOD8019563 Si02
#       7
#     2   2   2   2   2   2   2
#     4  10  22  43  67  99 136 181 223 275 329 398
#     4  11  25  41  68 100 138 174 220 276 345 383
#     4  10  22  44  67  99 138 182 225 272 325 412
#     4  10  22  41  68  97 136 174 229 269 328 406
#     4  12  25  46  67 103 138 173 218 284 340 397
#     4  10  24  45  70  98 133 182 230 272 337 395
#     4  11  26  45  67 103 137 173 229 282 331 407
#
# _framework density 23.97627
#
# number of rings (size 3 to 8) (size 9 to 14) (size 15 to 20)
#    0.000    1.429    2.857    0.857    6.000    7.429 
#    0.000    7.143    0.000    0.000    0.000    0.000 
#    0.000    0.000    0.000    0.000    0.000    0.000 
#
# Total GULP energy -173490.004231 kJ/mol
# GULP energy per Si atom -12392.143159 kJ/mol
# Density = 2.392170 g / cm^3
# Si number density = 23.976270 Si / 1000 Ang^3
#
#
#
# Elastic Constant Matrix: (Units=GPa)
#
#
# Indices 1 2 3 4 5 6 
#
# 1 74.0901 15.8078 8.5484 -12.7876 13.9858 -0.7510
# 2 15.8078 110.1493 13.1407 -7.0630 -2.2290 6.0829
# 3 8.5484 13.1407 64.5621 -15.4233 12.8746 -1.8228
# 4 -12.7876 -7.0630 -15.4233 28.3648 -4.2363 3.2570
# 5 13.9858 -2.2290 12.8746 -4.2363 46.4945 5.1907
# 6 -0.7510 6.0829 -1.8228 3.2570 5.1907 31.2421
#
#
#
# Elastic Compliance Matrix: (Units=1/GPa)
#
#
# Indices 1 2 3 4 5 6 
#
# 1 0.015812 -0.002108 0.000768 0.006224 -0.004609 0.000952
# 2 -0.002108 0.009861 -0.001956 0.001035 0.002025 -0.002529
# 3 0.000768 -0.001956 0.019026 0.009318 -0.004895 0.001351
# 4 0.006224 0.001035 0.009318 0.043862 0.000050 -0.004089
# 5 -0.004609 0.002025 -0.004895 0.000050 0.024902 -0.004933
# 6 0.000952 -0.002529 0.001351 -0.004089 -0.004933 0.033848
#
#
# Mechanical properties :
#
#
# Convention : Reuss Voigt Hill
#
# Bulk Modulus (GPa) = 26.24127 35.97725 31.10926
# Shear Modulus (GPa) = 30.01098 35.30727 32.65913
#
# Velocity S-wave (km/s) = 3.54177 3.84160 3.69473
# Velocity P-wave (km/s) = 5.26250 5.89195 5.58610
#
# Compressibility (1/GPa) = 0.03810791
#
# Stress axis : x y z
#
# Youngs Moduli (GPa) = 63.24288 101.40533 52.56045
#
# Poissons Ratio (x) = 0.21373 -0.04038
# Poissons Ratio (y) = 0.13329 0.10282
# Poissons Ratio (z) = -0.04858 0.19837
#
# Static dielectric constant tensor:
#      x y z
#    x 4.044560 0.259840 -0.063470 
#    y 0.259840 4.368070 0.068950 
#    z -0.063470 0.068950 4.655500 
# 
# 
# High freq. dielectric constant tensor:
#      x y z
#    x 1.931340 0.010040 0.017800 
#    y 0.010040 1.961590 0.002990 
#    z 0.017800 0.002990 1.972820 
# 
# From -- ./inp_files/270623.got.cif
#   From: 2010.06.25/outbox.cif.g09.slc.cpg/sg2_136_cif.got.tgz:270623.got - 2010.06.27 13:26:56.
