data_PCOD8019162
_publ_section_title
;
Structure prediction by ZEFSAII (Michael W. Deem and Ramdas Pophale) SiO2 
 PCOD8019162
Probable space group: P -1
;
_chemical_formula_sum "Si O2"
_cell_formula_units_Z 14
_cell_length_a 8.604981
_cell_length_b 5.116474
_cell_length_c 20.996049
_cell_angle_alpha 89.187090
_cell_angle_beta 142.302489
_cell_angle_gamma 88.715390
_cell_volume 564.348423
_symmetry_space_group_name_H-M "P -1"
_symmetry_group_IT_number 2
_symmetry_cell_setting 'triclinic'
loop_
_space_group_symop_operation_xyz
x,y,z
-x,-y,-z
loop_
_atom_site_type_symbol
_atom_site_label
_atom_site_fract_x
_atom_site_fract_y
_atom_site_fract_z
Si Si1 0.704629 0.239376 0.362866
Si Si2 0.650592 0.240583 0.570116
Si Si3 0.753325 0.443007 0.843396
Si Si4 0.685129 0.418121 0.960415
Si Si5 0.985743 0.727870 0.416183
Si Si6 0.053019 0.749138 0.213928
Si Si7 0.715908 0.249376 0.104641
O O1 0.419104 0.337115 0.251696
O O2 0.895870 0.434391 0.391387
O O3 0.765960 0.243269 0.458178
O O4 0.757295 0.941205 0.357172
O O5 0.500000 0.500000 0.500000
O O6 0.699230 0.247376 0.661122
O O7 0.928247 0.224270 0.627834
O O8 0.500000 0.000000 0.500000
O O9 0.615012 0.343565 0.864215
O O10 0.830434 0.209123 0.819456
O O11 0.012404 0.573367 0.944962
O O12 0.526773 0.690422 0.927395
O O13 0.618592 0.224951 0.998710
O O14 0.914406 0.477557 0.173571
O O15 0.854749 0.979262 0.170873
#
# Coordination Sequence:
#
# PCOD8019162 Si02
#       7
#     2   2   2   2   2   2   2
#     4  10  22  41  65  92 132 168 218 273 333 397
#     4  12  25  42  68  98 135 175 226 279 333 404
#     4  10  22  41  67 101 134 178 221 281 335 395
#     4   9  22  42  68  98 136 176 227 282 333 393
#     4  10  23  41  63  95 126 173 218 272 329 397
#     4  11  25  42  69  98 133 180 224 270 345 397
#     4  10  23  45  66  95 135 177 226 277 329 407
#
# _framework density 24.807372000000001
#
# number of rings (size 3 to 8) (size 9 to 14) (size 15 to 20)
#    0.000    1.714    0.000    2.571    4.000   11.429 
#    0.000    5.714    0.000    0.000    0.000    0.000 
#    0.000    0.000    0.000    0.000    0.000    0.000 
#
# Total GULP energy -173486.447148 kJ/mol
# GULP energy per Si atom -12391.889082 kJ/mol
# Density = 2.475091 g / cm^3
# Si number density = 24.807372 Si / 1000 Ang^3
#
#
#
# Elastic Constant Matrix: (Units=GPa)
#
#
# Indices 1 2 3 4 5 6 
#
# 1 111.7634 0.5571 33.6958 1.4573 -6.7503 -15.9976
# 2 0.5571 96.7649 30.6999 -9.4565 0.6078 -10.6900
# 3 33.6958 30.6999 135.4044 -14.0172 -0.9085 -22.9932
# 4 1.4573 -9.4565 -14.0172 34.6982 -10.0891 6.2498
# 5 -6.7503 0.6078 -0.9085 -10.0891 39.1826 -3.3617
# 6 -15.9976 -10.6900 -22.9932 6.2498 -3.3617 23.8215
#
#
#
# Elastic Compliance Matrix: (Units=1/GPa)
#
#
# Indices 1 2 3 4 5 6 
#
# 1 0.010578 0.001100 -0.001941 -0.001523 0.001917 0.006394
# 2 0.001100 0.011558 -0.002102 0.001835 0.000736 0.003520
# 3 -0.001941 -0.002102 0.009750 0.002587 0.001161 0.006649
# 4 -0.001523 0.001835 0.002587 0.033729 0.007989 -0.005424
# 5 0.001917 0.000736 0.001161 0.007989 0.028322 0.004639
# 6 0.006394 0.003520 0.006649 -0.005424 0.004639 0.056348
#
#
# Mechanical properties :
#
#
# Convention : Reuss Voigt Hill
#
# Bulk Modulus (GPa) = 38.45970 52.64868 45.55419
# Shear Modulus (GPa) = 30.33304 38.13911 34.23608
#
# Velocity S-wave (km/s) = 3.50057 3.92524 3.71897
# Velocity P-wave (km/s) = 5.64585 6.46625 6.06993
#
# Compressibility (1/GPa) = 0.02600124
#
# Stress axis : x y z
#
# Youngs Moduli (GPa) = 94.53562 86.51763 102.56922
#
# Poissons Ratio (x) = -0.09520 0.19907
# Poissons Ratio (y) = -0.10403 0.21559
# Poissons Ratio (z) = 0.18348 0.18185
#
# Static dielectric constant tensor:
#      x y z
#    x 4.737510 -0.119190 -0.234290 
#    y -0.119190 3.996920 -0.071340 
#    z -0.234290 -0.071340 4.735020 
# 
# 
# High freq. dielectric constant tensor:
#      x y z
#    x 1.993780 -0.014750 -0.000080 
#    y -0.014750 1.965530 -0.004800 
#    z -0.000080 -0.004800 2.000280 
# 
# From -- ./inp_files/548143.got.cif
#   From: 2010.06.25/outbox.cif.g09.slc.cpg/sg2_275_cif.got.tgz:548143.got - 2010.06.27 13:26:56.
