data_PCOD8019989
_publ_section_title
;
Structure prediction by ZEFSAII (Michael W. Deem and Ramdas Pophale) SiO2 
 PCOD8019989
Probable space group: P -1
;
_chemical_formula_sum "Si O2"
_cell_formula_units_Z 14
_cell_length_a 9.536433
_cell_length_b 15.088082
_cell_length_c 6.368561
_cell_angle_alpha 87.238021
_cell_angle_beta 46.360536
_cell_angle_gamma 95.322896
_cell_volume 652.244764
_symmetry_space_group_name_H-M "P -1"
_symmetry_group_IT_number 2
_symmetry_cell_setting 'triclinic'
loop_
_space_group_symop_operation_xyz
x,y,z
-x,-y,-z
loop_
_atom_site_type_symbol
_atom_site_label
_atom_site_fract_x
_atom_site_fract_y
_atom_site_fract_z
Si Si1 0.712658 0.290458 0.715377
Si Si2 0.959385 0.888518 0.257859
Si Si3 0.049163 0.614495 0.206056
Si Si4 0.717034 0.483831 0.766425
Si Si5 0.294827 0.190663 0.083358
Si Si6 0.007813 0.262419 0.092404
Si Si7 0.693463 0.969276 0.215410
O O1 0.842591 0.293830 0.795412
O O2 0.718942 0.395363 0.628382
O O3 0.811610 0.238374 0.438980
O O4 0.489945 0.240975 0.993075
O O5 0.869836 0.851999 0.576097
O O6 0.810778 0.946765 0.301636
O O7 0.994410 0.809601 0.077760
O O8 0.171466 0.951557 0.066804
O O9 0.193531 0.539622 0.093485
O O10 0.843619 0.574509 0.534220
O O11 0.998826 0.640104 0.018606
O O12 0.500000 0.500000 0.000000
O O13 0.202425 0.263945 0.032904
O O14 0.359069 0.115644 0.874604
O O15 0.500000 0.000000 0.500000
#
# Coordination Sequence:
#
# PCOD8019989 Si02
#       7
#     2   2   2   2   2   2   2
#     4  10  23  38  63  91 123 161 209 253 314 365
#     4  10  23  40  63  91 127 164 203 256 304 366
#     4   9  22  41  63  86 124 166 204 256 311 365
#     4   9  21  41  65  86 123 165 207 253 314 367
#     4  11  24  39  65  96 123 166 206 255 312 363
#     4  11  23  39  62  92 126 160 213 253 309 363
#     4  10  22  42  64  91 127 161 208 250 306 367
#
# _framework density 21.464335999999999
#
# number of rings (size 3 to 8) (size 9 to 14) (size 15 to 20)
#    0.857    1.143    0.000    2.143    4.000    6.857 
#    0.000    1.429    0.000    0.000    0.000    0.000 
#    0.000    0.000    0.000    0.000    0.000    0.000 
#
# Total GULP energy -173461.189619 kJ/mol
# GULP energy per Si atom -12390.084973 kJ/mol
# Density = 2.141548 g / cm^3
# Si number density = 21.464336 Si / 1000 Ang^3
#
#
#
# Elastic Constant Matrix: (Units=GPa)
#
#
# Indices 1 2 3 4 5 6 
#
# 1 112.0412 43.3044 71.9942 -12.4349 -23.0267 -6.4690
# 2 43.3044 48.7710 43.7276 -2.9805 -10.2715 -3.5009
# 3 71.9942 43.7276 121.0571 -2.1071 -17.4093 -11.3271
# 4 -12.4349 -2.9805 -2.1071 43.2368 -0.7801 -6.3751
# 5 -23.0267 -10.2715 -17.4093 -0.7801 40.6184 -4.3394
# 6 -6.4690 -3.5009 -11.3271 -6.3751 -4.3394 36.6514
#
#
#
# Elastic Compliance Matrix: (Units=1/GPa)
#
#
# Indices 1 2 3 4 5 6 
#
# 1 0.018406 -0.008689 -0.006744 0.004737 0.005632 0.001825
# 2 -0.008689 0.034939 -0.007412 -0.000513 0.000670 -0.000497
# 3 -0.006744 -0.007412 0.015351 -0.001275 0.001152 0.002760
# 4 0.004737 -0.000513 -0.001275 0.025206 0.003042 0.005137
# 5 0.005632 0.000670 0.001152 0.003042 0.029110 0.005390
# 6 0.001825 -0.000497 0.002760 0.005137 0.005390 0.029944
#
#
# Mechanical properties :
#
#
# Convention : Reuss Voigt Hill
#
# Bulk Modulus (GPa) = 43.47031 66.65796 55.06414
# Shear Modulus (GPa) = 24.23492 32.29086 28.26289
#
# Velocity S-wave (km/s) = 3.36382 3.88286 3.63262
# Velocity P-wave (km/s) = 5.94839 7.15715 6.58058
#
# Compressibility (1/GPa) = 0.02300420
#
# Stress axis : x y z
#
# Youngs Moduli (GPa) = 54.32957 28.62151 65.14392
#
# Poissons Ratio (x) = 0.24870 0.43936
# Poissons Ratio (y) = 0.47209 0.48284
# Poissons Ratio (z) = 0.36642 0.21214
#
# Static dielectric constant tensor:
#      x y z
#    x 3.970090 -0.203290 -0.011500 
#    y -0.203290 4.042590 -0.112130 
#    z -0.011500 -0.112130 3.650980 
# 
# 
# High freq. dielectric constant tensor:
#      x y z
#    x 1.841750 -0.010250 -0.012830 
#    y -0.010250 1.843220 0.000400 
#    z -0.012830 0.000400 1.829770 
# 
# From -- ./inp_files/44012.got.cif
#   From: 2010.06.25/outbox.cif.g09.slc.cpg/sg2_23_cif.got.tgz:44012.got - 2010.06.27 13:26:56.
