data_PCOD8019711
_publ_section_title
;
Structure prediction by ZEFSAII (Michael W. Deem and Ramdas Pophale) SiO2 
 PCOD8019711
Probable space group: P -1
;
_chemical_formula_sum "Si O2"
_cell_formula_units_Z 14
_cell_length_a 19.178138
_cell_length_b 9.471905
_cell_length_c 9.116380
_cell_angle_alpha 58.338383
_cell_angle_beta 113.132411
_cell_angle_gamma 152.482963
_cell_volume 640.013062
_symmetry_space_group_name_H-M "P -1"
_symmetry_group_IT_number 2
_symmetry_cell_setting 'triclinic'
loop_
_space_group_symop_operation_xyz
x,y,z
-x,-y,-z
loop_
_atom_site_type_symbol
_atom_site_label
_atom_site_fract_x
_atom_site_fract_y
_atom_site_fract_z
Si Si1 0.750505 0.770818 0.427177
Si Si2 0.408972 0.028584 0.491201
Si Si3 0.499156 0.873861 0.791305
Si Si4 0.770145 0.781775 0.905522
Si Si5 0.961157 0.233993 0.086248
Si Si6 0.214619 0.445381 0.202916
Si Si7 0.821086 0.145615 0.518214
O O1 0.567085 0.411639 0.466113
O O2 0.822903 0.756938 0.588176
O O3 0.820609 0.904372 0.250345
O O4 0.794867 0.030272 0.395342
O O5 0.398346 0.016673 0.311482
O O6 0.396657 0.817529 0.654595
O O7 0.260570 0.833444 0.543744
O O8 0.609731 0.159884 0.850892
O O9 0.385932 0.528170 0.961535
O O10 0.806919 0.680079 0.906051
O O11 0.739372 0.865317 0.716036
O O12 0.912351 0.106958 0.947523
O O13 0.108399 0.403780 0.153117
O O14 0.000000 0.500000 0.000000
O O15 0.000000 0.500000 0.500000
#
# Coordination Sequence:
#
# PCOD8019711 Si02
#       7
#     2   2   2   2   2   2   2
#     4  10  22  44  63  92 124 179 215 254 328 386
#     4  10  22  42  67  95 130 166 219 266 319 390
#     4  10  22  41  70  97 122 175 219 266 320 381
#     4  11  24  44  63  98 130 171 217 260 332 379
#     4  12  25  40  63  97 135 169 216 268 322 376
#     4  10  24  42  67  92 132 170 216 267 319 391
#     4  11  25  41  65  96 133 170 213 267 324 380
#
# _framework density 21.874554
#
# number of rings (size 3 to 8) (size 9 to 14) (size 15 to 20)
#    0.000    1.429    1.429    2.571    4.000    6.286 
#    0.000    0.000    0.000    0.000    0.000    0.000 
#    0.000    0.000    0.000    0.000    0.000    0.000 
#
# Total GULP energy -173665.596845 kJ/mol
# GULP energy per Si atom -12404.685489 kJ/mol
# Density = 2.182477 g / cm^3
# Si number density = 21.874554 Si / 1000 Ang^3
#
#
#
# Elastic Constant Matrix: (Units=GPa)
#
#
# Indices 1 2 3 4 5 6 
#
# 1 123.8690 33.3227 15.3413 11.0611 3.0113 0.9842
# 2 33.3227 104.7763 17.9034 7.9055 -5.7922 -16.5996
# 3 15.3413 17.9034 65.5942 1.5026 -9.5814 -1.6701
# 4 11.0611 7.9055 1.5026 35.1785 -5.1399 -6.4791
# 5 3.0113 -5.7922 -9.5814 -5.1399 22.1865 2.4787
# 6 0.9842 -16.5996 -1.6701 -6.4791 2.4787 39.8237
#
#
#
# Elastic Compliance Matrix: (Units=1/GPa)
#
#
# Indices 1 2 3 4 5 6 
#
# 1 0.009465 -0.002933 -0.001882 -0.003065 -0.003369 -0.001824
# 2 -0.002933 0.011718 -0.002103 -0.000481 0.001916 0.004671
# 3 -0.001882 -0.002103 0.017321 0.001361 0.007541 -0.000351
# 4 -0.003065 -0.000481 0.001361 0.031397 0.007642 0.004565
# 5 -0.003369 0.001916 0.007541 0.007642 0.051140 -0.000742
# 6 -0.001824 0.004671 -0.000351 0.004565 -0.000742 0.027877
#
#
# Mechanical properties :
#
#
# Convention : Reuss Voigt Hill
#
# Bulk Modulus (GPa) = 40.53498 47.48604 44.01051
# Shear Modulus (GPa) = 29.24384 34.61587 31.92985
#
# Velocity S-wave (km/s) = 3.66032 3.98235 3.82472
# Velocity P-wave (km/s) = 6.03612 6.54988 6.29824
#
# Compressibility (1/GPa) = 0.02467005
#
# Stress axis : x y z
#
# Youngs Moduli (GPa) = 105.65097 85.33541 57.73450
#
# Poissons Ratio (x) = 0.25027 0.10864
# Poissons Ratio (y) = 0.30985 0.12140
# Poissons Ratio (z) = 0.19880 0.17944
#
# Static dielectric constant tensor:
#      x y z
#    x 3.835410 -0.256710 -0.089580 
#    y -0.256710 3.854010 0.116480 
#    z -0.089580 0.116480 4.001960 
# 
# 
# High freq. dielectric constant tensor:
#      x y z
#    x 1.853100 -0.015810 -0.008010 
#    y -0.015810 1.866920 0.003070 
#    z -0.008010 0.003070 1.861540 
# 
# From -- ./inp_files/156665.got.cif
#   From: 2010.06.25/outbox.cif.g09.slc.cpg/sg2_79_cif.got.tgz:156665.got - 2010.06.27 13:26:56.
