data_PCOD8019532
_publ_section_title
;
Structure prediction by ZEFSAII (Michael W. Deem and Ramdas Pophale) SiO2 
 PCOD8019532
Probable space group: P -1
;
_chemical_formula_sum "Si O2"
_cell_formula_units_Z 16
_cell_length_a 11.448246
_cell_length_b 14.052971
_cell_length_c 11.910328
_cell_angle_alpha 119.231867
_cell_angle_beta 100.652378
_cell_angle_gamma 32.214201
_cell_volume 776.643787
_symmetry_space_group_name_H-M "P -1"
_symmetry_group_IT_number 2
_symmetry_cell_setting 'triclinic'
loop_
_space_group_symop_operation_xyz
x,y,z
-x,-y,-z
loop_
_atom_site_type_symbol
_atom_site_label
_atom_site_fract_x
_atom_site_fract_y
_atom_site_fract_z
Si Si1 0.204390 0.926325 0.512795
Si Si2 0.390337 0.135957 0.307124
Si Si3 0.625720 0.586033 0.210602
Si Si4 0.941202 0.925963 0.983704
Si Si5 0.015111 0.703748 0.441395
Si Si6 0.417221 0.807975 0.718380
Si Si7 0.861803 0.592059 0.370152
Si Si8 0.309916 0.968398 0.216647
O O1 0.443393 0.707319 0.351570
O O2 0.287126 0.858091 0.617257
O O3 0.000000 0.000000 0.500000
O O4 0.073427 0.146948 0.588107
O O5 0.556964 0.081055 0.227826
O O6 0.371203 0.207333 0.467900
O O7 0.106035 0.350001 0.336679
O O8 0.489590 0.930700 0.209594
O O9 0.782152 0.570052 0.250294
O O10 0.473030 0.733512 0.153569
O O11 0.804859 0.337970 0.080930
O O12 0.824839 0.953043 0.876592
O O13 0.746944 0.085314 0.141960
O O14 0.000000 0.000000 0.000000
O O15 0.313768 0.464972 0.371903
O O16 0.919844 0.661247 0.363264
O O17 0.899475 0.833313 0.613948
#
# Coordination Sequence:
#
# PCOD8019532 Si02
#       8
#     2   2   2   2   2   2   2   2
#     4  11  25  40  67  98 126 160 221 269 307 369
#     4   9  17  36  67  98 128 153 207 264 321 375
#     4  11  23  43  68  94 127 167 212 261 318 377
#     4  12  29  45  61  85 131 184 216 248 313 382
#     4   9  22  40  69 101 125 159 209 266 322 371
#     4  11  24  42  65  93 130 169 206 268 313 367
#     4   9  16  35  68 100 126 156 200 265 326 376
#     4  10  22  41  68  95 125 167 208 257 323 378
#
# _framework density 20.601464
#
# number of rings (size 3 to 8) (size 9 to 14) (size 15 to 20)
#    0.000    1.750    2.500    1.500    7.000    4.000 
#    0.000    0.625    0.000    0.000    0.000    0.000 
#    0.000    0.000    0.000    0.000    0.000    0.000 
#
# Total GULP energy -198416.801029 kJ/mol
# GULP energy per Si atom -12401.050064 kJ/mol
# Density = 2.055457 g / cm^3
# Si number density = 20.601464 Si / 1000 Ang^3
#
#
#
# Elastic Constant Matrix: (Units=GPa)
#
#
# Indices 1 2 3 4 5 6 
#
# 1 118.6691 29.4574 45.7747 14.1232 -13.0743 9.3334
# 2 29.4574 79.7186 40.1245 23.2016 -7.6389 8.0333
# 3 45.7747 40.1245 67.7838 10.8693 -15.6758 4.5059
# 4 14.1232 23.2016 10.8693 27.6401 5.1213 6.4554
# 5 -13.0743 -7.6389 -15.6758 5.1213 24.3527 1.7792
# 6 9.3334 8.0333 4.5059 6.4554 1.7792 34.5947
#
#
#
# Elastic Compliance Matrix: (Units=1/GPa)
#
#
# Indices 1 2 3 4 5 6 
#
# 1 0.011920 0.000837 -0.007019 -0.004180 0.003160 -0.001879
# 2 0.000837 0.022573 -0.010301 -0.015800 0.004324 -0.001400
# 3 -0.007019 -0.010301 0.028420 -0.001124 0.011516 0.000201
# 4 -0.004180 -0.015800 -0.001124 0.056718 -0.019512 -0.004637
# 5 0.003160 0.004324 0.011516 -0.019512 0.055821 -0.002587
# 6 -0.001879 -0.001400 0.000201 -0.004637 -0.002587 0.030710
#
#
# Mechanical properties :
#
#
# Convention : Reuss Voigt Hill
#
# Bulk Modulus (GPa) = 33.39146 55.20941 44.30043
# Shear Modulus (GPa) = 20.07132 27.37182 23.72157
#
# Velocity S-wave (km/s) = 3.12471 3.64900 3.39698
# Velocity P-wave (km/s) = 5.40943 6.67911 6.07752
#
# Compressibility (1/GPa) = 0.02994778
#
# Stress axis : x y z
#
# Youngs Moduli (GPa) = 83.89337 44.29980 35.18601
#
# Poissons Ratio (x) = -0.03707 0.24697
# Poissons Ratio (y) = -0.07021 0.36245
# Poissons Ratio (z) = 0.58885 0.45632
#
# Static dielectric constant tensor:
#      x y z
#    x 3.870760 0.169190 0.036490 
#    y 0.169190 3.976760 0.095440 
#    z 0.036490 0.095440 3.426870 
# 
# 
# High freq. dielectric constant tensor:
#      x y z
#    x 1.815390 0.006750 0.003240 
#    y 0.006750 1.817450 0.001840 
#    z 0.003240 0.001840 1.771520 
# 
# From -- ./inp_files/255937.got.cif
#   From: 2010.06.25/outbox.cif.g09.slc.cpg/sg2_128_cif.got.tgz:255937.got - 2010.06.27 13:26:56.
