data_PCOD8019617
_publ_section_title
;
Structure prediction by ZEFSAII (Michael W. Deem and Ramdas Pophale) SiO2 
 PCOD8019617
Probable space group: P -1
;
_chemical_formula_sum "Si O2"
_cell_formula_units_Z 14
_cell_length_a 25.667148
_cell_length_b 25.203388
_cell_length_c 14.807684
_cell_angle_alpha 157.504944
_cell_angle_beta 159.378539
_cell_angle_gamma 11.241358
_cell_volume 655.205800
_symmetry_space_group_name_H-M "P -1"
_symmetry_group_IT_number 2
_symmetry_cell_setting 'triclinic'
loop_
_space_group_symop_operation_xyz
x,y,z
-x,-y,-z
loop_
_atom_site_type_symbol
_atom_site_label
_atom_site_fract_x
_atom_site_fract_y
_atom_site_fract_z
Si Si1 0.138206 0.297734 0.282452
Si Si2 0.549615 0.461193 0.778933
Si Si3 0.580160 0.728771 0.168314
Si Si4 0.808549 0.740801 0.904522
Si Si5 0.180969 0.190220 0.667359
Si Si6 0.797034 0.289955 0.102445
Si Si7 0.892379 0.919028 0.446246
O O1 0.314630 0.285529 0.590308
O O2 0.143929 0.301797 0.191512
O O3 0.805770 0.573994 0.210101
O O4 0.274425 0.043115 0.137599
O O5 0.226647 0.685565 0.641456
O O6 0.697261 0.213016 0.576754
O O7 0.533483 0.603285 0.908402
O O8 0.751491 0.337386 0.996337
O O9 0.052843 0.445671 0.883475
O O10 0.486814 0.948368 0.732274
O O11 0.861221 0.853583 0.202588
O O12 0.232547 0.064751 0.645751
O O13 0.943784 0.312890 0.409412
O O14 0.500000 0.500000 0.000000
O O15 0.000000 0.000000 0.000000
#
# Coordination Sequence:
#
# PCOD8019617 Si02
#       7
#     2   2   2   2   2   2   2
#     4  10  22  43  65  94 123 155 218 268 309 367
#     4  12  23  42  64  95 130 169 205 255 333 368
#     4  10  22  41  69  92 122 161 204 271 325 368
#     4  12  25  42  65  92 125 175 219 255 308 370
#     4  12  23  41  65  92 127 172 213 259 312 368
#     4  12  22  39  62  92 127 157 202 261 308 370
#     4  12  25  42  61  92 137 170 210 256 302 392
#
# _framework density 21.367331
#
# number of rings (size 3 to 8) (size 9 to 14) (size 15 to 20)
#    0.000    0.571    2.857    6.000    0.000    3.429 
#    0.000    4.286    0.000    0.000    0.000    0.000 
#    0.000    0.000    0.000    0.000    0.000    0.000 
#
# Total GULP energy -173713.785031 kJ/mol
# GULP energy per Si atom -12408.127502 kJ/mol
# Density = 2.131870 g / cm^3
# Si number density = 21.367331 Si / 1000 Ang^3
#
#
#
# Elastic Constant Matrix: (Units=GPa)
#
#
# Indices 1 2 3 4 5 6 
#
# 1 88.9729 28.0115 50.5895 5.0958 -4.5879 -4.7279
# 2 28.0115 106.2995 24.2495 22.7472 2.6329 -3.3587
# 3 50.5895 24.2495 92.4703 26.2575 0.6234 3.8493
# 4 5.0958 22.7472 26.2575 41.3595 5.6069 4.9403
# 5 -4.5879 2.6329 0.6234 5.6069 27.8557 11.5812
# 6 -4.7279 -3.3587 3.8493 4.9403 11.5812 26.3111
#
#
#
# Elastic Compliance Matrix: (Units=1/GPa)
#
#
# Indices 1 2 3 4 5 6 
#
# 1 0.018545 -0.003639 -0.011093 0.006260 0.001234 0.002772
# 2 -0.003639 0.011734 0.000672 -0.006543 -0.001502 0.002635
# 3 -0.011093 0.000672 0.020118 -0.011567 0.001348 -0.003272
# 4 0.006260 -0.006543 -0.011567 0.035233 -0.003987 -0.002879
# 5 0.001234 -0.001502 0.001348 -0.003987 0.045012 -0.019231
# 6 0.002772 0.002635 -0.003272 -0.002879 -0.019231 0.048326
#
#
# Mechanical properties :
#
#
# Convention : Reuss Voigt Hill
#
# Bulk Modulus (GPa) = 44.88823 54.82707 49.85765
# Shear Modulus (GPa) = 23.30863 31.43140 27.37001
#
# Velocity S-wave (km/s) = 3.30639 3.83953 3.58289
# Velocity P-wave (km/s) = 5.96907 6.73580 6.36399
#
# Compressibility (1/GPa) = 0.02227755
#
# Stress axis : x y z
#
# Youngs Moduli (GPa) = 53.92388 85.22570 49.70563
#
# Poissons Ratio (x) = 0.31013 0.55137
# Poissons Ratio (y) = 0.19623 -0.03341
# Poissons Ratio (z) = 0.59816 -0.05728
#
# Static dielectric constant tensor:
#      x y z
#    x 3.603230 -0.002280 -0.004450 
#    y -0.002280 4.042870 0.091640 
#    z -0.004450 0.091640 3.922740 
# 
# 
# High freq. dielectric constant tensor:
#      x y z
#    x 1.828100 -0.003980 0.002030 
#    y -0.003980 1.860130 0.011330 
#    z 0.002030 0.011330 1.840540 
# 
# From -- ./inp_files/123191.got.cif
#   From: 2010.06.25/outbox.cif.g09.slc.cpg/sg2_62_cif.got.tgz:123191.got - 2010.06.27 13:26:56.
