data_PCOD8019899
_publ_section_title
;
Structure prediction by ZEFSAII (Michael W. Deem and Ramdas Pophale) SiO2 
 PCOD8019899
Probable space group: P -1
;
_chemical_formula_sum "Si O2"
_cell_formula_units_Z 12
_cell_length_a 15.546439
_cell_length_b 9.456768
_cell_length_c 10.321417
_cell_angle_alpha 44.511400
_cell_angle_beta 134.136951
_cell_angle_gamma 145.079095
_cell_volume 584.921838
_symmetry_space_group_name_H-M "P -1"
_symmetry_group_IT_number 2
_symmetry_cell_setting 'triclinic'
loop_
_space_group_symop_operation_xyz
x,y,z
-x,-y,-z
loop_
_atom_site_type_symbol
_atom_site_label
_atom_site_fract_x
_atom_site_fract_y
_atom_site_fract_z
Si Si1 0.269307 0.714027 0.859569
Si Si2 0.354356 0.238718 0.950336
Si Si3 0.403677 0.838428 0.193461
Si Si4 0.964032 0.194552 0.483887
Si Si5 0.115846 0.210319 0.879093
Si Si6 0.244047 0.344648 0.518640
O O1 0.112089 0.671607 0.707329
O O2 0.250171 0.486173 0.909529
O O3 0.417443 0.993416 0.774317
O O4 0.290701 0.689497 0.049290
O O5 0.197734 0.117839 0.946362
O O6 0.336463 0.302775 0.743745
O O7 0.500000 0.500000 0.000000
O O8 0.375289 0.022207 0.111417
O O9 0.369694 0.625312 0.399070
O O10 0.015087 0.238081 0.657870
O O11 0.115662 0.344751 0.453636
O O12 0.840056 0.884393 0.526413
O O13 0.000000 0.000000 0.000000
#
# Coordination Sequence:
#
# PCOD8019899 Si02
#       6
#     2   2   2   2   2   2
#     4  11  23  42  62  96 127 159 215 257 302 376
#     4  11  23  45  63  92 131 159 211 259 302 382
#     4  11  24  42  68  91 124 170 206 255 315 365
#     4  10  22  42  62  92 130 158 212 259 299 381
#     4  11  24  40  63  95 127 165 205 258 316 361
#     4  10  23  42  66  93 121 169 209 252 315 365
#
# _framework density 20.515561000000002
#
# number of rings (size 3 to 8) (size 9 to 14) (size 15 to 20)
#    0.000    1.333    3.333    1.500    2.333    3.333 
#    0.000    0.000    0.000    0.000    0.000    0.000 
#    0.000    0.000    0.000    0.000    0.000    0.000 
#
# Total GULP energy -148878.550507 kJ/mol
# GULP energy per Si atom -12406.545876 kJ/mol
# Density = 2.046887 g / cm^3
# Si number density = 20.515561 Si / 1000 Ang^3
#
#
#
# Elastic Constant Matrix: (Units=GPa)
#
#
# Indices 1 2 3 4 5 6 
#
# 1 54.8445 0.5888 14.2113 -2.9263 -10.8292 -1.0802
# 2 0.5888 85.5128 20.7230 7.7981 -24.0195 -6.1600
# 3 14.2113 20.7230 53.5959 0.3415 -17.3599 5.6471
# 4 -2.9263 7.7981 0.3415 40.7396 4.3970 -6.0442
# 5 -10.8292 -24.0195 -17.3599 4.3970 35.1947 0.9187
# 6 -1.0802 -6.1600 5.6471 -6.0442 0.9187 36.0973
#
#
#
# Elastic Compliance Matrix: (Units=1/GPa)
#
#
# Indices 1 2 3 4 5 6 
#
# 1 0.020659 0.002701 -0.004884 0.000666 0.005661 0.001810
# 2 0.002701 0.015985 -0.003830 -0.003559 0.010230 0.002552
# 3 -0.004884 -0.003830 0.024700 -0.001491 0.008387 -0.005127
# 4 0.000666 -0.003559 -0.001491 0.026611 -0.006395 0.004264
# 5 0.005661 0.010230 0.008387 -0.006395 0.042113 -0.001540
# 6 0.001810 0.002552 -0.005127 0.004264 -0.001540 0.029748
#
#
# Mechanical properties :
#
#
# Convention : Reuss Voigt Hill
#
# Bulk Modulus (GPa) = 20.27592 29.44436 24.86014
# Shear Modulus (GPa) = 26.55620 32.96834 29.76227
#
# Velocity S-wave (km/s) = 3.60174 4.01308 3.81296
# Velocity P-wave (km/s) = 5.21549 5.98802 5.61506
#
# Compressibility (1/GPa) = 0.04931959
#
# Stress axis : x y z
#
# Youngs Moduli (GPa) = 48.40582 62.55694 40.48559
#
# Poissons Ratio (x) = -0.16896 0.19772
# Poissons Ratio (y) = -0.13074 0.15505
# Poissons Ratio (z) = 0.23640 0.23957
#
# Static dielectric constant tensor:
#      x y z
#    x 3.839240 -0.144850 -0.053760 
#    y -0.144850 3.760960 0.287550 
#    z -0.053760 0.287550 3.703290 
# 
# 
# High freq. dielectric constant tensor:
#      x y z
#    x 1.813440 -0.005590 -0.000190 
#    y -0.005590 1.805910 0.014950 
#    z -0.000190 0.014950 1.798220 
# 
# From -- ./inp_files/27451.got.cif
#   From: 2010.06.25/outbox.cif.g09.slc.cpg/sg2_14_cif.got.tgz:27451.got - 2010.06.27 13:26:56.
