data_PCOD8019675
_publ_section_title
;
Structure prediction by ZEFSAII (Michael W. Deem and Ramdas Pophale) SiO2 
 PCOD8019675
Probable space group: P -1
;
_chemical_formula_sum "Si O2"
_cell_formula_units_Z 16
_cell_length_a 14.242867
_cell_length_b 11.538419
_cell_length_c 14.162563
_cell_angle_alpha 139.462608
_cell_angle_beta 140.247241
_cell_angle_gamma 29.045807
_cell_volume 693.074586
_symmetry_space_group_name_H-M "P -1"
_symmetry_group_IT_number 2
_symmetry_cell_setting 'triclinic'
loop_
_space_group_symop_operation_xyz
x,y,z
-x,-y,-z
loop_
_atom_site_type_symbol
_atom_site_label
_atom_site_fract_x
_atom_site_fract_y
_atom_site_fract_z
Si Si1 0.239648 0.512734 0.699108
Si Si2 0.330374 0.474407 0.418587
Si Si3 0.593119 0.238873 0.659002
Si Si4 0.095598 0.330325 0.101632
Si Si5 0.731247 0.848898 0.070202
Si Si6 0.155859 0.242118 0.556532
Si Si7 0.995702 0.960117 0.079617
Si Si8 0.731926 0.091247 0.387362
O O1 0.463934 0.328263 0.710873
O O2 0.233586 0.383557 0.706177
O O3 0.082956 0.561490 0.532290
O O4 0.169477 0.770802 0.831495
O O5 0.448030 0.424794 0.575832
O O6 0.187700 0.421788 0.285777
O O7 0.487592 0.301877 0.348097
O O8 0.192761 0.764744 0.463033
O O9 0.779866 0.218319 0.808764
O O10 0.700507 0.963530 0.541430
O O11 0.871672 0.563981 0.032825
O O12 0.236283 0.138995 0.006932
O O13 0.081291 0.177373 0.065710
O O14 0.785202 0.975119 0.253012
O O15 0.500000 0.000000 0.000000
O O16 0.169812 0.124150 0.592706
O O17 0.000000 0.000000 0.000000
#
# Coordination Sequence:
#
# PCOD8019675 Si02
#       8
#     2   2   2   2   2   2   2   2
#     4  10  22  41  70 100 134 186 227 283 353 403
#     4  10  23  43  71 105 136 176 229 287 345 420
#     4  10  23  44  70  99 138 178 232 291 340 413
#     4  11  27  45  69 103 142 184 235 283 348 417
#     4  11  25  44  70 101 142 187 225 286 354 417
#     4   9  21  40  67 106 138 168 230 292 341 413
#     4  11  28  47  67  99 143 184 236 287 339 414
#     4  10  22  41  71 101 139 177 226 283 351 413
#
# _framework density 23.085538
#
# number of rings (size 3 to 8) (size 9 to 14) (size 15 to 20)
#    0.000    1.750    1.250    0.375    7.000   10.000 
#    0.000    0.000    0.000    0.000    0.000    0.000 
#    0.000    0.000    0.000    0.000    0.000    0.000 
#
# Total GULP energy -198342.116664 kJ/mol
# GULP energy per Si atom -12396.382292 kJ/mol
# Density = 2.303299 g / cm^3
# Si number density = 23.085538 Si / 1000 Ang^3
#
#
#
# Elastic Constant Matrix: (Units=GPa)
#
#
# Indices 1 2 3 4 5 6 
#
# 1 117.3267 48.4147 72.3841 10.4059 12.8794 18.7744
# 2 48.4147 91.4811 39.4114 1.7148 13.3223 5.2425
# 3 72.3841 39.4114 112.2447 4.6802 14.7321 8.2750
# 4 10.4059 1.7148 4.6802 28.9300 8.5376 1.3761
# 5 12.8794 13.3223 14.7321 8.5376 44.5415 10.8000
# 6 18.7744 5.2425 8.2750 1.3761 10.8000 48.1483
#
#
#
# Elastic Compliance Matrix: (Units=1/GPa)
#
#
# Indices 1 2 3 4 5 6 
#
# 1 0.017141 -0.005094 -0.008923 -0.004657 0.001579 -0.004817
# 2 -0.005094 0.014671 -0.001644 0.002077 -0.003086 0.001304
# 3 -0.008923 -0.001644 0.015415 0.001536 -0.002702 0.001571
# 4 -0.004657 0.002077 0.001536 0.038001 -0.007535 0.001930
# 5 0.001579 -0.003086 -0.002702 -0.007535 0.026605 -0.005568
# 6 -0.004817 0.001304 0.001571 0.001930 -0.005568 0.023429
#
#
# Mechanical properties :
#
#
# Convention : Reuss Voigt Hill
#
# Bulk Modulus (GPa) = 62.87299 71.27475 67.07387
# Shear Modulus (GPa) = 29.08894 35.04676 32.06785
#
# Velocity S-wave (km/s) = 3.55357 3.90054 3.73109
# Velocity P-wave (km/s) = 6.64312 7.15729 6.90499
#
# Compressibility (1/GPa) = 0.01590508
#
# Stress axis : x y z
#
# Youngs Moduli (GPa) = 58.34094 68.16134 64.86989
#
# Poissons Ratio (x) = 0.34720 0.57884
# Poissons Ratio (y) = 0.29718 0.10666
# Poissons Ratio (z) = 0.52058 0.11207
#
# Static dielectric constant tensor:
#      x y z
#    x 4.371260 -0.027540 0.048560 
#    y -0.027540 4.353540 0.196120 
#    z 0.048560 0.196120 4.393840 
# 
# 
# High freq. dielectric constant tensor:
#      x y z
#    x 1.912340 -0.009030 0.000370 
#    y -0.009030 1.920250 0.012550 
#    z 0.000370 0.012550 1.899120 
# 
# From -- ./inp_files/532070.got.cif
#   From: 2010.06.25/outbox.cif.g09.slc.cpg/sg2_267_cif.got.tgz:532070.got - 2010.06.27 13:26:56.
