data_PCOD8019512
_publ_section_title
;
Structure prediction by ZEFSAII (Michael W. Deem and Ramdas Pophale) SiO2 
 PCOD8019512
Probable space group: P -1
;
_chemical_formula_sum "Si O2"
_cell_formula_units_Z 16
_cell_length_a 8.553723
_cell_length_b 8.889715
_cell_length_c 21.085537
_cell_angle_alpha 142.643630
_cell_angle_beta 120.274231
_cell_angle_gamma 49.159070
_cell_volume 735.569760
_symmetry_space_group_name_H-M "P -1"
_symmetry_group_IT_number 2
_symmetry_cell_setting 'triclinic'
loop_
_space_group_symop_operation_xyz
x,y,z
-x,-y,-z
loop_
_atom_site_type_symbol
_atom_site_label
_atom_site_fract_x
_atom_site_fract_y
_atom_site_fract_z
Si Si1 0.035092 0.741950 0.060112
Si Si2 0.741188 0.187205 0.755210
Si Si3 0.921955 0.722389 0.391717
Si Si4 0.177933 0.416515 0.457259
Si Si5 0.931196 0.321476 0.091810
Si Si6 0.279606 0.620248 0.809531
Si Si7 0.553021 0.216241 0.544306
Si Si8 0.845283 0.368017 0.718092
O O1 0.182799 0.803165 0.155561
O O2 0.147626 0.591732 0.966891
O O3 0.822932 0.039334 0.105316
O O4 0.000000 0.500000 0.000000
O O5 0.522003 0.470204 0.793884
O O6 0.901749 0.174432 0.728825
O O7 0.717715 0.909826 0.652321
O O8 0.837386 0.495874 0.299555
O O9 0.099408 0.615862 0.446445
O O10 0.002310 0.768988 0.356176
O O11 0.744252 0.032286 0.476188
O O12 0.361464 0.441354 0.538897
O O13 0.000000 0.500000 0.500000
O O14 0.747544 0.474697 0.156593
O O15 0.131053 0.360814 0.164747
O O16 0.000000 0.000000 0.000000
O O17 0.618310 0.409420 0.666362
O O18 0.500000 0.000000 0.500000
#
# Coordination Sequence:
#
# PCOD8019512 Si02
#       8
#     2   2   2   2   2   2   2   2
#     4  11  22  41  67  95 130 166 221 278 326 381
#     4  12  23  41  68  98 127 175 221 261 329 397
#     4  11  22  42  63  94 131 173 213 271 323 389
#     4  12  24  40  69  98 131 174 219 263 325 395
#     4   9  21  43  66  94 131 174 213 275 334 376
#     4  10  22  41  68  92 131 173 216 266 330 392
#     4  12  22  40  68  95 131 172 215 266 332 391
#     4  11  23  40  65  95 134 170 217 270 328 390
#
# _framework density 21.751844999999999
#
# number of rings (size 3 to 8) (size 9 to 14) (size 15 to 20)
#    0.000    1.000    6.250    0.375    0.000    1.500 
#    0.000    2.500    0.000    0.000    0.000    0.000 
#    0.000    0.000    0.000    0.000    0.000    0.000 
#
# Total GULP energy -198214.939657 kJ/mol
# GULP energy per Si atom -12388.433729 kJ/mol
# Density = 2.170234 g / cm^3
# Si number density = 21.751845 Si / 1000 Ang^3
#
#
#
# Elastic Constant Matrix: (Units=GPa)
#
#
# Indices 1 2 3 4 5 6 
#
# 1 87.7878 52.2434 45.6121 -12.9373 -0.1594 7.7162
# 2 52.2434 106.1303 39.2270 -19.6738 -15.1346 -7.3523
# 3 45.6121 39.2270 122.8803 -24.4749 9.3345 -1.2812
# 4 -12.9373 -19.6738 -24.4749 43.2901 6.4992 -3.6342
# 5 -0.1594 -15.1346 9.3345 6.4992 36.8811 -3.2582
# 6 7.7162 -7.3523 -1.2812 -3.6342 -3.2582 35.9972
#
#
#
# Elastic Compliance Matrix: (Units=1/GPa)
#
#
# Indices 1 2 3 4 5 6 
#
# 1 0.019448 -0.008985 -0.004365 -0.000847 -0.002924 -0.006510
# 2 -0.008985 0.016568 -0.001781 0.003282 0.007182 0.006228
# 3 -0.004365 -0.001781 0.011740 0.005301 -0.004557 0.001113
# 4 -0.000847 0.003282 0.005301 0.028331 -0.004684 0.003477
# 5 -0.002924 0.007182 -0.004557 -0.004684 0.032416 0.004393
# 6 -0.006510 0.006228 0.001113 0.003477 0.004393 0.031236
#
#
# Mechanical properties :
#
#
# Convention : Reuss Voigt Hill
#
# Bulk Modulus (GPa) = 57.16034 65.66258 61.41146
# Shear Modulus (GPa) = 28.43631 35.21475 31.82553
#
# Velocity S-wave (km/s) = 3.61959 4.02796 3.82922
# Velocity P-wave (km/s) = 6.61846 7.20314 6.91698
#
# Compressibility (1/GPa) = 0.01749465
#
# Stress axis : x y z
#
# Youngs Moduli (GPa) = 51.41853 60.35895 85.17572
#
# Poissons Ratio (x) = 0.54233 0.37180
# Poissons Ratio (y) = 0.46200 0.15167
# Poissons Ratio (z) = 0.22445 0.10748
#
# Static dielectric constant tensor:
#      x y z
#    x 4.117300 0.161540 -0.039630 
#    y 0.161540 3.732260 -0.309190 
#    z -0.039630 -0.309190 4.423130 
# 
# 
# High freq. dielectric constant tensor:
#      x y z
#    x 1.849920 0.020390 -0.002640 
#    y 0.020390 1.829160 -0.021460 
#    z -0.002640 -0.021460 1.878890 
# 
# From -- ./inp_files/217742.got.cif
#   From: 2010.06.25/outbox.cif.g09.slc.cpg/sg2_109_cif.got.tgz:217742.got - 2010.06.27 13:26:56.
