data_PCOD8019316
_publ_section_title
;
Structure prediction by ZEFSAII (Michael W. Deem and Ramdas Pophale) SiO2 
 PCOD8019316
Probable space group: P -1
;
_chemical_formula_sum "Si O2"
_cell_formula_units_Z 16
_cell_length_a 11.887713
_cell_length_b 8.791428
_cell_length_c 8.561476
_cell_angle_alpha 85.291732
_cell_angle_beta 123.872625
_cell_angle_gamma 114.014464
_cell_volume 666.123796
_symmetry_space_group_name_H-M "P -1"
_symmetry_group_IT_number 2
_symmetry_cell_setting 'triclinic'
loop_
_space_group_symop_operation_xyz
x,y,z
-x,-y,-z
loop_
_atom_site_type_symbol
_atom_site_label
_atom_site_fract_x
_atom_site_fract_y
_atom_site_fract_z
Si Si1 0.363969 0.556213 0.036879
Si Si2 0.102447 0.019044 0.425765
Si Si3 0.883463 0.110212 0.099446
Si Si4 0.386652 0.235823 0.017392
Si Si5 0.606446 0.679322 0.435352
Si Si6 0.428166 0.683785 0.558594
Si Si7 0.064498 0.563162 0.717499
Si Si8 0.843419 0.235055 0.718153
O O1 0.305097 0.353549 0.995770
O O2 0.426275 0.612438 0.255368
O O3 0.528847 0.675219 0.082225
O O4 0.238820 0.604489 0.867928
O O5 0.264780 0.172209 0.575623
O O6 0.021268 0.058158 0.210180
O O7 0.129980 0.858943 0.405541
O O8 0.000000 0.000000 0.500000
O O9 0.938133 0.261313 0.255871
O O10 0.856421 0.158109 0.900938
O O11 0.734813 0.958584 0.071412
O O12 0.521665 0.250104 0.233809
O O13 0.589110 0.752101 0.584724
O O14 0.651514 0.522612 0.486519
O O15 0.319104 0.765332 0.412393
O O16 0.000000 0.500000 0.500000
O O17 0.970545 0.427117 0.787372
#
# Coordination Sequence:
#
# PCOD8019316 Si02
#       8
#     2   2   2   2   2   2   2   2
#     4  10  22  42  67  95 131 176 224 277 339 405
#     4  12  26  44  68 100 139 181 230 284 342 409
#     4  12  26  43  67  98 136 180 230 286 344 410
#     4  10  22  41  66  96 132 176 225 278 336 404
#     4  10  22  42  69  98 132 176 226 279 338 407
#     4  10  22  42  68  98 134 177 225 279 339 404
#     4  12  26  44  68  99 138 181 229 285 345 412
#     4  12  26  44  69 100 140 186 231 285 344 409
#
# _framework density 24.019556999999999
#
# number of rings (size 3 to 8) (size 9 to 14) (size 15 to 20)
#    0.000    1.000    0.000    6.000    0.000   10.500 
#    0.000    0.000    0.000    0.000    0.000    0.000 
#    0.000    0.000    0.000    0.000    0.000    0.000 
#
# Total GULP energy -198256.275550 kJ/mol
# GULP energy per Si atom -12391.017222 kJ/mol
# Density = 2.396489 g / cm^3
# Si number density = 24.019557 Si / 1000 Ang^3
#
#
#
# Elastic Constant Matrix: (Units=GPa)
#
#
# Indices 1 2 3 4 5 6 
#
# 1 96.7139 53.4402 24.2454 11.3536 7.7751 -8.6477
# 2 53.4402 147.8069 26.9120 12.9087 -1.8785 10.2567
# 3 24.2454 26.9120 87.6916 -5.5570 18.1787 -12.4297
# 4 11.3536 12.9087 -5.5570 30.5731 -5.1059 4.7181
# 5 7.7751 -1.8785 18.1787 -5.1059 43.8385 -4.0135
# 6 -8.6477 10.2567 -12.4297 4.7181 -4.0135 43.3538
#
#
#
# Elastic Compliance Matrix: (Units=1/GPa)
#
#
# Indices 1 2 3 4 5 6 
#
# 1 0.014517 -0.004800 -0.001838 -0.004655 -0.002212 0.003806
# 2 -0.004800 0.009389 -0.002538 -0.001800 0.001772 -0.003547
# 3 -0.001838 -0.002538 0.014443 0.002976 -0.005098 0.003579
# 4 -0.004655 -0.001800 0.002976 0.036837 0.003500 -0.003335
# 5 -0.002212 0.001772 -0.005098 0.003500 0.025772 -0.000317
# 6 0.003806 -0.003547 0.003579 -0.003335 -0.000317 0.026024
#
#
# Mechanical properties :
#
#
# Convention : Reuss Voigt Hill
#
# Bulk Modulus (GPa) = 50.00545 60.15641 55.08093
# Shear Modulus (GPa) = 32.89457 38.72741 35.81099
#
# Velocity S-wave (km/s) = 3.70468 4.01974 3.86542
# Velocity P-wave (km/s) = 6.25806 6.82961 6.55007
#
# Compressibility (1/GPa) = 0.01999782
#
# Stress axis : x y z
#
# Youngs Moduli (GPa) = 68.88288 106.50756 69.23572
#
# Poissons Ratio (x) = 0.51122 0.12723
# Poissons Ratio (y) = 0.33063 0.17575
# Poissons Ratio (z) = 0.12659 0.27036
#
# Static dielectric constant tensor:
#      x y z
#    x 4.150770 -0.043020 -0.011090 
#    y -0.043020 4.357800 -0.069430 
#    z -0.011090 -0.069430 4.349700 
# 
# 
# High freq. dielectric constant tensor:
#      x y z
#    x 1.945660 0.003680 -0.002570 
#    y 0.003680 1.957300 -0.005090 
#    z -0.002570 -0.005090 1.970660 
# 
# From -- ./inp_files/243665.got.cif
#   From: 2010.06.25/outbox.cif.g09.slc.cpg/sg2_122_cif.got.tgz:243665.got - 2010.06.27 13:26:56.
