data_PCOD8019830
_publ_section_title
;
Structure prediction by ZEFSAII (Michael W. Deem and Ramdas Pophale) SiO2 
 PCOD8019830
Probable space group: P -1
;
_chemical_formula_sum "Si O2"
_cell_formula_units_Z 16
_cell_length_a 8.387116
_cell_length_b 14.504465
_cell_length_c 11.802282
_cell_angle_alpha 65.924283
_cell_angle_beta 52.701673
_cell_angle_gamma 106.900534
_cell_volume 700.654333
_symmetry_space_group_name_H-M "P -1"
_symmetry_group_IT_number 2
_symmetry_cell_setting 'triclinic'
loop_
_space_group_symop_operation_xyz
x,y,z
-x,-y,-z
loop_
_atom_site_type_symbol
_atom_site_label
_atom_site_fract_x
_atom_site_fract_y
_atom_site_fract_z
Si Si1 0.936656 0.269868 0.317841
Si Si2 0.214525 0.387758 0.759145
Si Si3 0.227822 0.664367 0.174553
Si Si4 0.911935 0.904550 0.695702
Si Si5 0.843222 0.333482 0.553489
Si Si6 0.610116 0.817498 0.505146
Si Si7 0.766147 0.822776 0.193651
Si Si8 0.265944 0.523571 0.893842
O O1 0.872794 0.256111 0.486615
O O2 0.658399 0.203312 0.393587
O O3 0.006403 0.180859 0.311263
O O4 0.220394 0.446169 0.070231
O O5 0.500000 0.500000 0.500000
O O6 0.087462 0.225735 0.892106
O O7 0.294810 0.449912 0.820430
O O8 0.954831 0.363861 0.839499
O O9 0.160338 0.708238 0.294019
O O10 0.121686 0.512044 0.326342
O O11 0.569710 0.793018 0.928146
O O12 0.000000 0.000000 0.500000
O O13 0.100180 0.013240 0.667742
O O14 0.525629 0.269726 0.710037
O O15 0.663767 0.771935 0.392462
O O16 0.545182 0.705688 0.683989
O O17 0.000000 0.000000 0.000000
O O18 0.000000 0.500000 0.000000
#
# Coordination Sequence:
#
# PCOD8019830 Si02
#       8
#     2   2   2   2   2   2   2   2
#     4  10  24  45  74  98 131 193 238 281 346 424
#     4  12  23  44  75 102 130 189 240 279 351 410
#     4  11  25  44  70 102 146 180 227 294 346 424
#     4  12  29  44  65 106 150 187 224 294 364 411
#     4  10  23  46  70 102 140 177 238 288 349 411
#     4  10  22  45  68  98 139 178 237 290 337 416
#     4  11  23  41  72 103 135 177 238 291 338 414
#     4  10  22  41  76 102 134 176 246 292 331 415
#
# _framework density 22.835798
#
# number of rings (size 3 to 8) (size 9 to 14) (size 15 to 20)
#    0.000    1.250    2.500    2.625    8.750    3.500 
#    0.000    1.875    0.000    0.000    0.000    0.000 
#    0.000    0.000    0.000    0.000    0.000    0.000 
#
# Total GULP energy -198357.643533 kJ/mol
# GULP energy per Si atom -12397.352721 kJ/mol
# Density = 2.278382 g / cm^3
# Si number density = 22.835798 Si / 1000 Ang^3
#
#
#
# Elastic Constant Matrix: (Units=GPa)
#
#
# Indices 1 2 3 4 5 6 
#
# 1 59.1842 24.5013 32.6370 -1.5038 1.4359 -5.8491
# 2 24.5013 95.5397 33.1743 1.9701 -3.8458 -17.6750
# 3 32.6370 33.1743 130.1087 -12.8634 -8.7550 -6.2332
# 4 -1.5038 1.9701 -12.8634 41.2571 1.7480 2.1416
# 5 1.4359 -3.8458 -8.7550 1.7480 26.7123 -2.3683
# 6 -5.8491 -17.6750 -6.2332 2.1416 -2.3683 39.3529
#
#
#
# Elastic Compliance Matrix: (Units=1/GPa)
#
#
# Indices 1 2 3 4 5 6 
#
# 1 0.021111 -0.003863 -0.004530 -0.000354 -0.003107 0.000517
# 2 -0.003863 0.013323 -0.002222 -0.001828 0.001985 0.005277
# 3 -0.004530 -0.002222 0.009870 0.002898 0.002961 -0.000088
# 4 -0.000354 -0.001828 0.002898 0.025360 -0.001119 -0.001862
# 5 -0.003107 0.001985 0.002961 -0.001119 0.039227 0.003320
# 6 0.000517 0.005277 -0.000088 -0.001862 0.003320 0.028145
#
#
# Mechanical properties :
#
#
# Convention : Reuss Voigt Hill
#
# Bulk Modulus (GPa) = 43.33897 51.71752 47.52825
# Shear Modulus (GPa) = 30.12799 34.43246 32.28022
#
# Velocity S-wave (km/s) = 3.63620 3.88729 3.76384
# Velocity P-wave (km/s) = 6.05384 6.54559 6.30451
#
# Compressibility (1/GPa) = 0.02307392
#
# Stress axis : x y z
#
# Youngs Moduli (GPa) = 47.36831 75.05814 101.31365
#
# Poissons Ratio (x) = 0.28996 0.45893
# Poissons Ratio (y) = 0.18299 0.22515
# Poissons Ratio (z) = 0.21457 0.16681
#
# Static dielectric constant tensor:
#      x y z
#    x 4.397920 0.131680 0.598820 
#    y 0.131680 4.321640 0.050350 
#    z 0.598820 0.050350 4.762390 
# 
# 
# High freq. dielectric constant tensor:
#      x y z
#    x 1.884570 0.005740 0.004910 
#    y 0.005740 1.911620 0.006580 
#    z 0.004910 0.006580 1.911080 
# 
# From -- ./inp_files/398910.got.cif
#   From: 2010.06.25/outbox.cif.g09.slc.cpg/sg2_200_cif.got.tgz:398910.got - 2010.06.27 13:26:56.
