data_PCOD8019064
_publ_section_title
;
Structure prediction by ZEFSAII (Michael W. Deem and Ramdas Pophale) SiO2 
 PCOD8019064
Probable space group: P -1
;
_chemical_formula_sum "Si O2"
_cell_formula_units_Z 16
_cell_length_a 12.417108
_cell_length_b 8.978622
_cell_length_c 14.421335
_cell_angle_alpha 81.400016
_cell_angle_beta 149.428513
_cell_angle_gamma 89.998873
_cell_volume 781.604639
_symmetry_space_group_name_H-M "P -1"
_symmetry_group_IT_number 2
_symmetry_cell_setting 'triclinic'
loop_
_space_group_symop_operation_xyz
x,y,z
-x,-y,-z
loop_
_atom_site_type_symbol
_atom_site_label
_atom_site_fract_x
_atom_site_fract_y
_atom_site_fract_z
Si Si1 0.074964 0.741892 0.246982
Si Si2 0.685298 0.000008 0.000116
Si Si3 0.004601 0.738769 0.504598
Si Si4 0.030394 0.320839 0.030424
Si Si5 0.819724 0.500042 0.500107
Si Si6 0.419028 0.741899 0.246953
Si Si7 0.480710 0.179954 0.480731
Si Si8 0.713183 0.059300 0.213229
O O1 0.078082 0.585434 0.321514
O O2 0.319638 0.765416 0.422995
O O3 0.962927 0.730536 0.066477
O O4 0.927208 0.894260 0.171584
O O5 0.584168 0.105719 0.828573
O O6 0.520613 0.893104 0.912746
O O7 0.695514 0.106907 0.087602
O O8 0.151360 0.631232 0.545350
O O9 0.143641 0.842667 0.643413
O O10 0.939571 0.631366 0.545651
O O11 0.798491 0.868381 0.298563
O O12 0.255701 0.252373 0.255748
O O13 0.000000 0.500000 0.000000
O O14 0.829877 0.269574 0.933515
O O15 0.565116 0.585485 0.321597
O O16 0.526331 0.765488 0.422927
O O17 0.500000 0.000000 0.500000
#
# Coordination Sequence:
#
# PCOD8019064 Si02
#       8
#     2   2   2   2   2   2   2   2
#     4  11  24  41  65  95 129 167 214 260 318 377
#     4  11  22  41  64  92 128 167 208 265 314 374
#     4  10  22  41  64  93 128 163 217 257 316 381
#     4  11  24  43  62  92 130 165 210 264 316 377
#     4  11  22  41  66  94 130 169 204 267 320 370
#     4  11  24  41  65  95 129 167 214 260 318 377
#     4  11  24  43  66  94 130 168 213 263 313 378
#     4  10  22  41  64  93 126 167 210 266 309 379
#
# _framework density 20.470707999999998
#
# number of rings (size 3 to 8) (size 9 to 14) (size 15 to 20)
#    0.000    1.250    2.500    3.000    0.000   10.000 
#    0.000    1.250    0.000    0.000    0.000    0.000 
#    0.000    0.000    0.000    0.000    0.000    0.000 
#
# Total GULP energy -198341.601436 kJ/mol
# GULP energy per Si atom -12396.350090 kJ/mol
# Density = 2.042412 g / cm^3
# Si number density = 20.470708 Si / 1000 Ang^3
#
#
#
# Elastic Constant Matrix: (Units=GPa)
#
#
# Indices 1 2 3 4 5 6 
#
# 1 143.3391 50.4114 73.0317 -0.9303 3.6889 6.3030
# 2 50.4114 114.4843 52.9160 -4.1365 -2.5483 -2.1877
# 3 73.0317 52.9160 162.5622 -1.8143 -1.2595 0.7745
# 4 -0.9303 -4.1365 -1.8143 36.6355 -1.5649 -1.8141
# 5 3.6889 -2.5483 -1.2595 -1.5649 25.6932 -15.1970
# 6 6.3030 -2.1877 0.7745 -1.8141 -15.1970 19.8258
#
#
#
# Elastic Compliance Matrix: (Units=1/GPa)
#
#
# Indices 1 2 3 4 5 6 
#
# 1 0.010697 -0.003391 -0.003729 -0.001120 -0.007922 -0.009804
# 2 -0.003391 0.011577 -0.002215 0.001707 0.005794 0.007039
# 3 -0.003729 -0.002215 0.008556 0.000276 0.002060 0.002211
# 4 -0.001120 0.001707 0.000276 0.028204 0.007141 0.008588
# 5 -0.007922 0.005794 0.002060 0.007141 0.079353 0.064556
# 6 -0.009804 0.007039 0.002211 0.008588 0.064556 0.104516
#
#
# Mechanical properties :
#
#
# Convention : Reuss Voigt Hill
#
# Bulk Modulus (GPa) = 82.23104 85.90041 84.06572
# Shear Modulus (GPa) = 18.82355 32.69933 25.76144
#
# Velocity S-wave (km/s) = 3.03567 4.00105 3.55132
# Velocity P-wave (km/s) = 7.24875 7.96230 7.61389
#
# Compressibility (1/GPa) = 0.01216086
#
# Stress axis : x y z
#
# Youngs Moduli (GPa) = 93.48822 86.38070 116.87498
#
# Poissons Ratio (x) = 0.29288 0.43582
# Poissons Ratio (y) = 0.31698 0.25884
# Poissons Ratio (z) = 0.34861 0.19131
#
# Static dielectric constant tensor:
#      x y z
#    x 3.972750 0.030090 0.022250 
#    y 0.030090 3.719390 -0.181200 
#    z 0.022250 -0.181200 3.821740 
# 
# 
# High freq. dielectric constant tensor:
#      x y z
#    x 1.819470 0.002350 0.001220 
#    y 0.002350 1.797360 -0.008930 
#    z 0.001220 -0.008930 1.809000 
# 
# From -- ./inp_files/202736.got.cif
#   From: 2010.06.25/outbox.cif.g09.slc.cpg/sg2_102_cif.got.tgz:202736.got - 2010.06.27 13:26:56.
