data_PCOD8019628
_publ_section_title
;
Structure prediction by ZEFSAII (Michael W. Deem and Ramdas Pophale) SiO2 
 PCOD8019628
Probable space group: P -1
;
_chemical_formula_sum "Si O2"
_cell_formula_units_Z 16
_cell_length_a 8.638850
_cell_length_b 9.756226
_cell_length_c 14.592062
_cell_angle_alpha 106.061147
_cell_angle_beta 126.877188
_cell_angle_gamma 105.268671
_cell_volume 784.162591
_symmetry_space_group_name_H-M "P -1"
_symmetry_group_IT_number 2
_symmetry_cell_setting 'triclinic'
loop_
_space_group_symop_operation_xyz
x,y,z
-x,-y,-z
loop_
_atom_site_type_symbol
_atom_site_label
_atom_site_fract_x
_atom_site_fract_y
_atom_site_fract_z
Si Si1 0.574953 0.509978 0.279015
Si Si2 0.764717 0.983333 0.527947
Si Si3 0.616650 0.155763 0.948997
Si Si4 0.125296 0.463581 0.457804
Si Si5 0.730385 0.841987 0.298228
Si Si6 0.912044 0.541611 0.885325
Si Si7 0.358686 0.779524 0.822113
Si Si8 0.696487 0.282054 0.598333
O O1 0.684608 0.560904 0.430481
O O2 0.729370 0.677360 0.301321
O O3 0.311013 0.453428 0.174303
O O4 0.582673 0.354024 0.215059
O O5 0.698164 0.937143 0.389141
O O6 0.578130 0.819170 0.492331
O O7 0.766100 0.148065 0.585452
O O8 0.025456 0.028256 0.643541
O O9 0.486192 0.223056 0.856973
O O10 0.511395 0.956476 0.851880
O O11 0.568278 0.179222 0.039755
O O12 0.888760 0.268372 0.042699
O O13 0.262189 0.617545 0.462579
O O14 0.000000 0.500000 0.500000
O O15 0.916026 0.293987 0.300864
O O16 0.856856 0.405082 0.760890
O O17 0.000000 0.500000 0.000000
#
# Coordination Sequence:
#
# PCOD8019628 Si02
#       8
#     2   2   2   2   2   2   2   2
#     4  11  24  42  68  97 127 172 219 266 334 377
#     4  10  23  39  66 101 130 162 227 267 330 379
#     4  11  24  43  66  91 132 174 217 266 320 392
#     4  10  22  41  69  94 129 167 215 271 329 383
#     4  11  23  41  68  97 130 172 219 272 319 393
#     4  12  24  45  64  96 136 173 216 268 321 386
#     4  10  24  43  65  96 127 171 219 266 325 391
#     4  11  22  43  65  99 132 174 210 278 329 381
#
# _framework density 20.403932000000001
#
# number of rings (size 3 to 8) (size 9 to 14) (size 15 to 20)
#    0.000    1.250    3.750    1.500    7.000    2.500 
#    4.500    0.000    0.000    0.000    0.000    0.000 
#    0.000    0.000    0.000    0.000    0.000    0.000 
#
# Total GULP energy -198391.023686 kJ/mol
# GULP energy per Si atom -12399.438980 kJ/mol
# Density = 2.035749 g / cm^3
# Si number density = 20.403932 Si / 1000 Ang^3
#
#
#
# Elastic Constant Matrix: (Units=GPa)
#
#
# Indices 1 2 3 4 5 6 
#
# 1 105.0170 46.1783 51.6768 6.0445 14.7142 14.8588
# 2 46.1783 111.6025 71.2401 10.5230 5.9271 13.0087
# 3 51.6768 71.2401 131.4673 -1.0813 14.6527 0.7703
# 4 6.0445 10.5230 -1.0813 44.5450 2.2066 4.5071
# 5 14.7142 5.9271 14.6527 2.2066 39.4864 9.9179
# 6 14.8588 13.0087 0.7703 4.5071 9.9179 38.9596
#
#
#
# Elastic Compliance Matrix: (Units=1/GPa)
#
#
# Indices 1 2 3 4 5 6 
#
# 1 0.013272 -0.002659 -0.003501 -0.000796 -0.002345 -0.003416
# 2 -0.002659 0.015691 -0.007771 -0.003227 0.002808 -0.004413
# 3 -0.003501 -0.007771 0.013612 0.002389 -0.003807 0.004354
# 4 -0.000796 -0.003227 0.002389 0.023545 -0.001146 -0.001098
# 5 -0.002345 0.002808 -0.003807 -0.001146 0.029072 -0.007236
# 6 -0.003416 -0.004413 0.004354 -0.001098 -0.007236 0.030327
#
#
# Mechanical properties :
#
#
# Convention : Reuss Voigt Hill
#
# Bulk Modulus (GPa) = 67.96966 76.25301 72.11133
# Shear Modulus (GPa) = 31.58848 36.53096 34.05972
#
# Velocity S-wave (km/s) = 3.93893 4.23589 4.09011
# Velocity P-wave (km/s) = 7.35332 7.83432 7.59762
#
# Compressibility (1/GPa) = 0.01471245
#
# Stress axis : x y z
#
# Youngs Moduli (GPa) = 75.34650 63.73238 73.46349
#
# Poissons Ratio (x) = 0.16946 0.25722
# Poissons Ratio (y) = 0.20034 0.57089
# Poissons Ratio (z) = 0.26381 0.49527
#
# Static dielectric constant tensor:
#      x y z
#    x 3.732160 0.175770 0.138810 
#    y 0.175770 3.839290 0.077640 
#    z 0.138810 0.077640 4.214550 
# 
# 
# High freq. dielectric constant tensor:
#      x y z
#    x 1.792200 0.012120 0.004800 
#    y 0.012120 1.800720 0.009990 
#    z 0.004800 0.009990 1.811800 
# 
# From -- ./inp_files/209131.got.cif
#   From: 2010.06.25/outbox.cif.g09.slc.cpg/sg2_105_cif.got.tgz:209131.got - 2010.06.27 13:26:56.
