data_PCOD8019364
_publ_section_title
;
Structure prediction by ZEFSAII (Michael W. Deem and Ramdas Pophale) SiO2 
 PCOD8019364
Probable space group: P -1
;
_chemical_formula_sum "Si O2"
_cell_formula_units_Z 14
_cell_length_a 11.820591
_cell_length_b 18.294164
_cell_length_c 7.617543
_cell_angle_alpha 128.622665
_cell_angle_beta 52.688100
_cell_angle_gamma 148.680882
_cell_volume 658.102555
_symmetry_space_group_name_H-M "P -1"
_symmetry_group_IT_number 2
_symmetry_cell_setting 'triclinic'
loop_
_space_group_symop_operation_xyz
x,y,z
-x,-y,-z
loop_
_atom_site_type_symbol
_atom_site_label
_atom_site_fract_x
_atom_site_fract_y
_atom_site_fract_z
Si Si1 0.112581 0.668516 0.325256
Si Si2 0.696827 0.323527 0.168227
Si Si3 0.414825 0.731503 0.428757
Si Si4 0.109170 0.089496 0.852122
Si Si5 0.472191 0.570243 0.257030
Si Si6 0.148553 0.288039 0.319082
Si Si7 0.256978 0.200853 0.386026
O O1 0.270541 0.712748 0.396686
O O2 0.894307 0.495679 0.272285
O O3 0.071270 0.758402 0.530744
O O4 0.233312 0.721002 0.101410
O O5 0.618768 0.238819 0.301238
O O6 0.488777 0.275478 0.210117
O O7 0.668824 0.857671 0.314179
O O8 0.335350 0.582537 0.302761
O O9 0.150018 0.221618 0.043678
O O10 0.929976 0.974652 0.696283
O O11 0.000000 0.000000 0.000000
O O12 0.344243 0.463417 0.384147
O O13 0.699675 0.735450 0.361584
O O14 0.500000 0.500000 0.000000
O O15 0.177902 0.245355 0.404593
#
# Coordination Sequence:
#
# PCOD8019364 Si02
#       7
#     2   2   2   2   2   2   2
#     4  11  22  38  62  94 130 166 199 263 314 382
#     4  10  23  37  62  93 122 171 202 251 327 364
#     4  11  22  42  62  91 133 160 212 251 321 375
#     4  10  22  41  67  89 123 173 206 259 315 368
#     4  11  22  35  64  99 119 159 206 272 310 356
#     4  11  21  39  63  97 121 159 216 257 314 366
#     4  10  22  42  62  90 125 160 213 257 309 370
#
# _framework density 21.273281000000001
#
# number of rings (size 3 to 8) (size 9 to 14) (size 15 to 20)
#    0.000    1.429    4.286    2.571    0.000    3.429 
#    0.000    6.429    0.000    6.857    0.000    0.000 
#    0.000    0.000    0.000    0.000    0.000    0.000 
#
# Total GULP energy -173434.656729 kJ/mol
# GULP energy per Si atom -12388.189766 kJ/mol
# Density = 2.122486 g / cm^3
# Si number density = 21.273281 Si / 1000 Ang^3
#
#
#
# Elastic Constant Matrix: (Units=GPa)
#
#
# Indices 1 2 3 4 5 6 
#
# 1 123.1538 41.8583 59.3632 -4.6793 -6.1257 29.5356
# 2 41.8583 95.7421 31.8882 5.9473 -7.8809 21.0367
# 3 59.3632 31.8882 136.6828 2.6177 0.0686 24.9261
# 4 -4.6793 5.9473 2.6177 33.2839 0.4603 2.7942
# 5 -6.1257 -7.8809 0.0686 0.4603 25.4497 -8.4886
# 6 29.5356 21.0367 24.9261 2.7942 -8.4886 29.7436
#
#
#
# Elastic Compliance Matrix: (Units=1/GPa)
#
#
# Indices 1 2 3 4 5 6 
#
# 1 0.012859 -0.002902 -0.003455 0.003304 -0.000626 -0.008310
# 2 -0.002902 0.013432 -0.000892 -0.002331 0.001791 -0.005141
# 3 -0.003455 -0.000892 0.009954 -0.000649 -0.002796 -0.005016
# 4 0.003304 -0.002331 -0.000649 0.031392 -0.002033 -0.004618
# 5 -0.000626 0.001791 -0.002796 -0.002033 0.044619 0.014623
# 6 -0.008310 -0.005141 -0.005016 -0.004618 0.014623 0.054319
#
#
# Mechanical properties :
#
#
# Convention : Reuss Voigt Hill
#
# Bulk Modulus (GPa) = 45.98502 69.08869 57.53686
# Shear Modulus (GPa) = 26.54996 32.52672 29.53834
#
# Velocity S-wave (km/s) = 3.53660 3.91448 3.73033
# Velocity P-wave (km/s) = 6.19193 7.27861 6.75715
#
# Compressibility (1/GPa) = 0.02174621
#
# Stress axis : x y z
#
# Youngs Moduli (GPa) = 77.76456 74.44677 100.46488
#
# Poissons Ratio (x) = 0.21605 0.34715
# Poissons Ratio (y) = 0.22568 0.08963
# Poissons Ratio (z) = 0.26871 0.06642
#
# Static dielectric constant tensor:
#      x y z
#    x 3.663300 0.009860 0.037890 
#    y 0.009860 4.598230 0.144160 
#    z 0.037890 0.144160 4.349570 
# 
# 
# High freq. dielectric constant tensor:
#      x y z
#    x 1.819910 -0.000270 0.009240 
#    y -0.000270 1.830930 -0.014770 
#    z 0.009240 -0.014770 1.847840 
# 
# From -- ./inp_files/282226.got.cif
#   From: 2010.06.25/outbox.cif.g09.slc.cpg/sg2_142_cif.got.tgz:282226.got - 2010.06.27 13:26:56.
