data_PCOD8019265
_publ_section_title
;
Structure prediction by ZEFSAII (Michael W. Deem and Ramdas Pophale) SiO2 
 PCOD8019265
Probable space group: P -1
;
_chemical_formula_sum "Si O2"
_cell_formula_units_Z 16
_cell_length_a 18.564134
_cell_length_b 6.645468
_cell_length_c 10.148896
_cell_angle_alpha 84.848775
_cell_angle_beta 52.901318
_cell_angle_gamma 50.610518
_cell_volume 679.033492
_symmetry_space_group_name_H-M "P -1"
_symmetry_group_IT_number 2
_symmetry_cell_setting 'triclinic'
loop_
_space_group_symop_operation_xyz
x,y,z
-x,-y,-z
loop_
_atom_site_type_symbol
_atom_site_label
_atom_site_fract_x
_atom_site_fract_y
_atom_site_fract_z
Si Si1 0.392434 0.628860 0.806778
Si Si2 0.282375 0.861630 0.275521
Si Si3 0.516381 0.737949 0.005239
Si Si4 0.117798 0.041160 0.210945
Si Si5 0.881518 0.696890 0.348494
Si Si6 0.948665 0.186579 0.870778
Si Si7 0.436574 0.314416 0.509611
Si Si8 0.176802 0.544694 0.755421
O O1 0.453211 0.395360 0.872720
O O2 0.402200 0.494946 0.667278
O O3 0.471926 0.709842 0.692087
O O4 0.237329 0.929068 0.992685
O O5 0.380751 0.859222 0.093835
O O6 0.151575 0.026473 0.326622
O O7 0.244058 0.028017 0.444342
O O8 0.366037 0.515980 0.211207
O O9 0.500000 0.000000 0.000000
O O10 0.977972 0.380613 0.330125
O O11 0.102760 0.822296 0.211326
O O12 0.816530 0.698067 0.290960
O O13 0.961999 0.764831 0.229658
O O14 0.822984 0.448286 0.085493
O O15 0.034509 0.860769 0.850943
O O16 0.299660 0.480025 0.574473
O O17 0.500000 0.000000 0.500000
#
# Coordination Sequence:
#
# PCOD8019265 Si02
#       8
#     2   2   2   2   2   2   2   2
#     4  10  24  44  67 101 139 175 235 288 338 409
#     4  10  24  43  63 103 134 169 233 282 334 412
#     4  10  24  46  72  96 137 188 226 285 344 401
#     4  10  22  43  64  95 135 176 225 279 343 401
#     4  11  24  39  70  96 134 177 218 284 337 415
#     4  10  22  41  66  91 134 177 220 281 327 410
#     4  11  25  40  70 102 137 181 224 288 345 410
#     4  10  23  42  61 100 131 175 228 267 349 400
#
# _framework density 23.562902000000001
#
# number of rings (size 3 to 8) (size 9 to 14) (size 15 to 20)
#    0.000    1.750    1.250    0.750    5.250    8.500 
#    0.000    0.000    0.000    0.000    0.000    0.000 
#    0.000    0.000    0.000    0.000    0.000    0.000 
#
# Total GULP energy -198230.047774 kJ/mol
# GULP energy per Si atom -12389.377986 kJ/mol
# Density = 2.350927 g / cm^3
# Si number density = 23.562902 Si / 1000 Ang^3
#
#
#
# Elastic Constant Matrix: (Units=GPa)
#
#
# Indices 1 2 3 4 5 6 
#
# 1 138.0050 29.5583 9.1054 -5.7979 -8.7331 45.5672
# 2 29.5583 112.6950 51.0022 12.0798 9.5182 25.8602
# 3 9.1054 51.0022 159.4313 46.5663 18.0037 -6.5886
# 4 -5.7979 12.0798 46.5663 50.6747 21.4430 -15.0364
# 5 -8.7331 9.5182 18.0037 21.4430 51.3202 -9.3932
# 6 45.5672 25.8602 -6.5886 -15.0364 -9.3932 54.2208
#
#
#
# Elastic Compliance Matrix: (Units=1/GPa)
#
#
# Indices 1 2 3 4 5 6 
#
# 1 0.010232 -0.000390 -0.000584 -0.001154 0.000918 -0.008645
# 2 -0.000390 0.012456 -0.003833 -0.000607 -0.001984 -0.006591
# 3 -0.000584 -0.003833 0.009882 -0.008163 0.000811 0.001396
# 4 -0.001154 -0.000607 -0.008163 0.033781 -0.009885 0.007923
# 5 0.000918 -0.001984 0.000811 -0.009885 0.024170 0.001720
# 6 -0.008645 -0.006591 0.001396 0.007923 0.001720 0.031517
#
#
# Mechanical properties :
#
#
# Convention : Reuss Voigt Hill
#
# Bulk Modulus (GPa) = 43.55978 65.49591 54.52785
# Shear Modulus (GPa) = 35.89282 52.60751 44.25016
#
# Velocity S-wave (km/s) = 3.90715 4.73021 4.33824
# Velocity P-wave (km/s) = 6.23548 7.59537 6.94877
#
# Compressibility (1/GPa) = 0.02295696
#
# Stress axis : x y z
#
# Youngs Moduli (GPa) = 97.73063 80.28451 101.19208
#
# Poissons Ratio (x) = 0.03128 0.05906
# Poissons Ratio (y) = 0.03808 0.38789
# Poissons Ratio (z) = 0.05704 0.30775
#
# Static dielectric constant tensor:
#      x y z
#    x 4.736260 0.302980 0.040090 
#    y 0.302980 4.274120 0.734620 
#    z 0.040090 0.734620 5.116050 
# 
# 
# High freq. dielectric constant tensor:
#      x y z
#    x 1.957270 0.023150 -0.004360 
#    y 0.023150 1.902990 0.023980 
#    z -0.004360 0.023980 1.937380 
# 
# From -- ./inp_files/459501.got.cif
#   From: 2010.06.25/outbox.cif.g09.slc.cpg/sg2_230_cif.got.tgz:459501.got - 2010.06.27 13:26:56.
