data_PCOD8019552
_publ_section_title
;
Structure prediction by ZEFSAII (Michael W. Deem and Ramdas Pophale) SiO2 
 PCOD8019552
Probable space group: P -1
;
_chemical_formula_sum "Si O2"
_cell_formula_units_Z 16
_cell_length_a 17.273334
_cell_length_b 11.552995
_cell_length_c 8.352863
_cell_angle_alpha 113.453685
_cell_angle_beta 76.829957
_cell_angle_gamma 148.347796
_cell_volume 780.843840
_symmetry_space_group_name_H-M "P -1"
_symmetry_group_IT_number 2
_symmetry_cell_setting 'triclinic'
loop_
_space_group_symop_operation_xyz
x,y,z
-x,-y,-z
loop_
_atom_site_type_symbol
_atom_site_label
_atom_site_fract_x
_atom_site_fract_y
_atom_site_fract_z
Si Si1 0.745509 0.589775 0.578890
Si Si2 0.567526 0.969769 0.532455
Si Si3 0.057443 0.925632 0.770380
Si Si4 0.849716 0.251703 0.019565
Si Si5 0.863466 0.994159 0.851312
Si Si6 0.832295 0.678242 0.220337
Si Si7 0.853232 0.225677 0.374233
Si Si8 0.655076 0.199188 0.949686
O O1 0.576896 0.313494 0.533891
O O2 0.734397 0.718029 0.719959
O O3 0.772162 0.618449 0.393241
O O4 0.881033 0.701220 0.673391
O O5 0.500000 0.000000 0.500000
O O6 0.696134 0.072471 0.426199
O O7 0.648588 0.125310 0.740460
O O8 0.128532 0.894619 0.642671
O O9 0.162277 0.182610 0.802021
O O10 0.067503 0.932301 0.962190
O O11 0.865108 0.244363 0.191467
O O12 0.734337 0.207911 0.033138
O O13 0.000000 0.500000 0.000000
O O14 0.799048 0.045342 0.864139
O O15 0.999422 0.150240 0.749084
O O16 0.731778 0.440524 0.039030
O O17 0.000000 0.500000 0.500000
O O18 0.500000 0.000000 0.000000
#
# Coordination Sequence:
#
# PCOD8019552 Si02
#       8
#     2   2   2   2   2   2   2   2
#     4  11  23  41  64  98 129 168 216 266 321 380
#     4  12  27  42  66  97 132 170 214 271 322 386
#     4  10  23  42  68  95 128 169 216 265 321 382
#     4  11  23  43  68  94 128 167 216 267 314 385
#     4  10  22  41  68  97 124 171 214 267 320 380
#     4  11  22  39  67  93 129 168 215 260 317 383
#     4  11  25  43  68  97 128 172 217 264 320 384
#     4  12  25  43  63  97 131 169 213 265 332 375
#
# _framework density 20.490652000000001
#
# number of rings (size 3 to 8) (size 9 to 14) (size 15 to 20)
#    0.000    1.000    2.500    5.250    7.000    3.000 
#    2.250    2.500    0.000    0.000    0.000    0.000 
#    0.000    0.000    0.000    0.000    0.000    0.000 
#
# Total GULP energy -198271.332432 kJ/mol
# GULP energy per Si atom -12391.958277 kJ/mol
# Density = 2.044401 g / cm^3
# Si number density = 20.490652 Si / 1000 Ang^3
#
#
#
# Elastic Constant Matrix: (Units=GPa)
#
#
# Indices 1 2 3 4 5 6 
#
# 1 133.4974 66.9445 29.4774 14.6821 -34.4441 -9.8879
# 2 66.9445 146.9983 52.5259 12.1360 -19.4678 -3.8380
# 3 29.4774 52.5259 93.1299 19.7887 -25.8207 -10.4223
# 4 14.6821 12.1360 19.7887 41.2320 -1.5726 -8.2423
# 5 -34.4441 -19.4678 -25.8207 -1.5726 33.2007 2.0055
# 6 -9.8879 -3.8380 -10.4223 -8.2423 2.0055 33.1770
#
#
#
# Elastic Compliance Matrix: (Units=1/GPa)
#
#
# Indices 1 2 3 4 5 6 
#
# 1 0.013343 -0.005186 0.003470 -0.003845 0.013154 0.002716
# 2 -0.005186 0.010620 -0.005697 0.000994 -0.003437 -0.001652
# 3 0.003470 -0.005697 0.018770 -0.007303 0.014293 0.003593
# 4 -0.003845 0.000994 -0.007303 0.029424 -0.007963 0.004466
# 5 0.013154 -0.003437 0.014293 -0.007963 0.052317 0.002872
# 6 0.002716 -0.001652 0.003593 0.004466 0.002872 0.032824
#
#
# Mechanical properties :
#
#
# Convention : Reuss Voigt Hill
#
# Bulk Modulus (GPa) = 35.83475 74.61347 55.22411
# Shear Modulus (GPa) = 27.55925 36.50046 32.02986
#
# Velocity S-wave (km/s) = 3.67136 4.22515 3.95795
# Velocity P-wave (km/s) = 5.95803 7.76499 6.92073
#
# Compressibility (1/GPa) = 0.02790587
#
# Stress axis : x y z
#
# Youngs Moduli (GPa) = 74.94348 94.16228 53.27767
#
# Poissons Ratio (x) = 0.48833 -0.18486
# Poissons Ratio (y) = 0.38866 0.30354
# Poissons Ratio (z) = -0.26003 0.53647
#
# Static dielectric constant tensor:
#      x y z
#    x 3.779530 -0.177390 -0.173530 
#    y -0.177390 3.725170 -0.036550 
#    z -0.173530 -0.036550 3.863120 
# 
# 
# High freq. dielectric constant tensor:
#      x y z
#    x 1.804930 -0.014700 -0.015510 
#    y -0.014700 1.806110 -0.001610 
#    z -0.015510 -0.001610 1.817710 
# 
# From -- ./inp_files/332340.got.cif
#   From: 2010.06.25/outbox.cif.g09.slc.cpg/sg2_167_cif.got.tgz:332340.got - 2010.06.27 13:26:56.
