data_PCOD8019522
_publ_section_title
;
Structure prediction by ZEFSAII (Michael W. Deem and Ramdas Pophale) SiO2 
 PCOD8019522
Probable space group: P -1
;
_chemical_formula_sum "Si O2"
_cell_formula_units_Z 16
_cell_length_a 9.467491
_cell_length_b 9.703338
_cell_length_c 14.793869
_cell_angle_alpha 97.308789
_cell_angle_beta 130.962006
_cell_angle_gamma 114.594794
_cell_volume 758.419746
_symmetry_space_group_name_H-M "P -1"
_symmetry_group_IT_number 2
_symmetry_cell_setting 'triclinic'
loop_
_space_group_symop_operation_xyz
x,y,z
-x,-y,-z
loop_
_atom_site_type_symbol
_atom_site_label
_atom_site_fract_x
_atom_site_fract_y
_atom_site_fract_z
Si Si1 0.766321 0.183573 0.592287
Si Si2 0.415009 0.643185 0.562512
Si Si3 0.285010 0.879504 0.972173
Si Si4 0.883695 0.272201 0.843401
Si Si5 0.353236 0.662465 0.111388
Si Si6 0.135137 0.246621 0.349367
Si Si7 0.744632 0.943048 0.860993
Si Si8 0.077040 0.083596 0.638053
O O1 0.742890 0.297878 0.522188
O O2 0.911941 0.310356 0.751967
O O3 0.921060 0.140602 0.604540
O O4 0.500000 0.000000 0.500000
O O5 0.226650 0.418942 0.465955
O O6 0.626272 0.722330 0.581731
O O7 0.541546 0.729951 0.721671
O O8 0.016697 0.774437 0.803759
O O9 0.277667 0.724188 0.001002
O O10 0.500000 0.000000 0.000000
O O11 0.356836 0.026158 0.091905
O O12 0.671569 0.266917 0.798247
O O13 0.803513 0.074624 0.812866
O O14 0.156418 0.437956 0.014697
O O15 0.628126 0.734520 0.221819
O O16 0.961234 0.061880 0.320952
O O17 0.000000 0.000000 0.000000
O O18 0.000000 0.000000 0.500000
#
# Coordination Sequence:
#
# PCOD8019522 Si02
#       8
#     2   2   2   2   2   2   2   2
#     4  12  22  41  69  94 130 171 220 264 320 383
#     4  11  24  42  68  99 129 171 219 273 314 387
#     4  11  22  40  67  92 129 170 208 265 329 383
#     4  10  22  41  68  94 122 170 216 266 320 382
#     4  10  23  42  66  95 130 163 217 267 323 383
#     4  11  23  43  68  98 130 170 220 263 328 385
#     4  11  22  39  64  95 128 165 217 262 321 381
#     4  12  26  42  66  96 134 173 212 266 328 382
#
# _framework density 21.096496999999999
#
# number of rings (size 3 to 8) (size 9 to 14) (size 15 to 20)
#    0.000    1.000    5.000    1.500    1.750    1.500 
#    0.000    5.000    0.000    0.000    0.000    0.000 
#    0.000    0.000    0.000    0.000    0.000    0.000 
#
# Total GULP energy -198447.709810 kJ/mol
# GULP energy per Si atom -12402.981863 kJ/mol
# Density = 2.104848 g / cm^3
# Si number density = 21.096497 Si / 1000 Ang^3
#
#
#
# Elastic Constant Matrix: (Units=GPa)
#
#
# Indices 1 2 3 4 5 6 
#
# 1 130.8139 41.8215 53.1542 -0.6056 5.2300 -11.0404
# 2 41.8215 54.0590 29.4555 4.3684 -1.2726 -15.3282
# 3 53.1542 29.4555 120.3945 0.3457 -11.0400 -17.9218
# 4 -0.6056 4.3684 0.3457 39.0719 0.7145 -0.0706
# 5 5.2300 -1.2726 -11.0400 0.7145 43.7791 -0.8366
# 6 -11.0404 -15.3282 -17.9218 -0.0706 -0.8366 31.3094
#
#
#
# Elastic Compliance Matrix: (Units=1/GPa)
#
#
# Indices 1 2 3 4 5 6 
#
# 1 0.011542 -0.007552 -0.003765 0.001101 -0.002601 -0.001850
# 2 -0.007552 0.028639 -0.002002 -0.003310 0.001480 0.010244
# 3 -0.003765 -0.002002 0.011407 0.000011 0.003350 0.004311
# 4 0.001101 -0.003310 0.000011 0.025991 -0.000672 -0.001185
# 5 -0.002601 0.001480 0.003350 -0.000672 0.024097 0.002367
# 6 -0.001850 0.010244 0.004311 -0.001185 0.002367 0.038830
#
#
# Mechanical properties :
#
#
# Convention : Reuss Voigt Hill
#
# Bulk Modulus (GPa) = 40.08261 61.56998 50.82630
# Shear Modulus (GPa) = 28.49637 34.88783 31.69210
#
# Velocity S-wave (km/s) = 3.67926 4.07101 3.88008
# Velocity P-wave (km/s) = 6.09017 7.16560 6.64966
#
# Compressibility (1/GPa) = 0.02494847
#
# Stress axis : x y z
#
# Youngs Moduli (GPa) = 86.64217 34.91775 87.66450
#
# Poissons Ratio (x) = 0.26370 0.33006
# Poissons Ratio (y) = 0.65434 0.17554
# Poissons Ratio (z) = 0.32621 0.06992
#
# Static dielectric constant tensor:
#      x y z
#    x 3.553640 -0.192500 0.337690 
#    y -0.192500 3.813460 0.139830 
#    z 0.337690 0.139830 3.456840 
# 
# 
# High freq. dielectric constant tensor:
#      x y z
#    x 1.825550 -0.009040 -0.006070 
#    y -0.009040 1.817860 -0.001100 
#    z -0.006070 -0.001100 1.839910 
# 
# From -- ./inp_files/358877.got.cif
#   From: 2010.06.25/outbox.cif.g09.slc.cpg/sg2_180_cif.got.tgz:358877.got - 2010.06.27 13:26:56.
