data_PCOD8019717
_publ_section_title
;
Structure prediction by ZEFSAII (Michael W. Deem and Ramdas Pophale) SiO2 
 PCOD8019717
Probable space group: P -1
;
_chemical_formula_sum "Si O2"
_cell_formula_units_Z 14
_cell_length_a 24.375576
_cell_length_b 8.598173
_cell_length_c 8.836283
_cell_angle_alpha 49.588546
_cell_angle_beta 152.162892
_cell_angle_gamma 138.128306
_cell_volume 576.906690
_symmetry_space_group_name_H-M "P -1"
_symmetry_group_IT_number 2
_symmetry_cell_setting 'triclinic'
loop_
_space_group_symop_operation_xyz
x,y,z
-x,-y,-z
loop_
_atom_site_type_symbol
_atom_site_label
_atom_site_fract_x
_atom_site_fract_y
_atom_site_fract_z
Si Si1 0.599297 0.338679 0.990109
Si Si2 0.749264 0.172449 0.257916
Si Si3 0.046263 0.827206 0.798085
Si Si4 0.024539 0.361679 0.934454
Si Si5 0.487254 0.724788 0.845358
Si Si6 0.678482 0.766909 0.719680
Si Si7 0.263640 0.508771 0.214450
O O1 0.673698 0.610824 0.951277
O O2 0.457541 0.215808 0.632296
O O3 0.685885 0.219467 0.223295
O O4 0.583782 0.290284 0.159582
O O5 0.884456 0.169126 0.639344
O O6 0.792665 0.378792 0.113833
O O7 0.637394 0.934639 0.061113
O O8 0.028714 0.614803 0.781246
O O9 0.960387 0.713548 0.811862
O O10 0.000000 0.000000 0.500000
O O11 0.202115 0.975078 0.127418
O O12 0.144800 0.360855 0.134818
O O13 0.390231 0.717860 0.477530
O O14 0.500000 0.500000 0.000000
O O15 0.693212 0.661109 0.661487
#
# Coordination Sequence:
#
# PCOD8019717 Si02
#       7
#     2   2   2   2   2   2   2
#     4  10  22  41  70  97 140 181 231 280 352 410
#     4  11  25  47  69  97 143 185 226 286 350 416
#     4  11  25  45  71 103 141 186 237 285 346 418
#     4  11  27  46  72 103 142 186 236 284 351 418
#     4  12  25  42  68 107 137 178 235 286 347 415
#     4  10  22  43  69 101 137 182 231 286 346 415
#     4  11  25  45  70 103 141 180 231 288 351 412
#
# _framework density 24.267354999999998
#
# number of rings (size 3 to 8) (size 9 to 14) (size 15 to 20)
#    0.000    1.143    1.429    3.857    8.000    1.714 
#    0.000    0.000    0.000    0.000    0.000    0.000 
#    0.000    0.000    0.000    0.000    0.000    0.000 
#
# Total GULP energy -173636.276370 kJ/mol
# GULP energy per Si atom -12402.591169 kJ/mol
# Density = 2.421212 g / cm^3
# Si number density = 24.267355 Si / 1000 Ang^3
#
#
#
# Elastic Constant Matrix: (Units=GPa)
#
#
# Indices 1 2 3 4 5 6 
#
# 1 66.4231 18.6818 18.2229 16.1356 0.4754 16.5405
# 2 18.6818 85.9316 22.2977 21.9887 2.1396 9.8015
# 3 18.2229 22.2977 89.5387 23.3968 -4.7919 -3.7446
# 4 16.1356 21.9887 23.3968 46.6473 6.1217 -1.7285
# 5 0.4754 2.1396 -4.7919 6.1217 31.8987 7.7689
# 6 16.5405 9.8015 -3.7446 -1.7285 7.7689 20.9687
#
#
#
# Elastic Compliance Matrix: (Units=1/GPa)
#
#
# Indices 1 2 3 4 5 6 
#
# 1 0.023294 0.000220 -0.003265 -0.008133 0.006061 -0.021976
# 2 0.000220 0.014798 -0.002290 -0.006498 0.002049 -0.008795
# 3 -0.003265 -0.002290 0.013999 -0.004894 0.002029 0.004991
# 4 -0.008133 -0.006498 -0.004894 0.031612 -0.009858 0.014837
# 5 0.006061 0.002049 0.002029 -0.009858 0.038280 -0.020371
# 6 -0.021976 -0.008795 0.004991 0.014837 -0.020371 0.078798
#
#
# Mechanical properties :
#
#
# Convention : Reuss Voigt Hill
#
# Bulk Modulus (GPa) = 24.14235 40.03316 32.08776
# Shear Modulus (GPa) = 22.19666 32.08233 27.13950
#
# Velocity S-wave (km/s) = 3.02764 3.63993 3.34781
# Velocity P-wave (km/s) = 4.71086 5.84790 5.30990
#
# Compressibility (1/GPa) = 0.04142099
#
# Stress axis : x y z
#
# Youngs Moduli (GPa) = 42.92999 67.57479 71.43206
#
# Poissons Ratio (x) = -0.01487 0.23323
# Poissons Ratio (y) = -0.00945 0.16360
# Poissons Ratio (z) = 0.14017 0.15476
#
# Static dielectric constant tensor:
#      x y z
#    x 4.160600 0.579810 0.306100 
#    y 0.579810 4.026530 -0.223430 
#    z 0.306100 -0.223430 3.947930 
# 
# 
# High freq. dielectric constant tensor:
#      x y z
#    x 1.960760 0.014170 -0.003540 
#    y 0.014170 1.965880 0.005810 
#    z -0.003540 0.005810 1.969530 
# 
# From -- ./inp_files/352090.got.cif
#   From: 2010.06.25/outbox.cif.g09.slc.cpg/sg2_177_cif.got.tgz:352090.got - 2010.06.27 13:26:56.
