data_PCOD8019612
_publ_section_title
;
Structure prediction by ZEFSAII (Michael W. Deem and Ramdas Pophale) SiO2 
 PCOD8019612
Probable space group: P -1
;
_chemical_formula_sum "Si O2"
_cell_formula_units_Z 14
_cell_length_a 8.115925
_cell_length_b 17.514300
_cell_length_c 19.769116
_cell_angle_alpha 158.923779
_cell_angle_beta 42.009968
_cell_angle_gamma 137.897560
_cell_volume 662.360083
_symmetry_space_group_name_H-M "P -1"
_symmetry_group_IT_number 2
_symmetry_cell_setting 'triclinic'
loop_
_space_group_symop_operation_xyz
x,y,z
-x,-y,-z
loop_
_atom_site_type_symbol
_atom_site_label
_atom_site_fract_x
_atom_site_fract_y
_atom_site_fract_z
Si Si1 0.113648 0.380057 0.186129
Si Si2 0.982949 0.181880 0.779545
Si Si3 0.926526 0.801764 0.572973
Si Si4 0.412960 0.200815 0.442899
Si Si5 0.953407 0.268248 0.290276
Si Si6 0.787137 0.984148 0.903018
Si Si7 0.654983 0.519641 0.178119
O O1 0.408020 0.376845 0.100570
O O2 0.104376 0.628230 0.377251
O O3 0.962050 0.288808 0.224281
O O4 0.976018 0.219949 0.037146
O O5 0.222493 0.285827 0.748229
O O6 0.070711 0.033830 0.689567
O O7 0.776830 0.024144 0.664705
O O8 0.854386 0.367202 0.005735
O O9 0.686119 0.706781 0.520098
O O10 0.840212 0.835904 0.702849
O O11 0.681986 0.143560 0.297029
O O12 0.427608 0.381269 0.645528
O O13 0.000000 0.500000 0.500000
O O14 0.161783 0.136476 0.142957
O O15 0.500000 0.000000 0.000000
#
# Coordination Sequence:
#
# PCOD8019612 Si02
#       7
#     2   2   2   2   2   2   2
#     4  12  26  41  66  94 128 171 207 259 320 364
#     4   9  24  40  66  96 122 163 218 258 309 374
#     4  10  25  41  61  98 127 162 214 260 307 376
#     4  10  22  41  69  88 132 162 209 260 311 373
#     4  12  23  42  64  96 126 164 213 255 307 386
#     4  12  27  41  63  93 133 169 205 258 316 377
#     4  11  21  43  69  92 122 168 215 258 313 376
#
# _framework density 21.136538999999999
#
# number of rings (size 3 to 8) (size 9 to 14) (size 15 to 20)
#    0.857    0.286    2.857    2.571    6.000    1.714 
#    0.000    0.714    0.000    0.000    0.000    0.000 
#    0.000    0.000    0.000    0.000    0.000    0.000 
#
# Total GULP energy -173557.157635 kJ/mol
# GULP energy per Si atom -12396.939831 kJ/mol
# Density = 2.108843 g / cm^3
# Si number density = 21.136539 Si / 1000 Ang^3
#
#
#
# Elastic Constant Matrix: (Units=GPa)
#
#
# Indices 1 2 3 4 5 6 
#
# 1 89.5913 36.9296 30.7228 -1.9675 -1.9661 3.9084
# 2 36.9296 96.6462 25.8458 7.5921 -5.2081 14.5496
# 3 30.7228 25.8458 85.2158 9.9870 -13.1408 -1.0052
# 4 -1.9675 7.5921 9.9870 31.8417 -1.8968 -3.7969
# 5 -1.9661 -5.2081 -13.1408 -1.8968 35.8507 14.0523
# 6 3.9084 14.5496 -1.0052 -3.7969 14.0523 35.8220
#
#
#
# Elastic Compliance Matrix: (Units=1/GPa)
#
#
# Indices 1 2 3 4 5 6 
#
# 1 0.014753 -0.005041 -0.004493 0.003580 -0.001952 0.001457
# 2 -0.005041 0.014287 -0.001554 -0.003862 0.003854 -0.007217
# 3 -0.004493 -0.001554 0.015143 -0.004462 0.005225 -0.000976
# 4 0.003580 -0.003862 -0.004462 0.034478 -0.002388 0.005644
# 5 -0.001952 0.003854 0.005225 -0.002388 0.036287 -0.015694
# 6 0.001457 -0.007217 -0.000976 0.005644 -0.015694 0.037415
#
#
# Mechanical properties :
#
#
# Convention : Reuss Voigt Hill
#
# Bulk Modulus (GPa) = 45.44242 50.93887 48.19064
# Shear Modulus (GPa) = 27.49149 32.56654 30.02902
#
# Velocity S-wave (km/s) = 3.61038 3.92952 3.77333
# Velocity P-wave (km/s) = 6.23907 6.68883 6.46786
#
# Compressibility (1/GPa) = 0.02200587
#
# Stress axis : x y z
#
# Youngs Moduli (GPa) = 67.78296 69.99600 66.03595
#
# Poissons Ratio (x) = 0.35288 0.29672
# Poissons Ratio (y) = 0.34173 0.10260
# Poissons Ratio (z) = 0.30457 0.10875
#
# Static dielectric constant tensor:
#      x y z
#    x 3.855660 0.123740 -0.082840 
#    y 0.123740 3.865150 -0.133860 
#    z -0.082840 -0.133860 4.170220 
# 
# 
# High freq. dielectric constant tensor:
#      x y z
#    x 1.821360 0.004340 0.001220 
#    y 0.004340 1.813540 0.009020 
#    z 0.001220 0.009020 1.842300 
# 
# From -- ./inp_files/591247.got.cif
#   From: 2010.06.25/outbox.cif.g09.slc.cpg/sg2_296_cif.got.tgz:591247.got - 2010.06.27 13:26:56.
