data_PCOD8019699
_publ_section_title
;
Structure prediction by ZEFSAII (Michael W. Deem and Ramdas Pophale) SiO2 
 PCOD8019699
Probable space group: P -1
;
_chemical_formula_sum "Si O2"
_cell_formula_units_Z 16
_cell_length_a 12.325130
_cell_length_b 8.517018
_cell_length_c 21.157952
_cell_angle_alpha 36.562632
_cell_angle_beta 142.107860
_cell_angle_gamma 143.290045
_cell_volume 722.083692
_symmetry_space_group_name_H-M "P -1"
_symmetry_group_IT_number 2
_symmetry_cell_setting 'triclinic'
loop_
_space_group_symop_operation_xyz
x,y,z
-x,-y,-z
loop_
_atom_site_type_symbol
_atom_site_label
_atom_site_fract_x
_atom_site_fract_y
_atom_site_fract_z
Si Si1 0.598391 0.958774 0.365715
Si Si2 0.597833 0.018185 0.118683
Si Si3 0.822155 0.205812 0.042893
Si Si4 0.832519 0.458560 0.486363
Si Si5 0.859139 0.075811 0.334179
Si Si6 0.140256 0.056875 0.275729
Si Si7 0.262560 0.357926 0.370478
Si Si8 0.516476 0.378046 0.272641
O O1 0.798333 0.104456 0.368396
O O2 0.422361 0.702243 0.327346
O O3 0.636065 0.824295 0.490929
O O4 0.539682 0.216405 0.273072
O O5 0.697351 0.102663 0.205497
O O6 0.609954 0.727398 0.191416
O O7 0.726359 0.265627 0.044580
O O8 0.367845 0.959329 0.038034
O O9 0.919394 0.989372 0.174813
O O10 0.000000 0.500000 0.000000
O O11 0.870798 0.768675 0.433321
O O12 0.620209 0.307970 0.403077
O O13 0.000000 0.500000 0.500000
O O14 0.841343 0.246650 0.614030
O O15 0.076720 0.336967 0.333267
O O16 0.189798 0.228450 0.309748
O O17 0.286766 0.260538 0.222847
#
# Coordination Sequence:
#
# PCOD8019699 Si02
#       8
#     2   2   2   2   2   2   2   2
#     4  11  25  37  57  90 139 167 202 236 305 391
#     4  10  22  41  70  93 119 155 212 265 310 360
#     4  11  22  40  66 100 116 151 210 274 313 352
#     4  11  20  35  61  92 125 159 206 258 309 366
#     4  11  22  41  62  93 129 167 199 250 315 373
#     4  12  21  38  65  90 126 160 208 263 310 355
#     4  11  22  39  57  91 126 174 200 245 307 373
#     4  11  22  39  59  96 126 163 205 253 310 371
#
# _framework density 22.158094999999999
#
# number of rings (size 3 to 8) (size 9 to 14) (size 15 to 20)
#    0.000    1.000    5.000    3.000    3.500    0.000 
#    2.250    0.000    0.000    6.000    0.000    0.000 
#    0.000    0.000    0.000    0.000    0.000    0.000 
#
# Total GULP energy -198380.733359 kJ/mol
# GULP energy per Si atom -12398.795835 kJ/mol
# Density = 2.210766 g / cm^3
# Si number density = 22.158095 Si / 1000 Ang^3
#
#
#
# Elastic Constant Matrix: (Units=GPa)
#
#
# Indices 1 2 3 4 5 6 
#
# 1 120.7033 23.4407 4.1639 -6.5465 7.7478 18.9026
# 2 23.4407 53.4204 19.6329 6.2830 8.0726 20.3911
# 3 4.1639 19.6329 93.2045 21.5482 11.3186 2.7507
# 4 -6.5465 6.2830 21.5482 24.3842 15.6140 4.1244
# 5 7.7478 8.0726 11.3186 15.6140 30.7201 2.4096
# 6 18.9026 20.3911 2.7507 4.1244 2.4096 39.2549
#
#
#
# Elastic Compliance Matrix: (Units=1/GPa)
#
#
# Indices 1 2 3 4 5 6 
#
# 1 0.010322 -0.002771 -0.001094 0.008707 -0.005582 -0.004026
# 2 -0.002771 0.026911 -0.005032 0.001649 -0.004400 -0.012195
# 3 -0.001094 -0.005032 0.014742 -0.014796 0.003416 0.003452
# 4 0.008707 0.001649 -0.014796 0.082153 -0.038125 -0.010304
# 5 -0.005582 -0.004400 0.003416 -0.038125 0.052804 0.005499
# 6 -0.004026 -0.012195 0.003452 -0.010304 0.005499 0.034251
#
#
# Mechanical properties :
#
#
# Convention : Reuss Voigt Hill
#
# Bulk Modulus (GPa) = 29.25556 40.20037 34.72797
# Shear Modulus (GPa) = 19.97054 33.54455 26.75755
#
# Velocity S-wave (km/s) = 3.00538 3.89507 3.47879
# Velocity P-wave (km/s) = 5.02741 6.19764 5.64294
#
# Compressibility (1/GPa) = 0.03418153
#
# Stress axis : x y z
#
# Youngs Moduli (GPa) = 96.88370 37.16018 67.83447
#
# Poissons Ratio (x) = 0.10296 0.07419
# Poissons Ratio (y) = 0.26844 0.34132
# Poissons Ratio (z) = 0.10597 0.18698
#
# Static dielectric constant tensor:
#      x y z
#    x 3.963240 0.330720 0.148110 
#    y 0.330720 4.051090 0.059260 
#    z 0.148110 0.059260 4.329970 
# 
# 
# High freq. dielectric constant tensor:
#      x y z
#    x 1.867310 0.034660 0.002720 
#    y 0.034660 1.854800 0.014090 
#    z 0.002720 0.014090 1.869190 
# 
# From -- ./inp_files/255917.got.cif
#   From: 2010.06.25/outbox.cif.g09.slc.cpg/sg2_128_cif.got.tgz:255917.got - 2010.06.27 13:26:56.
