data_PCOD8019791
_publ_section_title
;
Structure prediction by ZEFSAII (Michael W. Deem and Ramdas Pophale) SiO2 
 PCOD8019791
Probable space group: P -1
;
_chemical_formula_sum "Si O2"
_cell_formula_units_Z 14
_cell_length_a 16.084225
_cell_length_b 10.533694
_cell_length_c 13.827418
_cell_angle_alpha 149.582005
_cell_angle_beta 34.529576
_cell_angle_gamma 127.054984
_cell_volume 623.051638
_symmetry_space_group_name_H-M "P -1"
_symmetry_group_IT_number 2
_symmetry_cell_setting 'triclinic'
loop_
_space_group_symop_operation_xyz
x,y,z
-x,-y,-z
loop_
_atom_site_type_symbol
_atom_site_label
_atom_site_fract_x
_atom_site_fract_y
_atom_site_fract_z
Si Si1 0.191984 0.895555 0.323159
Si Si2 0.105158 0.499081 0.806230
Si Si3 0.964253 0.741857 0.894397
Si Si4 0.346157 0.098062 0.806328
Si Si5 0.505299 0.431026 0.779573
Si Si6 0.847598 0.105840 0.851859
Si Si7 0.238761 0.315712 0.255007
O O1 0.177915 0.766613 0.147552
O O2 0.208820 0.185375 0.478696
O O3 0.348704 0.694314 0.090128
O O4 0.038773 0.924713 0.554764
O O5 0.011261 0.646144 0.896889
O O6 0.205770 0.669012 0.863344
O O7 0.000000 0.500000 0.000000
O O8 0.061282 0.520440 0.577599
O O9 0.778055 0.804124 0.100000
O O10 0.000000 0.000000 0.000000
O O11 0.473013 0.243156 0.770237
O O12 0.435452 0.769801 0.501943
O O13 0.250206 0.187010 0.054554
O O14 0.640859 0.535931 0.747808
O O15 0.738626 0.929604 0.853161
#
# Coordination Sequence:
#
# PCOD8019791 Si02
#       7
#     2   2   2   2   2   2   2
#     4  10  22  45  68  97 135 179 222 278 339 406
#     4  10  23  42  70 105 133 176 232 283 335 403
#     4  12  23  44  74 102 136 172 235 290 331 399
#     4  11  26  46  67  99 136 183 224 275 348 407
#     4  11  26  45  66  96 144 176 224 278 344 418
#     4  10  22  41  72  99 129 171 233 278 332 396
#     4  12  24  44  68 100 134 177 226 282 343 395
#
# _framework density 22.470047000000001
#
# number of rings (size 3 to 8) (size 9 to 14) (size 15 to 20)
#    0.000    1.143    2.857    2.571    4.000    4.000 
#    7.714    1.429    0.000    0.000    0.000    0.000 
#    0.000    0.000    0.000    0.000    0.000    0.000 
#
# Total GULP energy -173461.853074 kJ/mol
# GULP energy per Si atom -12390.132362 kJ/mol
# Density = 2.241890 g / cm^3
# Si number density = 22.470047 Si / 1000 Ang^3
#
#
#
# Elastic Constant Matrix: (Units=GPa)
#
#
# Indices 1 2 3 4 5 6 
#
# 1 63.7395 37.1602 39.1412 6.1921 15.8940 -3.9912
# 2 37.1602 126.1886 24.0391 11.8042 4.9492 11.4368
# 3 39.1412 24.0391 93.3026 9.2700 15.2751 -8.6298
# 4 6.1921 11.8042 9.2700 32.0631 -1.8199 0.4637
# 5 15.8940 4.9492 15.2751 -1.8199 40.6728 -6.7669
# 6 -3.9912 11.4368 -8.6298 0.4637 -6.7669 37.4254
#
#
#
# Elastic Compliance Matrix: (Units=1/GPa)
#
#
# Indices 1 2 3 4 5 6 
#
# 1 0.025773 -0.005879 -0.008067 -0.000850 -0.006100 0.001592
# 2 -0.005879 0.010275 -0.000355 -0.002465 0.000448 -0.003737
# 3 -0.008067 -0.000355 0.015051 -0.002821 -0.002191 0.002358
# 4 -0.000850 -0.002465 -0.002821 0.033256 0.003210 0.000181
# 5 -0.006100 0.000448 -0.002191 0.003210 0.028518 0.003824
# 6 0.001592 -0.003737 0.002358 0.000181 0.003824 0.029265
#
#
# Mechanical properties :
#
#
# Convention : Reuss Voigt Hill
#
# Bulk Modulus (GPa) = 44.45048 53.76797 49.10923
# Shear Modulus (GPa) = 28.05233 34.22493 31.13863
#
# Velocity S-wave (km/s) = 3.53715 3.90697 3.72665
# Velocity P-wave (km/s) = 6.04210 6.65832 6.35768
#
# Compressibility (1/GPa) = 0.02249694
#
# Stress axis : x y z
#
# Youngs Moduli (GPa) = 38.79990 97.32154 66.44246
#
# Poissons Ratio (x) = 0.57211 0.53600
# Poissons Ratio (y) = 0.22809 0.02361
# Poissons Ratio (z) = 0.31301 0.03459
#
# Static dielectric constant tensor:
#      x y z
#    x 3.975440 0.366710 0.408760 
#    y 0.366710 4.537640 0.373880 
#    z 0.408760 0.373880 4.544400 
# 
# 
# High freq. dielectric constant tensor:
#      x y z
#    x 1.861100 0.009880 0.024560 
#    y 0.009880 1.904820 0.010170 
#    z 0.024560 0.010170 1.885770 
# 
# From -- ./inp_files/538336.got.cif
#   From: 2010.06.25/outbox.cif.g09.slc.cpg/sg2_270_cif.got.tgz:538336.got - 2010.06.27 13:26:56.
