data_PCOD8019649
_publ_section_title
;
Structure prediction by ZEFSAII (Michael W. Deem and Ramdas Pophale) SiO2 
 PCOD8019649
Probable space group: P -1
;
_chemical_formula_sum "Si O2"
_cell_formula_units_Z 14
_cell_length_a 10.185575
_cell_length_b 7.191260
_cell_length_c 21.495796
_cell_angle_alpha 136.164350
_cell_angle_beta 143.250892
_cell_angle_gamma 54.833107
_cell_volume 652.445584
_symmetry_space_group_name_H-M "P -1"
_symmetry_group_IT_number 2
_symmetry_cell_setting 'triclinic'
loop_
_space_group_symop_operation_xyz
x,y,z
-x,-y,-z
loop_
_atom_site_type_symbol
_atom_site_label
_atom_site_fract_x
_atom_site_fract_y
_atom_site_fract_z
Si Si1 0.406294 0.937944 0.295946
Si Si2 0.119813 0.170361 0.338371
Si Si3 0.069695 0.003080 0.894007
Si Si4 0.335863 0.516988 0.885464
Si Si5 0.820339 0.222341 0.469479
Si Si6 0.479840 0.354128 0.148370
Si Si7 0.191610 0.931738 0.705269
O O1 0.498292 0.637754 0.259158
O O2 0.348641 0.040346 0.369284
O O3 0.582217 0.140481 0.383839
O O4 0.184119 0.941796 0.169274
O O5 0.116679 0.493001 0.407791
O O6 0.926220 0.053660 0.192442
O O7 0.053731 0.079595 0.360830
O O8 0.153050 0.727467 0.890440
O O9 0.228779 0.250023 0.031196
O O10 0.451662 0.622698 0.892033
O O11 0.231151 0.226675 0.763603
O O12 0.500000 0.500000 0.000000
O O13 0.804788 0.266420 0.399995
O O14 0.000000 0.000000 0.500000
O O15 0.631962 0.151927 0.195969
#
# Coordination Sequence:
#
# PCOD8019649 Si02
#       7
#     2   2   2   2   2   2   2
#     4  10  24  43  70  99 141 182 213 293 345 397
#     4  10  23  43  66  98 136 176 226 277 340 389
#     4  10  22  41  69  96 144 174 219 280 338 404
#     4  12  22  40  71 102 139 181 226 274 334 404
#     4  12  24  47  72  98 133 178 241 284 331 408
#     4  12  21  45  66 105 141 176 228 276 338 419
#     4  12  24  43  72 103 131 182 231 281 339 399
#
# _framework density 21.457727999999999
#
# number of rings (size 3 to 8) (size 9 to 14) (size 15 to 20)
#    0.857    0.000    4.286    4.286    0.000    0.000 
#    2.571    2.857    0.000    0.000    0.000    0.000 
#    0.000    0.000    0.000    0.000    0.000    0.000 
#
# Total GULP energy -173507.957865 kJ/mol
# GULP energy per Si atom -12393.425562 kJ/mol
# Density = 2.140889 g / cm^3
# Si number density = 21.457728 Si / 1000 Ang^3
#
#
#
# Elastic Constant Matrix: (Units=GPa)
#
#
# Indices 1 2 3 4 5 6 
#
# 1 116.2716 15.8110 28.8050 -7.5333 10.4061 13.9137
# 2 15.8110 72.9094 7.2145 2.1941 3.9498 3.2547
# 3 28.8050 7.2145 65.6438 8.7968 -2.6142 12.8571
# 4 -7.5333 2.1941 8.7968 33.3198 -7.3584 -6.0119
# 5 10.4061 3.9498 -2.6142 -7.3584 32.1651 1.7112
# 6 13.9137 3.2547 12.8571 -6.0119 1.7112 28.6379
#
#
#
# Elastic Compliance Matrix: (Units=1/GPa)
#
#
# Indices 1 2 3 4 5 6 
#
# 1 0.010647 -0.001687 -0.004526 0.002679 -0.002875 -0.002215
# 2 -0.001687 0.014306 -0.000504 -0.001694 -0.001595 -0.000840
# 3 -0.004526 -0.000504 0.019976 -0.007352 0.001913 -0.008370
# 4 0.002679 -0.001694 -0.007352 0.035772 0.006432 0.009317
# 5 -0.002875 -0.001595 0.001913 0.006432 0.033840 0.000047
# 6 -0.002215 -0.000840 -0.008370 0.009317 0.000047 0.041801
#
#
# Mechanical properties :
#
#
# Convention : Reuss Voigt Hill
#
# Bulk Modulus (GPa) = 31.75113 39.83175 35.79144
# Shear Modulus (GPa) = 27.73546 32.35752 30.04649
#
# Velocity S-wave (km/s) = 3.59912 3.88747 3.74607
# Velocity P-wave (km/s) = 5.66575 6.22519 5.95205
#
# Compressibility (1/GPa) = 0.03149495
#
# Stress axis : x y z
#
# Youngs Moduli (GPa) = 93.92152 69.89947 50.06028
#
# Poissons Ratio (x) = 0.11792 0.22659
# Poissons Ratio (y) = 0.15845 0.02522
# Poissons Ratio (z) = 0.42512 0.03522
#
# Static dielectric constant tensor:
#      x y z
#    x 3.884840 -0.124380 0.009650 
#    y -0.124380 3.826730 0.171180 
#    z 0.009650 0.171180 3.914880 
# 
# 
# High freq. dielectric constant tensor:
#      x y z
#    x 1.839440 -0.007710 0.001770 
#    y -0.007710 1.833420 0.013810 
#    z 0.001770 0.013810 1.848900 
# 
# From -- ./inp_files/515737.got.cif
#   From: 2010.06.25/outbox.cif.g09.slc.cpg/sg2_258_cif.got.tgz:515737.got - 2010.06.27 13:26:56.
