data_PCOD8019786
_publ_section_title
;
Structure prediction by ZEFSAII (Michael W. Deem and Ramdas Pophale) SiO2 
 PCOD8019786
Probable space group: P -1
;
_chemical_formula_sum "Si O2"
_cell_formula_units_Z 12
_cell_length_a 14.829591
_cell_length_b 9.003856
_cell_length_c 15.175283
_cell_angle_alpha 139.078208
_cell_angle_beta 147.823684
_cell_angle_gamma 30.381253
_cell_volume 543.287400
_symmetry_space_group_name_H-M "P -1"
_symmetry_group_IT_number 2
_symmetry_cell_setting 'triclinic'
loop_
_space_group_symop_operation_xyz
x,y,z
-x,-y,-z
loop_
_atom_site_type_symbol
_atom_site_label
_atom_site_fract_x
_atom_site_fract_y
_atom_site_fract_z
Si Si1 0.803833 0.496135 0.596796
Si Si2 0.557262 0.145597 0.298927
Si Si3 0.784857 0.101068 0.289812
Si Si4 0.527394 0.676516 0.033185
Si Si5 0.324051 0.785502 0.396260
Si Si6 0.016299 0.188406 0.167003
O O1 0.826590 0.329500 0.450673
O O2 0.559766 0.684988 0.517285
O O3 0.841019 0.729621 0.717491
O O4 0.989403 0.226775 0.694271
O O5 0.673864 0.068898 0.266651
O O6 0.346607 0.493421 0.287303
O O7 0.727411 0.066290 0.483212
O O8 0.466519 0.968988 0.158184
O O9 0.627611 0.236015 0.137644
O O10 0.776048 0.485506 0.121258
O O11 0.500000 0.500000 0.000000
O O12 0.126993 0.011881 0.269649
O O13 0.000000 0.000000 0.000000
#
# Coordination Sequence:
#
# PCOD8019786 Si02
#       6
#     2   2   2   2   2   2
#     4  10  22  41  72  96 130 176 222 271 330 393
#     4  10  22  45  69  93 133 180 219 269 326 391
#     4  10  22  45  71  95 128 179 227 265 332 394
#     4  12  28  43  68 100 136 175 221 276 329 392
#     4  10  24  42  70  99 133 172 225 273 329 393
#     4  12  26  42  67 102 139 173 216 279 336 384
#
# _framework density 22.087758999999998
#
# number of rings (size 3 to 8) (size 9 to 14) (size 15 to 20)
#    0.000    1.333    1.667    3.000    7.000    6.000 
#    0.000    1.667    0.000    0.000    0.000    0.000 
#    0.000    0.000    0.000    0.000    0.000    0.000 
#
# Total GULP energy -148784.101131 kJ/mol
# GULP energy per Si atom -12398.675094 kJ/mol
# Density = 2.203749 g / cm^3
# Si number density = 22.087759 Si / 1000 Ang^3
#
#
#
# Elastic Constant Matrix: (Units=GPa)
#
#
# Indices 1 2 3 4 5 6 
#
# 1 63.1342 28.2588 54.3694 12.2827 -16.3592 18.7393
# 2 28.2588 102.6035 84.9077 3.5761 -9.0881 27.6338
# 3 54.3694 84.9077 141.0419 -1.1608 -14.6370 38.6726
# 4 12.2827 3.5761 -1.1608 61.7255 21.6213 7.3929
# 5 -16.3592 -9.0881 -14.6370 21.6213 39.4663 -4.4012
# 6 18.7393 27.6338 38.6726 7.3929 -4.4012 36.7144
#
#
#
# Elastic Compliance Matrix: (Units=1/GPa)
#
#
# Indices 1 2 3 4 5 6 
#
# 1 0.032054 0.004017 -0.012799 -0.012285 0.016027 -0.001507
# 2 0.004017 0.020283 -0.012639 -0.002845 0.002863 -0.003088
# 3 -0.012799 -0.012639 0.021521 0.006322 -0.004640 -0.008452
# 4 -0.012285 -0.002845 0.006322 0.026015 -0.018288 -0.005677
# 5 0.016027 0.002863 -0.004640 -0.018288 0.041294 0.003185
# 6 -0.001507 -0.003088 -0.008452 -0.005677 0.003185 0.040758
#
#
# Mechanical properties :
#
#
# Convention : Reuss Voigt Hill
#
# Bulk Modulus (GPa) = 32.24122 71.31683 51.77902
# Shear Modulus (GPa) = 21.26701 36.86418 29.06559
#
# Velocity S-wave (km/s) = 3.10633 4.08976 3.63149
# Velocity P-wave (km/s) = 5.24350 7.39321 6.40913
#
# Compressibility (1/GPa) = 0.03101620
#
# Stress axis : x y z
#
# Youngs Moduli (GPa) = 31.19740 49.30175 46.46726
#
# Poissons Ratio (x) = -0.19806 0.59475
# Poissons Ratio (y) = -0.12533 0.58729
# Poissons Ratio (z) = 0.39931 0.62311
#
# Static dielectric constant tensor:
#      x y z
#    x 3.881370 0.075310 -0.007590 
#    y 0.075310 4.279970 0.126740 
#    z -0.007590 0.126740 4.147260 
# 
# 
# High freq. dielectric constant tensor:
#      x y z
#    x 1.859240 0.007280 0.000110 
#    y 0.007280 1.878920 0.004800 
#    z 0.000110 0.004800 1.877070 
# 
# From -- ./inp_files/145521.got.cif
#   From: 2010.06.25/outbox.cif.g09.slc.cpg/sg2_73_cif.got.tgz:145521.got - 2010.06.27 13:26:56.
