data_PCOD8019760
_publ_section_title
;
Structure prediction by ZEFSAII (Michael W. Deem and Ramdas Pophale) SiO2 
 PCOD8019760
Probable space group: P -1
;
_chemical_formula_sum "Si O2"
_cell_formula_units_Z 16
_cell_length_a 18.122164
_cell_length_b 12.813481
_cell_length_c 9.465805
_cell_angle_alpha 53.320609
_cell_angle_beta 29.062110
_cell_angle_gamma 46.249420
_cell_volume 771.110684
_symmetry_space_group_name_H-M "P -1"
_symmetry_group_IT_number 2
_symmetry_cell_setting 'triclinic'
loop_
_space_group_symop_operation_xyz
x,y,z
-x,-y,-z
loop_
_atom_site_type_symbol
_atom_site_label
_atom_site_fract_x
_atom_site_fract_y
_atom_site_fract_z
Si Si1 0.158707 0.426058 0.393223
Si Si2 0.820763 0.131732 0.696471
Si Si3 0.308377 0.094072 0.413129
Si Si4 0.417192 0.395022 0.763634
Si Si5 0.742300 0.634770 0.222170
Si Si6 0.360853 0.896915 0.245423
Si Si7 0.095423 0.606833 0.634821
Si Si8 0.417133 0.907746 0.644092
O O1 0.186043 0.261802 0.506417
O O2 0.133988 0.501952 0.522429
O O3 0.000000 0.500000 0.500000
O O4 0.319589 0.435963 0.043348
O O5 0.749556 0.141210 0.650271
O O6 0.837739 0.274537 0.596504
O O7 0.702339 0.115150 0.025336
O O8 0.000000 0.000000 0.500000
O O9 0.253020 0.039131 0.406184
O O10 0.302154 0.996203 0.633286
O O11 0.500267 0.072364 0.096629
O O12 0.500000 0.500000 0.500000
O O13 0.281557 0.402003 0.868738
O O14 0.561554 0.232711 0.666716
O O15 0.802213 0.487118 0.328077
O O16 0.565806 0.753909 0.477995
O O17 0.892826 0.685447 0.937030
O O18 0.500000 0.000000 0.500000
#
# Coordination Sequence:
#
# PCOD8019760 Si02
#       8
#     2   2   2   2   2   2   2   2
#     4  11  24  42  68  99 133 181 215 276 336 400
#     4  12  28  44  67  99 139 177 218 286 337 395
#     4  10  22  41  71  98 129 173 232 264 328 407
#     4  11  23  42  68  99 134 170 226 274 332 393
#     4  11  24  45  69  95 134 184 217 275 334 400
#     4  10  22  43  67  98 129 177 220 277 328 394
#     4  11  26  44  65 102 140 174 226 272 342 404
#     4  12  23  43  70  99 130 175 228 272 334 401
#
# _framework density 20.749292000000001
#
# number of rings (size 3 to 8) (size 9 to 14) (size 15 to 20)
#    0.000    1.000    3.750    2.250    5.250    1.500 
#    2.250    0.625    0.000    0.000    0.000    0.000 
#    0.000    0.000    0.000    0.000    0.000    0.000 
#
# Total GULP energy -198438.598669 kJ/mol
# GULP energy per Si atom -12402.412417 kJ/mol
# Density = 2.070207 g / cm^3
# Si number density = 20.749292 Si / 1000 Ang^3
#
#
#
# Elastic Constant Matrix: (Units=GPa)
#
#
# Indices 1 2 3 4 5 6 
#
# 1 130.2703 61.9298 34.1264 1.8479 8.2164 -9.6651
# 2 61.9298 131.4948 63.1674 -3.8733 0.0942 2.5023
# 3 34.1264 63.1674 115.3392 -7.8804 4.2409 -3.7624
# 4 1.8479 -3.8733 -7.8804 41.8183 2.0669 2.1050
# 5 8.2164 0.0942 4.2409 2.0669 26.9108 1.4000
# 6 -9.6651 2.5023 -3.7624 2.1050 1.4000 36.0207
#
#
#
# Elastic Compliance Matrix: (Units=1/GPa)
#
#
# Indices 1 2 3 4 5 6 
#
# 1 0.010559 -0.004939 -0.000257 -0.000979 -0.003264 0.003334
# 2 -0.004939 0.012717 -0.005665 0.000353 0.002481 -0.002918
# 3 -0.000257 -0.005665 0.012097 0.001788 -0.002027 0.001562
# 4 -0.000979 0.000353 0.001788 0.024488 -0.001789 -0.001462
# 5 -0.003264 0.002481 -0.002027 -0.001789 0.038743 -0.002661
# 6 0.003334 -0.002918 0.001562 -0.001462 -0.002661 0.029211
#
#
# Mechanical properties :
#
#
# Convention : Reuss Voigt Hill
#
# Bulk Modulus (GPa) = 73.26843 77.28350 75.27597
# Shear Modulus (GPa) = 32.44909 35.47532 33.96221
#
# Velocity S-wave (km/s) = 3.95886 4.13935 4.05011
# Velocity P-wave (km/s) = 7.50232 7.75712 7.63078
#
# Compressibility (1/GPa) = 0.01364844
#
# Stress axis : x y z
#
# Youngs Moduli (GPa) = 94.70650 78.63608 82.66807
#
# Poissons Ratio (x) = 0.38841 0.02126
# Poissons Ratio (y) = 0.46778 0.46835
# Poissons Ratio (z) = 0.02436 0.44551
#
# Static dielectric constant tensor:
#      x y z
#    x 3.683260 -0.246270 0.132020 
#    y -0.246270 3.627360 0.037960 
#    z 0.132020 0.037960 3.633720 
# 
# 
# High freq. dielectric constant tensor:
#      x y z
#    x 1.824370 -0.003870 0.013220 
#    y -0.003870 1.822090 0.001480 
#    z 0.013220 0.001480 1.805520 
# 
# From -- ./inp_files/333004.got.cif
#   From: 2010.06.25/outbox.cif.g09.slc.cpg/sg2_167_cif.got.tgz:333004.got - 2010.06.27 13:26:56.
