data_PCOD8019349
_publ_section_title
;
Structure prediction by ZEFSAII (Michael W. Deem and Ramdas Pophale) SiO2 
 PCOD8019349
Probable space group: P -1
;
_chemical_formula_sum "Si O2"
_cell_formula_units_Z 16
_cell_length_a 6.710201
_cell_length_b 20.218451
_cell_length_c 12.571327
_cell_angle_alpha 36.976108
_cell_angle_beta 136.290821
_cell_angle_gamma 129.677365
_cell_volume 701.193689
_symmetry_space_group_name_H-M "P -1"
_symmetry_group_IT_number 2
_symmetry_cell_setting 'triclinic'
loop_
_space_group_symop_operation_xyz
x,y,z
-x,-y,-z
loop_
_atom_site_type_symbol
_atom_site_label
_atom_site_fract_x
_atom_site_fract_y
_atom_site_fract_z
Si Si1 0.169641 0.156787 0.030504
Si Si2 0.176374 0.278770 0.381411
Si Si3 0.381432 0.082833 0.993207
Si Si4 0.121841 0.036247 0.722673
Si Si5 0.576697 0.447417 0.205364
Si Si6 0.665946 0.275474 0.740009
Si Si7 0.646817 0.369894 0.977562
Si Si8 0.806372 0.465842 0.690147
O O1 0.431593 0.254660 0.027369
O O2 0.196234 0.084016 0.027832
O O3 0.137675 0.069680 0.231320
O O4 0.864956 0.206167 0.833534
O O5 0.046748 0.147232 0.492614
O O6 0.391101 0.325078 0.306877
O O7 0.381880 0.305425 0.529712
O O8 0.901700 0.346339 0.188469
O O9 0.196000 0.061702 0.841659
O O10 0.559212 0.206117 0.893109
O O11 0.606272 0.993949 0.201804
O O12 0.921387 0.435717 0.346808
O O13 0.500000 0.500000 0.000000
O O14 0.511284 0.530718 0.167514
O O15 0.868073 0.381899 0.727803
O O16 0.802799 0.409952 0.876021
O O17 0.500000 0.500000 0.500000
#
# Coordination Sequence:
#
# PCOD8019349 Si02
#       8
#     2   2   2   2   2   2   2   2
#     4  11  21  40  72  98 138 177 230 277 341 396
#     4  11  25  45  67  99 144 178 224 282 335 410
#     4   9  18  39  66  98 135 177 222 283 333 394
#     4   9  21  40  64 102 137 173 231 279 331 402
#     4  12  27  48  70  96 138 185 222 278 349 406
#     4  10  22  41  67 100 135 171 229 283 328 403
#     4  12  26  46  69 102 141 179 222 281 348 407
#     4  12  26  44  71 103 130 175 232 286 335 401
#
# _framework density 22.81823
#
# number of rings (size 3 to 8) (size 9 to 14) (size 15 to 20)
#    0.000    1.250    3.750    2.250    3.500    1.500 
#    4.500    0.625    0.000    0.000    0.000    0.000 
#    0.000    0.000    0.000    0.000    0.000    0.000 
#
# Total GULP energy -198225.802920 kJ/mol
# GULP energy per Si atom -12389.112682 kJ/mol
# Density = 2.276629 g / cm^3
# Si number density = 22.818230 Si / 1000 Ang^3
#
#
#
# Elastic Constant Matrix: (Units=GPa)
#
#
# Indices 1 2 3 4 5 6 
#
# 1 131.1415 36.5769 50.5932 -9.9783 6.7320 5.0151
# 2 36.5769 62.4939 17.8344 -9.4408 -6.6937 10.1244
# 3 50.5932 17.8344 109.0130 -5.7832 -1.5421 12.8102
# 4 -9.9783 -9.4408 -5.7832 32.4157 13.2745 -6.2844
# 5 6.7320 -6.6937 -1.5421 13.2745 31.7817 -2.1619
# 6 5.0151 10.1244 12.8102 -6.2844 -2.1619 47.4028
#
#
#
# Elastic Compliance Matrix: (Units=1/GPa)
#
#
# Indices 1 2 3 4 5 6 
#
# 1 0.011381 -0.005663 -0.004412 0.003457 -0.005165 0.001421
# 2 -0.005663 0.020664 -0.000206 0.001710 0.004602 -0.003322
# 3 -0.004412 -0.000206 0.011557 -0.000463 0.001468 -0.002607
# 4 0.003457 0.001710 -0.000463 0.039981 -0.016827 0.003927
# 5 -0.005165 0.004602 0.001468 -0.016827 0.040545 -0.001215
# 6 0.001421 -0.003322 -0.002607 0.003927 -0.001215 0.022825
#
#
# Mechanical properties :
#
#
# Convention : Reuss Voigt Hill
#
# Bulk Modulus (GPa) = 43.40331 56.96192 50.18261
# Shear Modulus (GPa) = 28.53970 35.49633 32.01801
#
# Velocity S-wave (km/s) = 3.54042 3.94840 3.74996
# Velocity P-wave (km/s) = 5.98125 6.76787 6.38668
#
# Compressibility (1/GPa) = 0.02303972
#
# Stress axis : x y z
#
# Youngs Moduli (GPa) = 87.86744 48.39271 86.52692
#
# Poissons Ratio (x) = 0.27405 0.38175
# Poissons Ratio (y) = 0.49759 0.01785
# Poissons Ratio (z) = 0.38767 0.00998
#
# Static dielectric constant tensor:
#      x y z
#    x 4.304450 0.340670 -0.092440 
#    y 0.340670 4.467950 -0.421530 
#    z -0.092440 -0.421530 4.094270 
# 
# 
# High freq. dielectric constant tensor:
#      x y z
#    x 1.906790 0.019360 -0.001190 
#    y 0.019360 1.901380 -0.018310 
#    z -0.001190 -0.018310 1.884210 
# 
# From -- ./inp_files/370382.got.cif
#   From: 2010.06.25/outbox.cif.g09.slc.cpg/sg2_186_cif.got.tgz:370382.got - 2010.06.27 13:26:56.
