data_PCOD8019020
_publ_section_title
;
Structure prediction by ZEFSAII (Michael W. Deem and Ramdas Pophale) SiO2 
 PCOD8019020
Probable space group: P -1
;
_chemical_formula_sum "Si O2"
_cell_formula_units_Z 16
_cell_length_a 19.988031
_cell_length_b 9.376928
_cell_length_c 14.849741
_cell_angle_alpha 153.824956
_cell_angle_beta 40.101546
_cell_angle_gamma 140.670953
_cell_volume 752.800594
_symmetry_space_group_name_H-M "P -1"
_symmetry_group_IT_number 2
_symmetry_cell_setting 'triclinic'
loop_
_space_group_symop_operation_xyz
x,y,z
-x,-y,-z
loop_
_atom_site_type_symbol
_atom_site_label
_atom_site_fract_x
_atom_site_fract_y
_atom_site_fract_z
Si Si1 0.825891 0.258601 0.398141
Si Si2 0.248041 0.690478 0.814107
Si Si3 0.318487 0.686089 0.105081
Si Si4 0.826288 0.530902 0.038448
Si Si5 0.446291 0.443183 0.427972
Si Si6 0.591788 0.861001 0.366013
Si Si7 0.931657 0.352437 0.152450
Si Si8 0.811438 0.689845 0.818436
O O1 0.860853 0.550214 0.602884
O O2 0.851280 0.928534 0.221735
O O3 0.696904 0.174157 0.461929
O O4 0.896179 0.399390 0.317061
O O5 0.238488 0.577537 0.863487
O O6 0.347043 0.600690 0.613146
O O7 0.137468 0.494823 0.760926
O O8 0.268053 0.096872 0.015228
O O9 0.249258 0.629623 0.236844
O O10 0.409011 0.047445 0.217994
O O11 0.244665 0.677302 0.088242
O O12 0.372147 0.380867 0.878316
O O13 0.940818 0.448140 0.877868
O O14 0.500000 0.500000 0.500000
O O15 0.545177 0.630503 0.368512
O O16 0.500000 0.000000 0.500000
O O17 0.907449 0.949279 0.926042
#
# Coordination Sequence:
#
# PCOD8019020 Si02
#       8
#     2   2   2   2   2   2   2   2
#     4  11  22  41  66  95 125 165 218 258 309 384
#     4  10  23  42  60  93 132 161 214 264 307 381
#     4  11  23  42  61  98 127 163 221 259 307 388
#     4  11  21  41  67  91 131 167 206 267 314 372
#     4  12  24  41  64  90 126 171 210 265 318 368
#     4  11  22  40  65  90 127 167 207 262 320 368
#     4  10  22  43  65  91 134 166 210 257 320 373
#     4  10  22  41  64  89 132 166 206 258 315 369
#
# _framework density 21.253969999999999
#
# number of rings (size 3 to 8) (size 9 to 14) (size 15 to 20)
#    0.750    0.500    2.500    5.625    0.000    3.500 
#    2.250    3.750    0.000    0.000    0.000    0.000 
#    0.000    0.000    0.000    0.000    0.000    0.000 
#
# Total GULP energy -198387.652838 kJ/mol
# GULP energy per Si atom -12399.228302 kJ/mol
# Density = 2.120559 g / cm^3
# Si number density = 21.253970 Si / 1000 Ang^3
#
#
#
# Elastic Constant Matrix: (Units=GPa)
#
#
# Indices 1 2 3 4 5 6 
#
# 1 91.0574 3.2159 33.5555 -6.2955 2.0474 -3.8858
# 2 3.2159 56.5811 3.7576 -13.3591 14.9048 -6.3110
# 3 33.5555 3.7576 77.1537 -10.2980 27.0885 4.6405
# 4 -6.2955 -13.3591 -10.2980 29.3403 -4.9743 -0.9432
# 5 2.0474 14.9048 27.0885 -4.9743 38.1093 -8.5571
# 6 -3.8858 -6.3110 4.6405 -0.9432 -8.5571 41.0952
#
#
#
# Elastic Compliance Matrix: (Units=1/GPa)
#
#
# Indices 1 2 3 4 5 6 
#
# 1 0.014271 -0.001504 -0.008674 0.000610 0.006862 0.003541
# 2 -0.001504 0.022637 0.004492 0.009811 -0.010490 0.000868
# 3 -0.008674 0.004492 0.024492 0.005245 -0.019552 -0.006847
# 4 0.000610 0.009811 0.005245 0.040227 -0.002016 0.001476
# 5 0.006862 -0.010490 -0.019552 -0.002016 0.046031 0.010784
# 6 0.003541 0.000868 -0.006847 0.001476 0.010784 0.027854
#
#
# Mechanical properties :
#
#
# Convention : Reuss Voigt Hill
#
# Bulk Modulus (GPa) = 19.98873 33.98336 26.98605
# Shear Modulus (GPa) = 24.56282 33.99316 29.27799
#
# Velocity S-wave (km/s) = 3.40322 4.00356 3.71554
# Velocity P-wave (km/s) = 4.98675 6.11517 5.57956
#
# Compressibility (1/GPa) = 0.05002818
#
# Stress axis : x y z
#
# Youngs Moduli (GPa) = 70.07415 44.17464 40.83042
#
# Poissons Ratio (x) = 0.06642 0.35416
# Poissons Ratio (y) = 0.10536 -0.18340
# Poissons Ratio (z) = 0.60782 -0.19842
#
# Static dielectric constant tensor:
#      x y z
#    x 3.782040 -0.165430 0.022830 
#    y -0.165430 3.444190 -0.138400 
#    z 0.022830 -0.138400 3.792100 
# 
# 
# High freq. dielectric constant tensor:
#      x y z
#    x 1.837570 -0.010670 0.001010 
#    y -0.010670 1.831560 -0.015410 
#    z 0.001010 -0.015410 1.826760 
# 
# From -- ./inp_files/540355.got.cif
#   From: 2010.06.25/outbox.cif.g09.slc.cpg/sg2_271_cif.got.tgz:540355.got - 2010.06.27 13:26:56.
