data_PCOD8019036
_publ_section_title
;
Structure prediction by ZEFSAII (Michael W. Deem and Ramdas Pophale) SiO2 
 PCOD8019036
Probable space group: P -1
;
_chemical_formula_sum "Si O2"
_cell_formula_units_Z 14
_cell_length_a 8.766262
_cell_length_b 12.015593
_cell_length_c 23.479967
_cell_angle_alpha 32.745480
_cell_angle_beta 39.532375
_cell_angle_gamma 32.454719
_cell_volume 701.566830
_symmetry_space_group_name_H-M "P -1"
_symmetry_group_IT_number 2
_symmetry_cell_setting 'triclinic'
loop_
_space_group_symop_operation_xyz
x,y,z
-x,-y,-z
loop_
_atom_site_type_symbol
_atom_site_label
_atom_site_fract_x
_atom_site_fract_y
_atom_site_fract_z
Si Si1 0.820568 0.123065 0.442336
Si Si2 0.274319 0.996279 0.906248
Si Si3 0.965645 0.495279 0.194240
Si Si4 0.145012 0.496756 0.018526
Si Si5 0.213517 0.245199 0.601903
Si Si6 0.843935 0.798614 0.483900
Si Si7 0.381114 0.828180 0.823361
O O1 0.855080 0.331148 0.317547
O O2 0.481841 0.250013 0.498453
O O3 0.971285 0.900316 0.447881
O O4 0.000000 0.000000 0.500000
O O5 0.545107 0.759847 0.960030
O O6 0.291879 0.992146 0.835030
O O7 0.260229 0.233449 0.831660
O O8 0.000000 0.000000 0.000000
O O9 0.959597 0.509987 0.120762
O O10 0.282162 0.398854 0.170009
O O11 0.183699 0.724263 0.913973
O O12 0.000000 0.500000 0.000000
O O13 0.062467 0.211138 0.604794
O O14 0.973950 0.508876 0.588226
O O15 0.335161 0.008542 0.708203
O O16 0.500000 0.000000 0.500000
#
# Coordination Sequence:
#
# PCOD8019036 Si02
#       7
#     2   2   2   2   2   2   2
#     4  11  23  39  63  95 128 161 207 260 310 377
#     4  11  21  43  66  88 124 170 210 255 316 381
#     4  11  23  43  64  93 126 167 209 258 317 379
#     4  11  25  43  64  96 128 161 212 269 317 373
#     4  10  22  41  64  91 125 170 209 254 320 374
#     4   9  22  43  59  86 131 169 208 257 311 373
#     4  11  22  40  68  90 123 165 210 260 318 379
#
# _framework density 19.955335000000002
#
# number of rings (size 3 to 8) (size 9 to 14) (size 15 to 20)
#    0.000    1.429    4.286    0.857    4.000    3.429 
#    5.143    0.000    0.000    0.000    0.000    0.000 
#    0.000    0.000    0.000    0.000    0.000    0.000 
#
# Total GULP energy -173543.950547 kJ/mol
# GULP energy per Si atom -12395.996468 kJ/mol
# Density = 1.990992 g / cm^3
# Si number density = 19.955335 Si / 1000 Ang^3
#
#
#
# Elastic Constant Matrix: (Units=GPa)
#
#
# Indices 1 2 3 4 5 6 
#
# 1 148.9705 47.8550 63.1006 -7.9807 12.3859 25.1261
# 2 47.8550 115.3247 43.8287 -16.4342 -4.8289 23.1647
# 3 63.1006 43.8287 143.5064 1.2831 0.9693 19.1564
# 4 -7.9807 -16.4342 1.2831 29.3490 2.0361 -10.6783
# 5 12.3859 -4.8289 0.9693 2.0361 27.7901 -2.3788
# 6 25.1261 23.1647 19.1564 -10.6783 -2.3788 24.8533
#
#
#
# Elastic Compliance Matrix: (Units=1/GPa)
#
#
# Indices 1 2 3 4 5 6 
#
# 1 0.010167 -0.002019 -0.002904 -0.000350 -0.005339 -0.006820
# 2 -0.002019 0.012130 -0.002116 0.004124 0.002296 -0.005643
# 3 -0.002904 -0.002116 0.009456 -0.003879 0.000539 -0.003995
# 4 -0.000350 0.004124 -0.003879 0.043021 -0.000610 0.017925
# 5 -0.005339 0.002296 0.000539 -0.000610 0.039332 0.006344
# 6 -0.006820 -0.005643 -0.003995 0.017925 0.006344 0.063778
#
#
# Mechanical properties :
#
#
# Convention : Reuss Voigt Hill
#
# Bulk Modulus (GPa) = 56.57835 79.70780 68.14308
# Shear Modulus (GPa) = 25.27124 33.26628 29.26876
#
# Velocity S-wave (km/s) = 3.56250 4.08737 3.83392
# Velocity P-wave (km/s) = 6.73319 7.89337 7.33625
#
# Compressibility (1/GPa) = 0.01767460
#
# Stress axis : x y z
#
# Youngs Moduli (GPa) = 98.35938 82.43816 105.75234
#
# Poissons Ratio (x) = 0.16641 0.30715
# Poissons Ratio (y) = 0.19854 0.22381
# Poissons Ratio (z) = 0.28567 0.17447
#
# Static dielectric constant tensor:
#      x y z
#    x 3.986280 0.217110 -0.033990 
#    y 0.217110 4.185070 -0.146060 
#    z -0.033990 -0.146060 3.636400 
# 
# 
# High freq. dielectric constant tensor:
#      x y z
#    x 1.785940 0.011870 0.008620 
#    y 0.011870 1.787520 -0.011780 
#    z 0.008620 -0.011780 1.775140 
# 
# From -- ./inp_files/27043.got.cif
#   From: 2010.06.25/outbox.cif.g09.slc.cpg/sg2_14_cif.got.tgz:27043.got - 2010.06.27 13:26:56.
