data_PCOD8019575
_publ_section_title
;
Structure prediction by ZEFSAII (Michael W. Deem and Ramdas Pophale) SiO2 
 PCOD8019575
Probable space group: P -1
;
_chemical_formula_sum "Si O2"
_cell_formula_units_Z 14
_cell_length_a 8.656714
_cell_length_b 17.089132
_cell_length_c 8.812112
_cell_angle_alpha 127.001704
_cell_angle_beta 104.678489
_cell_angle_gamma 116.973086
_cell_volume 624.533184
_symmetry_space_group_name_H-M "P -1"
_symmetry_group_IT_number 2
_symmetry_cell_setting 'triclinic'
loop_
_space_group_symop_operation_xyz
x,y,z
-x,-y,-z
loop_
_atom_site_type_symbol
_atom_site_label
_atom_site_fract_x
_atom_site_fract_y
_atom_site_fract_z
Si Si1 0.192765 0.011687 0.003378
Si Si2 0.713020 0.537721 0.678202
Si Si3 0.417792 0.388409 0.028940
Si Si4 0.078211 0.285763 0.571811
Si Si5 0.391096 0.868410 0.534200
Si Si6 0.716391 0.207313 0.918590
Si Si7 0.507905 0.268133 0.139972
O O1 0.412909 0.104548 0.292193
O O2 0.302996 0.098528 0.969837
O O3 0.000000 0.000000 0.000000
O O4 0.052478 0.840255 0.741528
O O5 0.500000 0.500000 0.500000
O O6 0.680155 0.552050 0.862582
O O7 0.659783 0.398111 0.464414
O O8 0.000333 0.702945 0.887453
O O9 0.724089 0.540689 0.250193
O O10 0.361112 0.274161 0.000092
O O11 0.245130 0.290384 0.722025
O O12 0.866292 0.244364 0.563009
O O13 0.332083 0.788155 0.264827
O O14 0.504451 0.030267 0.719581
O O15 0.702369 0.298523 0.121980
#
# Coordination Sequence:
#
# PCOD8019575 Si02
#       7
#     2   2   2   2   2   2   2
#     4  12  28  43  70 103 138 176 233 290 336 404
#     4  10  22  41  68  99 135 175 225 277 337 404
#     4  10  24  43  74 102 136 183 223 283 343 412
#     4  11  23  47  69 100 140 181 226 276 355 399
#     4  11  26  45  70  97 143 184 225 281 348 407
#     4  11  24  45  69 103 135 185 229 279 344 409
#     4  11  25  42  70 105 134 180 227 281 339 403
#
# _framework density 22.416744999999999
#
# number of rings (size 3 to 8) (size 9 to 14) (size 15 to 20)
#    0.000    1.143    2.857    1.714   10.000    1.714 
#    0.000    1.429    0.000    0.000    0.000    0.000 
#    0.000    0.000    0.000    0.000    0.000    0.000 
#
# Total GULP energy -173599.371133 kJ/mol
# GULP energy per Si atom -12399.955081 kJ/mol
# Density = 2.236572 g / cm^3
# Si number density = 22.416745 Si / 1000 Ang^3
#
#
#
# Elastic Constant Matrix: (Units=GPa)
#
#
# Indices 1 2 3 4 5 6 
#
# 1 145.3522 49.3166 49.3225 -6.4596 7.8991 29.3525
# 2 49.3166 83.3602 24.8181 -13.4056 8.1710 3.7855
# 3 49.3225 24.8181 90.2837 -4.6030 12.9211 9.5293
# 4 -6.4596 -13.4056 -4.6030 26.5776 1.7664 6.1239
# 5 7.8991 8.1710 12.9211 1.7664 41.0342 -5.1928
# 6 29.3525 3.7855 9.5293 6.1239 -5.1928 40.0320
#
#
#
# Elastic Compliance Matrix: (Units=1/GPa)
#
#
# Indices 1 2 3 4 5 6 
#
# 1 0.011506 -0.004989 -0.003928 0.001362 -0.000975 -0.007365
# 2 -0.004989 0.016587 -0.001302 0.006817 -0.002089 0.001086
# 3 -0.003928 -0.001302 0.014290 0.001357 -0.003680 -0.001083
# 4 0.001362 0.006817 0.001357 0.044133 -0.005134 -0.009384
# 5 -0.000975 -0.002089 -0.003680 -0.005134 0.027124 0.006092
# 6 -0.007365 0.001086 -0.001083 -0.009384 0.006092 0.032761
#
#
# Mechanical properties :
#
#
# Convention : Reuss Voigt Hill
#
# Bulk Modulus (GPa) = 45.56850 62.87893 54.22372
# Shear Modulus (GPa) = 28.70999 34.56470 31.63734
#
# Velocity S-wave (km/s) = 3.58262 3.93098 3.76084
# Velocity P-wave (km/s) = 6.12255 6.97957 6.56506
#
# Compressibility (1/GPa) = 0.02194498
#
# Stress axis : x y z
#
# Youngs Moduli (GPa) = 86.91034 60.28865 69.97696
#
# Poissons Ratio (x) = 0.30076 0.27489
# Poissons Ratio (y) = 0.43356 0.09114
# Poissons Ratio (z) = 0.34140 0.07852
#
# Static dielectric constant tensor:
#      x y z
#    x 4.072160 0.376960 -0.220180 
#    y 0.376960 4.078600 -0.304000 
#    z -0.220180 -0.304000 4.427560 
# 
# 
# High freq. dielectric constant tensor:
#      x y z
#    x 1.881770 0.022700 0.002960 
#    y 0.022700 1.879820 -0.010370 
#    z 0.002960 -0.010370 1.889650 
# 
# From -- ./inp_files/218680.got.cif
#   From: 2010.06.25/outbox.cif.g09.slc.cpg/sg2_110_cif.got.tgz:218680.got - 2010.06.27 13:26:56.
