data_PCOD8019048
_publ_section_title
;
Structure prediction by ZEFSAII (Michael W. Deem and Ramdas Pophale) SiO2 
 PCOD8019048
Probable space group: P -1
;
_chemical_formula_sum "Si O2"
_cell_formula_units_Z 8
_cell_length_a 12.213920
_cell_length_b 15.492650
_cell_length_c 7.704552
_cell_angle_alpha 46.042965
_cell_angle_beta 144.735514
_cell_angle_gamma 156.766975
_cell_volume 321.780191
_symmetry_space_group_name_H-M "P -1"
_symmetry_group_IT_number 2
_symmetry_cell_setting 'triclinic'
loop_
_space_group_symop_operation_xyz
x,y,z
-x,-y,-z
loop_
_atom_site_type_symbol
_atom_site_label
_atom_site_fract_x
_atom_site_fract_y
_atom_site_fract_z
Si Si1 0.274847 0.498561 0.228250
Si Si2 0.466948 0.913768 0.301175
Si Si3 0.189234 0.105876 0.411130
Si Si4 0.507415 0.172008 0.185336
O O1 0.500000 0.500000 0.500000
O O2 0.406510 0.627800 0.402150
O O3 0.350224 0.626344 0.984218
O O4 0.853874 0.243936 0.034328
O O5 0.782769 0.008498 0.484920
O O6 0.330208 0.768997 0.497754
O O7 0.607399 0.119542 0.252663
O O8 0.000000 0.000000 0.500000
O O9 0.928164 0.053219 0.036732
#
# Coordination Sequence:
#
# PCOD8019048 Si02
#       4
#     2   2   2   2
#     4  11  22  41  63  93 129 160 210 256 307 377
#     4  11  22  42  67  90 127 165 204 259 315 362
#     4  10  22  41  64  92 125 164 210 257 303 371
#     4  10  23  42  64  93 126 162 208 257 312 373
#
# _framework density 24.861692000000001
#
# number of rings (size 3 to 8) (size 9 to 14) (size 15 to 20)
#    0.000    1.500    2.500    2.250    0.000    4.000 
#    9.000    1.250    0.000    0.000    0.000    0.000 
#    0.000    0.000    0.000    0.000    0.000    0.000 
#
# Total GULP energy -99142.650992 kJ/mol
# GULP energy per Si atom -12392.831374 kJ/mol
# Density = 2.480511 g / cm^3
# Si number density = 24.861692 Si / 1000 Ang^3
#
#
#
# Elastic Constant Matrix: (Units=GPa)
#
#
# Indices 1 2 3 4 5 6 
#
# 1 133.7002 16.4000 43.5872 -12.4366 37.9195 -34.8241
# 2 16.4000 41.3049 9.6329 -22.9716 7.7206 -15.5612
# 3 43.5872 9.6329 109.6938 -10.2119 17.7349 -30.3355
# 4 -12.4366 -22.9716 -10.2119 57.5130 -11.4056 -1.6428
# 5 37.9195 7.7206 17.7349 -11.4056 48.2209 -8.2966
# 6 -34.8241 -15.5612 -30.3355 -1.6428 -8.2966 26.5781
#
#
#
# Elastic Compliance Matrix: (Units=1/GPa)
#
#
# Indices 1 2 3 4 5 6 
#
# 1 0.015035 0.007090 0.001783 0.005437 -0.008260 0.023644
# 2 0.007090 0.053848 0.009911 0.025788 -0.002641 0.052899
# 3 0.001783 0.009911 0.015776 0.007364 -0.002613 0.025785
# 4 0.005437 0.025788 0.007364 0.031528 0.002060 0.033219
# 5 -0.008260 -0.002641 -0.002613 0.002060 0.027989 -0.006488
# 6 0.023644 0.052899 0.025785 0.033219 -0.006488 0.129035
#
#
# Mechanical properties :
#
#
# Convention : Reuss Voigt Hill
#
# Bulk Modulus (GPa) = 8.18146 47.10437 27.64291
# Shear Modulus (GPa) = 18.09062 40.80097 29.44580
#
# Velocity S-wave (km/s) = 2.70043 4.05547 3.44522
# Velocity P-wave (km/s) = 3.60846 6.39662 5.19316
#
# Compressibility (1/GPa) = 0.12222762
#
# Stress axis : x y z
#
# Youngs Moduli (GPa) = 66.51033 18.57064 63.38674
#
# Poissons Ratio (x) = -0.13166 -0.11305
# Poissons Ratio (y) = -0.47154 -0.62821
# Poissons Ratio (z) = -0.11862 -0.18405
#
# Static dielectric constant tensor:
#      x y z
#    x 4.337850 -0.564440 -0.313380 
#    y -0.564440 4.612790 0.500190 
#    z -0.313380 0.500190 5.628320 
# 
# 
# High freq. dielectric constant tensor:
#      x y z
#    x 1.976500 -0.027200 0.000660 
#    y -0.027200 1.963170 -0.006370 
#    z 0.000660 -0.006370 2.021620 
# 
# From -- ./inp_files/2116.got.cif
#   From: 2010.06.25/outbox.cif.g09.slc.cpg/sg2_2_cif.got.tgz:2116.got - 2010.06.27 13:26:56.
