data_PCOD8019577
_publ_section_title
;
Structure prediction by ZEFSAII (Michael W. Deem and Ramdas Pophale) SiO2 
 PCOD8019577
Probable space group: P -1
;
_chemical_formula_sum "Si O2"
_cell_formula_units_Z 16
_cell_length_a 11.450823
_cell_length_b 14.940417
_cell_length_c 9.697581
_cell_angle_alpha 69.101263
_cell_angle_beta 103.296538
_cell_angle_gamma 151.133900
_cell_volume 735.648852
_symmetry_space_group_name_H-M "P -1"
_symmetry_group_IT_number 2
_symmetry_cell_setting 'triclinic'
loop_
_space_group_symop_operation_xyz
x,y,z
-x,-y,-z
loop_
_atom_site_type_symbol
_atom_site_label
_atom_site_fract_x
_atom_site_fract_y
_atom_site_fract_z
Si Si1 0.394201 0.010455 0.719589
Si Si2 0.422101 0.663023 0.314084
Si Si3 0.514894 0.726533 0.989301
Si Si4 0.992841 0.722227 0.984428
Si Si5 0.714697 0.710923 0.879404
Si Si6 0.996643 0.238240 0.475882
Si Si7 0.750087 0.769369 0.547622
Si Si8 0.741027 0.079117 0.775679
O O1 0.243317 0.941400 0.584647
O O2 0.553769 0.208785 0.714099
O O3 0.578033 0.055446 0.698112
O O4 0.209776 0.839384 0.878265
O O5 0.132586 0.433967 0.373075
O O6 0.563443 0.695817 0.442569
O O7 0.527533 0.716068 0.161314
O O8 0.248939 0.509312 0.979638
O O9 0.732345 0.818507 0.919684
O O10 0.557973 0.867494 0.890277
O O11 0.075344 0.762267 0.140327
O O12 0.957072 0.812341 0.895846
O O13 0.640657 0.684882 0.717819
O O14 0.500000 0.500000 0.000000
O O15 0.200648 0.300197 0.464816
O O16 0.913505 0.168034 0.648413
O O17 0.000000 0.000000 0.500000
#
# Coordination Sequence:
#
# PCOD8019577 Si02
#       8
#     2   2   2   2   2   2   2   2
#     4  12  25  50  65  97 140 177 234 280 330 393
#     4  12  26  43  74  98 137 183 219 272 349 402
#     4  11  25  44  70 104 132 177 225 276 342 406
#     4  11  23  45  69 100 137 171 224 287 332 398
#     4  10  22  41  68  99 137 166 213 280 331 399
#     4  12  26  46  68 103 135 176 227 278 338 404
#     4  12  23  44  71 100 139 177 211 280 344 401
#     4  12  29  42  72  98 132 184 232 280 329 398
#
# _framework density 21.749507999999999
#
# number of rings (size 3 to 8) (size 9 to 14) (size 15 to 20)
#    0.000    0.500    5.000    2.625    5.250    2.500 
#    0.000    0.000    0.000    0.000    0.000    0.000 
#    0.000    0.000    0.000    0.000    0.000    0.000 
#
# Total GULP energy -198473.506596 kJ/mol
# GULP energy per Si atom -12404.594162 kJ/mol
# Density = 2.170000 g / cm^3
# Si number density = 21.749508 Si / 1000 Ang^3
#
#
#
# Elastic Constant Matrix: (Units=GPa)
#
#
# Indices 1 2 3 4 5 6 
#
# 1 87.5990 20.3629 30.7580 2.1859 7.3672 -4.4301
# 2 20.3629 94.4773 27.5863 -7.4521 -1.7450 -14.3810
# 3 30.7580 27.5863 162.8594 7.6468 -16.0101 -4.1272
# 4 2.1859 -7.4521 7.6468 37.3874 -1.2481 3.6994
# 5 7.3672 -1.7450 -16.0101 -1.2481 27.8683 -0.5108
# 6 -4.4301 -14.3810 -4.1272 3.6994 -0.5108 20.1858
#
#
#
# Elastic Compliance Matrix: (Units=1/GPa)
#
#
# Indices 1 2 3 4 5 6 
#
# 1 0.013331 -0.002147 -0.002596 -0.000939 -0.005175 0.000907
# 2 -0.002147 0.012931 -0.001620 0.002265 0.000695 0.008013
# 3 -0.002596 -0.001620 0.007455 -0.001556 0.004802 0.000207
# 4 -0.000939 0.002265 -0.001556 0.027992 0.000676 -0.004024
# 5 -0.005175 0.000695 0.004802 0.000676 0.040106 0.001232
# 6 0.000907 0.008013 0.000207 -0.004024 0.001232 0.056258
#
#
# Mechanical properties :
#
#
# Convention : Reuss Voigt Hill
#
# Bulk Modulus (GPa) = 47.63652 55.81668 51.72660
# Shear Modulus (GPa) = 28.12204 34.83688 31.47946
#
# Velocity S-wave (km/s) = 3.59973 4.00651 3.80855
# Velocity P-wave (km/s) = 6.26317 6.86454 6.57074
#
# Compressibility (1/GPa) = 0.02099230
#
# Stress axis : x y z
#
# Youngs Moduli (GPa) = 75.01520 77.33088 134.13351
#
# Poissons Ratio (x) = 0.16602 0.34817
# Poissons Ratio (y) = 0.16105 0.21728
# Poissons Ratio (z) = 0.19472 0.12527
#
# Static dielectric constant tensor:
#      x y z
#    x 4.375210 -0.120540 -0.125980 
#    y -0.120540 4.086250 -0.013840 
#    z -0.125980 -0.013840 3.956920 
# 
# 
# High freq. dielectric constant tensor:
#      x y z
#    x 1.847620 -0.010130 -0.006570 
#    y -0.010130 1.861370 0.002780 
#    z -0.006570 0.002780 1.868330 
# 
# From -- ./inp_files/272567.got.cif
#   From: 2010.06.25/outbox.cif.g09.slc.cpg/sg2_137_cif.got.tgz:272567.got - 2010.06.27 13:26:56.
