data_PCOD8019533
_publ_section_title
;
Structure prediction by ZEFSAII (Michael W. Deem and Ramdas Pophale) SiO2 
 PCOD8019533
Probable space group: P -1
;
_chemical_formula_sum "Si O2"
_cell_formula_units_Z 14
_cell_length_a 20.808786
_cell_length_b 14.362967
_cell_length_c 8.897746
_cell_angle_alpha 140.498034
_cell_angle_beta 28.179646
_cell_angle_gamma 148.622382
_cell_volume 651.917800
_symmetry_space_group_name_H-M "P -1"
_symmetry_group_IT_number 2
_symmetry_cell_setting 'triclinic'
loop_
_space_group_symop_operation_xyz
x,y,z
-x,-y,-z
loop_
_atom_site_type_symbol
_atom_site_label
_atom_site_fract_x
_atom_site_fract_y
_atom_site_fract_z
Si Si1 0.945541 0.988935 0.923941
Si Si2 0.732746 0.638861 0.047791
Si Si3 0.149652 0.791279 0.774365
Si Si4 0.567575 0.717694 0.726319
Si Si5 0.958664 0.379808 0.658373
Si Si6 0.182822 0.927751 0.201455
Si Si7 0.364030 0.812292 0.119656
O O1 0.063501 0.989849 0.558359
O O2 0.772467 0.788021 0.026839
O O3 0.923040 0.143280 0.120496
O O4 0.000000 0.000000 0.000000
O O5 0.709598 0.703244 0.340438
O O6 0.559044 0.455970 0.125849
O O7 0.885804 0.618952 0.721376
O O8 0.018941 0.581374 0.821262
O O9 0.321657 0.836187 0.407506
O O10 0.192807 0.907013 0.978937
O O11 0.637892 0.902393 0.899392
O O12 0.447851 0.704290 0.821839
O O13 0.877373 0.256582 0.820271
O O14 0.813955 0.301469 0.736407
O O15 0.500000 0.000000 0.000000
#
# Coordination Sequence:
#
# PCOD8019533 Si02
#       7
#     2   2   2   2   2   2   2
#     4  11  22  42  68  95 130 178 232 271 322 402
#     4  10  22  41  68  95 126 177 229 275 321 391
#     4  12  25  42  68 101 138 176 220 279 341 397
#     4  11  22  40  66  99 133 173 220 279 333 386
#     4  11  24  44  70 100 132 179 229 275 328 403
#     4  11  24  43  66 100 139 177 218 275 346 399
#     4  12  24  41  65 102 132 171 231 275 331 388
#
# _framework density 21.475100000000001
#
# number of rings (size 3 to 8) (size 9 to 14) (size 15 to 20)
#    0.000    0.857    4.286    3.857    2.000    0.571 
#    0.000    0.714    0.000    0.000    0.000    0.000 
#    0.000    0.000    0.000    0.000    0.000    0.000 
#
# Total GULP energy -173493.993130 kJ/mol
# GULP energy per Si atom -12392.428081 kJ/mol
# Density = 2.142622 g / cm^3
# Si number density = 21.475100 Si / 1000 Ang^3
#
#
#
# Elastic Constant Matrix: (Units=GPa)
#
#
# Indices 1 2 3 4 5 6 
#
# 1 82.0478 39.8222 42.7440 8.3818 1.8880 -1.1303
# 2 39.8222 163.8526 40.2118 -0.3819 0.7419 -7.9112
# 3 42.7440 40.2118 90.8485 -2.4892 4.8160 11.8697
# 4 8.3818 -0.3819 -2.4892 35.0311 -4.9011 -5.3005
# 5 1.8880 0.7419 4.8160 -4.9011 34.2562 7.4316
# 6 -1.1303 -7.9112 11.8697 -5.3005 7.4316 33.0219
#
#
#
# Elastic Compliance Matrix: (Units=1/GPa)
#
#
# Indices 1 2 3 4 5 6 
#
# 1 0.017898 -0.002339 -0.007763 -0.004650 -0.001014 0.002325
# 2 -0.002339 0.007426 -0.002518 0.000860 -0.000158 0.002777
# 3 -0.007763 -0.002518 0.016688 0.002008 -0.000165 -0.006508
# 4 -0.004650 0.000860 0.002008 0.030840 0.003617 0.003461
# 5 -0.001014 -0.000158 -0.000165 0.003617 0.031191 -0.006452
# 6 0.002325 0.002777 -0.006508 0.003461 -0.006452 0.035375
#
#
# Mechanical properties :
#
#
# Convention : Reuss Voigt Hill
#
# Bulk Modulus (GPa) = 59.61818 64.70056 62.15937
# Shear Modulus (GPa) = 29.36881 34.72658 32.04770
#
# Velocity S-wave (km/s) = 3.70209 4.02563 3.86725
# Velocity P-wave (km/s) = 6.78938 7.19731 6.99632
#
# Compressibility (1/GPa) = 0.01677341
#
# Stress axis : x y z
#
# Youngs Moduli (GPa) = 55.87313 134.66006 59.92241
#
# Poissons Ratio (x) = 0.31492 0.46518
# Poissons Ratio (y) = 0.13067 0.15086
# Poissons Ratio (z) = 0.43375 0.33903
#
# Static dielectric constant tensor:
#      x y z
#    x 3.555640 -0.267620 -0.152660 
#    y -0.267620 4.625650 -0.097510 
#    z -0.152660 -0.097510 3.967810 
# 
# 
# High freq. dielectric constant tensor:
#      x y z
#    x 1.800740 -0.016940 -0.013430 
#    y -0.016940 1.873530 -0.006600 
#    z -0.013430 -0.006600 1.850430 
# 
# From -- ./inp_files/347362.got.cif
#   From: 2010.06.25/outbox.cif.g09.slc.cpg/sg2_174_cif.got.tgz:347362.got - 2010.06.27 13:26:56.
