data_PCOD8019002
_publ_section_title
;
Structure prediction by ZEFSAII (Michael W. Deem and Ramdas Pophale) SiO2 
 PCOD8019002
Probable space group: P -1
;
_chemical_formula_sum "Si O2"
_cell_formula_units_Z 16
_cell_length_a 5.424366
_cell_length_b 11.610595
_cell_length_c 11.816569
_cell_angle_alpha 58.010824
_cell_angle_beta 94.902291
_cell_angle_gamma 90.840555
_cell_volume 628.477934
_symmetry_space_group_name_H-M "P -1"
_symmetry_group_IT_number 2
_symmetry_cell_setting 'triclinic'
loop_
_space_group_symop_operation_xyz
x,y,z
-x,-y,-z
loop_
_atom_site_type_symbol
_atom_site_label
_atom_site_fract_x
_atom_site_fract_y
_atom_site_fract_z
Si Si1 0.915788 0.848805 0.166591
Si Si2 0.542235 0.847420 0.814048
Si Si3 0.395588 0.841818 0.056540
Si Si4 0.171246 0.389988 0.124926
Si Si5 0.898676 0.054945 0.643642
Si Si6 0.446951 0.523943 0.245308
Si Si7 0.854433 0.196291 0.345005
Si Si8 0.966027 0.529858 0.352978
O O1 0.140435 0.903168 0.069477
O O2 0.940083 0.889679 0.276715
O O3 0.646625 0.911621 0.078734
O O4 0.926697 0.687821 0.241651
O O5 0.755084 0.727542 0.903632
O O6 0.417700 0.785711 0.728765
O O7 0.647961 0.994712 0.715416
O O8 0.368834 0.859522 0.910757
O O9 0.436322 0.685255 0.170299
O O10 0.403530 0.469820 0.144285
O O11 0.022704 0.321791 0.257655
O O12 0.000000 0.500000 0.000000
O O13 0.835698 0.177858 0.489556
O O14 0.051533 0.941020 0.641687
O O15 0.713947 0.461841 0.331245
O O16 0.217921 0.469647 0.337918
O O17 0.000000 0.500000 0.500000
#
# Coordination Sequence:
#
# PCOD8019002 Si02
#       8
#     2   2   2   2   2   2   2   2
#     4  10  24  43  67 100 135 189 228 288 346 420
#     4  11  25  43  71  99 139 183 233 298 348 418
#     4  10  24  43  67 100 140 174 237 283 348 413
#     4  11  26  41  70 104 136 187 232 288 366 418
#     4  10  24  45  69  99 140 182 239 286 356 413
#     4  10  23  40  63  97 138 174 224 284 345 416
#     4  10  24  46  67 104 139 180 236 296 348 419
#     4  10  22  41  63  97 136 179 228 285 341 415
#
# _framework density 25.458333
#
# number of rings (size 3 to 8) (size 9 to 14) (size 15 to 20)
#    0.000    1.750    0.000    1.500   14.000    2.000 
#    0.000    0.000    0.000    0.000    0.000    0.000 
#    0.000    0.000    0.000    0.000    0.000    0.000 
#
# Total GULP energy -198408.581855 kJ/mol
# GULP energy per Si atom -12400.536366 kJ/mol
# Density = 2.540039 g / cm^3
# Si number density = 25.458333 Si / 1000 Ang^3
#
#
#
# Elastic Constant Matrix: (Units=GPa)
#
#
# Indices 1 2 3 4 5 6 
#
# 1 156.5010 38.9891 72.3508 8.9839 6.1338 12.7247
# 2 38.9891 65.0827 42.1602 13.4664 6.6695 21.9757
# 3 72.3508 42.1602 149.0492 25.8125 2.5134 -2.0449
# 4 8.9839 13.4664 25.8125 41.1743 4.1959 7.7964
# 5 6.1338 6.6695 2.5134 4.1959 36.4458 10.9369
# 6 12.7247 21.9757 -2.0449 7.7964 10.9369 42.9023
#
#
#
# Elastic Compliance Matrix: (Units=1/GPa)
#
#
# Indices 1 2 3 4 5 6 
#
# 1 0.008885 -0.002509 -0.003916 0.001710 -0.000443 -0.001735
# 2 -0.002509 0.024985 -0.005708 -0.001776 0.000054 -0.012017
# 3 -0.003916 -0.005708 0.011235 -0.005374 -0.000143 0.005634
# 4 0.001710 -0.001776 -0.005374 0.028912 -0.001503 -0.004725
# 5 -0.000443 0.000054 -0.000143 -0.001503 0.029859 -0.007242
# 6 -0.001735 -0.012017 0.005634 -0.004725 -0.007242 0.032952
#
#
# Mechanical properties :
#
#
# Convention : Reuss Voigt Hill
#
# Bulk Modulus (GPa) = 47.98399 75.29258 61.63829
# Shear Modulus (GPa) = 29.75489 38.57999 34.16744
#
# Velocity S-wave (km/s) = 3.42243 3.89706 3.66743
# Velocity P-wave (km/s) = 5.87421 7.06318 6.49595
#
# Compressibility (1/GPa) = 0.02084028
#
# Stress axis : x y z
#
# Youngs Moduli (GPa) = 112.54448 40.02396 89.00795
#
# Poissons Ratio (x) = 0.10042 0.34855
# Poissons Ratio (y) = 0.28237 0.50802
# Poissons Ratio (z) = 0.44072 0.22844
#
# Static dielectric constant tensor:
#      x y z
#    x 5.024480 0.251030 0.016320 
#    y 0.251030 6.516760 -1.097650 
#    z 0.016320 -1.097650 5.188000 
# 
# 
# High freq. dielectric constant tensor:
#      x y z
#    x 2.024990 0.002860 0.002580 
#    y 0.002860 2.036450 -0.010690 
#    z 0.002580 -0.010690 2.014710 
# 
# From -- ./inp_files/70445.got.cif
#   From: 2010.06.25/outbox.cif.g09.slc.cpg/sg2_36_cif.got.tgz:70445.got - 2010.06.27 13:26:56.
