data_PCOD8019867
_publ_section_title
;
Structure prediction by ZEFSAII (Michael W. Deem and Ramdas Pophale) SiO2 
 PCOD8019867
Probable space group: P -1
;
_chemical_formula_sum "Si O2"
_cell_formula_units_Z 14
_cell_length_a 13.984876
_cell_length_b 13.896349
_cell_length_c 10.707019
_cell_angle_alpha 63.037437
_cell_angle_beta 43.258451
_cell_angle_gamma 30.215927
_cell_volume 617.246180
_symmetry_space_group_name_H-M "P -1"
_symmetry_group_IT_number 2
_symmetry_cell_setting 'triclinic'
loop_
_space_group_symop_operation_xyz
x,y,z
-x,-y,-z
loop_
_atom_site_type_symbol
_atom_site_label
_atom_site_fract_x
_atom_site_fract_y
_atom_site_fract_z
Si Si1 0.678747 0.983803 0.802980
Si Si2 0.389050 0.235230 0.473915
Si Si3 0.028566 0.274553 0.764931
Si Si4 0.587163 0.461990 0.227829
Si Si5 0.874305 0.263961 0.304268
Si Si6 0.795492 0.421808 0.633463
Si Si7 0.721909 0.619857 0.227759
O O1 0.793726 0.962676 0.834580
O O2 0.960735 0.749135 0.603112
O O3 0.517404 0.183532 0.760836
O O4 0.500000 0.000000 0.000000
O O5 0.129611 0.329001 0.635886
O O6 0.325434 0.376025 0.358750
O O7 0.390518 0.270119 0.595024
O O8 0.701666 0.977641 0.294084
O O9 0.928751 0.297829 0.711579
O O10 0.759052 0.447151 0.014664
O O11 0.816668 0.248699 0.231902
O O12 0.313182 0.675598 0.450167
O O13 0.480897 0.462065 0.212770
O O14 0.771892 0.458459 0.272028
O O15 0.000000 0.500000 0.000000
#
# Coordination Sequence:
#
# PCOD8019867 Si02
#       7
#     2   2   2   2   2   2   2
#     4  11  21  35  64  94 122 161 202 258 312 362
#     4  11  23  40  62  95 122 163 210 264 305 364
#     4  11  24  40  64  90 127 163 214 255 312 367
#     4  10  22  42  65  88 127 173 198 259 310 369
#     4  10  22  42  61  92 130 157 211 256 308 374
#     4  11  22  43  61  91 128 162 212 255 306 374
#     4  12  20  38  65  92 125 160 201 255 318 361
#
# _framework density 22.681387999999998
#
# number of rings (size 3 to 8) (size 9 to 14) (size 15 to 20)
#    0.000    1.143    5.714    1.714    0.000    0.571 
#    0.000   10.714    0.000    0.000    0.000    0.000 
#    0.000    0.000    0.000    0.000    0.000    0.000 
#
# Total GULP energy -173482.851399 kJ/mol
# GULP energy per Si atom -12391.632243 kJ/mol
# Density = 2.262976 g / cm^3
# Si number density = 22.681388 Si / 1000 Ang^3
#
#
#
# Elastic Constant Matrix: (Units=GPa)
#
#
# Indices 1 2 3 4 5 6 
#
# 1 113.9689 21.0103 26.3386 7.5302 -24.5953 -41.9167
# 2 21.0103 78.8725 5.9603 7.1889 -16.1246 -18.6150
# 3 26.3386 5.9603 106.4806 -6.9325 -27.9685 -11.7759
# 4 7.5302 7.1889 -6.9325 16.4238 -7.5322 -3.6690
# 5 -24.5953 -16.1246 -27.9685 -7.5322 33.5523 4.8775
# 6 -41.9167 -18.6150 -11.7759 -3.6690 4.8775 46.2570
#
#
#
# Elastic Compliance Matrix: (Units=1/GPa)
#
#
# Indices 1 2 3 4 5 6 
#
# 1 0.015791 0.001128 0.000310 0.000256 0.010432 0.013762
# 2 0.001128 0.015716 0.001777 -0.001180 0.008608 0.006797
# 3 0.000310 0.001777 0.014676 0.013410 0.015724 0.004138
# 4 0.000256 -0.001180 0.013410 0.081315 0.028086 0.006660
# 5 0.010432 0.008608 0.015724 0.028086 0.059123 0.012914
# 6 0.013762 0.006797 0.004138 0.006660 0.012914 0.037045
#
#
# Mechanical properties :
#
#
# Convention : Reuss Voigt Hill
#
# Bulk Modulus (GPa) = 19.00707 45.10450 32.05579
# Shear Modulus (GPa) = 21.29712 35.64746 28.47229
#
# Velocity S-wave (km/s) = 3.06758 3.96872 3.54689
# Velocity P-wave (km/s) = 4.57657 6.39768 5.56216
#
# Compressibility (1/GPa) = 0.05261200
#
# Stress axis : x y z
#
# Youngs Moduli (GPa) = 63.32752 63.63115 68.13817
#
# Poissons Ratio (x) = -0.07176 -0.02111
# Poissons Ratio (y) = -0.07141 -0.12110
# Poissons Ratio (z) = -0.01962 -0.11309
#
# Static dielectric constant tensor:
#      x y z
#    x 4.568260 -0.472080 -0.251550 
#    y -0.472080 4.014330 -0.031150 
#    z -0.251550 -0.031150 4.102900 
# 
# 
# High freq. dielectric constant tensor:
#      x y z
#    x 1.907140 -0.034050 -0.020330 
#    y -0.034050 1.873440 -0.008440 
#    z -0.020330 -0.008440 1.896890 
# 
# From -- ./inp_files/455612.got.cif
#   From: 2010.06.25/outbox.cif.g09.slc.cpg/sg2_228_cif.got.tgz:455612.got - 2010.06.27 13:26:56.
