data_PCOD8019410
_publ_section_title
;
Structure prediction by ZEFSAII (Michael W. Deem and Ramdas Pophale) SiO2 
 PCOD8019410
Probable space group: P -1
;
_chemical_formula_sum "Si O2"
_cell_formula_units_Z 16
_cell_length_a 5.132482
_cell_length_b 24.235967
_cell_length_c 22.643078
_cell_angle_alpha 161.894519
_cell_angle_beta 130.578997
_cell_angle_gamma 53.464292
_cell_volume 661.647765
_symmetry_space_group_name_H-M "P -1"
_symmetry_group_IT_number 2
_symmetry_cell_setting 'triclinic'
loop_
_space_group_symop_operation_xyz
x,y,z
-x,-y,-z
loop_
_atom_site_type_symbol
_atom_site_label
_atom_site_fract_x
_atom_site_fract_y
_atom_site_fract_z
Si Si1 0.292125 0.338667 0.635503
Si Si2 0.536799 0.022823 0.287476
Si Si3 0.636839 0.882122 0.950079
Si Si4 0.498494 0.200928 0.768434
Si Si5 0.718841 0.687062 0.025410
Si Si6 0.053098 0.299248 0.289741
Si Si7 0.361394 0.834034 0.676168
Si Si8 0.296546 0.174723 0.585622
O O1 0.323543 0.135908 0.414559
O O2 0.375383 0.340294 0.719684
O O3 0.887479 0.341936 0.561029
O O4 0.542013 0.484517 0.785628
O O5 0.463085 0.060626 0.246689
O O6 0.928593 0.079420 0.419683
O O7 0.476296 0.812311 0.080695
O O8 0.843283 0.731670 0.795557
O O9 0.316299 0.804247 0.862026
O O10 0.500000 0.000000 0.000000
O O11 0.844590 0.021220 0.168314
O O12 0.284465 0.268443 0.860150
O O13 0.323205 0.259359 0.741181
O O14 0.893565 0.293901 0.923513
O O15 0.453298 0.984407 0.544399
O O16 0.333996 0.233412 0.308773
O O17 0.000000 0.500000 0.500000
#
# Coordination Sequence:
#
# PCOD8019410 Si02
#       8
#     2   2   2   2   2   2   2   2
#     4  11  24  42  66  94 137 176 228 273 336 402
#     4  10  23  44  64  92 138 179 223 273 337 405
#     4  10  22  44  73  97 133 176 219 264 334 400
#     4  10  22  41  67  95 128 177 225 282 345 387
#     4  11  25  43  65  95 134 172 230 281 330 399
#     4  11  24  46  72 107 138 165 224 284 327 394
#     4  10  24  44  68  96 134 187 219 271 340 405
#     4   9  21  40  66  93 130 176 225 282 338 398
#
# _framework density 24.18205
#
# number of rings (size 3 to 8) (size 9 to 14) (size 15 to 20)
#    0.000    1.750    1.250    1.875   10.500    2.500 
#    4.500    0.000    0.000    0.000    0.000    0.000 
#    0.000    0.000    0.000    0.000    0.000    0.000 
#
# Total GULP energy -198272.935017 kJ/mol
# GULP energy per Si atom -12392.058439 kJ/mol
# Density = 2.412701 g / cm^3
# Si number density = 24.182050 Si / 1000 Ang^3
#
#
#
# Elastic Constant Matrix: (Units=GPa)
#
#
# Indices 1 2 3 4 5 6 
#
# 1 77.9601 12.2651 1.9473 1.1408 -16.6505 12.0722
# 2 12.2651 99.5677 41.0168 -1.1828 -4.0880 18.3806
# 3 1.9473 41.0168 64.0462 11.0174 -8.9266 5.1657
# 4 1.1408 -1.1828 11.0174 30.0318 15.3695 -5.6994
# 5 -16.6505 -4.0880 -8.9266 15.3695 35.8430 6.7510
# 6 12.0722 18.3806 5.1657 -5.6994 6.7510 24.9383
#
#
#
# Elastic Compliance Matrix: (Units=1/GPa)
#
#
# Indices 1 2 3 4 5 6 
#
# 1 0.023104 -0.001598 0.010414 -0.023985 0.028190 -0.025277
# 2 -0.001598 0.015891 -0.010540 0.004191 -0.001984 -0.007261
# 3 0.010414 -0.010540 0.032998 -0.031316 0.028876 -0.019082
# 4 -0.023985 0.004191 -0.031316 0.090661 -0.067510 0.054003
# 5 0.028190 -0.001984 0.028876 -0.067510 0.087708 -0.057337
# 6 -0.025277 -0.007261 -0.019082 0.054003 -0.057337 0.089502
#
#
# Mechanical properties :
#
#
# Convention : Reuss Voigt Hill
#
# Bulk Modulus (GPa) = 14.58873 39.11471 26.85172
# Shear Modulus (GPa) = 13.65524 30.58560 22.12042
#
# Velocity S-wave (km/s) = 2.37889 3.56027 3.02776
# Velocity P-wave (km/s) = 3.68666 5.75421 4.83231
#
# Compressibility (1/GPa) = 0.06854607
#
# Stress axis : x y z
#
# Youngs Moduli (GPa) = 43.28239 62.92894 30.30478
#
# Poissons Ratio (x) = 0.10054 -0.31561
# Poissons Ratio (y) = 0.06915 0.31942
# Poissons Ratio (z) = -0.45076 0.66329
#
# Static dielectric constant tensor:
#      x y z
#    x 4.632020 0.270850 -0.236640 
#    y 0.270850 4.855950 -0.171980 
#    z -0.236640 -0.171980 4.670900 
# 
# 
# High freq. dielectric constant tensor:
#      x y z
#    x 1.964450 0.008590 0.000980 
#    y 0.008590 1.952860 -0.011330 
#    z 0.000980 -0.011330 1.958780 
# 
# From -- ./inp_files/584458.got.cif
#   From: 2010.06.25/outbox.cif.g09.slc.cpg/sg2_293_cif.got.tgz:584458.got - 2010.06.27 13:26:56.
