data_PCOD8019245
_publ_section_title
;
Structure prediction by ZEFSAII (Michael W. Deem and Ramdas Pophale) SiO2 
 PCOD8019245
Probable space group: P -1
;
_chemical_formula_sum "Si O2"
_cell_formula_units_Z 14
_cell_length_a 16.870721
_cell_length_b 9.001788
_cell_length_c 11.754413
_cell_angle_alpha 148.746664
_cell_angle_beta 41.804088
_cell_angle_gamma 125.133803
_cell_volume 607.434645
_symmetry_space_group_name_H-M "P -1"
_symmetry_group_IT_number 2
_symmetry_cell_setting 'triclinic'
loop_
_space_group_symop_operation_xyz
x,y,z
-x,-y,-z
loop_
_atom_site_type_symbol
_atom_site_label
_atom_site_fract_x
_atom_site_fract_y
_atom_site_fract_z
Si Si1 0.757486 0.840253 0.874552
Si Si2 0.057169 0.394499 0.047932
Si Si3 0.641593 0.935046 0.304990
Si Si4 0.640099 0.884422 0.797005
Si Si5 0.769438 0.330541 0.829772
Si Si6 0.809423 0.210775 0.452580
Si Si7 0.824833 0.438995 0.194630
O O1 0.659015 0.827582 0.873340
O O2 0.846452 0.522752 0.584160
O O3 0.684764 0.909635 0.113322
O O4 0.834089 0.095055 0.936187
O O5 0.136621 0.401142 0.852854
O O6 0.082547 0.066168 0.859021
O O7 0.095683 0.623814 0.246878
O O8 0.915549 0.481919 0.229433
O O9 0.500000 0.000000 0.500000
O O10 0.696345 0.185082 0.475276
O O11 0.682395 0.639780 0.138108
O O12 0.690393 0.590680 0.478365
O O13 0.721331 0.119219 0.830361
O O14 0.500000 0.000000 0.000000
O O15 0.767189 0.209307 0.626748
#
# Coordination Sequence:
#
# PCOD8019245 Si02
#       7
#     2   2   2   2   2   2   2
#     4  11  25  43  65 100 136 171 224 275 335 390
#     4  10  22  44  70  98 135 175 224 276 327 403
#     4  10  24  41  67  92 134 182 227 268 324 402
#     4  12  27  41  67 101 139 173 220 279 339 394
#     4  10  22  41  66 101 129 175 223 272 336 393
#     4  10  22  44  66  95 134 171 220 272 334 389
#     4  11  24  43  68 101 135 175 225 274 332 395
#
# _framework density 23.047747999999999
#
# number of rings (size 3 to 8) (size 9 to 14) (size 15 to 20)
#    0.000    1.429    2.857    0.857    6.000    4.000 
#    0.000   10.000    0.000    0.000    0.000    0.000 
#    0.000    0.000    0.000    0.000    0.000    0.000 
#
# Total GULP energy -173589.556803 kJ/mol
# GULP energy per Si atom -12399.254057 kJ/mol
# Density = 2.299529 g / cm^3
# Si number density = 23.047748 Si / 1000 Ang^3
#
#
#
# Elastic Constant Matrix: (Units=GPa)
#
#
# Indices 1 2 3 4 5 6 
#
# 1 113.0430 21.7896 26.9662 -1.7734 6.0879 -12.9011
# 2 21.7896 87.1228 34.3068 32.0181 -3.9761 -10.8527
# 3 26.9662 34.3068 72.1806 18.2459 0.2870 0.7145
# 4 -1.7734 32.0181 18.2459 40.5854 -3.9783 2.0389
# 5 6.0879 -3.9761 0.2870 -3.9783 39.0333 -4.2146
# 6 -12.9011 -10.8527 0.7145 2.0389 -4.2146 30.5116
#
#
#
# Elastic Compliance Matrix: (Units=1/GPa)
#
#
# Indices 1 2 3 4 5 6 
#
# 1 0.010700 -0.002047 -0.003959 0.003578 -0.001106 0.003497
# 2 -0.002047 0.020250 -0.005450 -0.013819 0.001839 0.007642
# 3 -0.003959 -0.005450 0.019063 -0.004340 -0.000941 -0.003899
# 4 0.003578 -0.013819 -0.004340 0.038064 0.001335 -0.005660
# 5 -0.001106 0.001839 -0.000941 0.001335 0.026530 0.003784
# 6 0.003497 0.007642 -0.003899 -0.005660 0.003784 0.037964
#
#
# Mechanical properties :
#
#
# Convention : Reuss Voigt Hill
#
# Bulk Modulus (GPa) = 36.89893 48.71906 42.80899
# Shear Modulus (GPa) = 27.09773 34.64498 30.87135
#
# Velocity S-wave (km/s) = 3.43260 3.88130 3.66382
# Velocity P-wave (km/s) = 5.63514 6.42418 6.04256
#
# Compressibility (1/GPa) = 0.02710105
#
# Stress axis : x y z
#
# Youngs Moduli (GPa) = 93.45777 49.38170 52.45750
#
# Poissons Ratio (x) = 0.10108 0.20770
# Poissons Ratio (y) = 0.19130 0.28589
# Poissons Ratio (z) = 0.37003 0.26913
#
# Static dielectric constant tensor:
#      x y z
#    x 4.386640 -0.276720 0.153270 
#    y -0.276720 4.195010 0.385640 
#    z 0.153270 0.385640 4.267480 
# 
# 
# High freq. dielectric constant tensor:
#      x y z
#    x 1.920310 -0.021810 0.012330 
#    y -0.021810 1.909610 0.024240 
#    z 0.012330 0.024240 1.905450 
# 
# From -- ./inp_files/27543.got.cif
#   From: 2010.06.25/outbox.cif.g09.slc.cpg/sg2_14_cif.got.tgz:27543.got - 2010.06.27 13:26:56.
