data_PCOD8019209
_publ_section_title
;
Structure prediction by ZEFSAII (Michael W. Deem and Ramdas Pophale) SiO2 
 PCOD8019209
Probable space group: P -1
;
_chemical_formula_sum "Si O2"
_cell_formula_units_Z 14
_cell_length_a 8.674137
_cell_length_b 18.617991
_cell_length_c 15.720497
_cell_angle_alpha 158.234679
_cell_angle_beta 135.464862
_cell_angle_gamma 47.540175
_cell_volume 659.409868
_symmetry_space_group_name_H-M "P -1"
_symmetry_group_IT_number 2
_symmetry_cell_setting 'triclinic'
loop_
_space_group_symop_operation_xyz
x,y,z
-x,-y,-z
loop_
_atom_site_type_symbol
_atom_site_label
_atom_site_fract_x
_atom_site_fract_y
_atom_site_fract_z
Si Si1 0.302162 0.171425 0.699922
Si Si2 0.067496 0.020820 0.203512
Si Si3 0.522827 0.135864 0.914825
Si Si4 0.476136 0.516071 0.407879
Si Si5 0.243248 0.785693 0.161135
Si Si6 0.966133 0.600464 0.284466
Si Si7 0.396276 0.079079 0.132467
O O1 0.319431 0.183055 0.822234
O O2 0.522804 0.249526 0.831214
O O3 0.106218 0.311129 0.738699
O O4 0.269266 0.945568 0.420226
O O5 0.276156 0.973023 0.174362
O O6 0.064534 0.869062 0.113875
O O7 0.081934 0.239195 0.484656
O O8 0.847185 0.999041 0.038556
O O9 0.454960 0.995630 0.811082
O O10 0.589988 0.333153 0.203272
O O11 0.500000 0.500000 0.500000
O O12 0.612719 0.690403 0.618106
O O13 0.221131 0.541958 0.312457
O O14 0.168394 0.586958 0.952809
O O15 0.500000 0.000000 0.000000
#
# Coordination Sequence:
#
# PCOD8019209 Si02
#       7
#     2   2   2   2   2   2   2
#     4   9  21  39  58  96 127 161 204 259 305 367
#     4  10  22  41  65  97 122 161 210 259 305 364
#     4  11  25  41  62  94 129 155 212 265 304 366
#     4  12  25  41  63  92 123 166 211 255 310 373
#     4   9  19  37  67  91 127 161 206 252 310 368
#     4  11  21  38  68  91 127 168 206 246 315 374
#     4  12  23  42  67  86 126 167 207 257 315 365
#
# _framework density 21.231103999999998
#
# number of rings (size 3 to 8) (size 9 to 14) (size 15 to 20)
#    0.000    1.429    2.857    2.571    0.000    4.571 
#    0.000    1.429    0.000    0.000    0.000    0.000 
#    0.000    0.000    0.000    0.000    0.000    0.000 
#
# Total GULP energy -173598.267076 kJ/mol
# GULP energy per Si atom -12399.876220 kJ/mol
# Density = 2.118278 g / cm^3
# Si number density = 21.231104 Si / 1000 Ang^3
#
#
#
# Elastic Constant Matrix: (Units=GPa)
#
#
# Indices 1 2 3 4 5 6 
#
# 1 62.5439 34.7503 34.5637 -1.7498 -0.1300 7.1503
# 2 34.7503 137.8934 37.1571 -9.3211 12.5929 24.2655
# 3 34.5637 37.1571 127.8551 10.9670 13.3048 19.5084
# 4 -1.7498 -9.3211 10.9670 35.9902 3.4157 -0.7666
# 5 -0.1300 12.5929 13.3048 3.4157 36.2165 -1.3953
# 6 7.1503 24.2655 19.5084 -0.7666 -1.3953 43.7795
#
#
#
# Elastic Compliance Matrix: (Units=1/GPa)
#
#
# Indices 1 2 3 4 5 6 
#
# 1 0.021152 -0.004442 -0.005097 0.001135 0.003440 0.001408
# 2 -0.004442 0.009909 -0.000874 0.002862 -0.003581 -0.004441
# 3 -0.005097 -0.000874 0.010659 -0.003472 -0.003442 -0.003603
# 4 0.001135 0.002862 -0.003472 0.029884 -0.002526 0.000218
# 5 0.003440 -0.003581 -0.003442 -0.002526 0.030522 0.003885
# 6 0.001408 -0.004441 -0.003603 0.000218 0.003885 0.026807
#
#
# Mechanical properties :
#
#
# Convention : Reuss Voigt Hill
#
# Bulk Modulus (GPa) = 47.86335 60.13719 54.00027
# Shear Modulus (GPa) = 31.90328 37.98532 34.94430
#
# Velocity S-wave (km/s) = 3.88063 4.23441 4.06137
# Velocity P-wave (km/s) = 6.53238 7.23142 6.89077
#
# Compressibility (1/GPa) = 0.02089281
#
# Stress axis : x y z
#
# Youngs Moduli (GPa) = 47.27746 100.91786 93.81638
#
# Poissons Ratio (x) = 0.44830 0.47821
# Poissons Ratio (y) = 0.21002 0.08200
# Poissons Ratio (z) = 0.24099 0.08820
#
# Static dielectric constant tensor:
#      x y z
#    x 3.590320 0.002060 0.094920 
#    y 0.002060 4.348260 -0.120620 
#    z 0.094920 -0.120620 4.115750 
# 
# 
# High freq. dielectric constant tensor:
#      x y z
#    x 1.807060 0.002120 -0.002680 
#    y 0.002120 1.854280 0.001480 
#    z -0.002680 0.001480 1.838660 
# 
# From -- ./inp_files/303459.got.cif
#   From: 2010.06.25/outbox.cif.g09.slc.cpg/sg2_152_cif.got.tgz:303459.got - 2010.06.27 13:26:56.
