data_PCOD8019368
_publ_section_title
;
Structure prediction by ZEFSAII (Michael W. Deem and Ramdas Pophale) SiO2 
 PCOD8019368
Probable space group: P -1
;
_chemical_formula_sum "Si O2"
_cell_formula_units_Z 12
_cell_length_a 7.527397
_cell_length_b 8.821139
_cell_length_c 12.416887
_cell_angle_alpha 42.735587
_cell_angle_beta 71.505612
_cell_angle_gamma 96.679116
_cell_volume 445.657142
_symmetry_space_group_name_H-M "P -1"
_symmetry_group_IT_number 2
_symmetry_cell_setting 'triclinic'
loop_
_space_group_symop_operation_xyz
x,y,z
-x,-y,-z
loop_
_atom_site_type_symbol
_atom_site_label
_atom_site_fract_x
_atom_site_fract_y
_atom_site_fract_z
Si Si1 0.478508 0.756256 0.782133
Si Si2 0.227370 0.256570 0.982752
Si Si3 0.217763 0.928575 0.607084
Si Si4 0.869564 0.370043 0.930889
Si Si5 0.747469 0.208417 0.806589
Si Si6 0.414583 0.464478 0.414730
O O1 0.397236 0.444756 0.948508
O O2 0.349510 0.788091 0.687721
O O3 0.731326 0.963958 0.585252
O O4 0.389577 0.808118 0.883504
O O5 0.363420 0.356373 0.792628
O O6 0.000388 0.252911 0.024953
O O7 0.155331 0.954612 0.181346
O O8 0.961389 0.676421 0.787985
O O9 0.269174 0.159955 0.560513
O O10 0.891876 0.359387 0.805371
O O11 0.748254 0.423053 0.615899
O O12 0.500000 0.000000 0.000000
O O13 0.500000 0.500000 0.500000
#
# Coordination Sequence:
#
# PCOD8019368 Si02
#       6
#     2   2   2   2   2   2
#     4   9  19  37  69  96 130 170 211 268 333 377
#     4   9  19  40  65  98 128 168 219 266 320 401
#     4   9  19  37  65 101 127 165 230 261 314 402
#     4  11  21  40  73  96 128 174 216 273 327 381
#     4  10  23  41  63  97 133 171 221 267 326 394
#     4  10  22  41  67  90 137 180 207 273 335 375
#
# _framework density 26.926528999999999
#
# number of rings (size 3 to 8) (size 9 to 14) (size 15 to 20)
#    0.000    2.333    0.000    3.500    4.667    0.667 
#    3.000    8.333    0.000    0.000    0.000    0.000 
#    0.000    0.000    0.000    0.000    0.000    0.000 
#
# Total GULP energy -148666.998290 kJ/mol
# GULP energy per Si atom -12388.916524 kJ/mol
# Density = 2.686524 g / cm^3
# Si number density = 26.926529 Si / 1000 Ang^3
#
#
#
# Elastic Constant Matrix: (Units=GPa)
#
#
# Indices 1 2 3 4 5 6 
#
# 1 63.7785 39.4743 20.0209 -12.4603 18.5461 -16.0377
# 2 39.4743 134.5645 38.2485 -26.4027 17.6087 -20.8604
# 3 20.0209 38.2485 68.0375 -14.2728 -3.0915 -24.6224
# 4 -12.4603 -26.4027 -14.2728 46.6996 -13.1466 0.2357
# 5 18.5461 17.6087 -3.0915 -13.1466 29.3902 -5.7404
# 6 -16.0377 -20.8604 -24.6224 0.2357 -5.7404 37.8138
#
#
#
# Elastic Compliance Matrix: (Units=1/GPa)
#
#
# Indices 1 2 3 4 5 6 
#
# 1 0.023802 -0.003642 -0.004593 -0.000808 -0.013074 0.003116
# 2 -0.003642 0.010849 -0.004029 0.003084 -0.002984 0.001344
# 3 -0.004593 -0.004029 0.026293 0.008653 0.014910 0.015160
# 4 -0.000808 0.003084 0.008653 0.029650 0.014598 0.009024
# 5 -0.013074 -0.002984 0.014910 0.014598 0.054243 0.010661
# 6 0.003116 0.001344 0.015160 0.009024 0.010661 0.039942
#
#
# Mechanical properties :
#
#
# Convention : Reuss Voigt Hill
#
# Bulk Modulus (GPa) = 27.45983 51.31867 39.38925
# Shear Modulus (GPa) = 22.57878 34.02315 28.30097
#
# Velocity S-wave (km/s) = 2.89888 3.55851 3.24550
# Velocity P-wave (km/s) = 4.62870 5.99868 5.35766
#
# Compressibility (1/GPa) = 0.03641683
#
# Stress axis : x y z
#
# Youngs Moduli (GPa) = 42.01254 92.17519 38.03229
#
# Poissons Ratio (x) = 0.33566 0.17468
# Poissons Ratio (y) = 0.15299 0.15325
# Poissons Ratio (z) = 0.19296 0.37142
#
# Static dielectric constant tensor:
#      x y z
#    x 4.855920 -0.384050 0.308420 
#    y -0.384050 5.086780 -0.421620 
#    z 0.308420 -0.421620 5.216540 
# 
# 
# High freq. dielectric constant tensor:
#      x y z
#    x 2.061850 -0.017450 0.007750 
#    y -0.017450 2.079570 -0.009310 
#    z 0.007750 -0.009310 2.084900 
# 
# From -- ./inp_files/373374.got.cif
#   From: 2010.06.25/outbox.cif.g09.slc.cpg/sg2_187_cif.got.tgz:373374.got - 2010.06.27 13:26:56.
