data_PCOD8019400
_publ_section_title
;
Structure prediction by ZEFSAII (Michael W. Deem and Ramdas Pophale) SiO2 
 PCOD8019400
Probable space group: P -1
;
_chemical_formula_sum "Si O2"
_cell_formula_units_Z 16
_cell_length_a 28.376817
_cell_length_b 8.822012
_cell_length_c 12.402423
_cell_angle_alpha 143.604880
_cell_angle_beta 28.658076
_cell_angle_gamma 150.596928
_cell_volume 720.149766
_symmetry_space_group_name_H-M "P -1"
_symmetry_group_IT_number 2
_symmetry_cell_setting 'triclinic'
loop_
_space_group_symop_operation_xyz
x,y,z
-x,-y,-z
loop_
_atom_site_type_symbol
_atom_site_label
_atom_site_fract_x
_atom_site_fract_y
_atom_site_fract_z
Si Si1 0.961003 0.211242 0.148689
Si Si2 0.064324 0.897983 0.389120
Si Si3 0.703740 0.872120 0.551026
Si Si4 0.733274 0.869539 0.017467
Si Si5 0.488628 0.670300 0.721487
Si Si6 0.893322 0.873895 0.876522
Si Si7 0.635021 0.190343 0.298997
Si Si8 0.670242 0.177007 0.979138
O O1 0.052986 0.579640 0.198476
O O2 0.838021 0.142319 0.402693
O O3 0.946202 0.143482 0.013040
O O4 0.000000 0.000000 0.000000
O O5 0.007738 0.873899 0.606101
O O6 0.000000 0.000000 0.500000
O O7 0.209121 0.157439 0.226593
O O8 0.615634 0.883712 0.650136
O O9 0.690302 0.551271 0.387578
O O10 0.688051 0.939668 0.744044
O O11 0.607011 0.554752 0.123448
O O12 0.710173 0.136865 0.202641
O O13 0.835079 0.973959 0.962621
O O14 0.500000 0.500000 0.500000
O O15 0.446282 0.872421 0.872108
O O16 0.789171 0.533161 0.937128
O O17 0.500000 0.000000 0.500000
O O18 0.640877 0.069977 0.100205
#
# Coordination Sequence:
#
# PCOD8019400 Si02
#       8
#     2   2   2   2   2   2   2   2
#     4  12  25  42  71 102 132 177 232 277 333 408
#     4  10  23  43  67  96 137 170 223 282 335 391
#     4  12  23  41  69  99 130 175 227 270 331 406
#     4  10  22  41  67  94 133 174 211 273 340 391
#     4  11  20  43  70  97 129 179 218 269 329 401
#     4  10  22  45  70  93 131 175 223 274 337 399
#     4  12  23  42  62  94 140 167 216 280 333 391
#     4  11  23  40  69  98 128 175 223 275 329 399
#
# _framework density 22.217600999999998
#
# number of rings (size 3 to 8) (size 9 to 14) (size 15 to 20)
#    0.000    1.000    5.000    1.875    0.000    4.000 
#    0.000    2.500    0.000    0.000    0.000    0.000 
#    0.000    0.000    0.000    0.000    0.000    0.000 
#
# Total GULP energy -198281.053458 kJ/mol
# GULP energy per Si atom -12392.565841 kJ/mol
# Density = 2.216703 g / cm^3
# Si number density = 22.217601 Si / 1000 Ang^3
#
#
#
# Elastic Constant Matrix: (Units=GPa)
#
#
# Indices 1 2 3 4 5 6 
#
# 1 95.6024 21.4164 47.4945 2.5109 3.7250 -5.4104
# 2 21.4164 34.8765 26.7355 -6.5094 4.9657 0.7787
# 3 47.4945 26.7355 154.6072 -17.0632 18.1054 8.4539
# 4 2.5109 -6.5094 -17.0632 50.1919 0.5187 2.1035
# 5 3.7250 4.9657 18.1054 0.5187 45.4846 9.6299
# 6 -5.4104 0.7787 8.4539 2.1035 9.6299 24.6823
#
#
#
# Elastic Compliance Matrix: (Units=1/GPa)
#
#
# Indices 1 2 3 4 5 6 
#
# 1 0.014168 -0.006438 -0.003852 -0.003057 0.000082 0.004856
# 2 -0.006438 0.036411 -0.003624 0.003870 -0.001854 -0.000925
# 3 -0.003852 -0.003624 0.009042 0.002954 -0.002244 -0.003203
# 4 -0.003057 0.003870 0.002954 0.021730 -0.000896 -0.003307
# 5 0.000082 -0.001854 -0.002244 -0.000896 0.024950 -0.008813
# 6 0.004856 -0.000925 -0.003203 -0.003307 -0.008813 0.046426
#
#
# Mechanical properties :
#
#
# Convention : Reuss Voigt Hill
#
# Bulk Modulus (GPa) = 31.45321 52.93099 42.19210
# Shear Modulus (GPa) = 26.15727 36.70107 31.42917
#
# Velocity S-wave (km/s) = 3.43493 4.06876 3.76521
# Velocity P-wave (km/s) = 5.46986 6.77854 6.15906
#
# Compressibility (1/GPa) = 0.03179326
#
# Stress axis : x y z
#
# Youngs Moduli (GPa) = 70.58387 27.46430 110.59851
#
# Poissons Ratio (x) = 0.17682 0.42597
# Poissons Ratio (y) = 0.45443 0.40079
# Poissons Ratio (z) = 0.27185 0.09953
#
# Static dielectric constant tensor:
#      x y z
#    x 4.103250 -0.122200 0.002910 
#    y -0.122200 3.717490 -0.303550 
#    z 0.002910 -0.303550 4.769360 
# 
# 
# High freq. dielectric constant tensor:
#      x y z
#    x 1.868630 -0.014120 -0.004780 
#    y -0.014120 1.849420 -0.015230 
#    z -0.004780 -0.015230 1.909950 
# 
# From -- ./inp_files/398571.got.cif
#   From: 2010.06.25/outbox.cif.g09.slc.cpg/sg2_200_cif.got.tgz:398571.got - 2010.06.27 13:26:56.
