data_PCOD8019615
_publ_section_title
;
Structure prediction by ZEFSAII (Michael W. Deem and Ramdas Pophale) SiO2 
 PCOD8019615
Probable space group: P -1
;
_chemical_formula_sum "Si O2"
_cell_formula_units_Z 16
_cell_length_a 18.444556
_cell_length_b 20.908342
_cell_length_c 5.269482
_cell_angle_alpha 101.846562
_cell_angle_beta 100.411696
_cell_angle_gamma 20.274149
_cell_volume 688.746080
_symmetry_space_group_name_H-M "P -1"
_symmetry_group_IT_number 2
_symmetry_cell_setting 'triclinic'
loop_
_space_group_symop_operation_xyz
x,y,z
-x,-y,-z
loop_
_atom_site_type_symbol
_atom_site_label
_atom_site_fract_x
_atom_site_fract_y
_atom_site_fract_z
Si Si1 0.389997 0.332667 0.965306
Si Si2 0.649261 0.304557 0.678555
Si Si3 0.314919 0.269888 0.529456
Si Si4 0.056784 0.284164 0.066116
Si Si5 0.914376 0.656831 0.368441
Si Si6 0.773388 0.274249 0.233553
Si Si7 0.229573 0.934875 0.318676
Si Si8 0.350328 0.949623 0.726167
O O1 0.453861 0.257337 0.226066
O O2 0.176537 0.552031 0.001371
O O3 0.322004 0.324295 0.768248
O O4 0.587902 0.208473 0.889239
O O5 0.767222 0.243312 0.475352
O O6 0.399879 0.524595 0.701427
O O7 0.699586 0.186590 0.570947
O O8 0.735972 0.254796 0.965950
O O9 0.282158 0.228984 0.622942
O O10 0.543486 0.078414 0.383564
O O11 0.126154 0.437883 0.345654
O O12 0.103241 0.298809 0.887495
O O13 0.214833 0.091891 0.985216
O O14 0.089000 0.284690 0.368814
O O15 0.002143 0.114180 0.196922
O O16 0.205339 0.021863 0.531338
#
# Coordination Sequence:
#
# PCOD8019615 Si02
#       8
#     2   2   2   2   2   2   2   2
#     4  10  24  43  61  92 134 170 215 266 319 384
#     4  10  23  44  70 100 133 163 211 266 312 370
#     4   9  21  41  65  92 126 165 222 272 326 386
#     4  11  25  43  63  93 129 168 219 272 323 379
#     4  10  22  41  69  91 122 173 214 276 336 372
#     4  10  23  44  69 102 131 162 214 265 309 374
#     4  11  25  41  68  96 129 181 208 258 320 383
#     4  11  25  41  63  93 133 170 219 263 315 393
#
# _framework density 23.230622
#
# number of rings (size 3 to 8) (size 9 to 14) (size 15 to 20)
#    0.000    1.750    1.250    0.750    8.750    4.500 
#    2.250    0.000    0.000    0.000    0.000    0.000 
#    0.000    0.000    0.000    0.000    0.000    0.000 
#
# Total GULP energy -198344.836861 kJ/mol
# GULP energy per Si atom -12396.552304 kJ/mol
# Density = 2.317775 g / cm^3
# Si number density = 23.230622 Si / 1000 Ang^3
#
#
#
# Elastic Constant Matrix: (Units=GPa)
#
#
# Indices 1 2 3 4 5 6 
#
# 1 90.9715 47.5060 11.3945 -1.4439 4.3839 -30.6025
# 2 47.5060 102.3607 14.0445 6.6710 10.7977 -26.5557
# 3 11.3945 14.0445 57.6422 6.6792 -14.0333 -10.1869
# 4 -1.4439 6.6710 6.6792 34.0650 3.5546 -1.7396
# 5 4.3839 10.7977 -14.0333 3.5546 20.1429 -2.1484
# 6 -30.6025 -26.5557 -10.1869 -1.7396 -2.1484 32.9086
#
#
#
# Elastic Compliance Matrix: (Units=1/GPa)
#
#
# Indices 1 2 3 4 5 6 
#
# 1 0.018041 -0.005137 -0.000564 0.002594 -0.000685 0.012550
# 2 -0.005137 0.015122 -0.003637 -0.001269 -0.008694 0.005665
# 3 -0.000564 -0.003637 0.025207 -0.006201 0.021305 0.005406
# 4 0.002594 -0.001269 -0.006201 0.031978 -0.009792 0.000519
# 5 -0.000685 -0.008694 0.021305 -0.009792 0.071354 0.003083
# 6 0.012550 0.005665 0.005406 0.000519 0.003083 0.048531
#
#
# Mechanical properties :
#
#
# Convention : Reuss Voigt Hill
#
# Bulk Modulus (GPa) = 25.19290 44.09605 34.64448
# Shear Modulus (GPa) = 20.64901 29.29194 24.97048
#
# Velocity S-wave (km/s) = 2.98463 3.55479 3.28212
# Velocity P-wave (km/s) = 4.76923 5.98931 5.41375
#
# Compressibility (1/GPa) = 0.03969372
#
# Stress axis : x y z
#
# Youngs Moduli (GPa) = 55.42806 66.12884 39.67161
#
# Poissons Ratio (x) = 0.33967 0.02239
# Poissons Ratio (y) = 0.28471 0.14430
# Poissons Ratio (z) = 0.03128 0.24054
#
# Static dielectric constant tensor:
#      x y z
#    x 4.069870 -0.213850 -0.097610 
#    y -0.213850 4.609840 0.090340 
#    z -0.097610 0.090340 3.976520 
# 
# 
# High freq. dielectric constant tensor:
#      x y z
#    x 1.908360 -0.011140 -0.008540 
#    y -0.011140 1.929940 0.000450 
#    z -0.008540 0.000450 1.911340 
# 
# From -- ./inp_files/112493.got.cif
#   From: 2010.06.25/outbox.cif.g09.slc.cpg/sg2_57_cif.got.tgz:112493.got - 2010.06.27 13:26:56.
