data_PCOD8019915
_publ_section_title
;
Structure prediction by ZEFSAII (Michael W. Deem and Ramdas Pophale) SiO2 
 PCOD8019915
Probable space group: P -1
;
_chemical_formula_sum "Si O2"
_cell_formula_units_Z 16
_cell_length_a 15.202234
_cell_length_b 18.592541
_cell_length_c 10.296523
_cell_angle_alpha 142.035067
_cell_angle_beta 24.132182
_cell_angle_gamma 145.090909
_cell_volume 670.901892
_symmetry_space_group_name_H-M "P -1"
_symmetry_group_IT_number 2
_symmetry_cell_setting 'triclinic'
loop_
_space_group_symop_operation_xyz
x,y,z
-x,-y,-z
loop_
_atom_site_type_symbol
_atom_site_label
_atom_site_fract_x
_atom_site_fract_y
_atom_site_fract_z
Si Si1 0.099536 0.429098 0.368103
Si Si2 0.976630 0.824152 0.352591
Si Si3 0.294466 0.264429 0.171148
Si Si4 0.439689 0.538582 0.298626
Si Si5 0.723440 0.991338 0.247802
Si Si6 0.862129 0.905614 0.364785
Si Si7 0.819057 0.212147 0.613032
Si Si8 0.643787 0.256887 0.166963
O O1 0.258016 0.522287 0.401523
O O2 0.000000 0.500000 0.500000
O O3 0.867603 0.309015 0.563064
O O4 0.284675 0.373469 0.980492
O O5 0.731169 0.771468 0.692080
O O6 0.916718 0.815502 0.268533
O O7 0.127056 0.968172 0.398407
O O8 0.137087 0.746142 0.052340
O O9 0.471949 0.408782 0.111787
O O10 0.045935 0.264852 0.470585
O O11 0.340523 0.160132 0.871020
O O12 0.349267 0.600157 0.625326
O O13 0.761393 0.065755 0.439983
O O14 0.500000 0.000000 0.500000
O O15 0.957309 0.063189 0.952300
O O16 0.596574 0.837049 0.573111
O O17 0.625380 0.219302 0.984862
#
# Coordination Sequence:
#
# PCOD8019915 Si02
#       8
#     2   2   2   2   2   2   2   2
#     4  10  23  43  67  92 133 169 219 266 315 384
#     4   9  21  39  65  93 128 171 213 271 320 381
#     4   9  21  43  64  90 129 166 216 270 318 383
#     4  10  23  43  65  97 130 174 215 263 320 389
#     4  11  24  40  66  94 127 166 214 274 325 378
#     4  10  22  42  62  96 130 166 220 265 321 386
#     4  10  23  41  64  96 125 171 216 261 328 387
#     4  11  23  41  68  94 135 172 213 262 325 388
#
# _framework density 23.848495
#
# number of rings (size 3 to 8) (size 9 to 14) (size 15 to 20)
#    0.000    2.000    0.000    1.500    7.000    6.500 
#    6.750    1.250    0.000    0.000    0.000    0.000 
#    0.000    0.000    0.000    0.000    0.000    0.000 
#
# Total GULP energy -198251.387261 kJ/mol
# GULP energy per Si atom -12390.711704 kJ/mol
# Density = 2.379421 g / cm^3
# Si number density = 23.848495 Si / 1000 Ang^3
#
#
#
# Elastic Constant Matrix: (Units=GPa)
#
#
# Indices 1 2 3 4 5 6 
#
# 1 61.6098 13.9669 31.1845 17.8391 6.5195 -10.4252
# 2 13.9669 86.9541 50.0336 17.5671 12.0168 -15.9857
# 3 31.1845 50.0336 134.3896 24.6765 24.6172 -0.1177
# 4 17.8391 17.5671 24.6765 38.4395 7.7293 -5.4351
# 5 6.5195 12.0168 24.6172 7.7293 36.9539 3.0343
# 6 -10.4252 -15.9857 -0.1177 -5.4351 3.0343 27.9432
#
#
#
# Elastic Compliance Matrix: (Units=1/GPa)
#
#
# Indices 1 2 3 4 5 6 
#
# 1 0.021323 0.001952 -0.004283 -0.006779 -0.000768 0.007819
# 2 0.001952 0.017456 -0.005953 -0.003152 -0.002243 0.010320
# 3 -0.004283 -0.005953 0.011945 -0.002815 -0.004263 -0.005038
# 4 -0.006779 -0.003152 -0.002815 0.033381 -0.003090 0.002484
# 5 -0.000768 -0.002243 -0.004263 -0.003090 0.031876 -0.005650
# 6 0.007819 0.010320 -0.005038 0.002484 -0.005650 0.045684
#
#
# Mechanical properties :
#
#
# Convention : Reuss Voigt Hill
#
# Bulk Modulus (GPa) = 29.27658 52.59149 40.93404
# Shear Modulus (GPa) = 26.36884 33.18524 29.77704
#
# Velocity S-wave (km/s) = 3.32879 3.73433 3.53738
# Velocity P-wave (km/s) = 5.20357 6.37917 5.82113
#
# Compressibility (1/GPa) = 0.03415699
#
# Stress axis : x y z
#
# Youngs Moduli (GPa) = 46.89670 57.28575 83.71953
#
# Poissons Ratio (x) = -0.11184 0.35854
# Poissons Ratio (y) = -0.09156 0.49842
# Poissons Ratio (z) = 0.20084 0.34105
#
# Static dielectric constant tensor:
#      x y z
#    x 4.313950 -0.320230 0.153350 
#    y -0.320230 4.187860 -0.227200 
#    z 0.153350 -0.227200 4.334560 
# 
# 
# High freq. dielectric constant tensor:
#      x y z
#    x 1.932820 -0.002190 -0.001190 
#    y -0.002190 1.936920 -0.003670 
#    z -0.001190 -0.003670 1.952080 
# 
# From -- ./inp_files/467152.got.cif
#   From: 2010.06.25/outbox.cif.g09.slc.cpg/sg2_234_cif.got.tgz:467152.got - 2010.06.27 13:26:56.
