data_PCOD8019622
_publ_section_title
;
Structure prediction by ZEFSAII (Michael W. Deem and Ramdas Pophale) SiO2 
 PCOD8019622
Probable space group: P -1
;
_chemical_formula_sum "Si O2"
_cell_formula_units_Z 16
_cell_length_a 18.178046
_cell_length_b 14.935915
_cell_length_c 12.099253
_cell_angle_alpha 27.333135
_cell_angle_beta 49.137534
_cell_angle_gamma 32.153271
_cell_volume 735.549334
_symmetry_space_group_name_H-M "P -1"
_symmetry_group_IT_number 2
_symmetry_cell_setting 'triclinic'
loop_
_space_group_symop_operation_xyz
x,y,z
-x,-y,-z
loop_
_atom_site_type_symbol
_atom_site_label
_atom_site_fract_x
_atom_site_fract_y
_atom_site_fract_z
Si Si1 0.297431 0.663992 0.491372
Si Si2 0.260504 0.361157 0.704944
Si Si3 0.157730 0.244633 0.423224
Si Si4 0.933257 0.681170 0.977617
Si Si5 0.594683 0.425861 0.095411
Si Si6 0.680694 0.695997 0.655917
Si Si7 0.068811 0.707146 0.314768
Si Si8 0.530348 0.272374 0.879855
O O1 0.304549 0.446725 0.661263
O O2 0.376825 0.515479 0.694254
O O3 0.366714 0.713593 0.284330
O O4 0.130175 0.000050 0.316987
O O5 0.202845 0.255294 0.935361
O O6 0.130170 0.660568 0.428713
O O7 0.404149 0.050179 0.838616
O O8 0.242938 0.295709 0.334399
O O9 0.057987 0.490283 0.157847
O O10 0.055620 0.275539 0.576319
O O11 0.290943 0.912842 0.603007
O O12 0.000000 0.500000 0.000000
O O13 0.489545 0.652044 0.052696
O O14 0.500000 0.500000 0.000000
O O15 0.705641 0.430018 0.945567
O O16 0.776874 0.604536 0.553089
O O17 0.500000 0.000000 0.500000
O O18 0.000000 0.000000 0.000000
#
# Coordination Sequence:
#
# PCOD8019622 Si02
#       8
#     2   2   2   2   2   2   2   2
#     4  10  22  41  69  93 131 178 223 283 342 405
#     4  10  23  40  66  96 128 178 229 273 342 411
#     4  11  25  43  67  96 136 179 226 280 342 409
#     4  10  23  42  63  99 132 169 225 284 341 406
#     4  12  25  41  65  99 137 177 226 284 344 407
#     4  12  25  43  66  97 133 180 231 278 342 402
#     4  11  24  43  66  96 137 181 225 279 339 412
#     4  10  23  42  63  98 135 172 226 284 342 407
#
# _framework density 21.75245
#
# number of rings (size 3 to 8) (size 9 to 14) (size 15 to 20)
#    0.000    1.250    2.500    2.250    3.500    2.500 
#    0.000    0.000    0.000    0.000    0.000    0.000 
#    0.000    0.000    0.000    0.000    0.000    0.000 
#
# Total GULP energy -198265.743641 kJ/mol
# GULP energy per Si atom -12391.608978 kJ/mol
# Density = 2.170294 g / cm^3
# Si number density = 21.752450 Si / 1000 Ang^3
#
#
#
# Elastic Constant Matrix: (Units=GPa)
#
#
# Indices 1 2 3 4 5 6 
#
# 1 170.1573 57.7780 59.9938 -9.9130 -7.8566 5.4880
# 2 57.7780 104.8727 33.0784 -20.1754 7.4172 15.8132
# 3 59.9938 33.0784 114.8537 -23.6795 5.4587 3.3944
# 4 -9.9130 -20.1754 -23.6795 37.0762 4.6969 -2.4891
# 5 -7.8566 7.4172 5.4587 4.6969 26.8712 -4.2266
# 6 5.4880 15.8132 3.3944 -2.4891 -4.2266 39.6064
#
#
#
# Elastic Compliance Matrix: (Units=1/GPa)
#
#
# Indices 1 2 3 4 5 6 
#
# 1 0.009138 -0.004997 -0.004428 -0.003743 0.005840 0.001496
# 2 -0.004997 0.015076 0.000415 0.007757 -0.007963 -0.005725
# 3 -0.004428 0.000415 0.012806 0.007868 -0.005503 -0.000742
# 4 -0.003743 0.007757 0.007868 0.036535 -0.011565 -0.002191
# 5 0.005840 -0.007963 -0.005503 -0.011565 0.045353 0.006955
# 6 0.001496 -0.005725 -0.000742 -0.002191 0.006955 0.027995
#
#
# Mechanical properties :
#
#
# Convention : Reuss Voigt Hill
#
# Bulk Modulus (GPa) = 52.62859 76.84267 64.73563
# Shear Modulus (GPa) = 29.19628 36.64632 32.92130
#
# Velocity S-wave (km/s) = 3.66759 4.10896 3.89453
# Velocity P-wave (km/s) = 6.49475 7.61013 7.07446
#
# Compressibility (1/GPa) = 0.01900108
#
# Stress axis : x y z
#
# Youngs Moduli (GPa) = 109.43362 66.33056 78.09111
#
# Poissons Ratio (x) = 0.33143 0.34576
# Poissons Ratio (y) = 0.54679 -0.03241
# Poissons Ratio (z) = 0.48453 -0.02753
#
# Static dielectric constant tensor:
#      x y z
#    x 3.836030 -0.088720 -0.061030 
#    y -0.088720 4.084350 -0.021380 
#    z -0.061030 -0.021380 3.960140 
# 
# 
# High freq. dielectric constant tensor:
#      x y z
#    x 1.855660 0.002480 -0.000400 
#    y 0.002480 1.856010 -0.013360 
#    z -0.000400 -0.013360 1.866710 
# 
# From -- ./inp_files/382604.got.cif
#   From: 2010.06.25/outbox.cif.g09.slc.cpg/sg2_192_cif.got.tgz:382604.got - 2010.06.27 13:26:56.
