data_PCOD8019385
_publ_section_title
;
Structure prediction by ZEFSAII (Michael W. Deem and Ramdas Pophale) SiO2 
 PCOD8019385
Probable space group: P -1
;
_chemical_formula_sum "Si O2"
_cell_formula_units_Z 16
_cell_length_a 8.891552
_cell_length_b 11.576298
_cell_length_c 8.890080
_cell_angle_alpha 132.123263
_cell_angle_beta 96.383537
_cell_angle_gamma 102.179116
_cell_volume 621.834578
_symmetry_space_group_name_H-M "P -1"
_symmetry_group_IT_number 2
_symmetry_cell_setting 'triclinic'
loop_
_space_group_symop_operation_xyz
x,y,z
-x,-y,-z
loop_
_atom_site_type_symbol
_atom_site_label
_atom_site_fract_x
_atom_site_fract_y
_atom_site_fract_z
Si Si1 0.286745 0.918783 0.649731
Si Si2 0.859563 0.845158 0.271170
Si Si3 0.541789 0.382320 0.286828
Si Si4 0.986001 0.619769 0.903846
Si Si5 0.264940 0.664454 0.194506
Si Si6 0.404288 0.343255 0.696380
Si Si7 0.827352 0.263314 0.244761
Si Si8 0.615392 0.910613 0.793777
O O1 0.290630 0.849649 0.421271
O O2 0.141714 0.789119 0.628442
O O3 0.452136 0.948373 0.784304
O O4 0.266089 0.094007 0.778301
O O5 0.755218 0.700769 0.253082
O O6 0.000000 0.000000 0.500000
O O7 0.950303 0.775024 0.100029
O O8 0.500000 0.500000 0.500000
O O9 0.546069 0.466489 0.197417
O O10 0.716245 0.373082 0.332276
O O11 0.404018 0.193989 0.142038
O O12 0.004522 0.626573 0.729762
O O13 0.831971 0.452289 0.779625
O O14 0.157796 0.621651 0.993759
O O15 0.440048 0.650098 0.179765
O O16 0.359500 0.197909 0.437189
O O17 0.759277 0.092896 0.984324
#
# Coordination Sequence:
#
# PCOD8019385 Si02
#       8
#     2   2   2   2   2   2   2   2
#     4  10  22  41  67  93 131 176 221 266 328 404
#     4  12  25  43  65 100 136 171 222 280 325 390
#     4   9  19  38  63  97 131 163 220 269 317 388
#     4  11  26  43  63  96 140 173 219 283 327 388
#     4  10  24  45  63  96 134 176 225 268 331 400
#     4  10  23  41  71  95 129 184 220 267 333 393
#     4  11  23  41  69  97 133 180 211 276 342 380
#     4   9  20  40  67 103 132 166 223 277 323 390
#
# _framework density 25.730315999999998
#
# number of rings (size 3 to 8) (size 9 to 14) (size 15 to 20)
#    0.000    1.750    1.250    3.000    5.250    4.500 
#    0.000    5.000    0.000    0.000    0.000    0.000 
#    0.000    0.000    0.000    0.000    0.000    0.000 
#
# Total GULP energy -198314.536533 kJ/mol
# GULP energy per Si atom -12394.658533 kJ/mol
# Density = 2.567175 g / cm^3
# Si number density = 25.730316 Si / 1000 Ang^3
#
#
#
# Elastic Constant Matrix: (Units=GPa)
#
#
# Indices 1 2 3 4 5 6 
#
# 1 81.8257 33.1553 7.0362 -0.9301 -15.0012 4.5750
# 2 33.1553 115.1360 -3.6233 -7.5142 -23.6787 3.0619
# 3 7.0362 -3.6233 41.4751 -4.9018 -7.5738 -9.5205
# 4 -0.9301 -7.5142 -4.9018 34.1267 0.8953 -12.4704
# 5 -15.0012 -23.6787 -7.5738 0.8953 34.4102 -0.1640
# 6 4.5750 3.0619 -9.5205 -12.4704 -0.1640 44.4892
#
#
#
# Elastic Compliance Matrix: (Units=1/GPa)
#
#
# Indices 1 2 3 4 5 6 
#
# 1 0.014687 -0.003715 -0.002989 -0.001804 0.003225 -0.002388
# 2 -0.003715 0.011483 0.003589 0.003231 0.006994 0.001291
# 3 -0.002989 0.003589 0.029167 0.007817 0.007423 0.008520
# 4 -0.001804 0.003231 0.007817 0.035238 0.002295 0.011522
# 5 0.003225 0.006994 0.007423 0.002295 0.036862 0.001555
# 6 -0.002388 0.001291 0.008520 0.011522 0.001555 0.027693
#
#
# Mechanical properties :
#
#
# Convention : Reuss Voigt Hill
#
# Bulk Modulus (GPa) = 20.36332 34.61924 27.49128
# Shear Modulus (GPa) = 28.13297 36.06311 32.09804
#
# Velocity S-wave (km/s) = 3.31021 3.74783 3.53580
# Velocity P-wave (km/s) = 4.74777 5.67558 5.23228
#
# Compressibility (1/GPa) = 0.04910792
#
# Stress axis : x y z
#
# Youngs Moduli (GPa) = 68.08543 87.08536 34.28572
#
# Poissons Ratio (x) = 0.32349 0.10247
# Poissons Ratio (y) = 0.25291 -0.12304
# Poissons Ratio (z) = 0.20349 -0.31253
#
# Static dielectric constant tensor:
#      x y z
#    x 4.386780 -0.022110 -0.261570 
#    y -0.022110 5.267050 0.138920 
#    z -0.261570 0.138920 4.545330 
# 
# 
# High freq. dielectric constant tensor:
#      x y z
#    x 2.007560 0.004050 -0.023460 
#    y 0.004050 2.038660 0.008220 
#    z -0.023460 0.008220 2.037680 
# 
# From -- ./inp_files/190841.got.cif
#   From: 2010.06.25/outbox.cif.g09.slc.cpg/sg2_96_cif.got.tgz:190841.got - 2010.06.27 13:26:56.
