data_PCOD8019750
_publ_section_title
;
Structure prediction by ZEFSAII (Michael W. Deem and Ramdas Pophale) SiO2 
 PCOD8019750
Probable space group: P -1
;
_chemical_formula_sum "Si O2"
_cell_formula_units_Z 16
_cell_length_a 11.021474
_cell_length_b 9.312983
_cell_length_c 16.415024
_cell_angle_alpha 66.564160
_cell_angle_beta 66.417294
_cell_angle_gamma 122.374129
_cell_volume 798.606431
_symmetry_space_group_name_H-M "P -1"
_symmetry_group_IT_number 2
_symmetry_cell_setting 'triclinic'
loop_
_space_group_symop_operation_xyz
x,y,z
-x,-y,-z
loop_
_atom_site_type_symbol
_atom_site_label
_atom_site_fract_x
_atom_site_fract_y
_atom_site_fract_z
Si Si1 0.749400 0.300767 0.333911
Si Si2 0.041399 0.662356 0.323908
Si Si3 0.205597 0.767369 0.831060
Si Si4 0.229238 0.192608 0.158899
Si Si5 0.710421 0.161069 0.633360
Si Si6 0.801769 0.893083 0.629668
Si Si7 0.303310 0.433842 0.799910
Si Si8 0.040180 0.917500 0.886655
O O1 0.852996 0.295463 0.235012
O O2 0.682436 0.406029 0.298526
O O3 0.961886 0.507058 0.295660
O O4 0.500000 0.000000 0.500000
O O5 0.244424 0.771626 0.296620
O O6 0.814267 0.414009 0.500707
O O7 0.140438 0.931411 0.218943
O O8 0.235208 0.975686 0.803162
O O9 0.434270 0.885247 0.757278
O O10 0.000000 0.500000 0.000000
O O11 0.184317 0.175212 0.270340
O O12 0.070677 0.148757 0.155833
O O13 0.500000 0.500000 0.000000
O O14 0.822365 0.103576 0.585518
O O15 0.556481 0.613536 0.715280
O O16 0.000000 0.000000 0.500000
O O17 0.170821 0.181331 0.837353
O O18 0.165625 0.344832 0.939424
#
# Coordination Sequence:
#
# PCOD8019750 Si02
#       8
#     2   2   2   2   2   2   2   2
#     4  12  22  42  69  97 134 176 222 277 333 396
#     4  10  22  41  71  93 130 182 219 271 343 391
#     4  12  24  42  69 100 137 179 226 271 340 403
#     4  11  23  42  69  97 134 178 225 275 336 401
#     4  10  22  44  68  95 139 176 217 280 340 394
#     4  11  23  42  70  97 133 177 220 276 338 400
#     4  11  22  43  66  96 139 170 221 275 338 391
#     4  11  24  41  69  99 133 179 221 279 334 400
#
# _framework density 20.034901000000001
#
# number of rings (size 3 to 8) (size 9 to 14) (size 15 to 20)
#    0.000    1.000    6.250    0.000    1.750    5.000 
#    0.000    2.500    0.000    0.000    0.000    0.000 
#    0.000    0.000    0.000    0.000    0.000    0.000 
#
# Total GULP energy -198217.224054 kJ/mol
# GULP energy per Si atom -12388.576503 kJ/mol
# Density = 1.998930 g / cm^3
# Si number density = 20.034901 Si / 1000 Ang^3
#
#
#
# Elastic Constant Matrix: (Units=GPa)
#
#
# Indices 1 2 3 4 5 6 
#
# 1 98.0436 60.8068 45.8319 12.4068 1.2952 10.6734
# 2 60.8068 115.6628 66.7628 8.9198 -3.3164 17.8927
# 3 45.8319 66.7628 127.4330 2.7482 8.8918 -4.4567
# 4 12.4068 8.9198 2.7482 41.0863 0.4702 3.8794
# 5 1.2952 -3.3164 8.8918 0.4702 36.6807 3.8885
# 6 10.6734 17.8927 -4.4567 3.8794 3.8885 43.6515
#
#
#
# Elastic Compliance Matrix: (Units=1/GPa)
#
#
# Indices 1 2 3 4 5 6 
#
# 1 0.015880 -0.006753 -0.002106 -0.003087 -0.000514 -0.001010
# 2 -0.006753 0.017634 -0.007328 -0.000721 0.004323 -0.006646
# 3 -0.002106 -0.007328 0.012902 0.000928 -0.004272 0.005134
# 4 -0.003087 -0.000721 0.000928 0.025472 -0.000393 -0.001084
# 5 -0.000514 0.004323 -0.004272 -0.000393 0.029205 -0.004649
# 6 -0.001010 -0.006646 0.005134 -0.001084 -0.004649 0.026914
#
#
# Mechanical properties :
#
#
# Convention : Reuss Voigt Hill
#
# Bulk Modulus (GPa) = 71.22353 76.43803 73.83078
# Shear Modulus (GPa) = 30.29176 35.46622 32.87899
#
# Velocity S-wave (km/s) = 3.89260 4.21197 4.05543
# Velocity P-wave (km/s) = 7.47195 7.86699 7.67201
#
# Compressibility (1/GPa) = 0.01404030
#
# Stress axis : x y z
#
# Youngs Moduli (GPa) = 62.97337 56.70944 77.51015
#
# Poissons Ratio (x) = 0.38297 0.16324
# Poissons Ratio (y) = 0.42527 0.56800
# Poissons Ratio (z) = 0.13262 0.41557
#
# Static dielectric constant tensor:
#      x y z
#    x 4.243950 -0.115480 0.227620 
#    y -0.115480 4.212220 -0.016290 
#    z 0.227620 -0.016290 3.785410 
# 
# 
# High freq. dielectric constant tensor:
#      x y z
#    x 1.776230 0.020900 0.023430 
#    y 0.020900 1.798670 -0.013070 
#    z 0.023430 -0.013070 1.782370 
# 
# From -- ./inp_files/346184.got.cif
#   From: 2010.06.25/outbox.cif.g09.slc.cpg/sg2_174_cif.got.tgz:346184.got - 2010.06.27 13:26:56.
