data_PCOD8019124
_publ_section_title
;
Structure prediction by ZEFSAII (Michael W. Deem and Ramdas Pophale) SiO2 
 PCOD8019124
Probable space group: P -1
;
_chemical_formula_sum "Si O2"
_cell_formula_units_Z 12
_cell_length_a 16.171337
_cell_length_b 10.892982
_cell_length_c 9.163397
_cell_angle_alpha 151.748505
_cell_angle_beta 40.158333
_cell_angle_gamma 141.425415
_cell_volume 460.520934
_symmetry_space_group_name_H-M "P -1"
_symmetry_group_IT_number 2
_symmetry_cell_setting 'triclinic'
loop_
_space_group_symop_operation_xyz
x,y,z
-x,-y,-z
loop_
_atom_site_type_symbol
_atom_site_label
_atom_site_fract_x
_atom_site_fract_y
_atom_site_fract_z
Si Si1 0.942381 0.592479 0.020701
Si Si2 0.379238 0.530038 0.288537
Si Si3 0.763021 0.194419 0.630930
Si Si4 0.531599 0.030329 0.156793
Si Si5 0.801081 0.999229 0.674553
Si Si6 0.217090 0.909062 0.822277
O O1 0.870541 0.781312 0.397170
O O2 0.858584 0.492240 0.876116
O O3 0.918287 0.315115 0.864394
O O4 0.097809 0.762549 0.944793
O O5 0.435898 0.651535 0.500179
O O6 0.333220 0.772726 0.536305
O O7 0.500000 0.500000 0.000000
O O8 0.259689 0.232953 0.143028
O O9 0.754937 0.968437 0.533685
O O10 0.829291 0.127684 0.323820
O O11 0.604888 0.175552 0.792940
O O12 0.670909 0.957328 0.915471
O O13 0.500000 0.000000 0.000000
#
# Coordination Sequence:
#
# PCOD8019124 Si02
#       6
#     2   2   2   2   2   2
#     4  10  22  41  65 103 134 179 222 267 330 397
#     4  12  27  46  68 101 136 173 222 277 345 384
#     4   9  22  39  70  98 137 173 229 272 324 392
#     4  10  22  48  69 101 128 180 225 280 323 400
#     4   9  22  40  65  99 129 175 230 262 324 385
#     4  12  25  43  68 100 140 174 218 279 334 401
#
# _framework density 26.057445999999999
#
# number of rings (size 3 to 8) (size 9 to 14) (size 15 to 20)
#    1.000    0.667    1.667    2.000    2.333    2.667 
#    0.000    5.000    0.000    0.000    0.000    0.000 
#    0.000    0.000    0.000    0.000    0.000    0.000 
#
# Total GULP energy -148722.745496 kJ/mol
# GULP energy per Si atom -12393.562125 kJ/mol
# Density = 2.599814 g / cm^3
# Si number density = 26.057446 Si / 1000 Ang^3
#
#
#
# Elastic Constant Matrix: (Units=GPa)
#
#
# Indices 1 2 3 4 5 6 
#
# 1 61.9582 24.3519 54.9401 4.0672 13.2146 -2.1478
# 2 24.3519 113.3574 36.3559 -9.4709 9.2443 21.7912
# 3 54.9401 36.3559 181.2333 -0.8137 7.9834 0.3034
# 4 4.0672 -9.4709 -0.8137 55.9564 3.8129 6.8964
# 5 13.2146 9.2443 7.9834 3.8129 55.2117 -2.4045
# 6 -2.1478 21.7912 0.3034 6.8964 -2.4045 47.8535
#
#
#
# Elastic Compliance Matrix: (Units=1/GPa)
#
#
# Indices 1 2 3 4 5 6 
#
# 1 0.024485 -0.003622 -0.006536 -0.002580 -0.004002 0.002960
# 2 -0.003622 0.011446 -0.001115 0.003000 -0.001351 -0.005868
# 3 -0.006536 -0.001115 0.007697 0.000338 0.000621 0.000148
# 4 -0.002580 0.003000 0.000338 0.019203 -0.001448 -0.004324
# 5 -0.004002 -0.001351 0.000621 -0.001448 0.019377 0.001614
# 6 0.002960 -0.005868 0.000148 -0.004324 0.001614 0.024405
#
#
# Mechanical properties :
#
#
# Convention : Reuss Voigt Hill
#
# Bulk Modulus (GPa) = 47.43639 65.31609 56.37624
# Shear Modulus (GPa) = 36.71437 47.86437 42.28937
#
# Velocity S-wave (km/s) = 3.75771 4.29053 4.03293
# Velocity P-wave (km/s) = 6.08861 7.04738 6.58547
#
# Compressibility (1/GPa) = 0.02108086
#
# Stress axis : x y z
#
# Youngs Moduli (GPa) = 40.84179 87.36454 129.92420
#
# Poissons Ratio (x) = 0.31643 0.84920
# Poissons Ratio (y) = 0.14793 0.14491
# Poissons Ratio (z) = 0.26695 0.09744
#
# Static dielectric constant tensor:
#      x y z
#    x 5.001730 0.504930 0.264990 
#    y 0.504930 5.305250 -0.100780 
#    z 0.264990 -0.100780 4.849730 
# 
# 
# High freq. dielectric constant tensor:
#      x y z
#    x 2.062400 0.015580 0.034600 
#    y 0.015580 2.044030 -0.009130 
#    z 0.034600 -0.009130 2.046050 
# 
# From -- ./inp_files/361728.got.cif
#   From: 2010.06.25/outbox.cif.g09.slc.cpg/sg2_181_cif.got.tgz:361728.got - 2010.06.27 13:26:56.
