data_PCOD8019755
_publ_section_title
;
Structure prediction by ZEFSAII (Michael W. Deem and Ramdas Pophale) SiO2 
 PCOD8019755
Probable space group: P -1
;
_chemical_formula_sum "Si O2"
_cell_formula_units_Z 14
_cell_length_a 5.604905
_cell_length_b 15.515163
_cell_length_c 8.879930
_cell_angle_alpha 83.221253
_cell_angle_beta 125.243097
_cell_angle_gamma 93.973764
_cell_volume 626.261144
_symmetry_space_group_name_H-M "P -1"
_symmetry_group_IT_number 2
_symmetry_cell_setting 'triclinic'
loop_
_space_group_symop_operation_xyz
x,y,z
-x,-y,-z
loop_
_atom_site_type_symbol
_atom_site_label
_atom_site_fract_x
_atom_site_fract_y
_atom_site_fract_z
Si Si1 0.818153 0.542693 0.115834
Si Si2 0.346112 0.830009 0.340465
Si Si3 0.860210 0.338773 0.575133
Si Si4 0.767981 0.075039 0.425433
Si Si5 0.033558 0.236716 0.373788
Si Si6 0.786142 0.616708 0.781592
Si Si7 0.333517 0.978384 0.102172
O O1 0.910463 0.589888 0.294489
O O2 0.072554 0.472662 0.203603
O O3 0.500000 0.500000 0.000000
O O4 0.805705 0.616672 0.968621
O O5 0.182805 0.736991 0.299359
O O6 0.202202 0.895309 0.396765
O O7 0.356238 0.875138 0.169913
O O8 0.671402 0.816735 0.517419
O O9 0.023629 0.300016 0.499797
O O10 0.545557 0.378270 0.403717
O O11 0.791800 0.161127 0.309154
O O12 0.463350 0.033803 0.275868
O O13 0.000000 0.000000 0.500000
O O14 0.017060 0.300182 0.211045
O O15 0.500000 0.000000 0.000000
O O16 0.000000 0.000000 0.000000
#
# Coordination Sequence:
#
# PCOD8019755 Si02
#       7
#     2   2   2   2   2   2   2
#     4  11  24  42  68  99 137 172 225 282 347 417
#     4  10  23  44  66  94 131 183 232 275 348 417
#     4  10  23  44  68  95 136 179 225 283 345 418
#     4  11  22  43  74  92 132 185 234 279 339 423
#     4  10  22  41  71  95 128 178 236 276 339 412
#     4  10  23  43  66 101 130 176 228 275 351 411
#     4  12  27  42  65 105 140 178 231 298 355 408
#
# _framework density 22.354894000000002
#
# number of rings (size 3 to 8) (size 9 to 14) (size 15 to 20)
#    0.000    1.429    1.429    2.571    4.000    8.000 
#    7.714    0.000    0.000    0.000    0.000    0.000 
#    0.000    0.000    0.000    0.000    0.000    0.000 
#
# Total GULP energy -173436.166709 kJ/mol
# GULP energy per Si atom -12388.297622 kJ/mol
# Density = 2.230401 g / cm^3
# Si number density = 22.354894 Si / 1000 Ang^3
#
#
#
# Elastic Constant Matrix: (Units=GPa)
#
#
# Indices 1 2 3 4 5 6 
#
# 1 107.0860 45.6327 34.2594 -12.5098 0.1447 4.1384
# 2 45.6327 115.4014 61.3698 -19.2371 0.8011 8.4610
# 3 34.2594 61.3698 84.7337 -10.7721 9.9087 4.9723
# 4 -12.5098 -19.2371 -10.7721 42.4899 22.3236 -16.1456
# 5 0.1447 0.8011 9.9087 22.3236 31.2502 -1.5740
# 6 4.1384 8.4610 4.9723 -16.1456 -1.5740 38.0493
#
#
#
# Elastic Compliance Matrix: (Units=1/GPa)
#
#
# Indices 1 2 3 4 5 6 
#
# 1 0.011569 -0.003169 -0.002064 0.002061 -0.000762 0.000559
# 2 -0.003169 0.015625 -0.009586 0.003487 0.000143 -0.000392
# 3 -0.002064 -0.009586 0.021873 0.007903 -0.012208 0.002346
# 4 0.002061 0.003487 0.007903 0.058441 -0.043296 0.020975
# 5 -0.000762 0.000143 -0.012208 -0.043296 0.066094 -0.013991
# 6 0.000559 -0.000392 0.002346 0.020975 -0.013991 0.034323
#
#
# Mechanical properties :
#
#
# Convention : Reuss Voigt Hill
#
# Bulk Modulus (GPa) = 51.46759 65.52721 58.49740
# Shear Modulus (GPa) = 20.48829 33.42184 26.95507
#
# Velocity S-wave (km/s) = 3.03066 3.87079 3.47620
# Velocity P-wave (km/s) = 5.94302 7.02519 6.50664
#
# Compressibility (1/GPa) = 0.01942970
#
# Stress axis : x y z
#
# Youngs Moduli (GPa) = 86.43538 63.99831 45.71742
#
# Poissons Ratio (x) = 0.20284 0.09436
# Poissons Ratio (y) = 0.27395 0.43824
# Poissons Ratio (z) = 0.17840 0.61348
#
# Static dielectric constant tensor:
#      x y z
#    x 4.344110 0.347600 -0.247360 
#    y 0.347600 4.330670 -0.532440 
#    z -0.247360 -0.532440 4.002310 
# 
# 
# High freq. dielectric constant tensor:
#      x y z
#    x 1.893020 0.009180 0.000400 
#    y 0.009180 1.897680 -0.019400 
#    z 0.000400 -0.019400 1.858070 
# 
# From -- ./inp_files/38302.got.cif
#   From: 2010.06.25/outbox.cif.g09.slc.cpg/sg2_20_cif.got.tgz:38302.got - 2010.06.27 13:26:56.
