data_PCOD8019765
_publ_section_title
;
Structure prediction by ZEFSAII (Michael W. Deem and Ramdas Pophale) SiO2 
 PCOD8019765
Probable space group: P -1
;
_chemical_formula_sum "Si O2"
_cell_formula_units_Z 16
_cell_length_a 8.381840
_cell_length_b 22.910587
_cell_length_c 5.908449
_cell_angle_alpha 60.153134
_cell_angle_beta 86.617092
_cell_angle_gamma 47.496792
_cell_volume 653.793597
_symmetry_space_group_name_H-M "P -1"
_symmetry_group_IT_number 2
_symmetry_cell_setting 'triclinic'
loop_
_space_group_symop_operation_xyz
x,y,z
-x,-y,-z
loop_
_atom_site_type_symbol
_atom_site_label
_atom_site_fract_x
_atom_site_fract_y
_atom_site_fract_z
Si Si1 0.647621 0.603626 0.815977
Si Si2 0.222588 0.752125 0.260304
Si Si3 0.833101 0.748959 0.739997
Si Si4 0.469568 0.760639 0.865890
Si Si5 0.755057 0.918091 0.256873
Si Si6 0.976948 0.608431 0.638518
Si Si7 0.763852 0.388812 0.725284
Si Si8 0.987273 0.041346 0.672762
O O1 0.385203 0.673927 0.602737
O O2 0.626258 0.649254 0.969859
O O3 0.807531 0.596855 0.638586
O O4 0.779551 0.491070 0.057957
O O5 0.204538 0.695923 0.202099
O O6 0.959663 0.854364 0.169804
O O7 0.337739 0.780904 0.070612
O O8 0.643824 0.769928 0.881786
O O9 0.759419 0.849700 0.539633
O O10 0.819405 0.715455 0.566873
O O11 0.119502 0.653008 0.956289
O O12 0.273117 0.841353 0.533821
O O13 0.802856 0.967592 0.320312
O O14 0.500000 0.000000 0.000000
O O15 0.052969 0.614876 0.384341
O O16 0.500000 0.500000 0.500000
O O17 0.000000 0.000000 0.500000
O O18 0.000000 0.000000 0.000000
#
# Coordination Sequence:
#
# PCOD8019765 Si02
#       8
#     2   2   2   2   2   2   2   2
#     4  10  22  41  71  98 144 190 245 301 374 465
#     4  12  24  43  72 102 146 195 249 315 385 463
#     4  11  25  46  69 103 149 193 247 317 386 463
#     4  11  24  45  73 103 141 195 255 313 386 463
#     4  12  27  51  78 112 154 203 266 332 409 468
#     4  10  22  42  66 104 142 192 240 303 377 457
#     4  12  25  38  68 107 150 192 250 307 397 471
#     4  12  27  50  80 113 151 205 271 336 406 484
#
# _framework density 24.472553999999999
#
# number of rings (size 3 to 8) (size 9 to 14) (size 15 to 20)
#    0.000    0.750    2.500    4.500    1.750    2.000 
#    0.000    8.750    0.000    0.000    0.000    0.000 
#    0.000    0.000    0.000    0.000    0.000    0.000 
#
# Total GULP energy -198237.138797 kJ/mol
# GULP energy per Si atom -12389.821175 kJ/mol
# Density = 2.441685 g / cm^3
# Si number density = 24.472554 Si / 1000 Ang^3
#
#
#
# Elastic Constant Matrix: (Units=GPa)
#
#
# Indices 1 2 3 4 5 6 
#
# 1 144.9029 47.7010 60.7686 -3.4564 -2.8228 -4.1690
# 2 47.7010 97.4332 25.2600 -2.3213 -1.0378 -2.5919
# 3 60.7686 25.2600 107.6970 -17.2630 11.9443 -3.8256
# 4 -3.4564 -2.3213 -17.2630 37.0957 -12.1426 2.3201
# 5 -2.8228 -1.0378 11.9443 -12.1426 56.2895 -3.3629
# 6 -4.1690 -2.5919 -3.8256 2.3201 -3.3629 48.5365
#
#
#
# Elastic Compliance Matrix: (Units=1/GPa)
#
#
# Indices 1 2 3 4 5 6 
#
# 1 0.010356 -0.003697 -0.005322 -0.001339 0.001317 0.000428
# 2 -0.003697 0.012293 -0.000796 0.000119 0.000253 0.000288
# 3 -0.005322 -0.000796 0.013520 0.005065 -0.002047 0.000182
# 4 -0.001339 0.000119 0.005065 0.031051 0.005510 -0.000812
# 5 0.001317 0.000253 -0.002047 0.005510 0.019522 0.001055
# 6 0.000428 0.000288 0.000182 -0.000812 0.001055 0.020781
#
#
# Mechanical properties :
#
#
# Convention : Reuss Voigt Hill
#
# Bulk Modulus (GPa) = 60.46042 68.61026 64.53534
# Shear Modulus (GPa) = 37.68845 42.80456 40.24651
#
# Velocity S-wave (km/s) = 3.92858 4.18674 4.05971
# Velocity P-wave (km/s) = 6.73330 7.17413 6.95721
#
# Compressibility (1/GPa) = 0.01653975
#
# Stress axis : x y z
#
# Youngs Moduli (GPa) = 96.56216 81.34776 73.96335
#
# Poissons Ratio (x) = 0.30073 0.39362
# Poissons Ratio (y) = 0.35697 0.05888
# Poissons Ratio (z) = 0.51389 0.06476
#
# Static dielectric constant tensor:
#      x y z
#    x 4.427140 -0.206980 -0.069350 
#    y -0.206980 4.418450 -0.222140 
#    z -0.069350 -0.222140 4.513260 
# 
# 
# High freq. dielectric constant tensor:
#      x y z
#    x 1.990290 -0.003370 -0.002350 
#    y -0.003370 1.961200 -0.014250 
#    z -0.002350 -0.014250 1.974350 
# 
# From -- ./inp_files/55370.got.cif
#   From: 2010.06.25/outbox.cif.g09.slc.cpg/sg2_28_cif.got.tgz:55370.got - 2010.06.27 13:26:56.
