data_PCOD8019758
_publ_section_title
;
Structure prediction by ZEFSAII (Michael W. Deem and Ramdas Pophale) SiO2 
 PCOD8019758
Probable space group: P -1
;
_chemical_formula_sum "Si O2"
_cell_formula_units_Z 16
_cell_length_a 12.489899
_cell_length_b 8.810463
_cell_length_c 9.482216
_cell_angle_alpha 82.501525
_cell_angle_beta 121.607021
_cell_angle_gamma 125.058303
_cell_volume 705.325863
_symmetry_space_group_name_H-M "P -1"
_symmetry_group_IT_number 2
_symmetry_cell_setting 'triclinic'
loop_
_space_group_symop_operation_xyz
x,y,z
-x,-y,-z
loop_
_atom_site_type_symbol
_atom_site_label
_atom_site_fract_x
_atom_site_fract_y
_atom_site_fract_z
Si Si1 0.004745 0.360285 0.751888
Si Si2 0.659641 0.729215 0.654880
Si Si3 0.097897 0.225102 0.568330
Si Si4 0.587328 0.945860 0.171062
Si Si5 0.342865 0.942386 0.472507
Si Si6 0.904889 0.238998 0.223238
Si Si7 0.039922 0.194773 0.062872
Si Si8 0.442184 0.396066 0.712093
O O1 0.818695 0.272725 0.631606
O O2 0.041373 0.265523 0.666501
O O3 0.110986 0.590058 0.791524
O O4 0.066929 0.331711 0.940530
O O5 0.802762 0.714420 0.748073
O O6 0.567747 0.626580 0.754128
O O7 0.564988 0.650565 0.453001
O O8 0.713276 0.944662 0.662186
O O9 0.284020 0.335075 0.685715
O O10 0.064121 0.312335 0.405043
O O11 0.000000 0.000000 0.500000
O O12 0.501751 0.715963 0.150180
O O13 0.610369 0.022857 0.335682
O O14 0.760127 0.046161 0.217607
O O15 0.500000 0.000000 0.000000
O O16 0.500000 0.000000 0.500000
O O17 0.910029 0.178575 0.075098
O O18 0.000000 0.000000 0.000000
#
# Coordination Sequence:
#
# PCOD8019758 Si02
#       8
#     2   2   2   2   2   2   2   2
#     4  12  27  43  68 106 137 178 229 283 343 407
#     4  10  22  43  67 100 128 181 230 279 332 403
#     4  12  21  45  72  98 131 179 232 279 335 404
#     4  11  26  43  66 101 141 181 222 280 349 408
#     4  11  25  44  66  97 141 180 227 278 343 411
#     4  12  26  44  70  98 141 181 227 284 344 404
#     4  12  25  45  72  99 136 179 236 286 335 404
#     4  10  22  41  71  96 132 176 230 278 336 402
#
# _framework density 22.684550000000002
#
# number of rings (size 3 to 8) (size 9 to 14) (size 15 to 20)
#    0.000    0.750    5.000    2.250    5.250    1.000 
#    0.000    0.625    0.000    0.000    0.000    0.000 
#    0.000    0.000    0.000    0.000    0.000    0.000 
#
# Total GULP energy -198211.406471 kJ/mol
# GULP energy per Si atom -12388.212904 kJ/mol
# Density = 2.263292 g / cm^3
# Si number density = 22.684550 Si / 1000 Ang^3
#
#
#
# Elastic Constant Matrix: (Units=GPa)
#
#
# Indices 1 2 3 4 5 6 
#
# 1 133.3143 35.2780 29.0620 -6.0609 -17.8948 4.3049
# 2 35.2780 104.6186 34.2728 -29.2322 -13.8477 2.4407
# 3 29.0620 34.2728 109.4850 -36.6241 -0.8563 -9.9827
# 4 -6.0609 -29.2322 -36.6241 37.0286 -4.1640 2.4696
# 5 -17.8948 -13.8477 -0.8563 -4.1640 40.7841 1.0374
# 6 4.3049 2.4407 -9.9827 2.4696 1.0374 34.3645
#
#
#
# Elastic Compliance Matrix: (Units=1/GPa)
#
#
# Indices 1 2 3 4 5 6 
#
# 1 0.009055 -0.002533 -0.002640 -0.002704 0.002823 -0.001612
# 2 -0.002533 0.014355 -0.000090 0.011502 0.004979 -0.001705
# 3 -0.002640 -0.000090 0.014894 0.014037 0.000464 0.003641
# 4 -0.002704 0.011502 0.014037 0.050465 0.008173 -0.000274
# 5 0.002823 0.004979 0.000464 0.008173 0.028344 -0.002015
# 6 -0.001612 -0.001705 0.003641 -0.000274 -0.002015 0.030561
#
#
# Mechanical properties :
#
#
# Convention : Reuss Voigt Hill
#
# Bulk Modulus (GPa) = 36.00011 60.51596 48.25803
# Shear Modulus (GPa) = 29.85812 39.02245 34.44029
#
# Velocity S-wave (km/s) = 3.63193 4.15205 3.90067
# Velocity P-wave (km/s) = 5.78724 7.05132 6.45032
#
# Compressibility (1/GPa) = 0.02777769
#
# Stress axis : x y z
#
# Youngs Moduli (GPa) = 110.43854 69.66325 67.14148
#
# Poissons Ratio (x) = 0.17643 0.17725
# Poissons Ratio (y) = 0.27970 0.00606
# Poissons Ratio (z) = 0.29156 0.00629
#
# Static dielectric constant tensor:
#      x y z
#    x 3.776660 0.428440 0.302990 
#    y 0.428440 4.244240 -0.472140 
#    z 0.302990 -0.472140 4.160140 
# 
# 
# High freq. dielectric constant tensor:
#      x y z
#    x 1.893950 0.009150 0.001340 
#    y 0.009150 1.900900 -0.026170 
#    z 0.001340 -0.026170 1.892590 
# 
# From -- ./inp_files/243657.got.cif
#   From: 2010.06.25/outbox.cif.g09.slc.cpg/sg2_122_cif.got.tgz:243657.got - 2010.06.27 13:26:56.
