data_PCOD8019348
_publ_section_title
;
Structure prediction by ZEFSAII (Michael W. Deem and Ramdas Pophale) SiO2 
 PCOD8019348
Probable space group: P -1
;
_chemical_formula_sum "Si O2"
_cell_formula_units_Z 14
_cell_length_a 9.204548
_cell_length_b 9.163685
_cell_length_c 11.970769
_cell_angle_alpha 71.061848
_cell_angle_beta 71.384457
_cell_angle_gamma 39.721608
_cell_volume 606.273982
_symmetry_space_group_name_H-M "P -1"
_symmetry_group_IT_number 2
_symmetry_cell_setting 'triclinic'
loop_
_space_group_symop_operation_xyz
x,y,z
-x,-y,-z
loop_
_atom_site_type_symbol
_atom_site_label
_atom_site_fract_x
_atom_site_fract_y
_atom_site_fract_z
Si Si1 0.219533 0.106428 0.113085
Si Si2 0.244190 0.041094 0.746559
Si Si3 0.206256 0.381524 0.564178
Si Si4 0.992104 0.211377 0.366313
Si Si5 0.680126 0.166521 0.441779
Si Si6 0.563562 0.737781 0.952046
Si Si7 0.927195 0.234990 0.954238
O O1 0.113265 0.093850 0.246882
O O2 0.262379 0.249736 0.105420
O O3 0.442035 0.846733 0.076661
O O4 0.046488 0.243708 0.019485
O O5 0.323319 0.138925 0.642151
O O6 0.990133 0.247417 0.810735
O O7 0.246489 0.907732 0.686422
O O8 0.390300 0.883256 0.856451
O O9 0.407407 0.338063 0.473155
O O10 0.000000 0.500000 0.500000
O O11 0.101298 0.546031 0.656564
O O12 0.766078 0.273998 0.423556
O O13 0.179505 0.051049 0.457502
O O14 0.666942 0.487100 0.975970
O O15 0.000000 0.000000 0.000000
#
# Coordination Sequence:
#
# PCOD8019348 Si02
#       7
#     2   2   2   2   2   2   2
#     4  10  22  41  67 100 134 186 231 283 347 417
#     4  11  24  41  68 100 134 182 234 282 350 418
#     4  12  25  42  70 103 136 186 237 292 345 417
#     4  11  24  44  68  98 145 182 236 289 350 422
#     4  11  25  43  65 101 139 185 232 289 357 413
#     4  10  23  42  69 100 138 180 234 290 344 422
#     4  11  24  43  67 101 138 179 228 288 356 416
#
# _framework density 23.091871000000001
#
# number of rings (size 3 to 8) (size 9 to 14) (size 15 to 20)
#    0.000    1.143    1.429    3.857    4.000    5.714 
#    0.000    5.714    0.000    0.000    0.000    0.000 
#    0.000    0.000    0.000    0.000    0.000    0.000 
#
# Total GULP energy -173452.519103 kJ/mol
# GULP energy per Si atom -12389.465650 kJ/mol
# Density = 2.303931 g / cm^3
# Si number density = 23.091871 Si / 1000 Ang^3
#
#
#
# Elastic Constant Matrix: (Units=GPa)
#
#
# Indices 1 2 3 4 5 6 
#
# 1 114.4912 39.9459 33.0229 7.3681 -1.7267 -14.4624
# 2 39.9459 135.2090 34.5471 11.6605 -0.7932 13.3436
# 3 33.0229 34.5471 122.2598 25.5155 6.6812 -5.1681
# 4 7.3681 11.6605 25.5155 32.1761 1.9051 -2.4663
# 5 -1.7267 -0.7932 6.6812 1.9051 36.5643 4.0251
# 6 -14.4624 13.3436 -5.1681 -2.4663 4.0251 35.1849
#
#
#
# Elastic Compliance Matrix: (Units=1/GPa)
#
#
# Indices 1 2 3 4 5 6 
#
# 1 0.011157 -0.003406 -0.001959 0.000654 0.000158 0.005618
# 2 -0.003406 0.009541 -0.001686 -0.001826 0.001056 -0.005515
# 3 -0.001959 -0.001686 0.010871 -0.007365 -0.001856 0.001127
# 4 0.000654 -0.001826 -0.007365 0.037687 -0.000916 0.002626
# 5 0.000158 0.001056 -0.001856 -0.000916 0.028195 -0.003898
# 6 0.005618 -0.005515 0.001127 0.002626 -0.003898 0.033617
#
#
# Mechanical properties :
#
#
# Convention : Reuss Voigt Hill
#
# Bulk Modulus (GPa) = 57.24698 65.22132 61.23415
# Shear Modulus (GPa) = 33.11432 38.41467 35.76449
#
# Velocity S-wave (km/s) = 3.79096 4.08310 3.93974
# Velocity P-wave (km/s) = 6.63375 7.10876 6.87536
#
# Compressibility (1/GPa) = 0.01746817
#
# Stress axis : x y z
#
# Youngs Moduli (GPa) = 89.62583 104.81348 91.98903
#
# Poissons Ratio (x) = 0.35696 0.18021
# Poissons Ratio (y) = 0.30524 0.15507
# Poissons Ratio (z) = 0.17558 0.17669
#
# Static dielectric constant tensor:
#      x y z
#    x 4.330100 -0.115250 -0.068710 
#    y -0.115250 4.200930 0.367190 
#    z -0.068710 0.367190 4.245240 
# 
# 
# High freq. dielectric constant tensor:
#      x y z
#    x 1.923460 0.002680 0.007270 
#    y 0.002680 1.906380 0.019090 
#    z 0.007270 0.019090 1.912290 
# 
# From -- ./inp_files/369593.got.cif
#   From: 2010.06.25/outbox.cif.g09.slc.cpg/sg2_185_cif.got.tgz:369593.got - 2010.06.27 13:26:56.
