data_PCOD8019965
_publ_section_title
;
Structure prediction by ZEFSAII (Michael W. Deem and Ramdas Pophale) SiO2 
 PCOD8019965
Probable space group: P -1
;
_chemical_formula_sum "Si O2"
_cell_formula_units_Z 16
_cell_length_a 12.255372
_cell_length_b 15.397347
_cell_length_c 8.917387
_cell_angle_alpha 52.359020
_cell_angle_beta 75.281645
_cell_angle_gamma 120.338068
_cell_volume 653.032263
_symmetry_space_group_name_H-M "P -1"
_symmetry_group_IT_number 2
_symmetry_cell_setting 'triclinic'
loop_
_space_group_symop_operation_xyz
x,y,z
-x,-y,-z
loop_
_atom_site_type_symbol
_atom_site_label
_atom_site_fract_x
_atom_site_fract_y
_atom_site_fract_z
Si Si1 0.245688 0.566624 0.728095
Si Si2 0.142449 0.429795 0.241888
Si Si3 0.603592 0.555269 0.750233
Si Si4 0.269640 0.117277 0.802465
Si Si5 0.704025 0.726921 0.101367
Si Si6 0.531533 0.910611 0.662700
Si Si7 0.688029 0.135691 0.671415
Si Si8 0.949496 0.164343 0.090851
O O1 0.501098 0.755669 0.409156
O O2 0.217311 0.673282 0.636196
O O3 0.163221 0.439725 0.043135
O O4 0.095290 0.396192 0.822110
O O5 0.200244 0.366021 0.372046
O O6 0.888279 0.241631 0.574118
O O7 0.295127 0.654433 0.013769
O O8 0.712111 0.751943 0.428497
O O9 0.403933 0.331499 0.958881
O O10 0.500000 0.500000 0.000000
O O11 0.208197 0.094290 0.021740
O O12 0.085828 0.890392 0.016916
O O13 0.500000 0.500000 0.500000
O O14 0.910444 0.818098 0.903724
O O15 0.500000 0.000000 0.500000
O O16 0.599345 0.982776 0.734150
O O17 0.707692 0.978396 0.446261
O O18 0.500000 0.000000 0.000000
#
# Coordination Sequence:
#
# PCOD8019965 Si02
#       8
#     2   2   2   2   2   2   2   2
#     4  12  22  46  78 105 146 193 250 298 360 445
#     4  12  24  48  76 106 147 195 242 307 357 441
#     4  11  21  43  68 104 150 187 243 295 353 429
#     4  11  23  44  69 110 149 190 240 297 369 429
#     4  10  22  42  64 103 153 190 233 295 361 424
#     4  12  24  46  76 106 137 195 255 295 363 442
#     4  12  29  50  73 111 146 185 248 317 374 426
#     4  12  21  41  77 106 138 202 247 283 361 447
#
# _framework density 24.501086000000001
#
# number of rings (size 3 to 8) (size 9 to 14) (size 15 to 20)
#    0.000    0.500    7.500    1.500    0.000    1.500 
#   13.500    1.875    0.000    0.000    0.000    0.000 
#    0.000    0.000    0.000    0.000    0.000    0.000 
#
# Total GULP energy -198426.893898 kJ/mol
# GULP energy per Si atom -12401.680869 kJ/mol
# Density = 2.444532 g / cm^3
# Si number density = 24.501086 Si / 1000 Ang^3
#
#
#
# Elastic Constant Matrix: (Units=GPa)
#
#
# Indices 1 2 3 4 5 6 
#
# 1 121.2107 48.9515 31.5335 5.5424 -40.3388 11.9972
# 2 48.9515 229.5499 42.0364 -16.0487 -11.0785 5.3850
# 3 31.5335 42.0364 65.6967 -2.3845 -34.8459 8.0969
# 4 5.5424 -16.0487 -2.3845 44.2019 -1.3199 -4.2158
# 5 -40.3388 -11.0785 -34.8459 -1.3199 45.7891 -2.7570
# 6 11.9972 5.3850 8.0969 -4.2158 -2.7570 35.6764
#
#
#
# Elastic Compliance Matrix: (Units=1/GPa)
#
#
# Indices 1 2 3 4 5 6 
#
# 1 0.013512 -0.002809 0.002511 -0.002578 0.012819 -0.004004
# 2 -0.002809 0.005743 -0.004845 0.002139 -0.004646 0.001071
# 3 0.002511 -0.004845 0.030403 -0.000217 0.023858 -0.005195
# 4 -0.002578 0.002139 -0.000217 0.024001 -0.001025 0.003350
# 5 0.012819 -0.004646 0.023858 -0.001025 0.049816 -0.005296
# 6 -0.004004 0.001071 -0.005195 0.003350 -0.005296 0.030380
#
#
# Mechanical properties :
#
#
# Convention : Reuss Voigt Hill
#
# Bulk Modulus (GPa) = 25.39861 73.49999 49.44930
# Shear Modulus (GPa) = 28.20660 44.72919 36.46789
#
# Velocity S-wave (km/s) = 3.39667 4.27734 3.86219
# Velocity P-wave (km/s) = 5.07661 7.37956 6.33364
#
# Compressibility (1/GPa) = 0.03937224
#
# Stress axis : x y z
#
# Youngs Moduli (GPa) = 74.01089 174.13167 32.89152
#
# Poissons Ratio (x) = 0.48910 -0.08260
# Poissons Ratio (y) = 0.20788 0.15936
# Poissons Ratio (z) = -0.18586 0.84366
#
# Static dielectric constant tensor:
#      x y z
#    x 4.744150 -0.094440 -0.274750 
#    y -0.094440 5.139900 -0.200980 
#    z -0.274750 -0.200980 4.086880 
# 
# 
# High freq. dielectric constant tensor:
#      x y z
#    x 1.978840 -0.000530 -0.026640 
#    y -0.000530 1.999610 -0.009500 
#    z -0.026640 -0.009500 1.954610 
# 
# From -- ./inp_files/272141.got.cif
#   From: 2010.06.25/outbox.cif.g09.slc.cpg/sg2_137_cif.got.tgz:272141.got - 2010.06.27 13:26:56.
