data_PCOD8019811
_publ_section_title
;
Structure prediction by ZEFSAII (Michael W. Deem and Ramdas Pophale) SiO2 
 PCOD8019811
Probable space group: P -1
;
_chemical_formula_sum "Si O2"
_cell_formula_units_Z 16
_cell_length_a 9.170256
_cell_length_b 14.978463
_cell_length_c 9.459182
_cell_angle_alpha 75.978017
_cell_angle_beta 52.094198
_cell_angle_gamma 111.616101
_cell_volume 733.220673
_symmetry_space_group_name_H-M "P -1"
_symmetry_group_IT_number 2
_symmetry_cell_setting 'triclinic'
loop_
_space_group_symop_operation_xyz
x,y,z
-x,-y,-z
loop_
_atom_site_type_symbol
_atom_site_label
_atom_site_fract_x
_atom_site_fract_y
_atom_site_fract_z
Si Si1 0.775440 0.882522 0.090066
Si Si2 0.538291 0.545026 0.618443
Si Si3 0.112836 0.858689 0.775537
Si Si4 0.934781 0.622385 0.837527
Si Si5 0.513990 0.891246 0.689301
Si Si6 0.417144 0.707595 0.604092
Si Si7 0.512659 0.113587 0.967212
Si Si8 0.978717 0.602627 0.501169
O O1 0.531029 0.797130 0.365953
O O2 0.715299 0.925395 0.975253
O O3 0.851773 0.806044 0.018800
O O4 0.000000 0.000000 0.000000
O O5 0.500000 0.500000 0.500000
O O6 0.564300 0.662974 0.554832
O O7 0.788568 0.580709 0.509703
O O8 0.307848 0.445924 0.896029
O O9 0.290120 0.887314 0.789049
O O10 0.085078 0.768385 0.712201
O O11 0.228354 0.983570 0.575290
O O12 0.862752 0.579747 0.734799
O O13 0.117547 0.601015 0.791093
O O14 0.457121 0.773948 0.700387
O O15 0.541073 0.881440 0.841196
O O16 0.764708 0.253102 0.718579
O O17 0.500000 0.000000 0.000000
O O18 0.000000 0.500000 0.500000
#
# Coordination Sequence:
#
# PCOD8019811 Si02
#       8
#     2   2   2   2   2   2   2   2
#     4  12  24  44  71 103 147 185 235 296 363 430
#     4  12  28  45  75 105 139 186 249 289 353 438
#     4  10  22  41  73  99 143 183 235 287 364 419
#     4  11  24  47  71  99 144 188 233 295 358 424
#     4  10  23  42  69 105 139 184 232 293 356 426
#     4  11  24  44  71 105 139 185 234 293 360 422
#     4  12  28  45  74 105 143 185 243 294 352 426
#     4  12  29  49  73 104 149 191 238 297 363 419
#
# _framework density 21.821535000000001
#
# number of rings (size 3 to 8) (size 9 to 14) (size 15 to 20)
#    0.000    0.750    2.500    3.750   12.250    1.500 
#    0.000    0.000    0.000    0.000    0.000    0.000 
#    0.000    0.000    0.000    0.000    0.000    0.000 
#
# Total GULP energy -198398.136553 kJ/mol
# GULP energy per Si atom -12399.883535 kJ/mol
# Density = 2.177187 g / cm^3
# Si number density = 21.821535 Si / 1000 Ang^3
#
#
#
# Elastic Constant Matrix: (Units=GPa)
#
#
# Indices 1 2 3 4 5 6 
#
# 1 167.2546 66.5969 46.3187 16.4951 5.4547 7.2895
# 2 66.5969 117.0754 38.2723 15.1160 9.1504 1.3679
# 3 46.3187 38.2723 91.9999 14.0889 8.1049 12.1736
# 4 16.4951 15.1160 14.0889 43.3550 5.2207 5.4109
# 5 5.4547 9.1504 8.1049 5.2207 40.1563 10.1425
# 6 7.2895 1.3679 12.1736 5.4109 10.1425 40.8021
#
#
#
# Elastic Compliance Matrix: (Units=1/GPa)
#
#
# Indices 1 2 3 4 5 6 
#
# 1 0.008274 -0.003831 -0.002377 -0.001024 0.000522 -0.000635
# 2 -0.003831 0.012017 -0.002874 -0.001804 -0.001869 0.001843
# 3 -0.002377 -0.002874 0.014087 -0.002179 -0.000774 -0.003201
# 4 -0.001024 -0.001804 -0.002179 0.025258 -0.001786 -0.002012
# 5 0.000522 -0.001869 -0.000774 -0.001786 0.027246 -0.006336
# 6 -0.000635 0.001843 -0.003201 -0.002012 -0.006336 0.027357
#
#
# Mechanical properties :
#
#
# Convention : Reuss Voigt Hill
#
# Bulk Modulus (GPa) = 61.67009 75.41174 68.54092
# Shear Modulus (GPa) = 36.28223 39.87215 38.07719
#
# Velocity S-wave (km/s) = 4.08202 4.27920 4.18178
# Velocity P-wave (km/s) = 7.10913 7.68433 7.40232
#
# Compressibility (1/GPa) = 0.01621532
#
# Stress axis : x y z
#
# Youngs Moduli (GPa) = 120.85787 83.21288 70.98572
#
# Poissons Ratio (x) = 0.31877 0.16877
# Poissons Ratio (y) = 0.46297 0.20399
# Poissons Ratio (z) = 0.28733 0.23912
#
# Static dielectric constant tensor:
#      x y z
#    x 4.279090 0.012830 -0.131960 
#    y 0.012830 4.125600 0.052290 
#    z -0.131960 0.052290 4.155520 
# 
# 
# High freq. dielectric constant tensor:
#      x y z
#    x 1.860910 -0.000890 0.000060 
#    y -0.000890 1.869030 0.011440 
#    z 0.000060 0.011440 1.865110 
# 
# From -- ./inp_files/206724.got.cif
#   From: 2010.06.25/outbox.cif.g09.slc.cpg/sg2_104_cif.got.tgz:206724.got - 2010.06.27 13:26:56.
