data_PCOD8019491
_publ_section_title
;
Structure prediction by ZEFSAII (Michael W. Deem and Ramdas Pophale) SiO2 
 PCOD8019491
Probable space group: P -1
;
_chemical_formula_sum "Si O2"
_cell_formula_units_Z 12
_cell_length_a 10.207775
_cell_length_b 5.353045
_cell_length_c 15.306249
_cell_angle_alpha 85.115943
_cell_angle_beta 37.363608
_cell_angle_gamma 79.075992
_cell_volume 495.355750
_symmetry_space_group_name_H-M "P -1"
_symmetry_group_IT_number 2
_symmetry_cell_setting 'triclinic'
loop_
_space_group_symop_operation_xyz
x,y,z
-x,-y,-z
loop_
_atom_site_type_symbol
_atom_site_label
_atom_site_fract_x
_atom_site_fract_y
_atom_site_fract_z
Si Si1 0.062991 0.915053 0.699561
Si Si2 0.585177 0.140553 0.626103
Si Si3 0.079149 0.157173 0.875114
Si Si4 0.742119 0.580381 0.636702
Si Si5 0.792734 0.566516 0.924502
Si Si6 0.333664 0.708936 0.155983
O O1 0.301695 0.880991 0.529323
O O2 0.986866 0.647148 0.762514
O O3 0.066943 0.033115 0.790135
O O4 0.881403 0.067312 0.722432
O O5 0.323479 0.199366 0.756645
O O6 0.643999 0.387509 0.632661
O O7 0.661972 0.876529 0.645439
O O8 0.906001 0.431748 0.956643
O O9 0.000000 0.000000 0.000000
O O10 0.669772 0.537935 0.774608
O O11 0.000000 0.500000 0.500000
O O12 0.683821 0.364041 0.933969
O O13 0.571950 0.791287 0.050599
#
# Coordination Sequence:
#
# PCOD8019491 Si02
#       6
#     2   2   2   2   2   2
#     4  11  24  43  71  99 140 182 239 293 354 418
#     4  12  28  45  75 107 145 188 234 293 356 422
#     4  11  27  47  68 100 140 190 242 289 355 424
#     4  12  25  45  74 106 146 182 236 293 352 423
#     4  10  23  42  70  97 142 185 234 295 352 423
#     4  10  22  41  68 105 137 184 238 288 357 410
#
# _framework density 24.225014000000002
#
# number of rings (size 3 to 8) (size 9 to 14) (size 15 to 20)
#    0.000    1.000    1.667    3.500    9.333    1.333 
#    0.000    0.000    0.000    0.000    0.000    0.000 
#    0.000    0.000    0.000    0.000    0.000    0.000 
#
# Total GULP energy -148661.458193 kJ/mol
# GULP energy per Si atom -12388.454849 kJ/mol
# Density = 2.416988 g / cm^3
# Si number density = 24.225014 Si / 1000 Ang^3
#
#
#
# Elastic Constant Matrix: (Units=GPa)
#
#
# Indices 1 2 3 4 5 6 
#
# 1 123.3920 22.4779 65.3117 -2.4267 -30.1859 -25.0673
# 2 22.4779 50.3732 9.7858 -13.6846 -16.5621 -18.9973
# 3 65.3117 9.7858 159.7902 -18.3349 -26.6350 -14.2375
# 4 -2.4267 -13.6846 -18.3349 38.4032 -8.6411 2.9137
# 5 -30.1859 -16.5621 -26.6350 -8.6411 55.2936 -0.2967
# 6 -25.0673 -18.9973 -14.2375 2.9137 -0.2967 37.4223
#
#
#
# Elastic Compliance Matrix: (Units=1/GPa)
#
#
# Indices 1 2 3 4 5 6 
#
# 1 0.012871 -0.001206 -0.003928 -0.000946 0.004661 0.006625
# 2 -0.001206 0.035606 0.004256 0.016618 0.014748 0.017709
# 3 -0.003928 0.004256 0.009376 0.006602 0.004693 0.002619
# 4 -0.000946 0.016618 0.006602 0.037533 0.013547 0.007499
# 5 0.004661 0.014748 0.004693 0.013547 0.029487 0.011573
# 6 0.006625 0.017709 0.002619 0.007499 0.011573 0.040654
#
#
# Mechanical properties :
#
#
# Convention : Reuss Voigt Hill
#
# Bulk Modulus (GPa) = 17.82693 58.74516 38.28604
# Shear Modulus (GPa) = 26.88432 41.95582 34.42007
#
# Velocity S-wave (km/s) = 3.33494 4.16615 3.77350
# Velocity P-wave (km/s) = 4.71211 6.88802 5.90122
#
# Compressibility (1/GPa) = 0.05609490
#
# Stress axis : x y z
#
# Youngs Moduli (GPa) = 77.69643 28.08542 106.65221
#
# Poissons Ratio (x) = 0.03388 0.41895
# Poissons Ratio (y) = 0.09372 -0.45387
# Poissons Ratio (z) = 0.30520 -0.11952
#
# Static dielectric constant tensor:
#      x y z
#    x 4.524150 -0.398910 -0.298380 
#    y -0.398910 4.652810 -0.121780 
#    z -0.298380 -0.121780 4.860860 
# 
# 
# High freq. dielectric constant tensor:
#      x y z
#    x 1.970740 -0.016390 -0.013630 
#    y -0.016390 1.951680 -0.007750 
#    z -0.013630 -0.007750 1.980940 
# 
# From -- ./inp_files/22141.got.cif
#   From: 2010.06.25/outbox.cif.g09.slc.cpg/sg2_12_cif.got.tgz:22141.got - 2010.06.27 13:26:56.
