data_PCOD8019189
_publ_section_title
;
Structure prediction by ZEFSAII (Michael W. Deem and Ramdas Pophale) SiO2 
 PCOD8019189
Probable space group: P -1
;
_chemical_formula_sum "Si O2"
_cell_formula_units_Z 14
_cell_length_a 7.878162
_cell_length_b 11.154811
_cell_length_c 8.742239
_cell_angle_alpha 107.814822
_cell_angle_beta 120.477390
_cell_angle_gamma 66.567803
_cell_volume 602.205645
_symmetry_space_group_name_H-M "P -1"
_symmetry_group_IT_number 2
_symmetry_cell_setting 'triclinic'
loop_
_space_group_symop_operation_xyz
x,y,z
-x,-y,-z
loop_
_atom_site_type_symbol
_atom_site_label
_atom_site_fract_x
_atom_site_fract_y
_atom_site_fract_z
Si Si1 0.961780 0.328082 0.741568
Si Si2 0.917229 0.819294 0.956966
Si Si3 0.296827 0.772908 0.644623
Si Si4 0.351168 0.279963 0.413558
Si Si5 0.640986 0.687408 0.234678
Si Si6 0.717752 0.114029 0.004010
Si Si7 0.523620 0.483222 0.703848
O O1 0.136630 0.385518 0.769104
O O2 0.895032 0.245122 0.544023
O O3 0.770174 0.440591 0.770034
O O4 0.074000 0.227884 0.884657
O O5 0.851776 0.717659 0.773736
O O6 0.139470 0.827899 0.015383
O O7 0.747428 0.961782 0.920345
O O8 0.447573 0.819657 0.614662
O O9 0.222733 0.877941 0.787138
O O10 0.431912 0.638706 0.738015
O O11 0.326947 0.240968 0.562784
O O12 0.402931 0.423771 0.491560
O O13 0.523254 0.579370 0.180356
O O14 0.514863 0.800530 0.105974
#
# Coordination Sequence:
#
# PCOD8019189 Si02
#       7
#     2   2   2   2   2   2   2
#     4  11  21  41  66  95 126 170 204 263 311 379
#     4  11  23  43  65  91 131 161 222 257 315 371
#     4  11  22  42  66  91 135 161 210 258 321 365
#     4   9  20  40  62  93 122 165 204 261 303 377
#     4  10  22  41  65  95 128 165 213 248 328 362
#     4  11  24  42  64  94 126 172 206 270 308 376
#     4   9  22  44  63  95 132 160 210 263 304 386
#
# _framework density 23.247875000000001
#
# number of rings (size 3 to 8) (size 9 to 14) (size 15 to 20)
#    0.857    0.857    1.429    3.429    0.000    4.571 
#    2.571    5.000    0.000    0.000    0.000    0.000 
#    0.000    0.000    0.000    0.000    0.000    0.000 
#
# Total GULP energy -173525.185451 kJ/mol
# GULP energy per Si atom -12394.656104 kJ/mol
# Density = 2.319496 g / cm^3
# Si number density = 23.247875 Si / 1000 Ang^3
#
#
#
# Elastic Constant Matrix: (Units=GPa)
#
#
# Indices 1 2 3 4 5 6 
#
# 1 133.5969 31.4267 22.7045 -4.1475 -10.7336 -12.7157
# 2 31.4267 54.3890 29.7275 0.6740 9.6651 -1.5921
# 3 22.7045 29.7275 108.5798 -2.2634 -4.9090 -6.3218
# 4 -4.1475 0.6740 -2.2634 29.2605 -4.4159 -0.0404
# 5 -10.7336 9.6651 -4.9090 -4.4159 37.8436 -2.9709
# 6 -12.7157 -1.5921 -6.3218 -0.0404 -2.9709 10.6040
#
#
#
# Elastic Compliance Matrix: (Units=1/GPa)
#
#
# Indices 1 2 3 4 5 6 
#
# 1 0.011202 -0.007854 0.001038 0.002898 0.006818 0.014794
# 2 -0.007854 0.028949 -0.007681 -0.004224 -0.012136 -0.013068
# 3 0.001038 -0.007681 0.011842 0.001959 0.004686 0.008471
# 4 0.002898 -0.004224 0.001959 0.035872 0.006816 0.006055
# 5 0.006818 -0.012136 0.004686 0.006816 0.034336 0.018792
# 6 0.014794 -0.013068 0.008471 0.006055 0.018792 0.120420
#
#
# Mechanical properties :
#
#
# Convention : Reuss Voigt Hill
#
# Bulk Modulus (GPa) = 43.48205 51.58701 47.53453
# Shear Modulus (GPa) = 17.90299 29.72209 23.81254
#
# Velocity S-wave (km/s) = 2.77806 3.57947 3.20392
# Velocity P-wave (km/s) = 5.38836 6.27070 5.84620
#
# Compressibility (1/GPa) = 0.02299800
#
# Stress axis : x y z
#
# Youngs Moduli (GPa) = 89.26805 34.54328 84.44784
#
# Poissons Ratio (x) = 0.27132 -0.08765
# Poissons Ratio (y) = 0.70115 0.64865
# Poissons Ratio (z) = -0.09266 0.26533
#
# Static dielectric constant tensor:
#      x y z
#    x 4.245720 0.040060 -0.121600 
#    y 0.040060 3.652220 0.035050 
#    z -0.121600 0.035050 4.084840 
# 
# 
# High freq. dielectric constant tensor:
#      x y z
#    x 1.933230 -0.000430 -0.012700 
#    y -0.000430 1.875960 -0.000010 
#    z -0.012700 -0.000010 1.925000 
# 
# From -- ./inp_files/180662.got.cif
#   From: 2010.06.25/outbox.cif.g09.slc.cpg/sg2_91_cif.got.tgz:180662.got - 2010.06.27 13:26:56.
