data_PCOD8019363
_publ_section_title
;
Structure prediction by ZEFSAII (Michael W. Deem and Ramdas Pophale) SiO2 
 PCOD8019363
Probable space group: P -1
;
_chemical_formula_sum "Si O2"
_cell_formula_units_Z 14
_cell_length_a 9.289421
_cell_length_b 12.015600
_cell_length_c 8.956141
_cell_angle_alpha 66.965143
_cell_angle_beta 107.908405
_cell_angle_gamma 131.629329
_cell_volume 685.985984
_symmetry_space_group_name_H-M "P -1"
_symmetry_group_IT_number 2
_symmetry_cell_setting 'triclinic'
loop_
_space_group_symop_operation_xyz
x,y,z
-x,-y,-z
loop_
_atom_site_type_symbol
_atom_site_label
_atom_site_fract_x
_atom_site_fract_y
_atom_site_fract_z
Si Si1 0.520307 0.920554 0.908756
Si Si2 0.224523 0.445205 0.708352
Si Si3 0.088618 0.146546 0.549978
Si Si4 0.175719 0.829568 0.354369
Si Si5 0.791659 0.541710 0.648118
Si Si6 0.212786 0.682576 0.717179
Si Si7 0.402670 0.285138 0.810815
O O1 0.312547 0.791662 0.835795
O O2 0.652754 0.049996 0.761593
O O3 0.616414 0.840430 0.023760
O O4 0.500000 0.000000 0.000000
O O5 0.276067 0.502555 0.522572
O O6 0.294632 0.587139 0.765409
O O7 0.327491 0.369727 0.824952
O O8 0.992156 0.320733 0.714256
O O9 0.154706 0.291370 0.390954
O O10 0.275442 0.191805 0.673825
O O11 0.922135 0.102570 0.635882
O O12 0.000000 0.000000 0.500000
O O13 0.261456 0.784360 0.532007
O O14 0.625492 0.412206 0.770649
O O15 0.982979 0.559439 0.734712
#
# Coordination Sequence:
#
# PCOD8019363 Si02
#       7
#     2   2   2   2   2   2   2
#     4  12  28  39  57  93 135 170 200 257 317 368
#     4   9  19  39  68  89 113 158 214 263 308 358
#     4   9  19  37  69  96 120 163 210 256 312 368
#     4   9  21  42  63  91 122 164 211 256 306 371
#     4   9  19  38  63  95 120 157 208 262 302 369
#     4  10  22  41  67  89 115 166 218 250 310 370
#     4  10  23  39  59  92 133 157 204 255 321 364
#
# _framework density 20.408581000000002
#
# number of rings (size 3 to 8) (size 9 to 14) (size 15 to 20)
#    0.000    2.857    0.000    3.857    8.000    5.714 
#    0.000    0.000    0.000    0.000    0.000    0.000 
#    0.000    0.000    0.000    0.000    0.000    0.000 
#
# Total GULP energy -173549.696951 kJ/mol
# GULP energy per Si atom -12396.406925 kJ/mol
# Density = 2.036213 g / cm^3
# Si number density = 20.408581 Si / 1000 Ang^3
#
#
#
# Elastic Constant Matrix: (Units=GPa)
#
#
# Indices 1 2 3 4 5 6 
#
# 1 92.2339 61.6300 50.5086 5.8787 11.1008 -10.0749
# 2 61.6300 121.1528 47.4711 16.5542 -11.3912 -21.6065
# 3 50.5086 47.4711 65.4008 1.3461 14.3000 -10.2384
# 4 5.8787 16.5542 1.3461 19.5258 -6.5681 -3.5520
# 5 11.1008 -11.3912 14.3000 -6.5681 26.4216 -1.8163
# 6 -10.0749 -21.6065 -10.2384 -3.5520 -1.8163 29.6832
#
#
#
# Elastic Compliance Matrix: (Units=1/GPa)
#
#
# Indices 1 2 3 4 5 6 
#
# 1 0.023107 -0.009007 -0.009730 -0.002230 -0.009079 -0.002892
# 2 -0.009007 0.021297 -0.010826 -0.007016 0.017697 0.008954
# 3 -0.009730 -0.010826 0.034631 0.003527 -0.018442 0.000056
# 4 -0.002230 -0.007016 0.003527 0.062164 0.011697 0.003507
# 5 -0.009079 0.017697 -0.018442 0.011697 0.062777 0.008680
# 6 -0.002892 0.008954 0.000056 0.003507 0.008680 0.040196
#
#
# Mechanical properties :
#
#
# Convention : Reuss Voigt Hill
#
# Bulk Modulus (GPa) = 50.22410 66.44521 58.33466
# Shear Modulus (GPa) = 16.13244 23.07130 19.60187
#
# Velocity S-wave (km/s) = 2.81459 3.36590 3.10251
# Velocity P-wave (km/s) = 5.93509 6.90897 6.44046
#
# Compressibility (1/GPa) = 0.01991076
#
# Stress axis : x y z
#
# Youngs Moduli (GPa) = 43.27606 46.95467 28.87580
#
# Poissons Ratio (x) = 0.42291 0.28096
# Poissons Ratio (y) = 0.38978 0.31260
# Poissons Ratio (z) = 0.42107 0.50832
#
# Static dielectric constant tensor:
#      x y z
#    x 3.685050 -0.088340 0.166940 
#    y -0.088340 3.721720 -0.017030 
#    z 0.166940 -0.017030 3.481080 
# 
# 
# High freq. dielectric constant tensor:
#      x y z
#    x 1.796400 -0.002820 0.014040 
#    y -0.002820 1.802210 -0.003020 
#    z 0.014040 -0.003020 1.772360 
# 
# From -- ./inp_files/176758.got.cif
#   From: 2010.06.25/outbox.cif.g09.slc.cpg/sg2_89_cif.got.tgz:176758.got - 2010.06.27 13:26:56.
