data_PCOD8019894
_publ_section_title
;
Structure prediction by ZEFSAII (Michael W. Deem and Ramdas Pophale) SiO2 
 PCOD8019894
Probable space group: P -1
;
_chemical_formula_sum "Si O2"
_cell_formula_units_Z 16
_cell_length_a 24.517397
_cell_length_b 7.790801
_cell_length_c 6.748671
_cell_angle_alpha 93.012113
_cell_angle_beta 119.031929
_cell_angle_gamma 47.390589
_cell_volume 749.354778
_symmetry_space_group_name_H-M "P -1"
_symmetry_group_IT_number 2
_symmetry_cell_setting 'triclinic'
loop_
_space_group_symop_operation_xyz
x,y,z
-x,-y,-z
loop_
_atom_site_type_symbol
_atom_site_label
_atom_site_fract_x
_atom_site_fract_y
_atom_site_fract_z
Si Si1 0.421509 0.953824 0.962413
Si Si2 0.069202 0.064346 0.955023
Si Si3 0.711124 0.931284 0.569713
Si Si4 0.399878 0.709940 0.236751
Si Si5 0.614820 0.583824 0.083445
Si Si6 0.092921 0.632889 0.050011
Si Si7 0.040485 0.236474 0.492934
Si Si8 0.207998 0.923694 0.471685
O O1 0.365834 0.035038 0.663262
O O2 0.400877 0.190984 0.014987
O O3 0.393153 0.879304 0.078414
O O4 0.531265 0.704570 0.093036
O O5 0.067964 0.063170 0.717634
O O6 0.094315 0.833826 0.089008
O O7 0.152052 0.018643 0.171871
O O8 0.966361 0.332685 0.872427
O O9 0.800754 0.642340 0.781462
O O10 0.674187 0.106030 0.708282
O O11 0.739189 0.003716 0.447660
O O12 0.500000 0.500000 0.500000
O O13 0.378569 0.568958 0.091441
O O14 0.712272 0.383032 0.365311
O O15 0.041202 0.695282 0.758869
O O16 0.000000 0.500000 0.500000
O O17 0.134674 0.071785 0.528735
#
# Coordination Sequence:
#
# PCOD8019894 Si02
#       8
#     2   2   2   2   2   2   2   2
#     4  11  25  47  67  98 134 173 219 272 326 390
#     4  10  22  42  62  91 130 166 215 270 323 381
#     4  12  24  42  68  96 132 172 220 270 326 393
#     4  12  25  44  68  99 132 175 219 269 331 391
#     4  11  24  46  69  96 136 172 217 275 326 388
#     4  10  23  40  63  92 127 169 212 271 323 382
#     4  11  23  39  62  93 124 167 216 261 322 386
#     4  11  24  40  65  93 128 170 214 267 322 385
#
# _framework density 21.351704000000002
#
# number of rings (size 3 to 8) (size 9 to 14) (size 15 to 20)
#    0.000    1.000    2.500    3.750    3.500    4.500 
#    2.250    0.000    0.000    0.000    0.000    0.000 
#    0.000    0.000    0.000    0.000    0.000    0.000 
#
# Total GULP energy -198425.980226 kJ/mol
# GULP energy per Si atom -12401.623764 kJ/mol
# Density = 2.130311 g / cm^3
# Si number density = 21.351704 Si / 1000 Ang^3
#
#
#
# Elastic Constant Matrix: (Units=GPa)
#
#
# Indices 1 2 3 4 5 6 
#
# 1 84.0457 38.8759 46.8515 -0.0864 0.6317 -2.0466
# 2 38.8759 123.1818 53.5766 -11.1212 7.4571 -10.3738
# 3 46.8515 53.5766 111.1968 -0.5397 -8.0732 -19.5018
# 4 -0.0864 -11.1212 -0.5397 38.0012 -2.0144 10.5344
# 5 0.6317 7.4571 -8.0732 -2.0144 31.4169 -1.1613
# 6 -2.0466 -10.3738 -19.5018 10.5344 -1.1613 36.7411
#
#
#
# Elastic Compliance Matrix: (Units=1/GPa)
#
#
# Indices 1 2 3 4 5 6 
#
# 1 0.016628 -0.002645 -0.006412 0.000001 -0.001475 -0.003271
# 2 -0.002645 0.011501 -0.004763 0.003226 -0.003711 -0.000471
# 3 -0.006412 -0.004763 0.015713 -0.003028 0.005387 0.007676
# 4 0.000001 0.003226 -0.003028 0.029777 0.000024 -0.009233
# 5 -0.001475 -0.003711 0.005387 0.000024 0.034230 0.002804
# 6 -0.003271 -0.000471 0.007676 -0.009233 0.002804 0.033713
#
#
# Mechanical properties :
#
#
# Convention : Reuss Voigt Hill
#
# Bulk Modulus (GPa) = 61.72751 66.33690 64.03221
# Shear Modulus (GPa) = 28.63662 33.17318 30.90490
#
# Velocity S-wave (km/s) = 3.66619 3.94592 3.80863
# Velocity P-wave (km/s) = 6.84792 7.20392 7.02817
#
# Compressibility (1/GPa) = 0.01620023
#
# Stress axis : x y z
#
# Youngs Moduli (GPa) = 60.14074 86.95095 63.64322
#
# Poissons Ratio (x) = 0.22996 0.40811
# Poissons Ratio (y) = 0.15905 0.30315
# Poissons Ratio (z) = 0.38565 0.41417
#
# Static dielectric constant tensor:
#      x y z
#    x 3.815710 -0.147240 0.038740 
#    y -0.147240 3.902580 -0.113490 
#    z 0.038740 -0.113490 3.850440 
# 
# 
# High freq. dielectric constant tensor:
#      x y z
#    x 1.840880 -0.001270 0.011390 
#    y -0.001270 1.845370 -0.007930 
#    z 0.011390 -0.007930 1.846220 
# 
# From -- ./inp_files/126480.got.cif
#   From: 2010.06.25/outbox.cif.g09.slc.cpg/sg2_64_cif.got.tgz:126480.got - 2010.06.27 13:26:56.
