data_PCOD8019436
_publ_section_title
;
Structure prediction by ZEFSAII (Michael W. Deem and Ramdas Pophale) SiO2 
 PCOD8019436
Probable space group: P -1
;
_chemical_formula_sum "Si O2"
_cell_formula_units_Z 14
_cell_length_a 8.445650
_cell_length_b 22.219653
_cell_length_c 22.323277
_cell_angle_alpha 13.031079
_cell_angle_beta 36.093708
_cell_angle_gamma 36.909898
_cell_volume 554.050454
_symmetry_space_group_name_H-M "P -1"
_symmetry_group_IT_number 2
_symmetry_cell_setting 'triclinic'
loop_
_space_group_symop_operation_xyz
x,y,z
-x,-y,-z
loop_
_atom_site_type_symbol
_atom_site_label
_atom_site_fract_x
_atom_site_fract_y
_atom_site_fract_z
Si Si1 0.906833 0.943756 0.705181
Si Si2 0.552555 0.875726 0.776338
Si Si3 0.577945 0.095075 0.022541
Si Si4 0.744860 0.601773 0.862721
Si Si5 0.887044 0.257457 0.877957
Si Si6 0.028540 0.204135 0.619075
Si Si7 0.460903 0.589869 0.492383
O O1 0.134043 0.147314 0.450329
O O2 0.022240 0.637694 0.972850
O O3 0.802051 0.992392 0.621470
O O4 0.660850 0.002319 0.769382
O O5 0.335938 0.123537 0.580929
O O6 0.645331 0.687976 0.875309
O O7 0.404730 0.697589 0.042774
O O8 0.467288 0.340512 0.776623
O O9 0.830164 0.175232 0.906565
O O10 0.667312 0.814721 0.230270
O O11 0.500000 0.500000 0.000000
O O12 0.068727 0.025401 0.084416
O O13 0.012955 0.539784 0.571324
O O14 0.842590 0.251926 0.570295
O O15 0.500000 0.500000 0.500000
#
# Coordination Sequence:
#
# PCOD8019436 Si02
#       7
#     2   2   2   2   2   2   2
#     4  11  25  43  68  91 132 183 226 275 331 387
#     4   9  24  40  69  89 137 175 233 268 327 384
#     4  11  24  45  71  96 134 175 227 273 341 408
#     4  12  26  40  62 103 138 174 227 279 327 382
#     4   9  21  40  69  95 126 180 226 269 322 394
#     4  10  22  41  67  96 132 173 227 268 340 392
#     4  12  26  45  70 102 138 173 214 278 353 412
#
# _framework density 25.268456
#
# number of rings (size 3 to 8) (size 9 to 14) (size 15 to 20)
#    0.857    0.571    0.000    4.286    8.000    1.143 
#    0.000    4.286    0.000    0.000    0.000    0.000 
#    0.000    0.000    0.000    0.000    0.000    0.000 
#
# Total GULP energy -173565.587898 kJ/mol
# GULP energy per Si atom -12397.541993 kJ/mol
# Density = 2.521094 g / cm^3
# Si number density = 25.268456 Si / 1000 Ang^3
#
#
#
# Elastic Constant Matrix: (Units=GPa)
#
#
# Indices 1 2 3 4 5 6 
#
# 1 106.0616 -3.6823 16.6246 13.2580 -21.3456 9.6612
# 2 -3.6823 49.0413 15.4210 -4.0768 -12.0116 14.1868
# 3 16.6246 15.4210 126.7825 -5.4955 -14.7612 13.6611
# 4 13.2580 -4.0768 -5.4955 42.0497 0.2720 0.1802
# 5 -21.3456 -12.0116 -14.7612 0.2720 51.7318 -3.8622
# 6 9.6612 14.1868 13.6611 0.1802 -3.8622 34.8577
#
#
#
# Elastic Compliance Matrix: (Units=1/GPa)
#
#
# Indices 1 2 3 4 5 6 
#
# 1 0.011439 0.003109 -0.001087 -0.003464 0.004892 -0.003450
# 2 0.003109 0.025616 -0.001696 0.001286 0.005996 -0.009965
# 3 -0.001087 -0.001696 0.008708 0.001317 0.001467 -0.002266
# 4 -0.003464 0.001286 0.001317 0.025177 -0.000911 -0.000310
# 5 0.004892 0.005996 0.001467 -0.000911 0.023029 -0.001815
# 6 -0.003450 -0.009965 -0.002266 -0.000310 -0.001815 0.034388
#
#
# Mechanical properties :
#
#
# Convention : Reuss Voigt Hill
#
# Bulk Modulus (GPa) = 21.54484 37.62356 29.58420
# Shear Modulus (GPa) = 34.92187 42.62931 38.77559
#
# Velocity S-wave (km/s) = 3.72161 4.11184 3.92158
# Velocity P-wave (km/s) = 5.19731 6.12085 5.67789
#
# Compressibility (1/GPa) = 0.04641482
#
# Stress axis : x y z
#
# Youngs Moduli (GPa) = 87.42323 39.03852 114.83342
#
# Poissons Ratio (x) = -0.12136 0.12481
# Poissons Ratio (y) = -0.27178 0.19474
# Poissons Ratio (z) = 0.09502 0.06620
#
# Static dielectric constant tensor:
#      x y z
#    x 5.160760 -0.370660 -0.130560 
#    y -0.370660 4.807640 -0.180010 
#    z -0.130560 -0.180010 4.432430 
# 
# 
# High freq. dielectric constant tensor:
#      x y z
#    x 2.019140 -0.008880 -0.011140 
#    y -0.008880 2.026590 -0.010980 
#    z -0.011140 -0.010980 2.005350 
# 
# From -- ./inp_files/608715.got.cif
#   From: 2010.06.25/outbox.cif.g09.slc.cpg/sg2_305_cif.got.tgz:608715.got - 2010.06.27 13:26:56.
