data_PCOD8019524
_publ_section_title
;
Structure prediction by ZEFSAII (Michael W. Deem and Ramdas Pophale) SiO2 
 PCOD8019524
Probable space group: P -1
;
_chemical_formula_sum "Si O2"
_cell_formula_units_Z 16
_cell_length_a 25.957431
_cell_length_b 20.072170
_cell_length_c 8.659648
_cell_angle_alpha 139.005122
_cell_angle_beta 149.215470
_cell_angle_gamma 20.240906
_cell_volume 764.685078
_symmetry_space_group_name_H-M "P -1"
_symmetry_group_IT_number 2
_symmetry_cell_setting 'triclinic'
loop_
_space_group_symop_operation_xyz
x,y,z
-x,-y,-z
loop_
_atom_site_type_symbol
_atom_site_label
_atom_site_fract_x
_atom_site_fract_y
_atom_site_fract_z
Si Si1 0.593356 0.745498 0.189354
Si Si2 0.210710 0.822966 0.813849
Si Si3 0.176668 0.145335 0.707285
Si Si4 0.617971 0.522515 0.227280
Si Si5 0.950420 0.950206 0.895738
Si Si6 0.836376 0.518709 0.710601
Si Si7 0.362252 0.524529 0.155714
Si Si8 0.007867 0.535938 0.411078
O O1 0.664306 0.708670 0.482782
O O2 0.761703 0.637056 0.316511
O O3 0.550092 0.662596 0.906630
O O4 0.393541 0.982789 0.051433
O O5 0.298771 0.632953 0.712207
O O6 0.376670 0.744280 0.010234
O O7 0.000000 0.000000 0.500000
O O8 0.180163 0.899579 0.034762
O O9 0.180162 0.021596 0.474553
O O10 0.131303 0.244486 0.601817
O O11 0.007620 0.319155 0.699250
O O12 0.729213 0.531046 0.569197
O O13 0.685092 0.431476 0.070493
O O14 0.161825 0.714719 0.073479
O O15 0.000000 0.000000 0.000000
O O16 0.934894 0.518878 0.066769
O O17 0.500000 0.500000 0.500000
O O18 0.000000 0.500000 0.500000
#
# Coordination Sequence:
#
# PCOD8019524 Si02
#       8
#     2   2   2   2   2   2   2   2
#     4  10  22  41  68  94 125 171 220 272 330 387
#     4  11  24  39  59  91 134 174 211 266 332 390
#     4  11  22  42  67  97 129 165 228 274 324 395
#     4  10  22  42  59  92 131 169 216 262 329 390
#     4  12  21  39  65  96 130 169 221 271 322 391
#     4  10  22  44  68  90 128 170 222 278 324 391
#     4  11  20  38  66  95 128 170 216 267 321 391
#     4  11  25  44  64  95 135 174 218 277 334 389
#
# _framework density 20.923646000000002
#
# number of rings (size 3 to 8) (size 9 to 14) (size 15 to 20)
#    0.000    1.250    5.000    3.000    0.000    7.500 
#    2.250    0.000    0.000    0.000    0.000    0.000 
#    0.000    0.000    0.000    0.000    0.000    0.000 
#
# Total GULP energy -198312.526115 kJ/mol
# GULP energy per Si atom -12394.532882 kJ/mol
# Density = 2.087602 g / cm^3
# Si number density = 20.923646 Si / 1000 Ang^3
#
#
#
# Elastic Constant Matrix: (Units=GPa)
#
#
# Indices 1 2 3 4 5 6 
#
# 1 116.7535 43.7586 48.1416 -4.7242 13.0836 7.2512
# 2 43.7586 88.1580 46.1324 -24.4708 -0.1184 2.2783
# 3 48.1416 46.1324 126.1427 -8.1441 12.4224 7.1762
# 4 -4.7242 -24.4708 -8.1441 50.9643 0.1195 0.4924
# 5 13.0836 -0.1184 12.4224 0.1195 31.3389 -1.2716
# 6 7.2512 2.2783 7.1762 0.4924 -1.2716 28.3119
#
#
#
# Elastic Compliance Matrix: (Units=1/GPa)
#
#
# Indices 1 2 3 4 5 6 
#
# 1 0.011979 -0.005197 -0.002238 -0.001711 -0.004218 -0.002242
# 2 -0.005197 0.018509 -0.004764 0.007624 0.004144 0.001103
# 3 -0.002238 -0.004764 0.010933 -0.000721 -0.003494 -0.001959
# 4 -0.001711 0.007624 -0.000721 0.023010 0.000927 -0.000351
# 5 -0.004218 0.004144 -0.003494 0.000927 0.035197 0.003197
# 6 -0.002242 0.001103 -0.001959 -0.000351 0.003197 0.036453
#
#
# Mechanical properties :
#
#
# Convention : Reuss Voigt Hill
#
# Bulk Modulus (GPa) = 58.74973 67.45771 63.10372
# Shear Modulus (GPa) = 30.09263 34.99114 32.54189
#
# Velocity S-wave (km/s) = 3.79649 4.09384 3.94797
# Velocity P-wave (km/s) = 6.88163 7.39297 7.14188
#
# Compressibility (1/GPa) = 0.01702136
#
# Stress axis : x y z
#
# Youngs Moduli (GPa) = 83.48264 54.02673 91.46454
#
# Poissons Ratio (x) = 0.28078 0.20474
# Poissons Ratio (y) = 0.43387 0.43577
# Poissons Ratio (z) = 0.18687 0.25740
#
# Static dielectric constant tensor:
#      x y z
#    x 6.072110 0.113190 0.962200 
#    y 0.113190 3.957710 0.004590 
#    z 0.962200 0.004590 4.275510 
# 
# 
# High freq. dielectric constant tensor:
#      x y z
#    x 1.809200 0.004010 0.021120 
#    y 0.004010 1.816430 -0.006910 
#    z 0.021120 -0.006910 1.830230 
# 
# From -- ./inp_files/349626.got.cif
#   From: 2010.06.25/outbox.cif.g09.slc.cpg/sg2_175_cif.got.tgz:349626.got - 2010.06.27 13:26:56.
