data_PCOD8019374
_publ_section_title
;
Structure prediction by ZEFSAII (Michael W. Deem and Ramdas Pophale) SiO2 
 PCOD8019374
Probable space group: P -1
;
_chemical_formula_sum "Si O2"
_cell_formula_units_Z 16
_cell_length_a 8.525082
_cell_length_b 11.328079
_cell_length_c 9.048902
_cell_angle_alpha 73.496083
_cell_angle_beta 74.431667
_cell_angle_gamma 52.569068
_cell_volume 660.065531
_symmetry_space_group_name_H-M "P -1"
_symmetry_group_IT_number 2
_symmetry_cell_setting 'triclinic'
loop_
_space_group_symop_operation_xyz
x,y,z
-x,-y,-z
loop_
_atom_site_type_symbol
_atom_site_label
_atom_site_fract_x
_atom_site_fract_y
_atom_site_fract_z
Si Si1 0.144504 0.000299 0.596255
Si Si2 0.020773 0.678956 0.879007
Si Si3 0.423757 0.846856 0.845725
Si Si4 0.678572 0.970171 0.737481
Si Si5 0.837195 0.539008 0.821425
Si Si6 0.732137 0.302801 0.396584
Si Si7 0.699213 0.455393 0.625777
Si Si8 0.741644 0.177074 0.810237
O O1 0.326670 0.876229 0.699473
O O2 0.127293 0.880262 0.544135
O O3 0.224005 0.072804 0.438553
O O4 0.965831 0.104943 0.718309
O O5 0.220470 0.661782 0.787146
O O6 0.838840 0.853989 0.860183
O O7 0.977752 0.593689 0.795812
O O8 0.066811 0.611922 0.053352
O O9 0.489305 0.962345 0.799635
O O10 0.612632 0.673472 0.875033
O O11 0.268790 0.874446 0.003677
O O12 0.624177 0.132889 0.746033
O O13 0.840132 0.486406 0.671917
O O14 0.810277 0.361429 0.483552
O O15 0.496315 0.384037 0.433742
O O16 0.637729 0.357189 0.767127
#
# Coordination Sequence:
#
# PCOD8019374 Si02
#       8
#     2   2   2   2   2   2   2   2
#     4  12  23  44  69  99 134 175 223 272 333 398
#     4  10  22  41  67  92 130 179 216 271 335 390
#     4  11  25  42  66 101 134 175 221 273 336 395
#     4  11  23  44  67  94 138 177 217 273 334 398
#     4  10  23  43  64  95 136 174 219 271 335 395
#     4  11  22  41  67  97 131 175 224 272 329 393
#     4  11  24  40  67  98 132 172 223 277 325 397
#     4  12  24  40  67 102 132 172 221 275 333 393
#
# _framework density 24.240020999999999
#
# number of rings (size 3 to 8) (size 9 to 14) (size 15 to 20)
#    0.000    1.000    3.750    3.000    1.750    2.500 
#    0.000    2.500    0.000    0.000    0.000    0.000 
#    0.000    0.000    0.000    0.000    0.000    0.000 
#
# Total GULP energy -198254.516807 kJ/mol
# GULP energy per Si atom -12390.907300 kJ/mol
# Density = 2.418485 g / cm^3
# Si number density = 24.240021 Si / 1000 Ang^3
#
#
#
# Elastic Constant Matrix: (Units=GPa)
#
#
# Indices 1 2 3 4 5 6 
#
# 1 24.4557 2.9656 -4.4661 0.3108 1.6772 -1.0097
# 2 2.9656 94.8725 12.1024 -6.2513 1.1410 -1.4967
# 3 -4.4661 12.1024 83.4101 -10.1816 -5.3812 -11.1751
# 4 0.3108 -6.2513 -10.1816 30.9824 5.4720 6.5638
# 5 1.6772 1.1410 -5.3812 5.4720 43.2824 3.3157
# 6 -1.0097 -1.4967 -11.1751 6.5638 3.3157 29.2438
#
#
#
# Elastic Compliance Matrix: (Units=1/GPa)
#
#
# Indices 1 2 3 4 5 6 
#
# 1 0.041785 -0.001604 0.002707 -0.000151 -0.001420 0.002590
# 2 -0.001604 0.010913 -0.001535 0.001918 -0.000625 -0.000443
# 3 0.002707 -0.001535 0.013360 0.002975 0.000887 0.004352
# 4 -0.000151 0.001918 0.002975 0.035640 -0.003694 -0.006351
# 5 -0.001420 -0.000625 0.000887 -0.003694 0.023877 -0.001620
# 6 0.002590 -0.000443 0.004352 -0.006351 -0.001620 0.037534
#
#
# Mechanical properties :
#
#
# Convention : Reuss Voigt Hill
#
# Bulk Modulus (GPa) = 15.33841 24.88244 20.11043
# Shear Modulus (GPa) = 26.92444 33.51083 30.21763
#
# Velocity S-wave (km/s) = 3.33640 3.72218 3.53455
# Velocity P-wave (km/s) = 4.60256 5.36284 4.99718
#
# Compressibility (1/GPa) = 0.06519579
#
# Stress axis : x y z
#
# Youngs Moduli (GPa) = 23.93189 91.63141 74.85012
#
# Poissons Ratio (x) = 0.14693 -0.20262
# Poissons Ratio (y) = 0.03837 0.11489
# Poissons Ratio (z) = -0.06478 0.14064
#
# Static dielectric constant tensor:
#      x y z
#    x 4.305970 0.178040 0.130450 
#    y 0.178040 4.367670 -0.234960 
#    z 0.130450 -0.234960 4.361410 
# 
# 
# High freq. dielectric constant tensor:
#      x y z
#    x 1.947610 0.007560 0.010480 
#    y 0.007560 1.966880 -0.016850 
#    z 0.010480 -0.016850 1.965800 
# 
# From -- ./inp_files/186633.got.cif
#   From: 2010.06.25/outbox.cif.g09.slc.cpg/sg2_94_cif.got.tgz:186633.got - 2010.06.27 13:26:56.
