data_PCOD8019595
_publ_section_title
;
Structure prediction by ZEFSAII (Michael W. Deem and Ramdas Pophale) SiO2 
 PCOD8019595
Probable space group: P -1
;
_chemical_formula_sum "Si O2"
_cell_formula_units_Z 14
_cell_length_a 16.090292
_cell_length_b 11.146753
_cell_length_c 8.670708
_cell_angle_alpha 103.144486
_cell_angle_beta 148.104256
_cell_angle_gamma 57.534474
_cell_volume 595.432216
_symmetry_space_group_name_H-M "P -1"
_symmetry_group_IT_number 2
_symmetry_cell_setting 'triclinic'
loop_
_space_group_symop_operation_xyz
x,y,z
-x,-y,-z
loop_
_atom_site_type_symbol
_atom_site_label
_atom_site_fract_x
_atom_site_fract_y
_atom_site_fract_z
Si Si1 0.799718 0.730142 0.383911
Si Si2 0.863744 0.417928 0.370533
Si Si3 0.858673 0.241834 0.586426
Si Si4 0.485500 0.005854 0.759602
Si Si5 0.438450 0.607783 0.583068
Si Si6 0.747296 0.110859 0.151954
Si Si7 0.696524 0.100186 0.740761
O O1 0.885441 0.548166 0.493268
O O2 0.741279 0.824312 0.483421
O O3 0.981909 0.702108 0.562529
O O4 0.579615 0.852928 0.978585
O O5 0.927703 0.308514 0.591536
O O6 0.630987 0.514546 0.975485
O O7 0.744903 0.359142 0.591887
O O8 0.687941 0.237935 0.230953
O O9 0.057600 0.061489 0.908239
O O10 0.434614 0.958903 0.507864
O O11 0.666339 0.015772 0.033953
O O12 0.500000 0.500000 0.500000
O O13 0.351780 0.785458 0.444150
O O14 0.634582 0.198750 0.834778
O O15 0.000000 0.000000 0.500000
#
# Coordination Sequence:
#
# PCOD8019595 Si02
#       7
#     2   2   2   2   2   2   2
#     4  10  23  40  72  97 137 185 229 284 345 416
#     4  11  23  46  66  99 138 184 232 278 352 415
#     4  11  25  46  72  99 141 186 233 282 353 417
#     4  11  22  42  71 104 136 180 237 285 342 408
#     4  12  26  43  69 103 141 181 232 292 349 406
#     4  10  22  41  69 102 136 177 224 283 344 408
#     4  11  24  44  69 108 136 180 238 291 337 413
#
# _framework density 23.512331
#
# number of rings (size 3 to 8) (size 9 to 14) (size 15 to 20)
#    0.000    1.143    1.429    4.714    4.000    2.286 
#    0.000    0.714    0.000    0.000    0.000    0.000 
#    0.000    0.000    0.000    0.000    0.000    0.000 
#
# Total GULP energy -173435.024887 kJ/mol
# GULP energy per Si atom -12388.216063 kJ/mol
# Density = 2.345882 g / cm^3
# Si number density = 23.512331 Si / 1000 Ang^3
#
#
#
# Elastic Constant Matrix: (Units=GPa)
#
#
# Indices 1 2 3 4 5 6 
#
# 1 118.5875 49.1110 22.7478 -0.9645 21.4653 -3.5251
# 2 49.1110 89.8670 35.7068 4.4255 9.3860 -4.8580
# 3 22.7478 35.7068 64.8707 -0.7342 4.8093 -2.5028
# 4 -0.9645 4.4255 -0.7342 44.0414 -2.7247 0.9302
# 5 21.4653 9.3860 4.8093 -2.7247 24.6549 -0.9757
# 6 -3.5251 -4.8580 -2.5028 0.9302 -0.9757 33.6503
#
#
#
# Elastic Compliance Matrix: (Units=1/GPa)
#
#
# Indices 1 2 3 4 5 6 
#
# 1 0.012450 -0.005682 -0.000596 0.000303 -0.008519 0.000184
# 2 -0.005682 0.017453 -0.007554 -0.002058 -0.000395 0.001408
# 3 -0.000596 -0.007554 0.019831 0.001049 -0.000346 0.000283
# 4 0.000303 -0.002058 0.001049 0.023128 0.002842 -0.000744
# 5 -0.008519 -0.000395 -0.000346 0.002842 0.048523 0.000353
# 6 0.000184 0.001408 0.000283 -0.000744 0.000353 0.029992
#
#
# Mechanical properties :
#
#
# Convention : Reuss Voigt Hill
#
# Bulk Modulus (GPa) = 45.31100 54.27292 49.79196
# Shear Modulus (GPa) = 26.82443 31.51997 29.17220
#
# Velocity S-wave (km/s) = 3.38134 3.66535 3.52621
# Velocity P-wave (km/s) = 5.87857 6.40671 6.14831
#
# Compressibility (1/GPa) = 0.02206970
#
# Stress axis : x y z
#
# Youngs Moduli (GPa) = 80.32083 57.29719 50.42718
#
# Poissons Ratio (x) = 0.32557 0.03006
# Poissons Ratio (y) = 0.45639 0.38091
# Poissons Ratio (z) = 0.04788 0.43281
#
# Static dielectric constant tensor:
#      x y z
#    x 4.378080 -0.254200 -0.162270 
#    y -0.254200 4.683960 0.131630 
#    z -0.162270 0.131630 4.147870 
# 
# 
# High freq. dielectric constant tensor:
#      x y z
#    x 1.936630 -0.007830 -0.007000 
#    y -0.007830 1.929620 -0.005120 
#    z -0.007000 -0.005120 1.918410 
# 
# From -- ./inp_files/298454.got.cif
#   From: 2010.06.25/outbox.cif.g09.slc.cpg/sg2_150_cif.got.tgz:298454.got - 2010.06.27 13:26:56.
