data_PCOD8019640
_publ_section_title
;
Structure prediction by ZEFSAII (Michael W. Deem and Ramdas Pophale) SiO2 
 PCOD8019640
Probable space group: P -1
;
_chemical_formula_sum "Si O2"
_cell_formula_units_Z 16
_cell_length_a 11.950614
_cell_length_b 9.139275
_cell_length_c 17.382416
_cell_angle_alpha 30.633192
_cell_angle_beta 122.113999
_cell_angle_gamma 131.824959
_cell_volume 716.402687
_symmetry_space_group_name_H-M "P -1"
_symmetry_group_IT_number 2
_symmetry_cell_setting 'triclinic'
loop_
_space_group_symop_operation_xyz
x,y,z
-x,-y,-z
loop_
_atom_site_type_symbol
_atom_site_label
_atom_site_fract_x
_atom_site_fract_y
_atom_site_fract_z
Si Si1 0.080066 0.793203 0.094762
Si Si2 0.452897 0.271531 0.356288
Si Si3 0.606732 0.680615 0.074879
Si Si4 0.117778 0.883677 0.361490
Si Si5 0.455592 0.854305 0.814573
Si Si6 0.773272 0.264200 0.678164
Si Si7 0.946952 0.271809 0.156083
Si Si8 0.339964 0.281088 0.644405
O O1 0.122392 0.633662 0.254672
O O2 0.965438 0.481276 0.144635
O O3 0.227701 0.000354 0.000291
O O4 0.000000 0.000000 0.000000
O O5 0.532241 0.514659 0.203473
O O6 0.510695 0.473954 0.364974
O O7 0.500000 0.000000 0.500000
O O8 0.272343 0.053474 0.389816
O O9 0.650911 0.465537 0.129926
O O10 0.486372 0.771121 0.949918
O O11 0.163076 0.914342 0.274803
O O12 0.000000 0.500000 0.500000
O O13 0.041869 0.084630 0.274659
O O14 0.607746 0.985152 0.762863
O O15 0.394583 0.115593 0.673562
O O16 0.757825 0.564289 0.498916
O O17 0.770614 0.003814 0.208667
O O18 0.000000 0.500000 0.000000
#
# Coordination Sequence:
#
# PCOD8019640 Si02
#       8
#     2   2   2   2   2   2   2   2
#     4  11  25  45  72 103 145 187 235 294 364 426
#     4  12  24  42  71 101 136 185 239 281 354 421
#     4  10  22  42  65 101 131 184 234 285 353 418
#     4  12  25  48  71 102 147 186 231 299 353 427
#     4  10  22  41  69  95 139 176 232 293 351 408
#     4  11  23  46  68 102 139 182 236 293 359 421
#     4  12  27  46  71 106 144 188 237 293 361 424
#     4  12  25  44  68 104 139 184 238 292 352 425
#
# _framework density 22.333808999999999
#
# number of rings (size 3 to 8) (size 9 to 14) (size 15 to 20)
#    0.000    0.750    3.750    2.625    5.250    2.000 
#    0.000    0.000    0.000    0.000    0.000    0.000 
#    0.000    0.000    0.000    0.000    0.000    0.000 
#
# Total GULP energy -198277.861409 kJ/mol
# GULP energy per Si atom -12392.366338 kJ/mol
# Density = 2.228298 g / cm^3
# Si number density = 22.333809 Si / 1000 Ang^3
#
#
#
# Elastic Constant Matrix: (Units=GPa)
#
#
# Indices 1 2 3 4 5 6 
#
# 1 100.2669 39.3327 28.7844 -7.4253 11.8894 -5.0802
# 2 39.3327 118.8394 45.9342 -12.5702 4.2025 10.4682
# 3 28.7844 45.9342 106.7668 -3.3572 -0.2634 -1.9366
# 4 -7.4253 -12.5702 -3.3572 31.3364 -8.0056 -2.2189
# 5 11.8894 4.2025 -0.2634 -8.0056 44.0458 -12.1834
# 6 -5.0802 10.4682 -1.9366 -2.2189 -12.1834 36.9930
#
#
#
# Elastic Compliance Matrix: (Units=1/GPa)
#
#
# Indices 1 2 3 4 5 6 
#
# 1 0.012235 -0.003332 -0.001809 0.000902 -0.002329 0.001815
# 2 -0.003332 0.011845 -0.004180 0.003004 -0.000852 -0.004129
# 3 -0.001809 -0.004180 0.011682 -0.000342 0.001449 0.002003
# 4 0.000902 0.003004 -0.000342 0.035313 0.006894 0.003645
# 5 -0.002329 -0.000852 0.001449 0.006894 0.027274 0.009393
# 6 0.001815 -0.004129 0.002003 0.003645 0.009393 0.031867
#
#
# Mechanical properties :
#
#
# Convention : Reuss Voigt Hill
#
# Bulk Modulus (GPa) = 58.41839 61.55284 59.98561
# Shear Modulus (GPa) = 32.34895 36.59650 34.47273
#
# Velocity S-wave (km/s) = 3.80995 4.05237 3.93303
# Velocity P-wave (km/s) = 6.75041 7.03675 6.89507
#
# Compressibility (1/GPa) = 0.01711790
#
# Stress axis : x y z
#
# Youngs Moduli (GPa) = 81.73287 84.42475 85.60471
#
# Poissons Ratio (x) = 0.28132 0.15489
# Poissons Ratio (y) = 0.27235 0.35784
# Poissons Ratio (z) = 0.14789 0.35291
#
# Static dielectric constant tensor:
#      x y z
#    x 3.941880 0.132980 0.160840 
#    y 0.132980 3.900660 -0.355020 
#    z 0.160840 -0.355020 3.652760 
# 
# 
# High freq. dielectric constant tensor:
#      x y z
#    x 1.888620 0.002770 -0.002290 
#    y 0.002770 1.880780 -0.012780 
#    z -0.002290 -0.012780 1.885900 
# 
# From -- ./inp_files/279131.got.cif
#   From: 2010.06.25/outbox.cif.g09.slc.cpg/sg2_140_cif.got.tgz:279131.got - 2010.06.27 13:26:56.
