data_PCOD8019413
_publ_section_title
;
Structure prediction by ZEFSAII (Michael W. Deem and Ramdas Pophale) SiO2 
 PCOD8019413
Probable space group: P -1
;
_chemical_formula_sum "Si O2"
_cell_formula_units_Z 16
_cell_length_a 11.926174
_cell_length_b 14.427936
_cell_length_c 11.639921
_cell_angle_alpha 30.956440
_cell_angle_beta 103.810208
_cell_angle_gamma 121.248589
_cell_volume 778.012608
_symmetry_space_group_name_H-M "P -1"
_symmetry_group_IT_number 2
_symmetry_cell_setting 'triclinic'
loop_
_space_group_symop_operation_xyz
x,y,z
-x,-y,-z
loop_
_atom_site_type_symbol
_atom_site_label
_atom_site_fract_x
_atom_site_fract_y
_atom_site_fract_z
Si Si1 0.715097 0.789865 0.714876
Si Si2 0.951388 0.314888 0.279435
Si Si3 0.493489 0.437648 0.696993
Si Si4 0.571096 0.399833 0.276583
Si Si5 0.178417 0.614129 0.618164
Si Si6 0.208385 0.322516 0.375471
Si Si7 0.014718 0.921431 0.914006
Si Si8 0.821494 0.019712 0.881107
O O1 0.574160 0.768720 0.659490
O O2 0.753044 0.676830 0.748524
O O3 0.856014 0.055698 0.482348
O O4 0.678593 0.651568 0.972280
O O5 0.855026 0.331231 0.327028
O O6 0.103649 0.392328 0.289542
O O7 0.000000 0.500000 0.000000
O O8 0.500000 0.500000 0.500000
O O9 0.475417 0.588484 0.618548
O O10 0.645615 0.486712 0.717044
O O11 0.355232 0.171957 0.966875
O O12 0.652563 0.289132 0.431875
O O13 0.075844 0.346619 0.846171
O O14 0.151530 0.740508 0.381015
O O15 0.121131 0.064284 0.680299
O O16 0.122598 0.997528 0.966178
O O17 0.904152 0.982534 0.842802
#
# Coordination Sequence:
#
# PCOD8019413 Si02
#       8
#     2   2   2   2   2   2   2   2
#     4  10  22  42  67  92 132 178 220 262 334 385
#     4  12  24  38  60  98 133 167 218 276 325 382
#     4  11  22  43  68  94 133 174 219 263 330 392
#     4  10  22  41  67  95 129 175 215 272 325 394
#     4  12  23  39  66  99 130 165 225 270 323 393
#     4  11  22  41  69  96 133 178 216 271 328 389
#     4  11  22  42  66  92 136 173 218 264 323 396
#     4  11  23  41  67  93 130 180 214 265 326 392
#
# _framework density 20.565218999999999
#
# number of rings (size 3 to 8) (size 9 to 14) (size 15 to 20)
#    0.000    1.000    3.750    3.750    0.000    1.500 
#    2.250    0.625    0.000    0.000    0.000    0.000 
#    0.000    0.000    0.000    0.000    0.000    0.000 
#
# Total GULP energy -198411.339210 kJ/mol
# GULP energy per Si atom -12400.708701 kJ/mol
# Density = 2.051841 g / cm^3
# Si number density = 20.565219 Si / 1000 Ang^3
#
#
#
# Elastic Constant Matrix: (Units=GPa)
#
#
# Indices 1 2 3 4 5 6 
#
# 1 93.7368 47.5251 42.7889 10.7830 4.7317 22.9172
# 2 47.5251 95.1537 25.7376 4.2137 -3.5516 8.3044
# 3 42.7889 25.7376 88.5629 7.1276 -0.8040 17.0870
# 4 10.7830 4.2137 7.1276 33.6453 -3.5407 -12.1002
# 5 4.7317 -3.5516 -0.8040 -3.5407 33.1157 0.3023
# 6 22.9172 8.3044 17.0870 -12.1002 0.3023 34.5912
#
#
#
# Elastic Compliance Matrix: (Units=1/GPa)
#
#
# Indices 1 2 3 4 5 6 
#
# 1 0.021747 -0.008118 -0.004703 -0.010433 -0.005082 -0.013741
# 2 -0.008118 0.014580 -0.001123 0.002503 0.002934 0.003283
# 3 -0.004703 -0.001123 0.015198 -0.003423 0.000603 -0.005325
# 4 -0.010433 0.002503 -0.003423 0.042287 0.005990 0.022742
# 5 -0.005082 0.002934 0.000603 0.005990 0.031855 0.004182
# 6 -0.013741 0.003283 -0.005325 0.022742 0.004182 0.047774
#
#
# Mechanical properties :
#
#
# Convention : Reuss Voigt Hill
#
# Bulk Modulus (GPa) = 42.30692 56.61741 49.46216
# Shear Modulus (GPa) = 23.89962 31.03054 27.46508
#
# Velocity S-wave (km/s) = 3.41271 3.88865 3.65843
# Velocity P-wave (km/s) = 6.01212 6.91032 6.47681
#
# Compressibility (1/GPa) = 0.02363680
#
# Stress axis : x y z
#
# Youngs Moduli (GPa) = 45.98289 68.58770 65.79617
#
# Poissons Ratio (x) = 0.55680 0.30945
# Poissons Ratio (y) = 0.37329 0.07389
# Poissons Ratio (z) = 0.21627 0.07703
#
# Static dielectric constant tensor:
#      x y z
#    x 3.977210 0.188030 -0.214630 
#    y 0.188030 3.771640 0.175300 
#    z -0.214630 0.175300 3.728900 
# 
# 
# High freq. dielectric constant tensor:
#      x y z
#    x 1.811010 0.015030 -0.016530 
#    y 0.015030 1.812690 0.011550 
#    z -0.016530 0.011550 1.799790 
# 
# From -- ./inp_files/273516.got.cif
#   From: 2010.06.25/outbox.cif.g09.slc.cpg/sg2_137_cif.got.tgz:273516.got - 2010.06.27 13:26:56.
