data_PCOD8019318
_publ_section_title
;
Structure prediction by ZEFSAII (Michael W. Deem and Ramdas Pophale) SiO2 
 PCOD8019318
Probable space group: P -1
;
_chemical_formula_sum "Si O2"
_cell_formula_units_Z 16
_cell_length_a 17.484113
_cell_length_b 20.317908
_cell_length_c 5.172266
_cell_angle_alpha 76.219305
_cell_angle_beta 74.799686
_cell_angle_gamma 21.242456
_cell_volume 642.327511
_symmetry_space_group_name_H-M "P -1"
_symmetry_group_IT_number 2
_symmetry_cell_setting 'triclinic'
loop_
_space_group_symop_operation_xyz
x,y,z
-x,-y,-z
loop_
_atom_site_type_symbol
_atom_site_label
_atom_site_fract_x
_atom_site_fract_y
_atom_site_fract_z
Si Si1 0.579555 0.573503 0.199798
Si Si2 0.184926 0.539429 0.505376
Si Si3 0.821445 0.197190 0.517634
Si Si4 0.427368 0.988494 0.201896
Si Si5 0.490838 0.235411 0.159257
Si Si6 0.809841 0.597979 0.101275
Si Si7 0.211355 0.117313 0.767521
Si Si8 0.267978 0.656498 0.043549
O O1 0.768047 0.434343 0.373124
O O2 0.409486 0.655064 0.387261
O O3 0.695263 0.453446 0.945217
O O4 0.468457 0.734505 0.102368
O O5 0.412303 0.331640 0.401621
O O6 0.086145 0.552111 0.727769
O O7 0.036835 0.680301 0.266289
O O8 0.842602 0.226600 0.221776
O O9 0.863744 0.214094 0.709239
O O10 0.000000 0.000000 0.500000
O O11 0.623816 0.781152 0.261940
O O12 0.328845 0.073975 0.496236
O O13 0.500000 0.000000 0.000000
O O14 0.250725 0.101636 0.048676
O O15 0.710016 0.022199 0.219232
O O16 0.305181 0.331344 0.132645
O O17 0.000000 0.500000 0.000000
O O18 0.500000 0.500000 0.000000
#
# Coordination Sequence:
#
# PCOD8019318 Si02
#       8
#     2   2   2   2   2   2   2   2
#     4  10  24  44  70  99 139 188 232 284 351 424
#     4  11  24  43  69  94 138 187 231 290 352 420
#     4  11  24  46  73 109 145 178 232 290 342 413
#     4  11  23  42  65  98 132 172 229 298 349 417
#     4  10  24  45  64  98 139 180 235 291 345 424
#     4  10  22  41  66  96 134 182 235 291 354 411
#     4  11  25  45  65  94 137 173 232 286 348 417
#     4  10  22  44  72 100 138 181 227 278 341 414
#
# _framework density 24.909412
#
# number of rings (size 3 to 8) (size 9 to 14) (size 15 to 20)
#    0.000    1.500    1.250    3.000   10.500    1.500 
#    4.500    0.000    0.000    0.000    0.000    0.000 
#    0.000    0.000    0.000    0.000    0.000    0.000 
#
# Total GULP energy -198268.902042 kJ/mol
# GULP energy per Si atom -12391.806378 kJ/mol
# Density = 2.485272 g / cm^3
# Si number density = 24.909412 Si / 1000 Ang^3
#
#
#
# Elastic Constant Matrix: (Units=GPa)
#
#
# Indices 1 2 3 4 5 6 
#
# 1 110.3287 29.1133 7.4874 -8.0023 3.4430 8.5715
# 2 29.1133 98.4420 8.0389 -23.9056 7.5663 23.3268
# 3 7.4874 8.0389 80.2210 -14.5935 11.5435 1.7476
# 4 -8.0023 -23.9056 -14.5935 39.6564 4.4532 -0.8882
# 5 3.4430 7.5663 11.5435 4.4532 38.3830 4.0587
# 6 8.5715 23.3268 1.7476 -0.8882 4.0587 38.6606
#
#
#
# Elastic Compliance Matrix: (Units=1/GPa)
#
#
# Indices 1 2 3 4 5 6 
#
# 1 0.009872 -0.002703 -0.000593 0.000149 -0.000137 -0.000513
# 2 -0.002703 0.015296 0.001055 0.009253 -0.003305 -0.008118
# 3 -0.000593 0.001055 0.014322 0.006355 -0.005150 -0.000466
# 4 0.000149 0.009253 0.006355 0.033876 -0.007217 -0.004367
# 5 -0.000137 -0.003305 -0.005150 -0.007217 0.029206 -0.000974
# 6 -0.000513 -0.008118 -0.000466 -0.004367 -0.000974 0.030901
#
#
# Mechanical properties :
#
#
# Convention : Reuss Voigt Hill
#
# Bulk Modulus (GPa) = 28.56298 42.03010 35.29654
# Shear Modulus (GPa) = 33.41686 39.63015 36.52351
#
# Velocity S-wave (km/s) = 3.66667 3.99302 3.83332
# Velocity P-wave (km/s) = 5.42380 6.17809 5.81319
#
# Compressibility (1/GPa) = 0.03501035
#
# Stress axis : x y z
#
# Youngs Moduli (GPa) = 101.29425 65.37572 69.82026
#
# Poissons Ratio (x) = 0.17671 0.04137
# Poissons Ratio (y) = 0.27379 -0.07368
# Poissons Ratio (z) = 0.06002 -0.06899
#
# Static dielectric constant tensor:
#      x y z
#    x 4.766040 0.432870 0.349400 
#    y 0.432870 4.463940 -0.164210 
#    z 0.349400 -0.164210 5.257880 
# 
# 
# High freq. dielectric constant tensor:
#      x y z
#    x 1.996000 0.020830 0.000470 
#    y 0.020830 1.983740 -0.008700 
#    z 0.000470 -0.008700 1.998560 
# 
# From -- ./inp_files/112355.got.cif
#   From: 2010.06.25/outbox.cif.g09.slc.cpg/sg2_57_cif.got.tgz:112355.got - 2010.06.27 13:26:56.
