data_PCOD8019920
_publ_section_title
;
Structure prediction by ZEFSAII (Michael W. Deem and Ramdas Pophale) SiO2 
 PCOD8019920
Probable space group: P -1
;
_chemical_formula_sum "Si O2"
_cell_formula_units_Z 16
_cell_length_a 27.595059
_cell_length_b 14.515309
_cell_length_c 18.836831
_cell_angle_alpha 160.744875
_cell_angle_beta 161.271555
_cell_angle_gamma 18.780247
_cell_volume 692.987682
_symmetry_space_group_name_H-M "P -1"
_symmetry_group_IT_number 2
_symmetry_cell_setting 'triclinic'
loop_
_space_group_symop_operation_xyz
x,y,z
-x,-y,-z
loop_
_atom_site_type_symbol
_atom_site_label
_atom_site_fract_x
_atom_site_fract_y
_atom_site_fract_z
Si Si1 0.790565 0.187057 0.277098
Si Si2 0.838125 0.315142 0.589764
Si Si3 0.978453 0.727634 0.570069
Si Si4 0.285997 0.053656 0.756442
Si Si5 0.458591 0.563779 0.405774
Si Si6 0.804961 0.656265 0.530423
Si Si7 0.107935 0.725408 0.053295
Si Si8 0.574275 0.925358 0.733555
O O1 0.754757 0.271412 0.370770
O O2 0.834984 0.435395 0.480041
O O3 0.955491 0.823764 0.234158
O O4 0.615678 0.203766 0.016831
O O5 0.734201 0.695094 0.737037
O O6 0.808312 0.132409 0.479977
O O7 0.149949 0.554011 0.631960
O O8 0.000000 0.500000 0.500000
O O9 0.811410 0.780824 0.331998
O O10 0.956473 0.071925 0.815501
O O11 0.483627 0.773228 0.804632
O O12 0.245979 0.333267 0.963652
O O13 0.500000 0.500000 0.500000
O O14 0.251016 0.813984 0.283832
O O15 0.564740 0.732590 0.648391
O O16 0.605808 0.934029 0.456708
O O17 0.938119 0.799177 0.825837
#
# Coordination Sequence:
#
# PCOD8019920 Si02
#       8
#     2   2   2   2   2   2   2   2
#     4  11  23  45  70  94 137 171 227 279 330 393
#     4  10  23  43  69 102 125 176 222 271 339 393
#     4  11  23  40  66  95 135 179 222 268 338 399
#     4  10  22  42  63 102 131 168 230 269 334 403
#     4  11  23  39  66 101 132 176 220 270 339 395
#     4  11  26  45  66 102 131 178 230 269 333 404
#     4  11  23  43  67  90 139 176 216 279 328 393
#     4  11  26  43  67  97 139 171 225 278 332 393
#
# _framework density 23.088432999999998
#
# number of rings (size 3 to 8) (size 9 to 14) (size 15 to 20)
#    0.000    1.250    3.750    1.875    1.750    7.000 
#    0.000    0.000    0.000    0.000    0.000    0.000 
#    0.000    0.000    0.000    0.000    0.000    0.000 
#
# Total GULP energy -198233.080153 kJ/mol
# GULP energy per Si atom -12389.567510 kJ/mol
# Density = 2.303588 g / cm^3
# Si number density = 23.088433 Si / 1000 Ang^3
#
#
#
# Elastic Constant Matrix: (Units=GPa)
#
#
# Indices 1 2 3 4 5 6 
#
# 1 87.4591 36.0670 28.7805 -3.4832 -9.2916 -0.5372
# 2 36.0670 87.2727 38.2850 -5.9056 -14.6056 -2.5121
# 3 28.7805 38.2850 107.2277 -3.7079 -15.5460 -14.9259
# 4 -3.4832 -5.9056 -3.7079 38.4063 -4.0513 -5.4046
# 5 -9.2916 -14.6056 -15.5460 -4.0513 21.8474 0.8342
# 6 -0.5372 -2.5121 -14.9259 -5.4046 0.8342 26.6083
#
#
#
# Elastic Compliance Matrix: (Units=1/GPa)
#
#
# Indices 1 2 3 4 5 6 
#
# 1 0.014237 -0.004730 -0.002081 0.000340 0.001525 -0.001305
# 2 -0.004730 0.016243 -0.003491 0.002417 0.006820 -0.000243
# 3 -0.002081 -0.003491 0.013123 0.002221 0.006254 0.007245
# 4 0.000340 0.002417 0.002221 0.028523 0.008362 0.007012
# 5 0.001525 0.006820 0.006254 0.008362 0.056824 0.004100
# 6 -0.001305 -0.000243 0.007245 0.007012 0.004100 0.042893
#
#
# Mechanical properties :
#
#
# Convention : Reuss Voigt Hill
#
# Bulk Modulus (GPa) = 43.48342 54.24716 48.86529
# Shear Modulus (GPa) = 24.98587 29.29421 27.14004
#
# Velocity S-wave (km/s) = 3.29322 3.56586 3.43225
# Velocity P-wave (km/s) = 5.77362 6.36398 6.07597
#
# Compressibility (1/GPa) = 0.02299727
#
# Stress axis : x y z
#
# Youngs Moduli (GPa) = 70.23983 61.56665 76.20162
#
# Poissons Ratio (x) = 0.29121 0.15860
# Poissons Ratio (y) = 0.33224 0.26604
# Poissons Ratio (z) = 0.14619 0.21495
#
# Static dielectric constant tensor:
#      x y z
#    x 4.039730 -0.382510 -0.023670 
#    y -0.382510 4.396810 0.128400 
#    z -0.023670 0.128400 4.089020 
# 
# 
# High freq. dielectric constant tensor:
#      x y z
#    x 1.902090 -0.023220 -0.000910 
#    y -0.023220 1.920770 0.000810 
#    z -0.000910 0.000810 1.906850 
# 
# From -- ./inp_files/579915.got.cif
#   From: 2010.06.25/outbox.cif.g09.slc.cpg/sg2_290_cif.got.tgz:579915.got - 2010.06.27 13:26:56.
