data_PCOD8019770
_publ_section_title
;
Structure prediction by ZEFSAII (Michael W. Deem and Ramdas Pophale) SiO2 
 PCOD8019770
Probable space group: P -1
;
_chemical_formula_sum "Si O2"
_cell_formula_units_Z 16
_cell_length_a 16.762148
_cell_length_b 8.895884
_cell_length_c 9.656063
_cell_angle_alpha 76.845734
_cell_angle_beta 140.039857
_cell_angle_gamma 78.906290
_cell_volume 729.299216
_symmetry_space_group_name_H-M "P -1"
_symmetry_group_IT_number 2
_symmetry_cell_setting 'triclinic'
loop_
_space_group_symop_operation_xyz
x,y,z
-x,-y,-z
loop_
_atom_site_type_symbol
_atom_site_label
_atom_site_fract_x
_atom_site_fract_y
_atom_site_fract_z
Si Si1 0.010860 0.674596 0.981076
Si Si2 0.728544 0.413079 0.860238
Si Si3 0.695681 0.076805 0.509534
Si Si4 0.154196 0.835675 0.672628
Si Si5 0.639035 0.036324 0.026173
Si Si6 0.417259 0.794885 0.375096
Si Si7 0.589385 0.754531 0.102624
Si Si8 0.194578 0.677714 0.473362
O O1 0.118034 0.647724 0.002096
O O2 0.077471 0.677342 0.217299
O O3 0.000000 0.500000 0.000000
O O4 0.844151 0.871931 0.703584
O O5 0.601921 0.641294 0.646975
O O6 0.661444 0.314771 0.712148
O O7 0.762984 0.348694 0.079827
O O8 0.638484 0.076498 0.588218
O O9 0.559986 0.135290 0.214269
O O10 0.729274 0.234826 0.522023
O O11 0.108904 0.797120 0.472582
O O12 0.258475 0.910303 0.771430
O O13 0.000000 0.000000 0.500000
O O14 0.465958 0.179908 0.826109
O O15 0.697368 0.819923 0.185190
O O16 0.638568 0.059256 0.856602
O O17 0.675105 0.531372 0.253957
#
# Coordination Sequence:
#
# PCOD8019770 Si02
#       8
#     2   2   2   2   2   2   2   2
#     4  12  29  47  70 103 147 186 230 290 361 417
#     4  10  22  42  68 101 136 180 231 285 347 412
#     4  12  25  44  72 105 139 183 239 286 346 425
#     4  11  24  42  70  98 138 184 233 282 344 419
#     4  10  24  42  69  97 143 176 226 286 355 397
#     4  10  22  41  72 100 134 180 233 287 338 413
#     4  11  25  43  71 103 138 184 231 290 348 412
#     4  12  25  45  73 101 137 185 238 281 346 426
#
# _framework density 21.938870000000001
#
# number of rings (size 3 to 8) (size 9 to 14) (size 15 to 20)
#    0.000    1.000    2.500    3.000   12.250    0.500 
#    2.250    1.250    0.000    0.000    0.000    0.000 
#    0.000    0.000    0.000    0.000    0.000    0.000 
#
# Total GULP energy -198441.934721 kJ/mol
# GULP energy per Si atom -12402.620920 kJ/mol
# Density = 2.188894 g / cm^3
# Si number density = 21.938870 Si / 1000 Ang^3
#
#
#
# Elastic Constant Matrix: (Units=GPa)
#
#
# Indices 1 2 3 4 5 6 
#
# 1 122.5800 55.5858 28.1913 -6.3013 -8.5185 -4.9878
# 2 55.5858 115.7780 43.3434 -8.2068 -8.3658 11.7868
# 3 28.1913 43.3434 82.7353 4.1479 -2.5921 6.1376
# 4 -6.3013 -8.2068 4.1479 41.4903 -8.8606 -5.5752
# 5 -8.5185 -8.3658 -2.5921 -8.8606 28.8650 2.0894
# 6 -4.9878 11.7868 6.1376 -5.5752 2.0894 38.5803
#
#
#
# Elastic Compliance Matrix: (Units=1/GPa)
#
#
# Indices 1 2 3 4 5 6 
#
# 1 0.011048 -0.004798 -0.001518 0.001756 0.002035 0.003279
# 2 -0.004798 0.013735 -0.005317 0.002696 0.003186 -0.003754
# 3 -0.001518 -0.005317 0.015619 -0.003363 -0.001513 -0.001461
# 4 0.001756 0.002696 -0.003363 0.027674 0.009244 0.003437
# 5 0.002035 0.003186 -0.001513 0.009244 0.038960 -0.001244
# 6 0.003279 -0.003754 -0.001461 0.003437 -0.001244 0.028287
#
#
# Mechanical properties :
#
#
# Convention : Reuss Voigt Hill
#
# Bulk Modulus (GPa) = 58.36191 63.92604 61.14398
# Shear Modulus (GPa) = 30.43158 34.71861 32.57510
#
# Velocity S-wave (km/s) = 3.72843 3.98240 3.85751
# Velocity P-wave (km/s) = 6.72270 7.09560 6.91167
#
# Compressibility (1/GPa) = 0.01713446
#
# Stress axis : x y z
#
# Youngs Moduli (GPa) = 90.51356 72.80685 64.02292
#
# Poissons Ratio (x) = 0.34934 0.09721
# Poissons Ratio (y) = 0.43430 0.34044
# Poissons Ratio (z) = 0.13744 0.38715
#
# Static dielectric constant tensor:
#      x y z
#    x 3.699450 -0.035840 -0.007090 
#    y -0.035840 4.067500 0.130500 
#    z -0.007090 0.130500 4.038260 
# 
# 
# High freq. dielectric constant tensor:
#      x y z
#    x 1.874750 -0.002690 -0.012880 
#    y -0.002690 1.860170 0.002310 
#    z -0.012880 0.002310 1.862020 
# 
# From -- ./inp_files/297997.got.cif
#   From: 2010.06.25/outbox.cif.g09.slc.cpg/sg2_149_cif.got.tgz:297997.got - 2010.06.27 13:26:56.
