data_PCOD8019438
_publ_section_title
;
Structure prediction by ZEFSAII (Michael W. Deem and Ramdas Pophale) SiO2 
 PCOD8019438
Probable space group: P -1
;
_chemical_formula_sum "Si O2"
_cell_formula_units_Z 16
_cell_length_a 11.012576
_cell_length_b 13.896550
_cell_length_c 11.186459
_cell_angle_alpha 117.480973
_cell_angle_beta 82.853495
_cell_angle_gamma 147.455285
_cell_volume 679.983554
_symmetry_space_group_name_H-M "P -1"
_symmetry_group_IT_number 2
_symmetry_cell_setting 'triclinic'
loop_
_space_group_symop_operation_xyz
x,y,z
-x,-y,-z
loop_
_atom_site_type_symbol
_atom_site_label
_atom_site_fract_x
_atom_site_fract_y
_atom_site_fract_z
Si Si1 0.081689 0.951038 0.400821
Si Si2 0.275765 0.687710 0.827617
Si Si3 0.762948 0.775347 0.651680
Si Si4 0.508969 0.987144 0.193061
Si Si5 0.739718 0.130488 0.613427
Si Si6 0.262269 0.047600 0.800644
Si Si7 0.711001 0.573134 0.038492
Si Si8 0.818742 0.993258 0.941736
O O1 0.239740 0.984803 0.481023
O O2 0.828026 0.684569 0.221927
O O3 0.261903 0.135250 0.373535
O O4 0.000000 0.000000 0.500000
O O5 0.262978 0.764227 0.764321
O O6 0.538538 0.826329 0.844407
O O7 0.012949 0.405379 0.697822
O O8 0.305455 0.769970 0.999072
O O9 0.500000 0.500000 0.500000
O O10 0.794486 0.846558 0.823325
O O11 0.030314 0.914195 0.665192
O O12 0.319301 0.906573 0.258546
O O13 0.678786 0.032569 0.276487
O O14 0.500000 0.000000 0.500000
O O15 0.553619 0.335342 0.917603
O O16 0.132885 0.959949 0.897070
O O17 0.500000 0.500000 0.000000
O O18 0.935973 0.751590 0.009544
#
# Coordination Sequence:
#
# PCOD8019438 Si02
#       8
#     2   2   2   2   2   2   2   2
#     4  11  26  45  65 100 140 182 232 288 351 414
#     4  10  23  45  74 102 136 187 231 305 351 418
#     4  11  25  39  63  97 140 181 223 281 347 413
#     4  10  23  43  72 103 136 176 246 289 353 412
#     4  12  28  46  73 101 144 195 235 289 354 428
#     4  11  23  41  69 102 135 183 226 293 342 420
#     4  11  22  41  70 101 139 184 233 291 348 421
#     4  10  22  41  67  96 137 176 235 281 358 401
#
# _framework density 23.529980999999999
#
# number of rings (size 3 to 8) (size 9 to 14) (size 15 to 20)
#    0.000    1.250    2.500    3.750    5.250    4.500 
#    0.000    0.000    0.000    0.000    0.000    0.000 
#    0.000    0.000    0.000    0.000    0.000    0.000 
#
# Total GULP energy -198317.781318 kJ/mol
# GULP energy per Si atom -12394.861332 kJ/mol
# Density = 2.347643 g / cm^3
# Si number density = 23.529981 Si / 1000 Ang^3
#
#
#
# Elastic Constant Matrix: (Units=GPa)
#
#
# Indices 1 2 3 4 5 6 
#
# 1 169.8804 54.2012 36.1126 17.5952 -2.0261 -11.5353
# 2 54.2012 140.7952 38.8995 27.2799 -6.0698 3.9839
# 3 36.1126 38.8995 55.3200 31.7353 -6.2171 4.7633
# 4 17.5952 27.2799 31.7353 34.1847 6.3102 -7.7738
# 5 -2.0261 -6.0698 -6.2171 6.3102 40.9295 -4.6689
# 6 -11.5353 3.9839 4.7633 -7.7738 -4.6689 42.0478
#
#
#
# Elastic Compliance Matrix: (Units=1/GPa)
#
#
# Indices 1 2 3 4 5 6 
#
# 1 0.007848 -0.002297 -0.007421 0.005903 -0.001518 0.004134
# 2 -0.002297 0.009704 -0.001432 -0.006088 0.001782 -0.002315
# 3 -0.007421 -0.001432 0.060623 -0.058241 0.015577 -0.017806
# 4 0.005903 -0.006088 -0.058241 0.094507 -0.021301 0.023901
# 5 -0.001518 0.001782 0.015577 -0.021301 0.029933 -0.002964
# 6 0.004134 -0.002315 -0.017806 0.023901 -0.002964 0.031243
#
#
# Mechanical properties :
#
#
# Convention : Reuss Voigt Hill
#
# Bulk Modulus (GPa) = 17.89735 69.38023 43.63879
# Shear Modulus (GPa) = 18.19605 39.21788 28.70696
#
# Velocity S-wave (km/s) = 2.78387 4.08698 3.49666
# Velocity P-wave (km/s) = 4.23744 7.19869 5.90665
#
# Compressibility (1/GPa) = 0.05587418
#
# Stress axis : x y z
#
# Youngs Moduli (GPa) = 127.41863 103.04556 16.49543
#
# Poissons Ratio (x) = 0.23671 0.12241
# Poissons Ratio (y) = 0.29270 0.02363
# Poissons Ratio (z) = 0.94558 0.14761
#
# Static dielectric constant tensor:
#      x y z
#    x 4.360570 -0.102970 0.136860 
#    y -0.102970 3.797990 -0.704030 
#    z 0.136860 -0.704030 3.769290 
# 
# 
# High freq. dielectric constant tensor:
#      x y z
#    x 1.951500 -0.005210 -0.003700 
#    y -0.005210 1.937550 -0.010990 
#    z -0.003700 -0.010990 1.911990 
# 
# From -- ./inp_files/434210.got.cif
#   From: 2010.06.25/outbox.cif.g09.slc.cpg/sg2_218_cif.got.tgz:434210.got - 2010.06.27 13:26:56.
