data_PCOD8019932
_publ_section_title
;
Structure prediction by ZEFSAII (Michael W. Deem and Ramdas Pophale) SiO2 
 PCOD8019932
Probable space group: P -1
;
_chemical_formula_sum "Si O2"
_cell_formula_units_Z 16
_cell_length_a 5.934375
_cell_length_b 22.440680
_cell_length_c 5.357842
_cell_angle_alpha 67.249870
_cell_angle_beta 79.845130
_cell_angle_gamma 79.502039
_cell_volume 642.562946
_symmetry_space_group_name_H-M "P -1"
_symmetry_group_IT_number 2
_symmetry_cell_setting 'triclinic'
loop_
_space_group_symop_operation_xyz
x,y,z
-x,-y,-z
loop_
_atom_site_type_symbol
_atom_site_label
_atom_site_fract_x
_atom_site_fract_y
_atom_site_fract_z
Si Si1 0.478714 0.424808 0.136100
Si Si2 0.690917 0.630608 0.257446
Si Si3 0.988657 0.906643 0.521800
Si Si4 0.107718 0.675035 0.852969
Si Si5 0.704049 0.029691 0.283679
Si Si6 0.602509 0.860531 0.997519
Si Si7 0.948104 0.790006 0.386748
Si Si8 0.365360 0.752053 0.022739
O O1 0.313923 0.413709 0.422640
O O2 0.737392 0.387493 0.193224
O O3 0.500000 0.500000 0.000000
O O4 0.368887 0.405242 0.928119
O O5 0.504539 0.693248 0.247466
O O6 0.948357 0.651530 0.143383
O O7 0.207935 0.924955 0.593637
O O8 0.054713 0.840598 0.464330
O O9 0.803923 0.895723 0.786485
O O10 0.890249 0.968619 0.261480
O O11 0.933790 0.718754 0.627448
O O12 0.295502 0.722867 0.820596
O O13 0.607573 0.080655 0.997805
O O14 0.500000 0.000000 0.500000
O O15 0.525576 0.809973 0.886702
O O16 0.693055 0.820987 0.292959
O O17 0.122045 0.780134 0.141031
#
# Coordination Sequence:
#
# PCOD8019932 Si02
#       8
#     2   2   2   2   2   2   2   2
#     4  11  26  48  75 112 151 195 249 303 361 436
#     4  11  25  45  76 105 151 195 245 303 370 429
#     4  10  22  42  63  89 128 179 228 295 360 437
#     4  11  26  45  71 103 148 188 241 295 367 434
#     4   9  20  41  62  87 129 174 231 292 361 432
#     4  11  23  39  64  93 130 175 232 294 361 431
#     4  12  23  38  65  97 132 175 236 293 362 430
#     4  11  24  42  63  99 140 177 236 296 358 433
#
# _framework density 24.900285
#
# number of rings (size 3 to 8) (size 9 to 14) (size 15 to 20)
#    0.000    1.250    1.250    4.125    3.500    4.500 
#    0.000    8.750    0.000    0.000    0.000    0.000 
#    0.000    0.000    0.000    0.000    0.000    0.000 
#
# Total GULP energy -198281.314278 kJ/mol
# GULP energy per Si atom -12392.582142 kJ/mol
# Density = 2.484361 g / cm^3
# Si number density = 24.900285 Si / 1000 Ang^3
#
#
#
# Elastic Constant Matrix: (Units=GPa)
#
#
# Indices 1 2 3 4 5 6 
#
# 1 105.8043 43.5182 41.5407 -24.8782 2.6621 5.7443
# 2 43.5182 139.2630 43.5399 -29.3550 13.4523 -6.8120
# 3 41.5407 43.5399 123.0777 -23.1408 7.2132 -3.3506
# 4 -24.8782 -29.3550 -23.1408 41.1112 -5.3728 2.7622
# 5 2.6621 13.4523 7.2132 -5.3728 22.0935 -9.4698
# 6 5.7443 -6.8120 -3.3506 2.7622 -9.4698 35.8010
#
#
#
# Elastic Compliance Matrix: (Units=1/GPa)
#
#
# Indices 1 2 3 4 5 6 
#
# 1 0.012742 -0.002335 -0.002689 0.004816 0.000678 -0.002932
# 2 -0.002335 0.009672 -0.001634 0.004030 -0.003771 0.000754
# 3 -0.002689 -0.001634 0.010212 0.002772 -0.001095 0.000573
# 4 0.004816 0.004030 0.002772 0.032200 0.003311 -0.001355
# 5 0.000678 -0.003771 -0.001095 0.003311 0.054286 0.013175
# 6 -0.002932 0.000754 0.000573 -0.001355 0.013175 0.032189
#
#
# Mechanical properties :
#
#
# Convention : Reuss Voigt Hill
#
# Bulk Modulus (GPa) = 51.78815 69.48251 60.63533
# Shear Modulus (GPa) = 29.23066 35.77089 32.50077
#
# Velocity S-wave (km/s) = 3.42995 3.79432 3.61673
# Velocity P-wave (km/s) = 6.04396 6.86736 6.46878
#
# Compressibility (1/GPa) = 0.01930944
#
# Stress axis : x y z
#
# Youngs Moduli (GPa) = 78.48104 103.39346 97.92795
#
# Poissons Ratio (x) = 0.24142 0.26330
# Poissons Ratio (y) = 0.18325 0.16003
# Poissons Ratio (z) = 0.21102 0.16897
#
# Static dielectric constant tensor:
#      x y z
#    x 4.727070 -0.108570 0.226710 
#    y -0.108570 4.768730 -0.457190 
#    z 0.226710 -0.457190 4.298220 
# 
# 
# High freq. dielectric constant tensor:
#      x y z
#    x 1.999530 -0.001980 0.003970 
#    y -0.001980 1.995260 -0.022220 
#    z 0.003970 -0.022220 1.973820 
# 
# From -- ./inp_files/12718.got.cif
#   From: 2010.06.25/outbox.cif.g09.slc.cpg/sg2_7_cif.got.tgz:12718.got - 2010.06.27 13:26:56.
