data_PCOD8019180
_publ_section_title
;
Structure prediction by ZEFSAII (Michael W. Deem and Ramdas Pophale) SiO2 
 PCOD8019180
Probable space group: P -1
;
_chemical_formula_sum "Si O2"
_cell_formula_units_Z 16
_cell_length_a 13.928122
_cell_length_b 11.718573
_cell_length_c 8.801883
_cell_angle_alpha 138.475904
_cell_angle_beta 51.024613
_cell_angle_gamma 131.064178
_cell_volume 690.503690
_symmetry_space_group_name_H-M "P -1"
_symmetry_group_IT_number 2
_symmetry_cell_setting 'triclinic'
loop_
_space_group_symop_operation_xyz
x,y,z
-x,-y,-z
loop_
_atom_site_type_symbol
_atom_site_label
_atom_site_fract_x
_atom_site_fract_y
_atom_site_fract_z
Si Si1 0.584475 0.914238 0.729402
Si Si2 0.853690 0.053529 0.449242
Si Si3 0.511188 0.192470 0.603315
Si Si4 0.240561 0.156473 0.954028
Si Si5 0.037112 0.216506 0.755146
Si Si6 0.798656 0.473389 0.652685
Si Si7 0.786034 0.878584 0.703735
Si Si8 0.021017 0.540012 0.277102
O O1 0.491085 0.800519 0.572543
O O2 0.644395 0.807543 0.685987
O O3 0.713485 0.052202 0.652040
O O4 0.500000 0.000000 0.000000
O O5 0.963540 0.252760 0.583752
O O6 0.836321 0.022233 0.251755
O O7 0.900738 0.885436 0.284814
O O8 0.393006 0.248355 0.842814
O O9 0.646440 0.349510 0.671087
O O10 0.500000 0.000000 0.500000
O O11 0.176113 0.310311 0.155595
O O12 0.232229 0.091869 0.072173
O O13 0.136997 0.259840 0.552111
O O14 0.034340 0.413345 0.000230
O O15 0.886041 0.076699 0.729490
O O16 0.854013 0.423678 0.702125
O O17 0.880716 0.435051 0.392336
#
# Coordination Sequence:
#
# PCOD8019180 Si02
#       8
#     2   2   2   2   2   2   2   2
#     4  10  22  41  65  94 130 178 221 269 330 397
#     4  10  22  43  69 100 130 177 223 277 334 382
#     4  11  24  43  70  95 128 175 227 278 329 391
#     4  11  22  42  70  94 136 172 223 277 329 396
#     4  10  22  44  64  95 141 172 219 274 325 403
#     4  11  24  40  63 107 127 169 226 276 337 386
#     4  10  23  40  66  94 131 184 213 265 345 386
#     4  11  24  39  69 102 136 169 221 280 331 396
#
# _framework density 23.171493000000002
#
# number of rings (size 3 to 8) (size 9 to 14) (size 15 to 20)
#    0.000    1.500    1.250    3.375    7.000    1.000 
#    2.250    6.875    0.000    0.000    0.000    0.000 
#    0.000    0.000    0.000    0.000    0.000    0.000 
#
# Total GULP energy -198252.232462 kJ/mol
# GULP energy per Si atom -12390.764529 kJ/mol
# Density = 2.311875 g / cm^3
# Si number density = 23.171493 Si / 1000 Ang^3
#
#
#
# Elastic Constant Matrix: (Units=GPa)
#
#
# Indices 1 2 3 4 5 6 
#
# 1 90.3895 18.4462 42.2729 -7.8863 -10.0084 1.9329
# 2 18.4462 44.8975 29.4226 5.5952 4.8152 2.0603
# 3 42.2729 29.4226 168.8024 -11.5549 9.9010 6.2183
# 4 -7.8863 5.5952 -11.5549 38.4498 -2.2319 4.5948
# 5 -10.0084 4.8152 9.9010 -2.2319 30.0825 -3.1274
# 6 1.9329 2.0603 6.2183 4.5948 -3.1274 40.2824
#
#
#
# Elastic Compliance Matrix: (Units=1/GPa)
#
#
# Indices 1 2 3 4 5 6 
#
# 1 0.014534 -0.005208 -0.002921 0.003239 0.006890 0.000185
# 2 -0.005208 0.028297 -0.003743 -0.006597 -0.005551 -0.000298
# 3 -0.002921 -0.003743 0.007679 0.002246 -0.002872 -0.001333
# 4 0.003239 -0.006597 0.002246 0.028877 0.003203 -0.003210
# 5 0.006890 -0.005551 -0.002872 0.003203 0.037915 0.002975
# 6 0.000185 -0.000298 -0.001333 -0.003210 0.002975 0.025634
#
#
# Mechanical properties :
#
#
# Convention : Reuss Voigt Hill
#
# Bulk Modulus (GPa) = 37.36152 53.81920 45.59036
# Shear Modulus (GPa) = 28.47358 36.02613 32.24986
#
# Velocity S-wave (km/s) = 3.50926 3.94732 3.73472
# Velocity P-wave (km/s) = 5.70778 6.63717 6.18994
#
# Compressibility (1/GPa) = 0.02676551
#
# Stress axis : x y z
#
# Youngs Moduli (GPa) = 68.80563 35.33980 130.21950
#
# Poissons Ratio (x) = 0.18405 0.38039
# Poissons Ratio (y) = 0.35834 0.48741
# Poissons Ratio (z) = 0.20099 0.13228
#
# Static dielectric constant tensor:
#      x y z
#    x 4.594720 -0.089750 0.041500 
#    y -0.089750 3.876700 -0.256840 
#    z 0.041500 -0.256840 4.360330 
# 
# 
# High freq. dielectric constant tensor:
#      x y z
#    x 1.950070 -0.008660 0.000690 
#    y -0.008660 1.882350 -0.023600 
#    z 0.000690 -0.023600 1.926570 
# 
# From -- ./inp_files/308688.got.cif
#   From: 2010.06.25/outbox.cif.g09.slc.cpg/sg2_155_cif.got.tgz:308688.got - 2010.06.27 13:26:56.
