data_PCOD8019571
_publ_section_title
;
Structure prediction by ZEFSAII (Michael W. Deem and Ramdas Pophale) SiO2 
 PCOD8019571
Probable space group: P -1
;
_chemical_formula_sum "Si O2"
_cell_formula_units_Z 16
_cell_length_a 10.115927
_cell_length_b 18.136055
_cell_length_c 7.149473
_cell_angle_alpha 145.002123
_cell_angle_beta 119.470544
_cell_angle_gamma 60.216967
_cell_volume 643.323118
_symmetry_space_group_name_H-M "P -1"
_symmetry_group_IT_number 2
_symmetry_cell_setting 'triclinic'
loop_
_space_group_symop_operation_xyz
x,y,z
-x,-y,-z
loop_
_atom_site_type_symbol
_atom_site_label
_atom_site_fract_x
_atom_site_fract_y
_atom_site_fract_z
Si Si1 0.574863 0.961748 0.272152
Si Si2 0.800937 0.754784 0.185778
Si Si3 0.141204 0.667923 0.618310
Si Si4 0.334326 0.885487 0.668367
Si Si5 0.920451 0.913873 0.906405
Si Si6 0.324289 0.622411 0.271012
Si Si7 0.387142 0.464718 0.499544
Si Si8 0.046896 0.524430 0.791161
O O1 0.604172 0.089124 0.443390
O O2 0.500000 0.000000 0.500000
O O3 0.738653 0.863527 0.211112
O O4 0.462462 0.889312 0.924310
O O5 0.810555 0.829424 0.544491
O O6 0.684036 0.652645 0.885531
O O7 0.973324 0.676338 0.101484
O O8 0.244094 0.672479 0.515684
O O9 0.252392 0.593637 0.706963
O O10 0.008508 0.578126 0.315995
O O11 0.055259 0.815814 0.910876
O O12 0.297664 0.740788 0.349897
O O13 0.182428 0.994841 0.826699
O O14 0.000000 0.000000 0.000000
O O15 0.509774 0.569297 0.311979
O O16 0.233479 0.509598 0.900774
O O17 0.500000 0.500000 0.500000
O O18 0.000000 0.500000 0.500000
#
# Coordination Sequence:
#
# PCOD8019571 Si02
#       8
#     2   2   2   2   2   2   2   2
#     4  11  24  46  70 104 149 191 242 302 369 441
#     4  11  22  43  68  98 143 189 238 303 365 431
#     4  10  22  41  68  98 142 188 235 288 366 424
#     4  11  24  43  73 109 144 193 241 303 372 441
#     4  12  23  41  72 107 147 190 243 301 363 446
#     4  11  20  45  70 101 142 182 249 301 356 440
#     4   9  21  37  69  97 134 190 239 298 355 426
#     4  11  25  43  65 102 141 194 243 299 364 433
#
# _framework density 24.870861999999999
#
# number of rings (size 3 to 8) (size 9 to 14) (size 15 to 20)
#    0.000    1.250    5.000    0.375    5.250    0.000 
#    4.500    3.750    0.000    0.000    0.000    0.000 
#    0.000    0.000    0.000    0.000    0.000    0.000 
#
# Total GULP energy -198291.326866 kJ/mol
# GULP energy per Si atom -12393.207929 kJ/mol
# Density = 2.481425 g / cm^3
# Si number density = 24.870862 Si / 1000 Ang^3
#
#
#
# Elastic Constant Matrix: (Units=GPa)
#
#
# Indices 1 2 3 4 5 6 
#
# 1 99.5601 59.1922 30.2374 1.1117 24.1326 6.1471
# 2 59.1922 159.2943 50.7572 33.1324 5.2077 -20.7235
# 3 30.2374 50.7572 78.1375 1.6077 20.8250 -3.1978
# 4 1.1117 33.1324 1.6077 36.1702 4.5094 3.9590
# 5 24.1326 5.2077 20.8250 4.5094 39.4371 -4.6288
# 6 6.1471 -20.7235 -3.1978 3.9590 -4.6288 48.1776
#
#
#
# Elastic Compliance Matrix: (Units=1/GPa)
#
#
# Indices 1 2 3 4 5 6 
#
# 1 0.020740 -0.012597 0.003645 0.013852 -0.015766 -0.010476
# 2 -0.012597 0.019906 -0.011048 -0.020566 0.014737 0.012543
# 3 0.003645 -0.011048 0.021908 0.011492 -0.014369 -0.006088
# 4 0.013852 -0.020566 0.011492 0.049693 -0.019364 -0.015795
# 5 -0.015766 0.014737 -0.014369 -0.019364 0.044416 0.013256
# 6 -0.010476 0.012543 -0.006088 -0.015795 0.013256 0.029656
#
#
# Mechanical properties :
#
#
# Convention : Reuss Voigt Hill
#
# Bulk Modulus (GPa) = 44.33489 68.59617 56.46553
# Shear Modulus (GPa) = 21.38251 37.87731 29.62991
#
# Velocity S-wave (km/s) = 2.93532 3.90674 3.45534
# Velocity P-wave (km/s) = 5.41783 6.92756 6.21868
#
# Compressibility (1/GPa) = 0.02255560
#
# Stress axis : x y z
#
# Youngs Moduli (GPa) = 48.21567 50.23524 45.64610
#
# Poissons Ratio (x) = 0.63280 -0.16638
# Poissons Ratio (y) = 0.60736 0.50428
# Poissons Ratio (z) = -0.17575 0.55497
#
# Static dielectric constant tensor:
#      x y z
#    x 3.548790 -0.805540 2.594620 
#    y -0.805540 5.628830 0.147420 
#    z 2.594620 0.147420 0.761240 
# 
# 
# High freq. dielectric constant tensor:
#      x y z
#    x 1.989320 -0.009210 0.018280 
#    y -0.009210 2.010120 0.001770 
#    z 0.018280 0.001770 1.971670 
# 
# From -- ./inp_files/283528.got.cif
#   From: 2010.06.25/outbox.cif.g09.slc.cpg/sg2_142_cif.got.tgz:283528.got - 2010.06.27 13:26:56.
