data_PCOD8019885
_publ_section_title
;
Structure prediction by ZEFSAII (Michael W. Deem and Ramdas Pophale) SiO2 
 PCOD8019885
Probable space group: P -1
;
_chemical_formula_sum "Si O2"
_cell_formula_units_Z 16
_cell_length_a 25.917033
_cell_length_b 8.826948
_cell_length_c 6.876079
_cell_angle_alpha 100.938836
_cell_angle_beta 120.213347
_cell_angle_gamma 39.126265
_cell_volume 797.630706
_symmetry_space_group_name_H-M "P -1"
_symmetry_group_IT_number 2
_symmetry_cell_setting 'triclinic'
loop_
_space_group_symop_operation_xyz
x,y,z
-x,-y,-z
loop_
_atom_site_type_symbol
_atom_site_label
_atom_site_fract_x
_atom_site_fract_y
_atom_site_fract_z
Si Si1 0.528813 0.360008 0.321667
Si Si2 0.769718 0.319770 0.549316
Si Si3 0.227885 0.244184 0.879284
Si Si4 0.857409 0.408265 0.550630
Si Si5 0.052214 0.156254 0.998377
Si Si6 0.352002 0.725467 0.794039
Si Si7 0.311649 0.208153 0.396262
Si Si8 0.945817 0.570982 0.216986
O O1 0.500000 0.500000 0.500000
O O2 0.592102 0.355477 0.321282
O O3 0.589406 0.077248 0.403750
O O4 0.430135 0.514264 0.056196
O O5 0.832898 0.275392 0.485976
O O6 0.726354 0.249898 0.374035
O O7 0.681004 0.620029 0.525048
O O8 0.844253 0.143234 0.830073
O O9 0.161459 0.493583 0.679496
O O10 0.160131 0.283824 0.902331
O O11 0.294502 0.998718 0.810125
O O12 0.299698 0.194416 0.142510
O O13 0.784899 0.648430 0.625204
O O14 0.971898 0.200221 0.776273
O O15 0.075521 0.231724 0.896311
O O16 0.015227 0.312082 0.164367
O O17 0.000000 0.500000 0.500000
#
# Coordination Sequence:
#
# PCOD8019885 Si02
#       8
#     2   2   2   2   2   2   2   2
#     4  11  23  44  72  95 121 164 213 265 329 387
#     4  10  24  43  63  94 136 170 207 264 323 370
#     4  12  21  41  66  92 129 173 218 258 319 375
#     4  10  22  42  62  87 140 172 207 255 318 375
#     4  11  22  39  61  92 133 176 217 261 306 370
#     4  11  24  41  69  99 122 159 219 272 310 389
#     4  10  23  43  63  91 130 170 203 262 330 381
#     4  11  22  34  60  95 124 170 224 267 300 359
#
# _framework density 20.059407
#
# number of rings (size 3 to 8) (size 9 to 14) (size 15 to 20)
#    0.750    0.500    5.000    1.125    3.500    0.500 
#    6.750    1.875    0.000    0.000    0.000    0.000 
#    0.000    0.000    0.000    0.000    0.000    0.000 
#
# Total GULP energy -198383.416578 kJ/mol
# GULP energy per Si atom -12398.963536 kJ/mol
# Density = 2.001375 g / cm^3
# Si number density = 20.059407 Si / 1000 Ang^3
#
#
#
# Elastic Constant Matrix: (Units=GPa)
#
#
# Indices 1 2 3 4 5 6 
#
# 1 87.4650 9.2442 34.0348 1.2068 -4.3841 -0.7285
# 2 9.2442 61.9378 23.3697 -15.7491 -10.4344 2.4707
# 3 34.0348 23.3697 124.0143 -15.2929 -6.0920 2.0526
# 4 1.2068 -15.7491 -15.2929 40.6119 -2.6972 -3.3003
# 5 -4.3841 -10.4344 -6.0920 -2.6972 29.6249 5.6384
# 6 -0.7285 2.4707 2.0526 -3.3003 5.6384 22.2197
#
#
#
# Elastic Compliance Matrix: (Units=1/GPa)
#
#
# Indices 1 2 3 4 5 6 
#
# 1 0.013007 -0.001031 -0.003611 -0.002075 0.000549 0.000427
# 2 -0.001031 0.020462 -0.002225 0.007405 0.007841 -0.002993
# 3 -0.003611 -0.002225 0.009909 0.002999 0.001111 -0.000623
# 4 -0.002075 0.007405 0.002999 0.029182 0.005225 0.001840
# 5 0.000549 0.007841 0.001111 0.005225 0.039232 -0.010136
# 6 0.000427 -0.002993 -0.000623 0.001840 -0.010136 0.048255
#
#
# Mechanical properties :
#
#
# Convention : Reuss Voigt Hill
#
# Bulk Modulus (GPa) = 33.73489 45.19050 39.46270
# Shear Modulus (GPa) = 27.22387 32.27586 29.74986
#
# Velocity S-wave (km/s) = 3.68796 4.01560 3.85527
# Velocity P-wave (km/s) = 5.91513 6.63908 6.28753
#
# Compressibility (1/GPa) = 0.02964290
#
# Stress axis : x y z
#
# Youngs Moduli (GPa) = 76.88114 48.87130 100.92128
#
# Poissons Ratio (x) = 0.05038 0.36447
# Poissons Ratio (y) = 0.07925 0.22456
# Poissons Ratio (z) = 0.27765 0.10874
#
# Static dielectric constant tensor:
#      x y z
#    x 3.604440 -0.014520 -0.114800 
#    y -0.014520 3.560200 -0.089200 
#    z -0.114800 -0.089200 3.652400 
# 
# 
# High freq. dielectric constant tensor:
#      x y z
#    x 1.771760 0.002850 -0.011660 
#    y 0.002850 1.777320 -0.008370 
#    z -0.011660 -0.008370 1.792970 
# 
# From -- ./inp_files/84770.got.cif
#   From: 2010.06.25/outbox.cif.g09.slc.cpg/sg2_43_cif.got.tgz:84770.got - 2010.06.27 13:26:56.
