data_PCOD8019548
_publ_section_title
;
Structure prediction by ZEFSAII (Michael W. Deem and Ramdas Pophale) SiO2 
 PCOD8019548
Probable space group: P -1
;
_chemical_formula_sum "Si O2"
_cell_formula_units_Z 16
_cell_length_a 15.780389
_cell_length_b 18.088323
_cell_length_c 12.086148
_cell_angle_alpha 135.237820
_cell_angle_beta 153.767377
_cell_angle_gamma 29.411980
_cell_volume 707.240151
_symmetry_space_group_name_H-M "P -1"
_symmetry_group_IT_number 2
_symmetry_cell_setting 'triclinic'
loop_
_space_group_symop_operation_xyz
x,y,z
-x,-y,-z
loop_
_atom_site_type_symbol
_atom_site_label
_atom_site_fract_x
_atom_site_fract_y
_atom_site_fract_z
Si Si1 0.467625 0.260951 0.268916
Si Si2 0.027822 0.805844 0.144083
Si Si3 0.727418 0.611196 0.488550
Si Si4 0.487509 0.130618 0.643335
Si Si5 0.025776 0.593916 0.011071
Si Si6 0.517201 0.929695 0.061408
Si Si7 0.923697 0.166756 0.011711
Si Si8 0.927147 0.731679 0.517970
O O1 0.773579 0.173402 0.583031
O O2 0.267812 0.445941 0.216945
O O3 0.527134 0.174383 0.133142
O O4 0.285478 0.258564 0.134756
O O5 0.166440 0.643088 0.183479
O O6 0.986535 0.803957 0.962632
O O7 0.722639 0.941896 0.993421
O O8 0.733474 0.707452 0.514813
O O9 0.398930 0.741778 0.288583
O O10 0.819714 0.460474 0.388179
O O11 0.960468 0.538346 0.778496
O O12 0.368733 0.195702 0.697850
O O13 0.500000 0.000000 0.500000
O O14 0.823489 0.030067 0.904751
O O15 0.832250 0.811631 0.368745
O O16 0.500000 0.000000 0.000000
O O17 0.947933 0.226264 0.214408
#
# Coordination Sequence:
#
# PCOD8019548 Si02
#       8
#     2   2   2   2   2   2   2   2
#     4  11  24  45  66 101 135 180 235 286 348 412
#     4  12  24  45  72 101 138 182 236 287 348 421
#     4  12  23  43  70 102 142 182 229 288 350 412
#     4  10  22  41  68  96 133 180 228 278 345 411
#     4  11  23  41  71  97 137 181 228 290 347 410
#     4  12  25  46  73  99 142 186 231 291 348 411
#     4  11  24  43  69 106 139 179 234 288 344 420
#     4  11  24  45  69 100 143 181 232 286 350 415
#
# _framework density 22.623149000000002
#
# number of rings (size 3 to 8) (size 9 to 14) (size 15 to 20)
#    0.000    0.750    5.000    3.375    1.750    0.000 
#    4.500    0.000    0.000    0.000    0.000    0.000 
#    0.000    0.000    0.000    0.000    0.000    0.000 
#
# Total GULP energy -198213.246286 kJ/mol
# GULP energy per Si atom -12388.327893 kJ/mol
# Density = 2.257166 g / cm^3
# Si number density = 22.623149 Si / 1000 Ang^3
#
#
#
# Elastic Constant Matrix: (Units=GPa)
#
#
# Indices 1 2 3 4 5 6 
#
# 1 93.6384 25.4395 24.6946 -3.8676 -21.9387 2.8388
# 2 25.4395 77.1903 16.2661 -7.8783 -7.0852 1.8446
# 3 24.6946 16.2661 83.5308 -1.7716 -8.5090 5.4395
# 4 -3.8676 -7.8783 -1.7716 37.4465 -4.0885 -3.5831
# 5 -21.9387 -7.0852 -8.5090 -4.0885 32.0409 -8.9976
# 6 2.8388 1.8446 5.4395 -3.5831 -8.9976 26.5750
#
#
#
# Elastic Compliance Matrix: (Units=1/GPa)
#
#
# Indices 1 2 3 4 5 6 
#
# 1 0.014518 -0.003175 -0.002841 0.001997 0.009509 0.002740
# 2 -0.003175 0.014761 -0.001792 0.002855 0.001102 0.000439
# 3 -0.002841 -0.001792 0.013355 -0.000179 0.000583 -0.002132
# 4 0.001997 0.002855 -0.000179 0.028876 0.007320 0.005997
# 5 0.009509 0.001102 0.000583 0.007320 0.043087 0.014364
# 6 0.002740 0.000439 -0.002132 0.005997 0.014364 0.043414
#
#
# Mechanical properties :
#
#
# Convention : Reuss Voigt Hill
#
# Bulk Modulus (GPa) = 37.01135 43.01776 40.01455
# Shear Modulus (GPa) = 27.37713 31.74310 29.56011
#
# Velocity S-wave (km/s) = 3.48248 3.74989 3.61866
# Velocity P-wave (km/s) = 5.70663 6.14859 5.93173
#
# Compressibility (1/GPa) = 0.02701874
#
# Stress axis : x y z
#
# Youngs Moduli (GPa) = 68.87774 67.74621 74.87833
#
# Poissons Ratio (x) = 0.21509 0.21276
# Poissons Ratio (y) = 0.21868 0.13415
# Poissons Ratio (z) = 0.19571 0.12137
#
# Static dielectric constant tensor:
#      x y z
#    x 4.310820 -0.073610 0.009080 
#    y -0.073610 4.129610 -0.275990 
#    z 0.009080 -0.275990 3.977590 
# 
# 
# High freq. dielectric constant tensor:
#      x y z
#    x 1.897320 -0.000630 -0.010490 
#    y -0.000630 1.893810 -0.012940 
#    z -0.010490 -0.012940 1.884640 
# 
# From -- ./inp_files/404545.got.cif
#   From: 2010.06.25/outbox.cif.g09.slc.cpg/sg2_203_cif.got.tgz:404545.got - 2010.06.27 13:26:56.
