data_PCOD8019323
_publ_section_title
;
Structure prediction by ZEFSAII (Michael W. Deem and Ramdas Pophale) SiO2 
 PCOD8019323
Probable space group: P -1
;
_chemical_formula_sum "Si O2"
_cell_formula_units_Z 16
_cell_length_a 9.380955
_cell_length_b 18.950612
_cell_length_c 21.873325
_cell_angle_alpha 18.426995
_cell_angle_beta 38.338981
_cell_angle_gamma 39.806875
_cell_volume 756.690469
_symmetry_space_group_name_H-M "P -1"
_symmetry_group_IT_number 2
_symmetry_cell_setting 'triclinic'
loop_
_space_group_symop_operation_xyz
x,y,z
-x,-y,-z
loop_
_atom_site_type_symbol
_atom_site_label
_atom_site_fract_x
_atom_site_fract_y
_atom_site_fract_z
Si Si1 0.726856 0.544702 0.064428
Si Si2 0.356546 0.196830 0.774024
Si Si3 0.847724 0.392789 0.944496
Si Si4 0.458929 0.745867 0.734780
Si Si5 0.662707 0.327073 0.668362
Si Si6 0.961297 0.011077 0.124975
Si Si7 0.517322 0.033383 0.730268
Si Si8 0.327307 0.521958 0.722134
O O1 0.597743 0.363898 0.220328
O O2 0.653198 0.541180 0.162103
O O3 0.000000 0.500000 0.000000
O O4 0.636149 0.791861 0.866330
O O5 0.501230 0.188055 0.795435
O O6 0.283441 0.451749 0.567289
O O7 0.516417 0.056438 0.785285
O O8 0.126209 0.082259 0.957346
O O9 0.684667 0.618517 0.795935
O O10 0.094781 0.463631 0.818000
O O11 0.757327 0.266514 0.137227
O O12 0.862759 0.228637 0.017224
O O13 0.500000 0.000000 0.500000
O O14 0.541501 0.385850 0.725952
O O15 0.906366 0.177603 0.720496
O O16 0.746917 0.909684 0.249965
O O17 0.669476 0.211373 0.503730
#
# Coordination Sequence:
#
# PCOD8019323 Si02
#       8
#     2   2   2   2   2   2   2   2
#     4  12  26  45  67  99 128 171 222 272 335 393
#     4  10  22  41  66  97 135 174 224 262 320 398
#     4  11  25  45  68 101 132 169 223 272 329 397
#     4  11  27  48  70  97 131 173 219 274 336 395
#     4  10  23  41  66 100 131 180 221 259 326 392
#     4  12  23  41  68  95 138 172 215 279 323 383
#     4  11  27  43  64 100 136 173 218 276 330 383
#     4  11  25  44  67  97 136 175 217 271 325 393
#
# _framework density 21.144711000000001
#
# number of rings (size 3 to 8) (size 9 to 14) (size 15 to 20)
#    0.000    1.000    3.750    1.500    5.250    4.500 
#    0.000    0.000    0.000    0.000    0.000    0.000 
#    0.000    0.000    0.000    0.000    0.000    0.000 
#
# Total GULP energy -198516.319825 kJ/mol
# GULP energy per Si atom -12407.269989 kJ/mol
# Density = 2.109659 g / cm^3
# Si number density = 21.144711 Si / 1000 Ang^3
#
#
#
# Elastic Constant Matrix: (Units=GPa)
#
#
# Indices 1 2 3 4 5 6 
#
# 1 86.6834 22.3480 27.4364 -3.4147 1.6844 11.6270
# 2 22.3480 68.1532 37.4406 -11.9066 8.3081 -8.2940
# 3 27.4364 37.4406 98.6625 -12.4045 1.2237 7.1257
# 4 -3.4147 -11.9066 -12.4045 32.7311 5.7480 3.7942
# 5 1.6844 8.3081 1.2237 5.7480 32.0089 -6.5602
# 6 11.6270 -8.2940 7.1257 3.7942 -6.5602 24.2858
#
#
#
# Elastic Compliance Matrix: (Units=1/GPa)
#
#
# Indices 1 2 3 4 5 6 
#
# 1 0.014407 -0.004666 -0.001556 0.000423 -0.001295 -0.008450
# 2 -0.004666 0.022894 -0.007531 0.004489 -0.004071 0.010461
# 3 -0.001556 -0.007531 0.014343 0.003398 -0.000495 -0.006700
# 4 0.000423 0.004489 0.003398 0.036077 -0.009403 -0.007843
# 5 -0.001295 -0.004071 -0.000495 -0.009403 0.036254 0.010637
# 6 -0.008450 0.010461 -0.006700 -0.007843 0.010637 0.054859
#
#
# Mechanical properties :
#
#
# Convention : Reuss Voigt Hill
#
# Bulk Modulus (GPa) = 41.42797 47.54993 44.48895
# Shear Modulus (GPa) = 23.32244 28.89010 26.10627
#
# Velocity S-wave (km/s) = 3.32474 3.70036 3.51757
# Velocity P-wave (km/s) = 5.86290 6.38699 6.13055
#
# Compressibility (1/GPa) = 0.02413828
#
# Stress axis : x y z
#
# Youngs Moduli (GPa) = 69.41079 43.68048 69.71899
#
# Poissons Ratio (x) = 0.20380 0.10850
# Poissons Ratio (y) = 0.32386 0.52504
# Poissons Ratio (z) = 0.10802 0.32895
#
# Static dielectric constant tensor:
#      x y z
#    x 4.402780 0.537840 -0.163650 
#    y 0.537840 4.167110 -0.107610 
#    z -0.163650 -0.107610 3.885450 
# 
# 
# High freq. dielectric constant tensor:
#      x y z
#    x 1.838260 0.006760 -0.002990 
#    y 0.006760 1.832440 -0.002450 
#    z -0.002990 -0.002450 1.838090 
# 
# From -- ./inp_files/307396.got.cif
#   From: 2010.06.25/outbox.cif.g09.slc.cpg/sg2_154_cif.got.tgz:307396.got - 2010.06.27 13:26:56.
