data_PCOD8019454
_publ_section_title
;
Structure prediction by ZEFSAII (Michael W. Deem and Ramdas Pophale) SiO2 
 PCOD8019454
Probable space group: P -1
;
_chemical_formula_sum "Si O2"
_cell_formula_units_Z 16
_cell_length_a 26.628103
_cell_length_b 14.053605
_cell_length_c 7.887492
_cell_angle_alpha 53.240523
_cell_angle_beta 137.427066
_cell_angle_gamma 156.903645
_cell_volume 747.884791
_symmetry_space_group_name_H-M "P -1"
_symmetry_group_IT_number 2
_symmetry_cell_setting 'triclinic'
loop_
_space_group_symop_operation_xyz
x,y,z
-x,-y,-z
loop_
_atom_site_type_symbol
_atom_site_label
_atom_site_fract_x
_atom_site_fract_y
_atom_site_fract_z
Si Si1 0.993469 0.436376 0.867002
Si Si2 0.647948 0.333712 0.892486
Si Si3 0.638714 0.439882 0.416321
Si Si4 0.318767 0.884855 0.711988
Si Si5 0.690422 0.011306 0.080976
Si Si6 0.921840 0.082654 0.181194
Si Si7 0.182673 0.316015 0.750891
Si Si8 0.684050 0.760855 0.207410
O O1 0.840544 0.276241 0.569910
O O2 0.152873 0.692837 0.888814
O O3 0.984669 0.280335 0.012760
O O4 0.000000 0.500000 0.000000
O O5 0.687750 0.414956 0.708046
O O6 0.457552 0.079335 0.709616
O O7 0.716739 0.301157 0.131940
O O8 0.727648 0.535923 0.008347
O O9 0.708428 0.509739 0.330426
O O10 0.721036 0.677392 0.439394
O O11 0.446716 0.170643 0.208936
O O12 0.380705 0.043611 0.860820
O O13 0.733606 0.931085 0.286843
O O14 0.044051 0.217303 0.490255
O O15 0.885290 0.914277 0.157137
O O16 0.765478 0.908875 0.072786
O O17 0.500000 0.500000 0.000000
#
# Coordination Sequence:
#
# PCOD8019454 Si02
#       8
#     2   2   2   2   2   2   2   2
#     4  12  23  40  66  93 131 173 212 262 328 387
#     4  11  24  44  65  94 131 171 217 270 318 381
#     4  10  22  42  70  95 125 176 218 257 329 380
#     4  11  26  42  59  97 134 164 224 267 314 391
#     4  11  22  42  63  95 133 168 213 271 321 379
#     4  10  22  41  67  98 128 172 214 263 327 378
#     4  10  22  45  67  95 135 164 219 272 309 385
#     4   9  20  39  65  97 127 160 214 269 314 383
#
# _framework density 21.39367
#
# number of rings (size 3 to 8) (size 9 to 14) (size 15 to 20)
#    0.000    1.500    2.500    1.875    3.500    2.500 
#    0.000    6.875    0.000    0.000    0.000    0.000 
#    0.000    0.000    0.000    0.000    0.000    0.000 
#
# Total GULP energy -198315.873287 kJ/mol
# GULP energy per Si atom -12394.742080 kJ/mol
# Density = 2.134498 g / cm^3
# Si number density = 21.393670 Si / 1000 Ang^3
#
#
#
# Elastic Constant Matrix: (Units=GPa)
#
#
# Indices 1 2 3 4 5 6 
#
# 1 85.1367 29.0447 28.5477 -5.3179 -1.0185 -15.1894
# 2 29.0447 123.5006 52.3698 -4.1451 6.4939 -14.0070
# 3 28.5477 52.3698 100.1163 -2.7586 -3.6505 -9.4275
# 4 -5.3179 -4.1451 -2.7586 26.0177 0.2736 6.5045
# 5 -1.0185 6.4939 -3.6505 0.2736 34.7730 2.0059
# 6 -15.1894 -14.0070 -9.4275 6.5045 2.0059 35.5719
#
#
#
# Elastic Compliance Matrix: (Units=1/GPa)
#
#
# Indices 1 2 3 4 5 6 
#
# 1 0.014076 -0.001630 -0.002705 0.001224 0.000168 0.004418
# 2 -0.001630 0.011126 -0.005223 0.000315 -0.002815 0.002402
# 3 -0.002705 -0.005223 0.013600 -0.000035 0.002309 0.000269
# 4 0.001224 0.000315 -0.000035 0.040421 0.000045 -0.006756
# 5 0.000168 -0.002815 0.002309 0.000045 0.029652 -0.002105
# 6 0.004418 0.002402 0.000269 -0.006756 -0.002105 0.032370
#
#
# Mechanical properties :
#
#
# Convention : Reuss Voigt Hill
#
# Bulk Modulus (GPa) = 50.79682 58.74200 54.76941
# Shear Modulus (GPa) = 29.95389 32.52527 31.23958
#
# Velocity S-wave (km/s) = 3.74589 3.90336 3.82544
# Velocity P-wave (km/s) = 6.51953 6.91609 6.72073
#
# Compressibility (1/GPa) = 0.01968627
#
# Stress axis : x y z
#
# Youngs Moduli (GPa) = 71.04451 89.87740 73.52720
#
# Poissons Ratio (x) = 0.14649 0.19890
# Poissons Ratio (y) = 0.11579 0.38404
# Poissons Ratio (z) = 0.19219 0.46944
#
# Static dielectric constant tensor:
#      x y z
#    x 4.612080 -0.278480 -0.159100 
#    y -0.278480 4.266990 0.030120 
#    z -0.159100 0.030120 4.061510 
# 
# 
# High freq. dielectric constant tensor:
#      x y z
#    x 1.843890 -0.005390 0.018550 
#    y -0.005390 1.853080 0.007820 
#    z 0.018550 0.007820 1.819200 
# 
# From -- ./inp_files/358855.got.cif
#   From: 2010.06.25/outbox.cif.g09.slc.cpg/sg2_180_cif.got.tgz:358855.got - 2010.06.27 13:26:56.
