data_PCOD8019924
_publ_section_title
;
Structure prediction by ZEFSAII (Michael W. Deem and Ramdas Pophale) SiO2 
 PCOD8019924
Probable space group: P -1
;
_chemical_formula_sum "Si O2"
_cell_formula_units_Z 16
_cell_length_a 12.182269
_cell_length_b 18.636849
_cell_length_c 21.908431
_cell_angle_alpha 18.070766
_cell_angle_beta 31.189378
_cell_angle_gamma 39.037539
_cell_volume 778.091553
_symmetry_space_group_name_H-M "P -1"
_symmetry_group_IT_number 2
_symmetry_cell_setting 'triclinic'
loop_
_space_group_symop_operation_xyz
x,y,z
-x,-y,-z
loop_
_atom_site_type_symbol
_atom_site_label
_atom_site_fract_x
_atom_site_fract_y
_atom_site_fract_z
Si Si1 0.840512 0.487940 0.674575
Si Si2 0.808276 0.468991 0.333436
Si Si3 0.849095 0.207225 0.015394
Si Si4 0.860460 0.136847 0.847110
Si Si5 0.601927 0.896709 0.625089
Si Si6 0.514786 0.808715 0.198768
Si Si7 0.552724 0.357794 0.214390
Si Si8 0.918365 0.795528 0.655379
O O1 0.778792 0.261717 0.842572
O O2 0.639283 0.615287 0.670239
O O3 0.057058 0.671163 0.400607
O O4 0.891563 0.404622 0.783824
O O5 0.627275 0.603218 0.284783
O O6 0.717941 0.314603 0.561652
O O7 0.872319 0.303125 0.384680
O O8 0.025390 0.669032 0.084486
O O9 0.594602 0.118250 0.221928
O O10 0.941605 0.982610 0.131538
O O11 0.658164 0.936843 0.082974
O O12 0.541687 0.684599 0.775574
O O13 0.816950 0.886115 0.569456
O O14 0.652297 0.142254 0.365003
O O15 0.500000 0.000000 0.000000
O O16 0.740456 0.594241 0.936145
O O17 0.000000 0.000000 0.500000
#
# Coordination Sequence:
#
# PCOD8019924 Si02
#       8
#     2   2   2   2   2   2   2   2
#     4  11  21  36  60  90 123 153 197 261 316 366
#     4  10  23  40  62  92 121 160 219 252 302 389
#     4  11  19  39  65  89 119 158 210 265 308 362
#     4  10  23  37  58  94 121 156 207 253 316 373
#     4  11  23  41  68  95 124 168 222 263 314 378
#     4  10  22  42  63  87 121 167 205 255 310 371
#     4  11  23  41  67  93 125 169 217 266 315 380
#     4  12  26  43  63  96 136 172 207 262 329 383
#
# _framework density 20.563133000000001
#
# number of rings (size 3 to 8) (size 9 to 14) (size 15 to 20)
#    0.000    1.250    3.750    2.250    1.750    1.500 
#    2.250    0.000    0.000    0.000    0.000    0.000 
#    0.000    0.000    0.000    0.000    0.000    0.000 
#
# Total GULP energy -198474.093901 kJ/mol
# GULP energy per Si atom -12404.630869 kJ/mol
# Density = 2.051633 g / cm^3
# Si number density = 20.563133 Si / 1000 Ang^3
#
#
#
# Elastic Constant Matrix: (Units=GPa)
#
#
# Indices 1 2 3 4 5 6 
#
# 1 66.3852 34.3535 34.6814 -4.1055 -0.2168 -1.5508
# 2 34.3535 135.5670 21.7157 -6.3643 -10.2843 8.2672
# 3 34.6814 21.7157 81.8129 -9.5519 -0.3837 2.4447
# 4 -4.1055 -6.3643 -9.5519 29.6096 0.9718 -0.7635
# 5 -0.2168 -10.2843 -0.3837 0.9718 34.8723 -8.3261
# 6 -1.5508 8.2672 2.4447 -0.7635 -8.3261 24.5565
#
#
#
# Elastic Compliance Matrix: (Units=1/GPa)
#
#
# Indices 1 2 3 4 5 6 
#
# 1 0.021693 -0.004457 -0.008177 -0.000483 -0.000413 0.003529
# 2 -0.004457 0.008903 -0.000262 0.001081 0.001954 -0.002556
# 3 -0.008177 -0.000262 0.016290 0.004029 -0.000567 -0.002117
# 4 -0.000483 0.001081 0.004029 0.035260 -0.000599 0.000098
# 5 -0.000413 0.001954 -0.000567 -0.000599 0.031670 0.010092
# 6 0.003529 -0.002556 -0.002117 0.000098 0.010092 0.045441
#
#
# Mechanical properties :
#
#
# Convention : Reuss Voigt Hill
#
# Bulk Modulus (GPa) = 47.40589 51.69624 49.55107
# Shear Modulus (GPa) = 26.03103 30.67532 28.35318
#
# Velocity S-wave (km/s) = 3.56182 3.86652 3.71730
# Velocity P-wave (km/s) = 6.32608 6.71775 6.52486
#
# Compressibility (1/GPa) = 0.02109442
#
# Stress axis : x y z
#
# Youngs Moduli (GPa) = 46.09839 112.32637 61.38831
#
# Poissons Ratio (x) = 0.50059 0.50195
# Poissons Ratio (y) = 0.20544 0.01609
# Poissons Ratio (z) = 0.37693 0.02944
#
# Static dielectric constant tensor:
#      x y z
#    x 3.434340 -0.115050 0.085200 
#    y -0.115050 3.912630 -0.091680 
#    z 0.085200 -0.091680 3.694350 
# 
# 
# High freq. dielectric constant tensor:
#      x y z
#    x 1.778250 -0.007080 0.010960 
#    y -0.007080 1.817530 -0.005250 
#    z 0.010960 -0.005250 1.812960 
# 
# From -- ./inp_files/258803.got.cif
#   From: 2010.06.25/outbox.cif.g09.slc.cpg/sg2_130_cif.got.tgz:258803.got - 2010.06.27 13:26:56.
