data_PCOD8019514
_publ_section_title
;
Structure prediction by ZEFSAII (Michael W. Deem and Ramdas Pophale) SiO2 
 PCOD8019514
Probable space group: P -1
;
_chemical_formula_sum "Si O2"
_cell_formula_units_Z 16
_cell_length_a 13.882492
_cell_length_b 12.651575
_cell_length_c 6.566656
_cell_angle_alpha 134.775885
_cell_angle_beta 111.392651
_cell_angle_gamma 85.368788
_cell_volume 734.732250
_symmetry_space_group_name_H-M "P -1"
_symmetry_group_IT_number 2
_symmetry_cell_setting 'triclinic'
loop_
_space_group_symop_operation_xyz
x,y,z
-x,-y,-z
loop_
_atom_site_type_symbol
_atom_site_label
_atom_site_fract_x
_atom_site_fract_y
_atom_site_fract_z
Si Si1 0.346228 0.680534 0.788636
Si Si2 0.960996 0.418110 0.066611
Si Si3 0.554621 0.722035 0.274126
Si Si4 0.738485 0.032118 0.823448
Si Si5 0.108826 0.096198 0.979134
Si Si6 0.885214 0.071255 0.635191
Si Si7 0.559421 0.446021 0.660429
Si Si8 0.160038 0.445679 0.540601
O O1 0.356067 0.629268 0.490480
O O2 0.274325 0.539528 0.670403
O O3 0.457718 0.735875 0.071734
O O4 0.291842 0.819179 0.913775
O O5 0.864709 0.485036 0.168573
O O6 0.065760 0.463924 0.347630
O O7 0.919635 0.233279 0.760676
O O8 0.000000 0.500000 0.000000
O O9 0.518246 0.678684 0.420362
O O10 0.638511 0.886053 0.572134
O O11 0.610194 0.595103 0.046073
O O12 0.774771 0.058166 0.651945
O O13 0.842579 0.017947 0.006808
O O14 0.979648 0.058948 0.849923
O O15 0.135038 0.071874 0.729573
O O16 0.165675 0.270165 0.328687
O O17 0.500000 0.500000 0.500000
#
# Coordination Sequence:
#
# PCOD8019514 Si02
#       8
#     2   2   2   2   2   2   2   2
#     4  11  24  42  68  96 135 167 218 271 320 382
#     4  10  22  41  68  92 132 169 215 264 326 382
#     4  10  24  43  67  98 128 173 215 268 325 384
#     4  12  25  41  68  95 134 171 214 270 324 384
#     4  10  25  40  67  94 133 171 217 263 325 381
#     4  10  23  45  62  98 132 171 215 267 323 388
#     4   9  22  43  68  91 129 165 218 268 318 382
#     4  10  23  41  64  99 127 167 220 266 315 389
#
# _framework density 21.77664
#
# number of rings (size 3 to 8) (size 9 to 14) (size 15 to 20)
#    0.000    1.750    1.250    0.750    8.750    6.500 
#    0.000    0.000    0.000    0.000    0.000    0.000 
#    0.000    0.000    0.000    0.000    0.000    0.000 
#
# Total GULP energy -198375.099697 kJ/mol
# GULP energy per Si atom -12398.443731 kJ/mol
# Density = 2.172708 g / cm^3
# Si number density = 21.776640 Si / 1000 Ang^3
#
#
#
# Elastic Constant Matrix: (Units=GPa)
#
#
# Indices 1 2 3 4 5 6 
#
# 1 115.9841 42.6091 40.4121 6.4475 -39.0435 12.0133
# 2 42.6091 94.3895 18.7284 -1.4327 -13.6461 -1.6542
# 3 40.4121 18.7284 66.4983 6.7994 -23.4023 -1.7505
# 4 6.4475 -1.4327 6.7994 29.4274 -0.1400 -10.4790
# 5 -39.0435 -13.6461 -23.4023 -0.1400 41.8790 2.8027
# 6 12.0133 -1.6542 -1.7505 -10.4790 2.8027 40.2641
#
#
#
# Elastic Compliance Matrix: (Units=1/GPa)
#
#
# Indices 1 2 3 4 5 6 
#
# 1 0.017578 -0.005480 -0.004258 -0.005955 0.012744 -0.008092
# 2 -0.005480 0.013168 -0.001223 0.003212 -0.001697 0.003077
# 3 -0.004258 -0.001223 0.020922 -0.003690 0.007266 0.000664
# 4 -0.005955 0.003212 -0.003690 0.040850 -0.007293 0.012887
# 5 0.012744 -0.001697 0.007266 -0.007293 0.039794 -0.008224
# 6 -0.008092 0.003077 0.000664 0.012887 -0.008224 0.031332
#
#
# Mechanical properties :
#
#
# Convention : Reuss Voigt Hill
#
# Bulk Modulus (GPa) = 33.61758 53.37457 43.49607
# Shear Modulus (GPa) = 25.57791 33.98892 29.78342
#
# Velocity S-wave (km/s) = 3.43090 3.95498 3.70222
# Velocity P-wave (km/s) = 5.58263 6.73936 6.18808
#
# Compressibility (1/GPa) = 0.02974634
#
# Stress axis : x y z
#
# Youngs Moduli (GPa) = 56.88944 75.94092 47.79633
#
# Poissons Ratio (x) = 0.41614 0.20352
# Poissons Ratio (y) = 0.31174 0.05845
# Poissons Ratio (z) = 0.24224 0.09287
#
# Static dielectric constant tensor:
#      x y z
#    x 4.214720 -0.030010 -0.395530 
#    y -0.030010 3.842350 0.010480 
#    z -0.395530 0.010480 4.010450 
# 
# 
# High freq. dielectric constant tensor:
#      x y z
#    x 1.862290 -0.001910 -0.016110 
#    y -0.001910 1.854740 0.003790 
#    z -0.016110 0.003790 1.855120 
# 
# From -- ./inp_files/95672.got.cif
#   From: 2010.06.25/outbox.cif.g09.slc.cpg/sg2_48_cif.got.tgz:95672.got - 2010.06.27 13:26:56.
