data_PCOD8019553
_publ_section_title
;
Structure prediction by ZEFSAII (Michael W. Deem and Ramdas Pophale) SiO2 
 PCOD8019553
Probable space group: P -1
;
_chemical_formula_sum "Si O2"
_cell_formula_units_Z 14
_cell_length_a 7.889125
_cell_length_b 11.673692
_cell_length_c 8.339789
_cell_angle_alpha 78.224019
_cell_angle_beta 88.902192
_cell_angle_gamma 49.244386
_cell_volume 562.777647
_symmetry_space_group_name_H-M "P -1"
_symmetry_group_IT_number 2
_symmetry_cell_setting 'triclinic'
loop_
_space_group_symop_operation_xyz
x,y,z
-x,-y,-z
loop_
_atom_site_type_symbol
_atom_site_label
_atom_site_fract_x
_atom_site_fract_y
_atom_site_fract_z
Si Si1 0.818672 0.250532 0.990611
Si Si2 0.312805 0.217886 0.937641
Si Si3 0.690080 0.369723 0.416269
Si Si4 0.743201 0.088216 0.448225
Si Si5 0.726267 0.984885 0.806393
Si Si6 0.692902 0.529363 0.062041
Si Si7 0.926308 0.836613 0.290889
O O1 0.568634 0.325983 0.024686
O O2 0.890961 0.185262 0.825952
O O3 0.824998 0.392388 0.964517
O O4 0.005733 0.107682 0.147318
O O5 0.194986 0.395064 0.934137
O O6 0.193578 0.213555 0.786464
O O7 0.573499 0.122508 0.902921
O O8 0.305747 0.138736 0.117498
O O9 0.500000 0.500000 0.500000
O O10 0.618290 0.270885 0.389553
O O11 0.699520 0.449638 0.243649
O O12 0.935616 0.267730 0.525447
O O13 0.648595 0.053998 0.609249
O O14 0.000000 0.000000 0.500000
O O15 0.731895 0.016910 0.304547
#
# Coordination Sequence:
#
# PCOD8019553 Si02
#       7
#     2   2   2   2   2   2   2
#     4  10  22  42  66  97 124 173 228 263 319 382
#     4  10  24  44  65  96 135 171 212 271 325 395
#     4  11  21  41  65  99 131 167 216 274 316 384
#     4  10  22  41  68  97 127 169 220 276 313 379
#     4  10  22  45  64  97 127 172 215 267 324 378
#     4  11  23  43  65  99 131 171 216 269 332 379
#     4  10  22  42  64  98 128 173 217 260 336 376
#
# _framework density 24.876608999999998
#
# number of rings (size 3 to 8) (size 9 to 14) (size 15 to 20)
#    0.000    1.714    1.429    2.571    2.000    4.000 
#   25.714    2.857    0.000    0.000    0.000    0.000 
#    0.000    0.000    0.000    0.000    0.000    0.000 
#
# Total GULP energy -173499.546408 kJ/mol
# GULP energy per Si atom -12392.824743 kJ/mol
# Density = 2.481999 g / cm^3
# Si number density = 24.876609 Si / 1000 Ang^3
#
#
#
# Elastic Constant Matrix: (Units=GPa)
#
#
# Indices 1 2 3 4 5 6 
#
# 1 38.3294 16.4872 3.5726 -6.2255 8.4652 17.5491
# 2 16.4872 155.5564 37.7356 13.1914 -2.8604 32.0260
# 3 3.5726 37.7356 100.1664 1.6471 -22.7779 22.2919
# 4 -6.2255 13.1914 1.6471 38.7931 -0.4013 0.5319
# 5 8.4652 -2.8604 -22.7779 -0.4013 35.8811 -2.9685
# 6 17.5491 32.0260 22.2919 0.5319 -2.9685 52.9358
#
#
#
# Elastic Compliance Matrix: (Units=1/GPa)
#
#
# Indices 1 2 3 4 5 6 
#
# 1 0.035129 -0.002143 -0.000297 0.006429 -0.009470 -0.010820
# 2 -0.002143 0.008133 -0.002370 -0.002972 -0.000650 -0.003219
# 3 -0.000297 -0.002370 0.013575 0.000318 0.008194 -0.003728
# 4 0.006429 -0.002972 0.000318 0.027804 -0.001309 -0.000820
# 5 -0.009470 -0.000650 0.008194 -0.001309 0.035411 0.002081
# 6 -0.010820 -0.003219 -0.003728 -0.000820 0.002081 0.026120
#
#
# Mechanical properties :
#
#
# Convention : Reuss Voigt Hill
#
# Bulk Modulus (GPa) = 21.17911 45.51587 33.34749
# Shear Modulus (GPa) = 29.14923 41.27245 35.21084
#
# Velocity S-wave (km/s) = 3.42680 4.07761 3.76629
# Velocity P-wave (km/s) = 4.91827 6.36440 5.68749
#
# Compressibility (1/GPa) = 0.04721634
#
# Stress axis : x y z
#
# Youngs Moduli (GPa) = 28.46667 122.95034 73.66728
#
# Poissons Ratio (x) = 0.26348 0.02187
# Poissons Ratio (y) = 0.06100 0.17462
# Poissons Ratio (z) = 0.00845 0.29144
#
# Static dielectric constant tensor:
#      x y z
#    x 4.173760 0.274320 0.455900 
#    y 0.274320 5.489580 -0.025940 
#    z 0.455900 -0.025940 3.562360 
# 
# 
# High freq. dielectric constant tensor:
#      x y z
#    x 1.966150 -0.000710 -0.002530 
#    y -0.000710 2.014060 0.011830 
#    z -0.002530 0.011830 1.982310 
# 
# From -- ./inp_files/176238.got.cif
#   From: 2010.06.25/outbox.cif.g09.slc.cpg/sg2_89_cif.got.tgz:176238.got - 2010.06.27 13:26:56.
