data_PCOD8019901
_publ_section_title
;
Structure prediction by ZEFSAII (Michael W. Deem and Ramdas Pophale) SiO2 
 PCOD8019901
Probable space group: P -1
;
_chemical_formula_sum "Si O2"
_cell_formula_units_Z 14
_cell_length_a 13.113190
_cell_length_b 6.600522
_cell_length_c 14.605304
_cell_angle_alpha 61.137459
_cell_angle_beta 47.211522
_cell_angle_gamma 38.777274
_cell_volume 577.995100
_symmetry_space_group_name_H-M "P -1"
_symmetry_group_IT_number 2
_symmetry_cell_setting 'triclinic'
loop_
_space_group_symop_operation_xyz
x,y,z
-x,-y,-z
loop_
_atom_site_type_symbol
_atom_site_label
_atom_site_fract_x
_atom_site_fract_y
_atom_site_fract_z
Si Si1 0.670384 0.087020 0.295595
Si Si2 0.474047 0.324079 0.871222
Si Si3 0.267844 0.222312 0.301699
Si Si4 0.076304 0.791676 0.089147
Si Si5 0.944262 0.284128 0.412480
Si Si6 0.393394 0.030259 0.459830
Si Si7 0.177515 0.853276 0.203403
O O1 0.586084 0.389124 0.218729
O O2 0.599492 0.919060 0.337547
O O3 0.600588 0.189972 0.423305
O O4 0.908850 0.802628 0.215385
O O5 0.633809 0.210241 0.874462
O O6 0.550927 0.034754 0.820471
O O7 0.287551 0.432711 0.014749
O O8 0.300974 0.056934 0.415242
O O9 0.237839 0.526921 0.269930
O O10 0.074830 0.348565 0.347781
O O11 0.116482 0.927769 0.117282
O O12 0.000000 0.000000 0.000000
O O13 0.724528 0.622941 0.491123
O O14 0.000000 0.000000 0.500000
O O15 0.988908 0.164817 0.305980
#
# Coordination Sequence:
#
# PCOD8019901 Si02
#       7
#     2   2   2   2   2   2   2
#     4  10  22  42  62  92 135 170 213 261 319 381
#     4  10  22  44  66  97 125 170 224 261 316 386
#     4  11  22  38  68  98 129 169 213 266 326 375
#     4  10  23  44  66  92 129 172 217 268 320 377
#     4  11  22  37  63 101 131 166 216 260 321 393
#     4  11  21  40  64  95 138 169 210 265 320 390
#     4  11  22  42  69  94 129 167 216 269 322 373
#
# _framework density 24.221655999999999
#
# number of rings (size 3 to 8) (size 9 to 14) (size 15 to 20)
#    0.000    1.429    2.857    2.571    2.000    1.143 
#   10.286    2.143    0.000    0.000    0.000    0.000 
#    0.000    0.000    0.000    0.000    0.000    0.000 
#
# Total GULP energy -173472.692233 kJ/mol
# GULP energy per Si atom -12390.906588 kJ/mol
# Density = 2.416653 g / cm^3
# Si number density = 24.221656 Si / 1000 Ang^3
#
#
#
# Elastic Constant Matrix: (Units=GPa)
#
#
# Indices 1 2 3 4 5 6 
#
# 1 126.0116 32.6422 67.9070 16.6590 30.7044 -10.0700
# 2 32.6422 44.0979 21.1723 13.2247 -2.3351 3.1436
# 3 67.9070 21.1723 118.5719 20.1431 -4.4461 -3.6788
# 4 16.6590 13.2247 20.1431 37.9499 -8.3714 11.2474
# 5 30.7044 -2.3351 -4.4461 -8.3714 56.9950 -2.2465
# 6 -10.0700 3.1436 -3.6788 11.2474 -2.2465 29.2264
#
#
#
# Elastic Compliance Matrix: (Units=1/GPa)
#
#
# Indices 1 2 3 4 5 6 
#
# 1 0.019410 -0.009761 -0.008645 -0.005509 -0.012031 0.007845
# 2 -0.009761 0.031492 0.000814 -0.004526 0.005771 -0.004463
# 3 -0.008645 0.000814 0.013909 -0.002728 0.005381 0.000148
# 4 -0.005509 -0.004526 -0.002728 0.038160 0.007549 -0.015860
# 5 -0.012031 0.005771 0.005381 0.007549 0.025593 -0.005027
# 6 0.007845 -0.004463 0.000148 -0.015860 -0.005027 0.043134
#
#
# Mechanical properties :
#
#
# Convention : Reuss Voigt Hill
#
# Bulk Modulus (GPa) = 33.75319 59.12491 46.43905
# Shear Modulus (GPa) = 23.06711 35.96492 29.51602
#
# Velocity S-wave (km/s) = 3.08934 3.85752 3.49460
# Velocity P-wave (km/s) = 5.16631 6.65609 5.95795
#
# Compressibility (1/GPa) = 0.02962683
#
# Stress axis : x y z
#
# Youngs Moduli (GPa) = 51.52106 31.75374 71.89437
#
# Poissons Ratio (x) = 0.30994 0.62152
# Poissons Ratio (y) = 0.50289 -0.05849
# Poissons Ratio (z) = 0.44539 -0.02584
#
# Static dielectric constant tensor:
#      x y z
#    x 5.856610 -0.586260 -0.982240 
#    y -0.586260 4.286860 0.552090 
#    z -0.982240 0.552090 5.583750 
# 
# 
# High freq. dielectric constant tensor:
#      x y z
#    x 1.971850 -0.023130 0.005520 
#    y -0.023130 1.939440 0.003270 
#    z 0.005520 0.003270 1.975450 
# 
# From -- ./inp_files/510798.got.cif
#   From: 2010.06.25/outbox.cif.g09.slc.cpg/sg2_256_cif.got.tgz:510798.got - 2010.06.27 13:26:56.
