data_PCOD8019311
_publ_section_title
;
Structure prediction by ZEFSAII (Michael W. Deem and Ramdas Pophale) SiO2 
 PCOD8019311
Probable space group: P -1
;
_chemical_formula_sum "Si O2"
_cell_formula_units_Z 16
_cell_length_a 9.824157
_cell_length_b 14.581879
_cell_length_c 8.726911
_cell_angle_alpha 139.064808
_cell_angle_beta 103.462938
_cell_angle_gamma 63.482187
_cell_volume 721.211866
_symmetry_space_group_name_H-M "P -1"
_symmetry_group_IT_number 2
_symmetry_cell_setting 'triclinic'
loop_
_space_group_symop_operation_xyz
x,y,z
-x,-y,-z
loop_
_atom_site_type_symbol
_atom_site_label
_atom_site_fract_x
_atom_site_fract_y
_atom_site_fract_z
Si Si1 0.801353 0.255557 0.444844
Si Si2 0.947709 0.947880 0.269479
Si Si3 0.550596 0.016877 0.704896
Si Si4 0.983068 0.449434 0.761409
Si Si5 0.238057 0.238040 0.043606
Si Si6 0.255406 0.801536 0.990675
Si Si7 0.288162 0.288168 0.450932
Si Si8 0.522535 0.522390 0.356601
O O1 0.943952 0.301051 0.562864
O O2 0.767085 0.232786 0.232857
O O3 0.647258 0.387309 0.648652
O O4 0.836799 0.095049 0.331324
O O5 0.851980 0.852008 0.170817
O O6 0.000000 0.000000 0.500000
O O7 0.094704 0.837212 0.073076
O O8 0.596478 0.855238 0.599483
O O9 0.500000 0.000000 0.500000
O O10 0.415303 0.157978 0.934710
O O11 0.699001 0.055949 0.794125
O O12 0.841992 0.584736 0.808035
O O13 0.144707 0.403547 0.659270
O O14 0.000000 0.500000 0.000000
O O15 0.227408 0.227411 0.211401
O O16 0.386960 0.647420 0.908663
O O17 0.379595 0.379593 0.520563
O O18 0.500000 0.500000 0.500000
#
# Coordination Sequence:
#
# PCOD8019311 Si02
#       8
#     2   2   2   2   2   2   2   2
#     4  11  22  42  65  90 124 168 211 259 316 384
#     4  12  24  39  59  91 126 163 209 263 315 371
#     4  12  25  43  65  97 134 171 214 272 331 386
#     4  12  25  43  65  97 134 171 214 272 331 386
#     4  12  23  41  65  93 126 170 221 268 315 389
#     4  11  22  42  65  90 124 168 211 259 316 384
#     4  12  24  43  69  98 128 175 223 267 325 394
#     4  10  22  41  66  96 125 160 215 272 317 376
#
# _framework density 22.184881000000001
#
# number of rings (size 3 to 8) (size 9 to 14) (size 15 to 20)
#    0.000    0.500    0.000   10.875    0.000    0.000 
#    0.000    1.875    0.000    0.000    0.000    0.000 
#    0.000    0.000    0.000    0.000    0.000    0.000 
#
# Total GULP energy -198493.039912 kJ/mol
# GULP energy per Si atom -12405.814994 kJ/mol
# Density = 2.213439 g / cm^3
# Si number density = 22.184881 Si / 1000 Ang^3
#
#
#
# Elastic Constant Matrix: (Units=GPa)
#
#
# Indices 1 2 3 4 5 6 
#
# 1 100.9427 24.8346 15.4225 8.4644 2.1149 -1.5750
# 2 24.8346 87.8993 51.7179 8.4958 -29.3219 -8.9175
# 3 15.4225 51.7179 87.6944 -12.3066 5.3608 -6.5494
# 4 8.4644 8.4958 -12.3066 49.3408 -8.9659 2.5382
# 5 2.1149 -29.3219 5.3608 -8.9659 52.1802 18.7489
# 6 -1.5750 -8.9175 -6.5494 2.5382 18.7489 30.8731
#
#
#
# Elastic Compliance Matrix: (Units=1/GPa)
#
#
# Indices 1 2 3 4 5 6 
#
# 1 0.011215 -0.004910 0.001118 -0.001717 -0.004420 0.002217
# 2 -0.004910 0.032354 -0.021017 -0.005386 0.022754 -0.008739
# 3 0.001118 -0.021017 0.026216 0.006451 -0.016740 0.009183
# 4 -0.001717 -0.005386 0.006451 0.023544 0.001560 -0.003158
# 5 -0.004420 0.022754 -0.016740 0.001560 0.042414 -0.023090
# 6 0.002217 -0.008739 0.009183 -0.003158 -0.023090 0.046210
#
#
# Mechanical properties :
#
#
# Convention : Reuss Voigt Hill
#
# Bulk Modulus (GPa) = 49.58525 51.16517 50.37521
# Shear Modulus (GPa) = 20.98258 38.78292 29.88275
#
# Velocity S-wave (km/s) = 3.07873 4.18565 3.67411
# Velocity P-wave (km/s) = 5.91925 6.81709 6.38397
#
# Compressibility (1/GPa) = 0.02016729
#
# Stress axis : x y z
#
# Youngs Moduli (GPa) = 89.16662 30.90800 38.14495
#
# Poissons Ratio (x) = 0.15177 -0.04266
# Poissons Ratio (y) = 0.43784 0.80169
# Poissons Ratio (z) = -0.09972 0.64959
#
# Static dielectric constant tensor:
#      x y z
#    x 3.957490 -0.135430 -0.067610 
#    y -0.135430 3.944160 0.149810 
#    z -0.067610 0.149810 3.939050 
# 
# 
# High freq. dielectric constant tensor:
#      x y z
#    x 1.888300 -0.005040 -0.002830 
#    y -0.005040 1.880760 0.014190 
#    z -0.002830 0.014190 1.877190 
# 
# From -- ./inp_files/208382.got.cif
#   From: 2010.06.25/outbox.cif.g09.slc.cpg/sg2_105_cif.got.tgz:208382.got - 2010.06.27 13:26:56.
