data_PCOD8019803
_publ_section_title
;
Structure prediction by ZEFSAII (Michael W. Deem and Ramdas Pophale) SiO2 
 PCOD8019803
Probable space group: P -1
;
_chemical_formula_sum "Si O2"
_cell_formula_units_Z 14
_cell_length_a 11.031897
_cell_length_b 11.765075
_cell_length_c 5.604502
_cell_angle_alpha 64.531870
_cell_angle_beta 100.640037
_cell_angle_gamma 72.936927
_cell_volume 585.697284
_symmetry_space_group_name_H-M "P -1"
_symmetry_group_IT_number 2
_symmetry_cell_setting 'triclinic'
loop_
_space_group_symop_operation_xyz
x,y,z
-x,-y,-z
loop_
_atom_site_type_symbol
_atom_site_label
_atom_site_fract_x
_atom_site_fract_y
_atom_site_fract_z
Si Si1 0.345243 0.617245 0.358949
Si Si2 0.640306 0.665094 0.504936
Si Si3 0.093834 0.702451 0.454588
Si Si4 0.414710 0.935058 0.385329
Si Si5 0.199493 0.203713 0.857254
Si Si6 0.317846 0.739370 0.735188
Si Si7 0.864446 0.563610 0.041761
O O1 0.409216 0.446678 0.531740
O O2 0.179154 0.688614 0.252549
O O3 0.398753 0.652632 0.602562
O O4 0.380402 0.674824 0.072571
O O5 0.512133 0.808543 0.373647
O O6 0.744117 0.701994 0.352835
O O7 0.724752 0.585908 0.838535
O O8 0.161285 0.758583 0.639248
O O9 0.117092 0.543739 0.643400
O O10 0.934390 0.803517 0.298271
O O11 0.331801 0.885010 0.589885
O O12 0.500000 0.000000 0.500000
O O13 0.309831 0.047556 0.068352
O O14 0.152536 0.284790 0.016836
O O15 0.000000 0.500000 0.000000
#
# Coordination Sequence:
#
# PCOD8019803 Si02
#       7
#     2   2   2   2   2   2   2
#     4  10  22  45  75 113 138 185 240 317 366 411
#     4  12  23  43  73 103 148 188 241 297 358 439
#     4  10  22  41  73 112 139 178 241 310 370 408
#     4  12  29  50  68 100 146 206 243 285 362 451
#     4  12  24  42  70 106 147 190 236 293 363 444
#     4  10  25  47  74 108 144 187 250 301 368 429
#     4  12  21  39  73 110 142 183 239 310 366 412
#
# _framework density 23.903131999999999
#
# number of rings (size 3 to 8) (size 9 to 14) (size 15 to 20)
#    0.857    0.000    5.714    1.714    0.000    4.000 
#    0.000    0.714    0.000    0.000    0.000    0.000 
#    0.000    0.000    0.000    0.000    0.000    0.000 
#
# Total GULP energy -173474.379432 kJ/mol
# GULP energy per Si atom -12391.027102 kJ/mol
# Density = 2.384873 g / cm^3
# Si number density = 23.903132 Si / 1000 Ang^3
#
#
#
# Elastic Constant Matrix: (Units=GPa)
#
#
# Indices 1 2 3 4 5 6 
#
# 1 80.0416 48.0480 52.0828 -12.3069 3.6220 16.0950
# 2 48.0480 91.6122 38.8663 -4.2651 4.0202 2.5647
# 3 52.0828 38.8663 130.6937 -0.1912 6.1755 -3.6149
# 4 -12.3069 -4.2651 -0.1912 38.8431 -8.3216 -0.1737
# 5 3.6220 4.0202 6.1755 -8.3216 48.7128 -6.7109
# 6 16.0950 2.5647 -3.6149 -0.1737 -6.7109 39.7387
#
#
#
# Elastic Compliance Matrix: (Units=1/GPa)
#
#
# Indices 1 2 3 4 5 6 
#
# 1 0.027297 -0.010196 -0.008124 0.007344 -0.000444 -0.011180
# 2 -0.010196 0.016436 -0.000729 -0.001493 -0.000356 0.002936
# 3 -0.008124 -0.000729 0.011249 -0.002717 -0.000642 0.004240
# 4 0.007344 -0.001493 -0.002717 0.028858 0.004544 -0.002232
# 5 -0.000444 -0.000356 -0.000642 0.004544 0.021983 0.003877
# 6 -0.011180 0.002936 0.004240 -0.002232 0.003877 0.030534
#
#
# Mechanical properties :
#
#
# Convention : Reuss Voigt Hill
#
# Bulk Modulus (GPa) = 59.22067 64.48241 61.85154
# Shear Modulus (GPa) = 27.76508 36.34894 32.05701
#
# Velocity S-wave (km/s) = 3.41187 3.90382 3.66611
# Velocity P-wave (km/s) = 6.35218 6.88148 6.62212
#
# Compressibility (1/GPa) = 0.01688600
#
# Stress axis : x y z
#
# Youngs Moduli (GPa) = 36.63353 60.84125 88.89480
#
# Poissons Ratio (x) = 0.62033 0.72215
# Poissons Ratio (y) = 0.37351 0.06479
# Poissons Ratio (z) = 0.29760 0.04434
#
# Static dielectric constant tensor:
#      x y z
#    x 5.115070 0.255680 -0.211700 
#    y 0.255680 4.255620 -0.058470 
#    z -0.211700 -0.058470 4.173260 
# 
# 
# High freq. dielectric constant tensor:
#      x y z
#    x 1.977520 0.005950 -0.000690 
#    y 0.005950 1.932520 0.002790 
#    z -0.000690 0.002790 1.935510 
# 
# From -- ./inp_files/68617.got.cif
#   From: 2010.06.25/outbox.cif.g09.slc.cpg/sg2_35_cif.got.tgz:68617.got - 2010.06.27 13:26:56.
