data_PCOD8019525
_publ_section_title
;
Structure prediction by ZEFSAII (Michael W. Deem and Ramdas Pophale) SiO2 
 PCOD8019525
Probable space group: P -1
;
_chemical_formula_sum "Si O2"
_cell_formula_units_Z 16
_cell_length_a 14.356736
_cell_length_b 5.147192
_cell_length_c 10.578099
_cell_angle_alpha 72.262886
_cell_angle_beta 90.255013
_cell_angle_gamma 97.778307
_cell_volume 737.119592
_symmetry_space_group_name_H-M "P -1"
_symmetry_group_IT_number 2
_symmetry_cell_setting 'triclinic'
loop_
_space_group_symop_operation_xyz
x,y,z
-x,-y,-z
loop_
_atom_site_type_symbol
_atom_site_label
_atom_site_fract_x
_atom_site_fract_y
_atom_site_fract_z
Si Si1 0.439537 0.709296 0.528962
Si Si2 0.269210 0.421217 0.020685
Si Si3 0.176387 0.483271 0.750085
Si Si4 0.727976 0.057257 0.493581
Si Si5 0.389464 0.973260 0.977820
Si Si6 0.857535 0.851104 0.719349
Si Si7 0.662673 0.774566 0.296245
Si Si8 0.023474 0.566268 0.343679
O O1 0.500000 0.500000 0.500000
O O2 0.341530 0.769671 0.451208
O O3 0.396563 0.535308 0.678713
O O4 0.500000 0.000000 0.500000
O O5 0.335022 0.670901 0.054331
O O6 0.188863 0.290438 0.135035
O O7 0.338155 0.202459 0.014205
O O8 0.212087 0.536473 0.886688
O O9 0.197443 0.751780 0.621217
O O10 0.228406 0.234022 0.736399
O O11 0.065718 0.385122 0.749476
O O12 0.777101 0.863975 0.613264
O O13 0.656891 0.865227 0.428400
O O14 0.500000 0.000000 0.000000
O O15 0.382469 0.011405 0.821548
O O16 0.934075 0.684720 0.683119
O O17 0.903016 0.158831 0.708416
O O18 0.000000 0.500000 0.500000
#
# Coordination Sequence:
#
# PCOD8019525 Si02
#       8
#     2   2   2   2   2   2   2   2
#     4  11  23  38  58  93 130 166 213 274 328 389
#     4  11  25  47  65 101 137 176 217 278 340 389
#     4  10  23  41  71  91 131 177 223 270 325 396
#     4  11  22  42  67  93 132 174 220 271 332 398
#     4  11  24  44  72  95 131 180 230 269 320 406
#     4  12  28  42  69 102 140 171 218 282 350 377
#     4  10  22  41  68  94 125 175 230 265 331 399
#     4  12  25  44  70 103 131 174 231 274 324 415
#
# _framework density 21.706109000000001
#
# number of rings (size 3 to 8) (size 9 to 14) (size 15 to 20)
#    0.000    1.000    3.750    2.250    3.500    3.000 
#    0.000    0.000    0.000    0.000    0.000    0.000 
#    0.000    0.000    0.000    0.000    0.000    0.000 
#
# Total GULP energy -198224.761823 kJ/mol
# GULP energy per Si atom -12389.047614 kJ/mol
# Density = 2.165670 g / cm^3
# Si number density = 21.706109 Si / 1000 Ang^3
#
#
#
# Elastic Constant Matrix: (Units=GPa)
#
#
# Indices 1 2 3 4 5 6 
#
# 1 142.2008 36.2971 57.0480 0.4128 12.8480 -8.2237
# 2 36.2971 102.9281 20.1381 -11.5785 3.9939 5.4558
# 3 57.0480 20.1381 87.2856 -0.4374 11.1869 0.0610
# 4 0.4128 -11.5785 -0.4374 30.1330 4.0263 -5.9842
# 5 12.8480 3.9939 11.1869 4.0263 33.1898 -5.5479
# 6 -8.2237 5.4558 0.0610 -5.9842 -5.5479 45.3224
#
#
#
# Elastic Compliance Matrix: (Units=1/GPa)
#
#
# Indices 1 2 3 4 5 6 
#
# 1 0.010329 -0.002600 -0.005995 -0.000672 -0.001257 0.001953
# 2 -0.002600 0.011369 -0.000794 0.004230 -0.000838 -0.001383
# 3 -0.005995 -0.000794 0.015972 0.000164 -0.003219 -0.001386
# 4 -0.000672 0.004230 0.000164 0.036089 -0.004075 0.003635
# 5 -0.001257 -0.000838 -0.003219 -0.004075 0.032858 0.003361
# 6 0.001953 -0.001383 -0.001386 0.003635 0.003361 0.023478
#
#
# Mechanical properties :
#
#
# Convention : Reuss Voigt Hill
#
# Bulk Modulus (GPa) = 52.92917 62.15344 57.54131
# Shear Modulus (GPa) = 32.22205 36.32447 34.27326
#
# Velocity S-wave (km/s) = 3.85706 4.09524 3.97793
# Velocity P-wave (km/s) = 6.65382 7.14546 6.90402
#
# Compressibility (1/GPa) = 0.01889317
#
# Stress axis : x y z
#
# Youngs Moduli (GPa) = 96.81048 87.95467 62.60830
#
# Poissons Ratio (x) = 0.22868 0.37533
# Poissons Ratio (y) = 0.25171 0.04972
# Poissons Ratio (z) = 0.58036 0.06985
#
# Static dielectric constant tensor:
#      x y z
#    x 3.778010 -0.669220 0.361480 
#    y -0.669220 3.174160 0.369870 
#    z 0.361480 0.369870 3.472310 
# 
# 
# High freq. dielectric constant tensor:
#      x y z
#    x 1.872630 -0.004270 -0.001120 
#    y -0.004270 1.862370 -0.019800 
#    z -0.001120 -0.019800 1.834660 
# 
# From -- ./inp_files/409902.got.cif
#   From: 2010.06.25/outbox.cif.g09.slc.cpg/sg2_205_cif.got.tgz:409902.got - 2010.06.27 13:26:56.
