data_PCOD8019060
_publ_section_title
;
Structure prediction by ZEFSAII (Michael W. Deem and Ramdas Pophale) SiO2 
 PCOD8019060
Probable space group: P -1
;
_chemical_formula_sum "Si O2"
_cell_formula_units_Z 16
_cell_length_a 8.121978
_cell_length_b 13.372537
_cell_length_c 12.135149
_cell_angle_alpha 66.578100
_cell_angle_beta 101.455355
_cell_angle_gamma 141.664721
_cell_volume 735.169789
_symmetry_space_group_name_H-M "P -1"
_symmetry_group_IT_number 2
_symmetry_cell_setting 'triclinic'
loop_
_space_group_symop_operation_xyz
x,y,z
-x,-y,-z
loop_
_atom_site_type_symbol
_atom_site_label
_atom_site_fract_x
_atom_site_fract_y
_atom_site_fract_z
Si Si1 0.477960 0.526173 0.109982
Si Si2 0.635493 0.952313 0.545600
Si Si3 0.401279 0.012512 0.236597
Si Si4 0.695973 0.379351 0.496503
Si Si5 0.937336 0.146948 0.294240
Si Si6 0.166370 0.333570 0.709307
Si Si7 0.704338 0.844585 0.267654
Si Si8 0.320587 0.139564 0.980614
O O1 0.732391 0.609446 0.176041
O O2 0.492540 0.663347 0.049045
O O3 0.205862 0.350888 0.214175
O O4 0.500000 0.500000 0.000000
O O5 0.675228 0.951936 0.681476
O O6 0.441153 0.759515 0.558297
O O7 0.500000 0.000000 0.500000
O O8 0.910841 0.100791 0.441672
O O9 0.676750 0.085829 0.252479
O O10 0.413754 0.093502 0.095283
O O11 0.153711 0.801485 0.278809
O O12 0.670874 0.494443 0.414232
O O13 0.556742 0.288057 0.633428
O O14 0.000000 0.500000 0.500000
O O15 0.941758 0.036338 0.273873
O O16 0.201734 0.230304 0.710930
O O17 0.615124 0.860533 0.136670
O O18 0.000000 0.000000 0.000000
#
# Coordination Sequence:
#
# PCOD8019060 Si02
#       8
#     2   2   2   2   2   2   2   2
#     4  11  25  42  64  94 135 170 220 272 317 396
#     4   9  21  40  64  93 134 166 205 272 324 376
#     4  11  23  43  69  97 129 178 215 265 334 384
#     4  11  23  42  66 102 132 169 223 272 318 383
#     4  10  23  43  66  99 130 169 221 273 322 379
#     4  11  24  41  69  95 129 179 215 263 334 385
#     4  10  22  41  64  92 134 171 212 266 325 389
#     4  11  22  43  65  94 132 175 215 265 330 390
#
# _framework density 21.763679
#
# number of rings (size 3 to 8) (size 9 to 14) (size 15 to 20)
#    0.000    1.500    2.500    3.375    1.750    8.000 
#    2.250    2.500    0.000    0.000    0.000    0.000 
#    0.000    0.000    0.000    0.000    0.000    0.000 
#
# Total GULP energy -198311.635247 kJ/mol
# GULP energy per Si atom -12394.477203 kJ/mol
# Density = 2.171414 g / cm^3
# Si number density = 21.763679 Si / 1000 Ang^3
#
#
#
# Elastic Constant Matrix: (Units=GPa)
#
#
# Indices 1 2 3 4 5 6 
#
# 1 59.0344 31.2597 29.1297 0.1612 1.6519 -11.1031
# 2 31.2597 130.6096 46.4984 -15.4315 -14.0430 -8.1212
# 3 29.1297 46.4984 130.7734 4.6167 -2.7657 -17.9345
# 4 0.1612 -15.4315 4.6167 44.4056 -7.4278 3.0421
# 5 1.6519 -14.0430 -2.7657 -7.4278 31.4705 -0.6259
# 6 -11.1031 -8.1212 -17.9345 3.0421 -0.6259 40.2133
#
#
#
# Elastic Compliance Matrix: (Units=1/GPa)
#
#
# Indices 1 2 3 4 5 6 
#
# 1 0.021567 -0.004697 -0.002589 -0.002372 -0.003936 0.003970
# 2 -0.004697 0.011111 -0.003059 0.005277 0.006167 -0.000720
# 3 -0.002589 -0.003059 0.009820 -0.002442 -0.000879 0.003218
# 4 -0.002372 0.005277 -0.002442 0.026194 0.008397 -0.002529
# 5 -0.003936 0.006167 -0.000879 0.008397 0.036633 -0.000298
# 6 0.003970 -0.000720 0.003218 -0.002529 -0.000298 0.027440
#
#
# Mechanical properties :
#
#
# Convention : Reuss Voigt Hill
#
# Bulk Modulus (GPa) = 45.85371 59.35476 52.60424
# Shear Modulus (GPa) = 31.10896 37.45321 34.28108
#
# Velocity S-wave (km/s) = 3.78484 4.15288 3.97312
# Velocity P-wave (km/s) = 6.34150 7.09414 6.72835
#
# Compressibility (1/GPa) = 0.02180849
#
# Stress axis : x y z
#
# Youngs Moduli (GPa) = 46.36711 89.99732 101.82968
#
# Poissons Ratio (x) = 0.42268 0.26366
# Poissons Ratio (y) = 0.21777 0.31153
# Poissons Ratio (z) = 0.12005 0.27533
#
# Static dielectric constant tensor:
#      x y z
#    x 3.827090 -0.298530 -0.008210 
#    y -0.298530 4.243200 0.089250 
#    z -0.008210 0.089250 4.669400 
# 
# 
# High freq. dielectric constant tensor:
#      x y z
#    x 1.839410 -0.012000 0.004920 
#    y -0.012000 1.864700 -0.000570 
#    z 0.004920 -0.000570 1.876300 
# 
# From -- ./inp_files/346155.got.cif
#   From: 2010.06.25/outbox.cif.g09.slc.cpg/sg2_174_cif.got.tgz:346155.got - 2010.06.27 13:26:56.
