data_PCOD8019011
_publ_section_title
;
Structure prediction by ZEFSAII (Michael W. Deem and Ramdas Pophale) SiO2 
 PCOD8019011
Probable space group: P -1
;
_chemical_formula_sum "Si O2"
_cell_formula_units_Z 14
_cell_length_a 6.625550
_cell_length_b 16.252470
_cell_length_c 14.841750
_cell_angle_alpha 31.870307
_cell_angle_beta 134.369208
_cell_angle_gamma 124.717072
_cell_volume 601.961124
_symmetry_space_group_name_H-M "P -1"
_symmetry_group_IT_number 2
_symmetry_cell_setting 'triclinic'
loop_
_space_group_symop_operation_xyz
x,y,z
-x,-y,-z
loop_
_atom_site_type_symbol
_atom_site_label
_atom_site_fract_x
_atom_site_fract_y
_atom_site_fract_z
Si Si1 0.736296 0.561199 0.583937
Si Si2 0.402018 0.589387 0.977503
Si Si3 0.059248 0.338666 0.616202
Si Si4 0.804966 0.700731 0.740548
Si Si5 0.464936 0.838938 0.356926
Si Si6 0.070067 0.278712 0.031836
Si Si7 0.440081 0.898903 0.988855
O O1 0.500000 0.500000 0.500000
O O2 0.981612 0.619015 0.541348
O O3 0.622305 0.708509 0.466650
O O4 0.870793 0.436802 0.812060
O O5 0.651945 0.709410 0.957281
O O6 0.098108 0.685666 0.788736
O O7 0.500000 0.500000 0.000000
O O8 0.359630 0.461255 0.162097
O O9 0.000000 0.500000 0.500000
O O10 0.860560 0.201005 0.706643
O O11 0.377273 0.266360 0.802181
O O12 0.603997 0.833244 0.505300
O O13 0.854862 0.748665 0.814580
O O14 0.493314 0.009509 0.166577
O O15 0.892066 0.134909 0.078325
O O16 0.500000 0.000000 0.000000
#
# Coordination Sequence:
#
# PCOD8019011 Si02
#       7
#     2   2   2   2   2   2   2
#     4  12  21  41  67 100 136 175 233 290 336 405
#     4   9  18  37  66  96 136 173 228 285 337 390
#     4  12  25  44  74 104 130 184 241 284 345 406
#     4  10  22  41  64 103 132 177 235 287 338 405
#     4  12  24  43  69  96 144 183 226 287 352 412
#     4  11  23  42  69  99 138 181 230 283 341 414
#     4  12  26  49  66 100 149 184 222 289 352 415
#
# _framework density 23.257315999999999
#
# number of rings (size 3 to 8) (size 9 to 14) (size 15 to 20)
#    0.000    0.857    4.286    3.857    0.000    2.857 
#    2.571    0.714    0.000    0.000    0.000    0.000 
#    0.000    0.000    0.000    0.000    0.000    0.000 
#
# Total GULP energy -173520.635524 kJ/mol
# GULP energy per Si atom -12394.331109 kJ/mol
# Density = 2.320438 g / cm^3
# Si number density = 23.257316 Si / 1000 Ang^3
#
#
#
# Elastic Constant Matrix: (Units=GPa)
#
#
# Indices 1 2 3 4 5 6 
#
# 1 132.6739 54.8913 25.5732 6.3850 -9.2820 35.3272
# 2 54.8913 120.1255 38.6397 8.2505 -10.1866 32.5831
# 3 25.5732 38.6397 114.2583 13.0567 -20.7674 0.9992
# 4 6.3850 8.2505 13.0567 30.1145 0.1973 -5.2925
# 5 -9.2820 -10.1866 -20.7674 0.1973 37.7527 -1.1225
# 6 35.3272 32.5831 0.9992 -5.2925 -1.1225 55.2940
#
#
#
# Elastic Compliance Matrix: (Units=1/GPa)
#
#
# Indices 1 2 3 4 5 6 
#
# 1 0.010432 -0.002857 -0.000889 -0.001952 0.001162 -0.005128
# 2 -0.002857 0.012383 -0.003075 -0.002449 0.000793 -0.005634
# 3 -0.000889 -0.003075 0.011340 -0.003579 0.005266 0.001940
# 4 -0.001952 -0.002449 -0.003579 0.036959 -0.003118 0.006229
# 5 0.001162 0.000793 0.005266 -0.003118 0.029871 -0.000997
# 6 -0.005128 -0.005634 0.001940 0.006229 -0.000997 0.025223
#
#
# Mechanical properties :
#
#
# Convention : Reuss Voigt Hill
#
# Bulk Modulus (GPa) = 48.75190 67.25178 58.00184
# Shear Modulus (GPa) = 34.08611 41.16248 37.62429
#
# Velocity S-wave (km/s) = 3.83248 4.21155 4.02648
# Velocity P-wave (km/s) = 6.37113 7.25456 6.82715
#
# Compressibility (1/GPa) = 0.02051202
#
# Stress axis : x y z
#
# Youngs Moduli (GPa) = 95.86339 80.75667 88.18104
#
# Poissons Ratio (x) = 0.23071 0.07843
# Poissons Ratio (y) = 0.27387 0.27116
# Poissons Ratio (z) = 0.08526 0.24833
#
# Static dielectric constant tensor:
#      x y z
#    x 4.797170 0.532630 -0.352290 
#    y 0.532630 4.179660 0.186840 
#    z -0.352290 0.186840 4.326770 
# 
# 
# High freq. dielectric constant tensor:
#      x y z
#    x 1.936020 0.022420 -0.014960 
#    y 0.022420 1.904300 0.012340 
#    z -0.014960 0.012340 1.910580 
# 
# From -- ./inp_files/485191.got.cif
#   From: 2010.06.25/outbox.cif.g09.slc.cpg/sg2_243_cif.got.tgz:485191.got - 2010.06.27 13:26:56.
