data_PCOD8019290
_publ_section_title
;
Structure prediction by ZEFSAII (Michael W. Deem and Ramdas Pophale) SiO2 
 PCOD8019290
Probable space group: P -1
;
_chemical_formula_sum "Si O2"
_cell_formula_units_Z 16
_cell_length_a 15.769026
_cell_length_b 11.328087
_cell_length_c 13.916983
_cell_angle_alpha 151.329299
_cell_angle_beta 38.008170
_cell_angle_gamma 131.549635
_cell_volume 731.137633
_symmetry_space_group_name_H-M "P -1"
_symmetry_group_IT_number 2
_symmetry_cell_setting 'triclinic'
loop_
_space_group_symop_operation_xyz
x,y,z
-x,-y,-z
loop_
_atom_site_type_symbol
_atom_site_label
_atom_site_fract_x
_atom_site_fract_y
_atom_site_fract_z
Si Si1 0.819904 0.890335 0.323407
Si Si2 0.416934 0.240226 0.285958
Si Si3 0.400128 0.227892 0.982043
Si Si4 0.809479 0.809464 0.684032
Si Si5 0.930964 0.464053 0.802693
Si Si6 0.308166 0.596345 0.168964
Si Si7 0.546361 0.720707 0.493942
Si Si8 0.981538 0.226405 0.784015
O O1 0.697242 0.710401 0.304636
O O2 0.882798 0.929493 0.402639
O O3 0.760004 0.163870 0.539203
O O4 0.932467 0.741610 0.045531
O O5 0.257975 0.245685 0.398476
O O6 0.481776 0.473115 0.347906
O O7 0.429271 0.241288 0.388588
O O8 0.500000 0.000000 0.000000
O O9 0.302061 0.227170 0.161043
O O10 0.315619 0.365669 0.069392
O O11 0.539502 0.359001 0.974954
O O12 0.443428 0.948585 0.709441
O O13 0.941534 0.603066 0.432670
O O14 0.851844 0.092734 0.848413
O O15 0.784400 0.459825 0.879005
O O16 0.962396 0.243580 0.697766
O O17 0.000000 0.500000 0.000000
#
# Coordination Sequence:
#
# PCOD8019290 Si02
#       8
#     2   2   2   2   2   2   2   2
#     4  10  22  41  66  94 129 177 226 263 333 401
#     4  11  24  39  64 103 138 165 219 275 346 394
#     4  10  24  45  69  94 136 175 230 280 329 386
#     4  12  24  40  69 104 130 179 215 285 336 402
#     4  11  24  40  67  96 133 178 219 266 341 403
#     4  10  23  48  67  93 132 184 225 279 326 395
#     4  10  23  41  64  96 133 178 213 282 329 397
#     4  10  23  39  66  97 137 170 213 273 335 405
#
# _framework density 21.883706
#
# number of rings (size 3 to 8) (size 9 to 14) (size 15 to 20)
#    0.000    1.500    2.500    1.125    8.750    2.500 
#    2.250    2.500    0.000    0.000    0.000    0.000 
#    0.000    0.000    0.000    0.000    0.000    0.000 
#
# Total GULP energy -198298.790604 kJ/mol
# GULP energy per Si atom -12393.674413 kJ/mol
# Density = 2.183390 g / cm^3
# Si number density = 21.883706 Si / 1000 Ang^3
#
#
#
# Elastic Constant Matrix: (Units=GPa)
#
#
# Indices 1 2 3 4 5 6 
#
# 1 119.8300 46.4401 46.4272 13.7877 -20.5344 14.5459
# 2 46.4401 107.0750 51.4963 14.5898 -7.5199 7.3200
# 3 46.4272 51.4963 93.5896 3.3288 -9.5296 1.2159
# 4 13.7877 14.5898 3.3288 37.6092 -0.8397 -2.0498
# 5 -20.5344 -7.5199 -9.5296 -0.8397 33.0645 4.3201
# 6 14.5459 7.3200 1.2159 -2.0498 4.3201 30.3026
#
#
#
# Elastic Compliance Matrix: (Units=1/GPa)
#
#
# Indices 1 2 3 4 5 6 
#
# 1 0.013527 -0.002133 -0.004547 -0.003951 0.007436 -0.007123
# 2 -0.002133 0.014172 -0.006533 -0.004266 0.000229 -0.002459
# 3 -0.004547 -0.006533 0.016394 0.002931 0.000060 0.003292
# 4 -0.003951 -0.004266 0.002931 0.029660 -0.002502 0.005173
# 5 0.007436 0.000229 0.000060 -0.002502 0.036035 -0.008933
# 6 -0.007123 -0.002459 0.003292 0.005173 -0.008933 0.038505
#
#
# Mechanical properties :
#
#
# Convention : Reuss Voigt Hill
#
# Bulk Modulus (GPa) = 56.59847 67.69132 62.14489
# Shear Modulus (GPa) = 27.68476 31.93731 29.81104
#
# Velocity S-wave (km/s) = 3.56066 3.82437 3.69487
# Velocity P-wave (km/s) = 6.54399 7.10637 6.83097
#
# Compressibility (1/GPa) = 0.01766832
#
# Stress axis : x y z
#
# Youngs Moduli (GPa) = 73.92836 70.56404 60.99776
#
# Poissons Ratio (x) = 0.15048 0.27733
# Poissons Ratio (y) = 0.15765 0.39849
# Poissons Ratio (z) = 0.33612 0.46098
#
# Static dielectric constant tensor:
#      x y z
#    x 4.409370 0.184150 -0.019100 
#    y 0.184150 3.937180 0.138370 
#    z -0.019100 0.138370 4.576760 
# 
# 
# High freq. dielectric constant tensor:
#      x y z
#    x 1.859880 0.019660 -0.012030 
#    y 0.019660 1.841970 0.009980 
#    z -0.012030 0.009980 1.870800 
# 
# From -- ./inp_files/532127.got.cif
#   From: 2010.06.25/outbox.cif.g09.slc.cpg/sg2_267_cif.got.tgz:532127.got - 2010.06.27 13:26:56.
