data_PCOD8019483
_publ_section_title
;
Structure prediction by ZEFSAII (Michael W. Deem and Ramdas Pophale) SiO2 
 PCOD8019483
Probable space group: P -1
;
_chemical_formula_sum "Si O2"
_cell_formula_units_Z 16
_cell_length_a 11.031140
_cell_length_b 7.977058
_cell_length_c 16.815215
_cell_angle_alpha 114.213019
_cell_angle_beta 31.386053
_cell_angle_gamma 121.905577
_cell_volume 651.364828
_symmetry_space_group_name_H-M "P -1"
_symmetry_group_IT_number 2
_symmetry_cell_setting 'triclinic'
loop_
_space_group_symop_operation_xyz
x,y,z
-x,-y,-z
loop_
_atom_site_type_symbol
_atom_site_label
_atom_site_fract_x
_atom_site_fract_y
_atom_site_fract_z
Si Si1 0.702256 0.831742 0.552349
Si Si2 0.685860 0.727331 0.233781
Si Si3 0.439744 0.780788 0.525910
Si Si4 0.959782 0.410953 0.697837
Si Si5 0.396552 0.671874 0.848540
Si Si6 0.490816 0.210065 0.026805
Si Si7 0.660486 0.218425 0.683085
Si Si8 0.201521 0.008643 0.011034
O O1 0.498131 0.779468 0.585855
O O2 0.584451 0.732110 0.681475
O O3 0.922530 0.758007 0.391170
O O4 0.804174 0.069469 0.554797
O O5 0.617677 0.693223 0.359194
O O6 0.775219 0.559093 0.114574
O O7 0.418641 0.704523 0.338747
O O8 0.908938 0.944098 0.138007
O O9 0.151037 0.634895 0.647362
O O10 0.500000 0.000000 0.500000
O O11 0.746031 0.361737 0.874386
O O12 0.837609 0.392628 0.674473
O O13 0.554105 0.691535 0.846997
O O14 0.226323 0.800803 0.981197
O O15 0.264367 0.163413 0.080196
O O16 0.500000 0.000000 0.000000
O O17 0.389233 0.101727 0.852514
#
# Coordination Sequence:
#
# PCOD8019483 Si02
#       8
#     2   2   2   2   2   2   2   2
#     4  11  23  45  71  99 135 175 234 280 343 409
#     4  12  23  43  64  98 141 179 225 282 341 403
#     4  12  27  47  65 100 140 185 228 284 349 401
#     4  11  24  46  73 100 139 180 228 287 335 411
#     4  10  22  41  68 103 129 177 231 277 335 408
#     4   9  21  42  68 105 135 169 225 283 343 396
#     4  10  23  44  66 101 134 177 228 282 346 403
#     4   9  21  41  67  96 135 177 227 279 336 405
#
# _framework density 24.563807000000001
#
# number of rings (size 3 to 8) (size 9 to 14) (size 15 to 20)
#    0.000    1.500    2.500    2.250    3.500    2.500 
#    4.500    1.250    0.000    0.000    0.000    0.000 
#    0.000    0.000    0.000    0.000    0.000    0.000 
#
# Total GULP energy -198305.905035 kJ/mol
# GULP energy per Si atom -12394.119065 kJ/mol
# Density = 2.450790 g / cm^3
# Si number density = 24.563807 Si / 1000 Ang^3
#
#
#
# Elastic Constant Matrix: (Units=GPa)
#
#
# Indices 1 2 3 4 5 6 
#
# 1 119.8258 44.4553 46.7409 3.4829 14.7214 30.4381
# 2 44.4553 108.0997 40.0854 -17.2710 12.2357 33.7367
# 3 46.7409 40.0854 62.2365 -6.5633 10.0064 18.7205
# 4 3.4829 -17.2710 -6.5633 32.6310 12.9705 -0.9864
# 5 14.7214 12.2357 10.0064 12.9705 36.0529 6.9529
# 6 30.4381 33.7367 18.7205 -0.9864 6.9529 39.9817
#
#
#
# Elastic Compliance Matrix: (Units=1/GPa)
#
#
# Indices 1 2 3 4 5 6 
#
# 1 0.013507 -0.001538 -0.007898 -0.003849 -0.000391 -0.005314
# 2 -0.001538 0.016933 -0.004916 0.010038 -0.005513 -0.009609
# 3 -0.007898 -0.004916 0.026855 0.005243 -0.004145 -0.001564
# 4 -0.003849 0.010038 0.005243 0.044741 -0.018684 -0.003642
# 5 -0.000391 -0.005513 -0.004145 -0.018684 0.037663 -0.000120
# 6 -0.005314 -0.009609 -0.001564 -0.003642 -0.000120 0.037828
#
#
# Mechanical properties :
#
#
# Convention : Reuss Voigt Hill
#
# Bulk Modulus (GPa) = 34.97586 61.41394 48.19490
# Shear Modulus (GPa) = 23.17396 32.32513 27.74954
#
# Velocity S-wave (km/s) = 3.07484 3.63156 3.36474
# Velocity P-wave (km/s) = 5.18420 6.52996 5.89560
#
# Compressibility (1/GPa) = 0.02859115
#
# Stress axis : x y z
#
# Youngs Moduli (GPa) = 74.03825 59.05720 37.23743
#
# Poissons Ratio (x) = 0.09085 0.29409
# Poissons Ratio (y) = 0.11389 0.18304
# Poissons Ratio (z) = 0.58472 0.29030
#
# Static dielectric constant tensor:
#      x y z
#    x 4.828070 0.446780 0.284090 
#    y 0.446780 4.599630 0.157470 
#    z 0.284090 0.157470 4.129950 
# 
# 
# High freq. dielectric constant tensor:
#      x y z
#    x 1.982860 0.023040 0.016260 
#    y 0.023040 1.980760 0.002090 
#    z 0.016260 0.002090 1.953940 
# 
# From -- ./inp_files/457011.got.cif
#   From: 2010.06.25/outbox.cif.g09.slc.cpg/sg2_229_cif.got.tgz:457011.got - 2010.06.27 13:26:56.
