data_PCOD8019170
_publ_section_title
;
Structure prediction by ZEFSAII (Michael W. Deem and Ramdas Pophale) SiO2 
 PCOD8019170
Probable space group: P -1
;
_chemical_formula_sum "Si O2"
_cell_formula_units_Z 16
_cell_length_a 14.901313
_cell_length_b 14.150589
_cell_length_c 14.854198
_cell_angle_alpha 31.094504
_cell_angle_beta 148.693614
_cell_angle_gamma 149.524894
_cell_volume 734.961250
_symmetry_space_group_name_H-M "P -1"
_symmetry_group_IT_number 2
_symmetry_cell_setting 'triclinic'
loop_
_space_group_symop_operation_xyz
x,y,z
-x,-y,-z
loop_
_atom_site_type_symbol
_atom_site_label
_atom_site_fract_x
_atom_site_fract_y
_atom_site_fract_z
Si Si1 0.184581 0.464433 0.185238
Si Si2 0.967914 0.406302 0.377127
Si Si3 0.313587 0.217242 0.393679
Si Si4 0.277042 0.414027 0.503218
Si Si5 0.806897 0.100025 0.807011
Si Si6 0.468452 0.160144 0.902978
Si Si7 0.092482 0.960539 0.248776
Si Si8 0.440381 0.897854 0.780330
O O1 0.152255 0.246483 0.291966
O O2 0.284314 0.500389 0.338877
O O3 0.329878 0.626459 0.105555
O O4 0.000000 0.500000 0.000000
O O5 0.984262 0.266558 0.585608
O O6 0.737178 0.328371 0.218630
O O7 0.077097 0.377276 0.407893
O O8 0.066476 0.648711 0.289505
O O9 0.531568 0.418861 0.414317
O O10 0.235224 0.153464 0.277160
O O11 0.329400 0.027132 0.608041
O O12 0.286597 0.196023 0.685564
O O13 0.782447 0.025051 0.744371
O O14 0.588884 0.016083 0.729035
O O15 0.906314 0.989901 0.039872
O O16 0.434945 0.102967 0.026204
O O17 0.500000 0.000000 0.000000
#
# Coordination Sequence:
#
# PCOD8019170 Si02
#       8
#     2   2   2   2   2   2   2   2
#     4  11  24  39  64  95 132 180 219 270 342 399
#     4  11  24  42  70  99 134 178 231 277 339 411
#     4  10  22  41  65  93 134 171 224 275 333 405
#     4  11  22  41  63  97 134 178 220 279 337 398
#     4  11  24  47  70  94 145 174 226 295 336 395
#     4  11  23  38  63  94 135 172 225 279 332 409
#     4  10  25  45  67 103 129 182 230 276 349 407
#     4  11  23  42  67 101 129 182 225 273 346 401
#
# _framework density 21.769855
#
# number of rings (size 3 to 8) (size 9 to 14) (size 15 to 20)
#    0.000    1.250    1.250    4.875    5.250    4.000 
#    2.250    5.625    0.000    0.000    0.000    0.000 
#    0.000    0.000    0.000    0.000    0.000    0.000 
#
# Total GULP energy -198342.694632 kJ/mol
# GULP energy per Si atom -12396.418415 kJ/mol
# Density = 2.172031 g / cm^3
# Si number density = 21.769855 Si / 1000 Ang^3
#
#
#
# Elastic Constant Matrix: (Units=GPa)
#
#
# Indices 1 2 3 4 5 6 
#
# 1 136.0524 56.1020 48.5290 3.1206 -0.8040 -9.3288
# 2 56.1020 104.8766 27.4983 7.8281 -1.4528 -5.1994
# 3 48.5290 27.4983 102.6678 0.9739 -2.5427 -11.4260
# 4 3.1206 7.8281 0.9739 23.4560 -0.2465 -1.6148
# 5 -0.8040 -1.4528 -2.5427 -0.2465 39.8234 0.6315
# 6 -9.3288 -5.1994 -11.4260 -1.6148 0.6315 32.1779
#
#
#
# Elastic Compliance Matrix: (Units=1/GPa)
#
#
# Indices 1 2 3 4 5 6 
#
# 1 0.010669 -0.004724 -0.003670 0.000380 -0.000206 0.001050
# 2 -0.004724 0.012622 -0.001096 -0.003529 0.000272 0.000098
# 3 -0.003670 -0.001096 0.012121 0.000569 0.000615 0.003079
# 4 0.000380 -0.003529 0.000569 0.043872 0.000156 0.001941
# 5 -0.000206 0.000272 0.000615 0.000156 0.025161 -0.000283
# 6 0.001050 0.000098 0.003079 0.001941 -0.000283 0.032594
#
#
# Mechanical properties :
#
#
# Convention : Reuss Voigt Hill
#
# Bulk Modulus (GPa) = 60.85980 67.53947 64.19964
# Shear Modulus (GPa) = 30.96047 33.18931 32.07489
#
# Velocity S-wave (km/s) = 3.77526 3.90879 3.84260
# Velocity P-wave (km/s) = 6.85712 7.17378 7.01724
#
# Compressibility (1/GPa) = 0.01643121
#
# Stress axis : x y z
#
# Youngs Moduli (GPa) = 93.72780 79.22878 82.50219
#
# Poissons Ratio (x) = 0.37430 0.30275
# Poissons Ratio (y) = 0.44280 0.09045
# Poissons Ratio (z) = 0.34395 0.08686
#
# Static dielectric constant tensor:
#      x y z
#    x 3.176800 0.499850 -0.879760 
#    y 0.499850 3.455030 0.557430 
#    z -0.879760 0.557430 2.910520 
# 
# 
# High freq. dielectric constant tensor:
#      x y z
#    x 1.860560 -0.003680 0.006280 
#    y -0.003680 1.842860 -0.007400 
#    z 0.006280 -0.007400 1.871430 
# 
# From -- ./inp_files/534208.got.cif
#   From: 2010.06.25/outbox.cif.g09.slc.cpg/sg2_268_cif.got.tgz:534208.got - 2010.06.27 13:26:56.
