data_PCOD8019456
_publ_section_title
;
Structure prediction by ZEFSAII (Michael W. Deem and Ramdas Pophale) SiO2 
 PCOD8019456
Probable space group: P -1
;
_chemical_formula_sum "Si O2"
_cell_formula_units_Z 14
_cell_length_a 14.829000
_cell_length_b 13.731606
_cell_length_c 9.648473
_cell_angle_alpha 65.769797
_cell_angle_beta 130.149984
_cell_angle_gamma 152.677476
_cell_volume 610.942888
_symmetry_space_group_name_H-M "P -1"
_symmetry_group_IT_number 2
_symmetry_cell_setting 'triclinic'
loop_
_space_group_symop_operation_xyz
x,y,z
-x,-y,-z
loop_
_atom_site_type_symbol
_atom_site_label
_atom_site_fract_x
_atom_site_fract_y
_atom_site_fract_z
Si Si1 0.149033 0.289793 0.815726
Si Si2 0.544510 0.262254 0.172883
Si Si3 0.056533 0.230100 0.071158
Si Si4 0.908812 0.933722 0.607426
Si Si5 0.700092 0.261343 0.566992
Si Si6 0.603777 0.881850 0.418706
Si Si7 0.743805 0.378906 0.007253
O O1 0.400180 0.565884 0.867752
O O2 0.153761 0.185506 0.789594
O O3 0.132107 0.243322 0.987715
O O4 0.894155 0.157181 0.595151
O O5 0.746343 0.356427 0.410587
O O6 0.577158 0.248744 0.057478
O O7 0.255441 0.005453 0.092864
O O8 0.193150 0.454522 0.092573
O O9 0.152281 0.231164 0.290676
O O10 0.000000 0.000000 0.500000
O O11 0.648275 0.796470 0.452350
O O12 0.581420 0.258100 0.549286
O O13 0.982258 0.460240 0.795504
O O14 0.500000 0.000000 0.500000
O O15 0.461041 0.837608 0.182402
#
# Coordination Sequence:
#
# PCOD8019456 Si02
#       7
#     2   2   2   2   2   2   2
#     4   9  22  41  63  94 132 166 218 260 317 385
#     4  11  21  42  67  96 128 168 220 266 314 386
#     4  11  21  42  68  95 130 175 215 263 318 385
#     4  10  22  41  67  98 132 167 216 267 325 380
#     4  12  22  44  69  93 129 173 217 267 319 385
#     4  10  23  44  60  97 136 163 216 265 324 379
#     4  11  24  40  66  99 131 170 216 262 327 380
#
# _framework density 22.915400999999999
#
# number of rings (size 3 to 8) (size 9 to 14) (size 15 to 20)
#    0.857    0.571    2.857    3.000    0.000    2.286 
#    0.000    2.857    0.000    0.000    0.000    0.000 
#    0.000    0.000    0.000    0.000    0.000    0.000 
#
# Total GULP energy -173438.140503 kJ/mol
# GULP energy per Si atom -12388.438607 kJ/mol
# Density = 2.286324 g / cm^3
# Si number density = 22.915401 Si / 1000 Ang^3
#
#
#
# Elastic Constant Matrix: (Units=GPa)
#
#
# Indices 1 2 3 4 5 6 
#
# 1 81.2877 35.4507 12.4350 -16.3358 1.5880 11.8654
# 2 35.4507 75.3324 33.7851 -31.4610 -8.9611 18.8064
# 3 12.4350 33.7851 126.4079 -22.6596 4.9648 9.4819
# 4 -16.3358 -31.4610 -22.6596 40.4383 8.3281 1.3324
# 5 1.5880 -8.9611 4.9648 8.3281 34.5048 -1.6088
# 6 11.8654 18.8064 9.4819 1.3324 -1.6088 8.3402
#
#
#
# Elastic Compliance Matrix: (Units=1/GPa)
#
#
# Indices 1 2 3 4 5 6 
#
# 1 0.050066 0.182062 0.024757 0.200506 -0.032538 -0.548212
# 2 0.182062 1.075096 0.128712 1.114827 -0.158421 -3.038233
# 3 0.024757 0.128712 0.026208 0.142303 -0.023665 -0.382547
# 4 0.200506 1.114827 0.142303 1.194210 -0.176945 -3.185768
# 5 -0.032538 -0.158421 -0.023665 -0.176945 0.057351 0.469749
# 6 -0.548212 -3.038233 -0.382547 -3.185768 0.469749 8.785191
#
#
# Mechanical properties :
#
#
# Convention : Reuss Voigt Hill
#
# Bulk Modulus (GPa) = 0.54872 49.59663 25.07267
# Shear Modulus (GPa) = 0.44946 30.08047 15.26496
#
# Velocity S-wave (km/s) = 0.44335 3.62702 2.58378
# Velocity P-wave (km/s) = 0.70856 6.26344 4.45717
#
# Compressibility (1/GPa) = 1.82243143
#
# Stress axis : x y z
#
# Youngs Moduli (GPa) = 19.97372 0.93015 38.15623
#
# Poissons Ratio (x) = -0.16934 -0.94463
# Poissons Ratio (y) = -3.63645 -4.91116
# Poissons Ratio (z) = -0.49449 -0.11972
#
# Static dielectric constant tensor:
#      x y z
#    x 3.939570 0.066860 -0.061740 
#    y 0.066860 3.832820 -0.014830 
#    z -0.061740 -0.014830 4.339650 
# 
# 
# High freq. dielectric constant tensor:
#      x y z
#    x 1.893780 0.015840 -0.002610 
#    y 0.015840 1.887450 0.000640 
#    z -0.002610 0.000640 1.926180 
# 
# From -- ./inp_files/336484.got.cif
#   From: 2010.06.25/outbox.cif.g09.slc.cpg/sg2_169_cif.got.tgz:336484.got - 2010.06.27 13:26:56.
