data_PCOD8019344
_publ_section_title
;
Structure prediction by ZEFSAII (Michael W. Deem and Ramdas Pophale) SiO2 
 PCOD8019344
Probable space group: P -1
;
_chemical_formula_sum "Si O2"
_cell_formula_units_Z 16
_cell_length_a 11.647278
_cell_length_b 19.611664
_cell_length_c 11.473855
_cell_angle_alpha 37.609518
_cell_angle_beta 123.718621
_cell_angle_gamma 149.922765
_cell_volume 725.085614
_symmetry_space_group_name_H-M "P -1"
_symmetry_group_IT_number 2
_symmetry_cell_setting 'triclinic'
loop_
_space_group_symop_operation_xyz
x,y,z
-x,-y,-z
loop_
_atom_site_type_symbol
_atom_site_label
_atom_site_fract_x
_atom_site_fract_y
_atom_site_fract_z
Si Si1 0.340694 0.503829 0.425203
Si Si2 0.991500 0.225327 0.947877
Si Si3 0.813066 0.173984 0.675652
Si Si4 0.382939 0.206490 0.590352
Si Si5 0.169380 0.575172 0.598115
Si Si6 0.531324 0.522008 0.849461
Si Si7 0.792322 0.506673 0.886636
Si Si8 0.344019 0.829756 0.737522
O O1 0.500000 0.500000 0.500000
O O2 0.477488 0.673656 0.369874
O O3 0.323138 0.556637 0.221679
O O4 0.051997 0.277899 0.606025
O O5 0.817708 0.150576 0.846665
O O6 0.060116 0.383654 0.849776
O O7 0.250758 0.350954 0.869500
O O8 0.858531 0.037632 0.199768
O O9 0.822856 0.314460 0.458716
O O10 0.538546 0.941054 0.802192
O O11 0.555790 0.259286 0.524646
O O12 0.294909 0.261489 0.402027
O O13 0.000000 0.500000 0.500000
O O14 0.648423 0.485551 0.926355
O O15 0.500000 0.500000 0.000000
O O16 0.094803 0.734067 0.756559
O O17 0.743886 0.349175 0.117865
O O18 0.500000 0.000000 0.500000
#
# Coordination Sequence:
#
# PCOD8019344 Si02
#       8
#     2   2   2   2   2   2   2   2
#     4  12  21  41  73  98 134 173 226 278 331 403
#     4  10  22  41  67 100 130 171 227 280 340 394
#     4  11  21  42  66  98 137 176 219 280 339 393
#     4  11  22  41  67 102 127 177 227 275 347 393
#     4   9  19  38  60  93 137 166 211 276 326 395
#     4  11  25  46  67  93 138 177 224 286 335 405
#     4  11  25  46  68 101 138 181 227 276 341 401
#     4  11  25  43  68 100 138 183 223 276 336 411
#
# _framework density 22.066358999999999
#
# number of rings (size 3 to 8) (size 9 to 14) (size 15 to 20)
#    0.000    1.250    6.250    0.750    0.000    7.500 
#    2.250    2.500    0.000    0.000    0.000    0.000 
#    0.000    0.000    0.000    0.000    0.000    0.000 
#
# Total GULP energy -198289.107868 kJ/mol
# GULP energy per Si atom -12393.069242 kJ/mol
# Density = 2.201613 g / cm^3
# Si number density = 22.066359 Si / 1000 Ang^3
#
#
#
# Elastic Constant Matrix: (Units=GPa)
#
#
# Indices 1 2 3 4 5 6 
#
# 1 123.2481 42.7232 37.4262 -8.4479 4.8825 16.1442
# 2 42.7232 88.1067 35.8974 -6.2244 1.4511 12.1761
# 3 37.4262 35.8974 146.3069 -9.9771 10.2452 -3.2039
# 4 -8.4479 -6.2244 -9.9771 38.9208 -4.8966 -4.2764
# 5 4.8825 1.4511 10.2452 -4.8966 23.6842 5.2817
# 6 16.1442 12.1761 -3.2039 -4.2764 5.2817 27.4298
#
#
#
# Elastic Compliance Matrix: (Units=1/GPa)
#
#
# Indices 1 2 3 4 5 6 
#
# 1 0.010628 -0.003686 -0.001872 0.000724 0.000050 -0.004734
# 2 -0.003686 0.015089 -0.003005 0.000570 0.002426 -0.005258
# 3 -0.001872 -0.003005 0.008502 0.001292 -0.003814 0.004365
# 4 0.000724 0.000570 0.001292 0.027121 0.004220 0.002888
# 5 0.000050 0.002426 -0.003814 0.004220 0.046794 -0.009904
# 6 -0.004734 -0.005258 0.004365 0.002888 -0.009904 0.044444
#
#
# Mechanical properties :
#
#
# Convention : Reuss Voigt Hill
#
# Bulk Modulus (GPa) = 58.50902 65.52838 62.01870
# Shear Modulus (GPa) = 28.50596 34.11460 31.31028
#
# Velocity S-wave (km/s) = 3.59810 3.93619 3.77094
# Velocity P-wave (km/s) = 6.62075 7.10061 6.86487
#
# Compressibility (1/GPa) = 0.01709138
#
# Stress axis : x y z
#
# Youngs Moduli (GPa) = 94.09350 66.27498 117.61961
#
# Poissons Ratio (x) = 0.24430 0.22019
# Poissons Ratio (y) = 0.34684 0.35348
# Poissons Ratio (z) = 0.17615 0.19918
#
# Static dielectric constant tensor:
#      x y z
#    x 4.062640 0.154790 0.209370 
#    y 0.154790 4.978690 -0.101880 
#    z 0.209370 -0.101880 3.985580 
# 
# 
# High freq. dielectric constant tensor:
#      x y z
#    x 1.863520 0.015930 0.007320 
#    y 0.015930 1.870380 0.006670 
#    z 0.007320 0.006670 1.867130 
# 
# From -- ./inp_files/438640.got.cif
#   From: 2010.06.25/outbox.cif.g09.slc.cpg/sg2_220_cif.got.tgz:438640.got - 2010.06.27 13:26:56.
