data_PCOD8019409
_publ_section_title
;
Structure prediction by ZEFSAII (Michael W. Deem and Ramdas Pophale) SiO2 
 PCOD8019409
Probable space group: P -1
;
_chemical_formula_sum "Si O2"
_cell_formula_units_Z 12
_cell_length_a 6.869531
_cell_length_b 19.658824
_cell_length_c 7.191161
_cell_angle_alpha 116.668427
_cell_angle_beta 41.300039
_cell_angle_gamma 119.860554
_cell_volume 551.099232
_symmetry_space_group_name_H-M "P -1"
_symmetry_group_IT_number 2
_symmetry_cell_setting 'triclinic'
loop_
_space_group_symop_operation_xyz
x,y,z
-x,-y,-z
loop_
_atom_site_type_symbol
_atom_site_label
_atom_site_fract_x
_atom_site_fract_y
_atom_site_fract_z
Si Si1 0.575543 0.421744 0.420814
Si Si2 0.263108 0.800293 0.419579
Si Si3 0.461007 0.081527 0.319776
Si Si4 0.811334 0.095445 0.726720
Si Si5 0.337615 0.304897 0.117567
Si Si6 0.250035 0.421650 0.020704
O O1 0.500000 0.500000 0.500000
O O2 0.503809 0.355790 0.233685
O O3 0.932934 0.443283 0.241922
O O4 0.365303 0.388512 0.709630
O O5 0.464658 0.870644 0.485560
O O6 0.244273 0.834255 0.270148
O O7 0.929684 0.768642 0.709391
O O8 0.413633 0.727911 0.209718
O O9 0.162271 0.095662 0.454307
O O10 0.408501 0.988676 0.287358
O O11 0.739417 0.111253 0.011503
O O12 0.199554 0.356366 0.137375
O O13 0.500000 0.500000 0.000000
#
# Coordination Sequence:
#
# PCOD8019409 Si02
#       6
#     2   2   2   2   2   2
#     4  12  26  45  72  95 128 169 221 277 327 390
#     4  12  25  42  64  96 138 168 214 268 326 390
#     4  10  22  41  67  95 128 173 219 262 317 382
#     4  10  22  41  67  95 128 173 219 262 317 382
#     4  12  28  42  65 100 130 174 216 266 337 388
#     4  12  26  45  72  95 128 169 221 277 327 390
#
# _framework density 21.774664000000001
#
# number of rings (size 3 to 8) (size 9 to 14) (size 15 to 20)
#    0.000    0.667    1.667    5.500    2.333    8.000 
#    0.000    6.667    0.000    0.000    0.000    0.000 
#    0.000    0.000    0.000    0.000    0.000    0.000 
#
# Total GULP energy -148906.749748 kJ/mol
# GULP energy per Si atom -12408.895812 kJ/mol
# Density = 2.172510 g / cm^3
# Si number density = 21.774664 Si / 1000 Ang^3
#
#
#
# Elastic Constant Matrix: (Units=GPa)
#
#
# Indices 1 2 3 4 5 6 
#
# 1 112.1971 39.9856 33.6930 -7.2740 -7.9190 -12.5280
# 2 39.9856 78.0018 25.1579 -6.4600 2.4304 -8.7872
# 3 33.6930 25.1579 109.7642 2.4121 -2.9462 -2.2150
# 4 -7.2740 -6.4600 2.4121 40.5834 -1.2129 3.6704
# 5 -7.9190 2.4304 -2.9462 -1.2129 37.9244 1.0606
# 6 -12.5280 -8.7872 -2.2150 3.6704 1.0606 32.7649
#
#
#
# Elastic Compliance Matrix: (Units=1/GPa)
#
#
# Indices 1 2 3 4 5 6 
#
# 1 0.012026 -0.005028 -0.002440 0.001320 0.002606 0.002852
# 2 -0.005028 0.016604 -0.002314 0.001605 -0.002306 0.002269
# 3 -0.002440 -0.002314 0.010416 -0.001348 0.000425 -0.000712
# 4 0.001320 0.001605 -0.001348 0.025425 0.000938 -0.002034
# 5 0.002606 -0.002306 0.000425 0.000938 0.027139 -0.000577
# 6 0.002852 0.002269 -0.000712 -0.002034 -0.000577 0.032418
#
#
# Mechanical properties :
#
#
# Convention : Reuss Voigt Hill
#
# Bulk Modulus (GPa) = 51.32909 55.29292 53.31101
# Shear Modulus (GPa) = 33.31391 35.66297 34.48844
#
# Velocity S-wave (km/s) = 3.91569 4.05139 3.98412
# Velocity P-wave (km/s) = 6.63834 6.87992 6.76021
#
# Compressibility (1/GPa) = 0.01948213
#
# Stress axis : x y z
#
# Youngs Moduli (GPa) = 83.15492 60.22510 96.00158
#
# Poissons Ratio (x) = 0.30282 0.23429
# Poissons Ratio (y) = 0.41811 0.22212
# Poissons Ratio (z) = 0.20294 0.13934
#
# Static dielectric constant tensor:
#      x y z
#    x 7.253460 0.710620 -0.259150 
#    y 0.710620 4.008030 -0.048850 
#    z -0.259150 -0.048850 4.151520 
# 
# 
# High freq. dielectric constant tensor:
#      x y z
#    x 1.860520 -0.000130 -0.000520 
#    y -0.000130 1.857700 0.000970 
#    z -0.000520 0.000970 1.874090 
# 
# From -- ./inp_files/6119.got.cif
#   From: 2010.06.25/outbox.cif.g09.slc.cpg/sg2_4_cif.got.tgz:6119.got - 2010.06.27 13:26:56.
