data_PCOD8019383
_publ_section_title
;
Structure prediction by ZEFSAII (Michael W. Deem and Ramdas Pophale) SiO2 
 PCOD8019383
Probable space group: P -1
;
_chemical_formula_sum "Si O2"
_cell_formula_units_Z 12
_cell_length_a 5.437386
_cell_length_b 22.089062
_cell_length_c 12.110455
_cell_angle_alpha 152.139563
_cell_angle_beta 122.500431
_cell_angle_gamma 55.858245
_cell_volume 559.398365
_symmetry_space_group_name_H-M "P -1"
_symmetry_group_IT_number 2
_symmetry_cell_setting 'triclinic'
loop_
_space_group_symop_operation_xyz
x,y,z
-x,-y,-z
loop_
_atom_site_type_symbol
_atom_site_label
_atom_site_fract_x
_atom_site_fract_y
_atom_site_fract_z
Si Si1 0.638169 0.342927 0.903919
Si Si2 0.803933 0.083341 0.858327
Si Si3 0.274999 0.126680 0.198410
Si Si4 0.831120 0.808709 0.482059
Si Si5 0.908207 0.870691 0.220947
Si Si6 0.435633 0.639008 0.346330
O O1 0.395642 0.260233 0.751339
O O2 0.616615 0.355058 0.787423
O O3 0.959344 0.261534 0.889391
O O4 0.567549 0.489377 0.177673
O O5 0.446251 0.119073 0.842341
O O6 0.945946 0.151351 0.901670
O O7 0.913722 0.922739 0.607859
O O8 0.942596 0.128554 0.077380
O O9 0.308496 0.111652 0.314043
O O10 0.351912 0.266716 0.408340
O O11 0.500000 0.000000 0.000000
O O12 0.107654 0.694866 0.407494
O O13 0.000000 0.000000 0.500000
#
# Coordination Sequence:
#
# PCOD8019383 Si02
#       6
#     2   2   2   2   2   2
#     4  10  23  41  63  97 127 172 215 269 326 375
#     4  12  25  40  66  98 130 168 213 267 325 388
#     4  11  23  40  64  99 128 166 218 271 324 378
#     4  11  21  38  69  94 126 164 219 279 319 374
#     4  12  25  42  65  95 134 172 214 264 323 397
#     4  10  22  41  67  93 129 164 222 272 321 379
#
# _framework density 21.451616999999999
#
# number of rings (size 3 to 8) (size 9 to 14) (size 15 to 20)
#    0.000    1.000    3.333    3.500    4.667    0.000 
#    0.000    1.667    0.000    0.000    0.000    0.000 
#    0.000    0.000    0.000    0.000    0.000    0.000 
#
# Total GULP energy -148767.873256 kJ/mol
# GULP energy per Si atom -12397.322771 kJ/mol
# Density = 2.140279 g / cm^3
# Si number density = 21.451617 Si / 1000 Ang^3
#
#
#
# Elastic Constant Matrix: (Units=GPa)
#
#
# Indices 1 2 3 4 5 6 
#
# 1 105.9518 31.0959 39.7258 0.2409 8.9164 -26.6116
# 2 31.0959 104.7873 56.5912 20.7271 6.0431 -32.7710
# 3 39.7258 56.5912 143.5098 21.2127 15.5551 -22.3550
# 4 0.2409 20.7271 21.2127 33.7415 -14.8146 1.6133
# 5 8.9164 6.0431 15.5551 -14.8146 29.3247 -3.8634
# 6 -26.6116 -32.7710 -22.3550 1.6133 -3.8634 39.4535
#
#
#
# Elastic Compliance Matrix: (Units=1/GPa)
#
#
# Indices 1 2 3 4 5 6 
#
# 1 0.012089 -0.000520 -0.002120 0.000716 -0.001243 0.006369
# 2 -0.000520 0.018210 -0.002033 -0.013973 -0.007806 0.013429
# 3 -0.002120 -0.002033 0.011388 -0.010347 -0.009836 0.002794
# 4 0.000716 -0.013973 -0.010347 0.061862 0.037313 -0.015863
# 5 -0.001243 -0.007806 -0.009836 0.037313 0.059017 -0.008642
# 6 0.006369 0.013429 0.002794 -0.015863 -0.008642 0.042182
#
#
# Mechanical properties :
#
#
# Convention : Reuss Voigt Hill
#
# Bulk Modulus (GPa) = 30.92273 67.67496 49.29884
# Shear Modulus (GPa) = 22.23471 35.62634 28.93052
#
# Velocity S-wave (km/s) = 3.22297 4.07968 3.67637
# Velocity P-wave (km/s) = 5.31944 7.33539 6.40720
#
# Compressibility (1/GPa) = 0.03233868
#
# Stress axis : x y z
#
# Youngs Moduli (GPa) = 82.72237 54.91618 87.81501
#
# Poissons Ratio (x) = 0.02857 0.18617
# Poissons Ratio (y) = 0.04304 0.17855
# Poissons Ratio (z) = 0.17537 0.11166
#
# Static dielectric constant tensor:
#      x y z
#    x 3.933850 -0.081740 0.113420 
#    y -0.081740 3.896040 0.074340 
#    z 0.113420 0.074340 4.092710 
# 
# 
# High freq. dielectric constant tensor:
#      x y z
#    x 1.846640 -0.009540 0.008130 
#    y -0.009540 1.826580 0.004770 
#    z 0.008130 0.004770 1.838320 
# 
# From -- ./inp_files/22663.got.cif
#   From: 2010.06.25/outbox.cif.g09.slc.cpg/sg2_12_cif.got.tgz:22663.got - 2010.06.27 13:26:56.
