data_PCOD8019926
_publ_section_title
;
Structure prediction by ZEFSAII (Michael W. Deem and Ramdas Pophale) SiO2 
 PCOD8019926
Probable space group: P -1
;
_chemical_formula_sum "Si O2"
_cell_formula_units_Z 14
_cell_length_a 13.465305
_cell_length_b 19.610033
_cell_length_c 10.238479
_cell_angle_alpha 133.610015
_cell_angle_beta 31.904585
_cell_angle_gamma 151.339624
_cell_volume 668.861112
_symmetry_space_group_name_H-M "P -1"
_symmetry_group_IT_number 2
_symmetry_cell_setting 'triclinic'
loop_
_space_group_symop_operation_xyz
x,y,z
-x,-y,-z
loop_
_atom_site_type_symbol
_atom_site_label
_atom_site_fract_x
_atom_site_fract_y
_atom_site_fract_z
Si Si1 0.323859 0.424268 0.727110
Si Si2 0.696497 0.794305 0.476972
Si Si3 0.770396 0.370033 0.681765
Si Si4 0.262370 0.281507 0.209208
Si Si5 0.757911 0.901244 0.825863
Si Si6 0.327957 0.858762 0.424170
Si Si7 0.950436 0.448386 0.136723
O O1 0.500000 0.500000 0.500000
O O2 0.212418 0.277582 0.688408
O O3 0.540907 0.551353 0.760273
O O4 0.028804 0.369476 0.964069
O O5 0.665826 0.848847 0.710304
O O6 0.378667 0.666496 0.598933
O O7 0.927345 0.927168 0.294594
O O8 0.767994 0.256873 0.516066
O O9 0.000000 0.500000 0.500000
O O10 0.845419 0.414632 0.811483
O O11 0.452308 0.294279 0.907959
O O12 0.213188 0.190778 0.264090
O O13 0.951377 0.196599 0.396317
O O14 0.526717 0.883742 0.126243
O O15 0.500000 0.000000 0.500000
O O16 0.000000 0.500000 0.000000
#
# Coordination Sequence:
#
# PCOD8019926 Si02
#       7
#     2   2   2   2   2   2   2
#     4  11  20  34  63  94 117 157 203 249 319 372
#     4  11  22  37  60  93 129 156 200 260 313 374
#     4  10  24  42  63  95 126 159 209 261 313 367
#     4  10  22  42  63  87 124 160 205 260 304 373
#     4  10  24  40  57  91 127 161 203 256 316 368
#     4  11  25  42  64  83 119 172 214 248 305 373
#     4  11  21  37  65  94 123 160 203 258 316 368
#
# _framework density 20.931101000000002
#
# number of rings (size 3 to 8) (size 9 to 14) (size 15 to 20)
#    0.000    1.429    2.857    2.571    2.000    8.571 
#    0.000    2.857    0.000    0.000    0.000    0.000 
#    0.000    0.000    0.000    0.000    0.000    0.000 
#
# Total GULP energy -173521.223545 kJ/mol
# GULP energy per Si atom -12394.373110 kJ/mol
# Density = 2.088346 g / cm^3
# Si number density = 20.931101 Si / 1000 Ang^3
#
#
#
# Elastic Constant Matrix: (Units=GPa)
#
#
# Indices 1 2 3 4 5 6 
#
# 1 77.7405 40.2781 61.3084 -4.2294 -21.0753 3.1142
# 2 40.2781 122.5901 47.0704 -3.8861 -8.2892 -19.0463
# 3 61.3084 47.0704 108.7926 -9.7797 -25.5288 -5.4272
# 4 -4.2294 -3.8861 -9.7797 43.3726 0.5482 0.8746
# 5 -21.0753 -8.2892 -25.5288 0.5482 40.2054 -8.8265
# 6 3.1142 -19.0463 -5.4272 0.8746 -8.8265 33.9199
#
#
#
# Elastic Compliance Matrix: (Units=1/GPa)
#
#
# Indices 1 2 3 4 5 6 
#
# 1 0.026042 -0.004570 -0.012180 -0.000543 0.003680 -0.005934
# 2 -0.004570 0.011466 -0.002031 -0.000010 0.000120 0.006565
# 3 -0.012180 -0.002031 0.018837 0.002709 0.006111 0.004512
# 4 -0.000543 -0.000010 0.002709 0.023595 0.001149 0.000168
# 5 0.003680 0.000120 0.006111 0.001149 0.032708 0.009189
# 6 -0.005934 0.006565 0.004512 0.000168 0.009189 0.036821
#
#
# Mechanical properties :
#
#
# Convention : Reuss Voigt Hill
#
# Bulk Modulus (GPa) = 53.23705 67.38187 60.30946
# Shear Modulus (GPa) = 25.86760 34.19733 30.03246
#
# Velocity S-wave (km/s) = 3.51927 4.04642 3.79202
# Velocity P-wave (km/s) = 6.48100 7.35483 6.93170
#
# Compressibility (1/GPa) = 0.01878391
#
# Stress axis : x y z
#
# Youngs Moduli (GPa) = 38.39918 87.21190 53.08759
#
# Poissons Ratio (x) = 0.39858 0.64659
# Poissons Ratio (y) = 0.17549 0.10781
# Poissons Ratio (z) = 0.46769 0.17711
#
# Static dielectric constant tensor:
#      x y z
#    x 3.731290 0.316230 0.436300 
#    y 0.316230 2.557340 -1.818000 
#    z 0.436300 -1.818000 1.881150 
# 
# 
# High freq. dielectric constant tensor:
#      x y z
#    x 1.801430 -0.005910 -0.018630 
#    y -0.005910 1.832240 -0.000700 
#    z -0.018630 -0.000700 1.827840 
# 
# From -- ./inp_files/279763.got.cif
#   From: 2010.06.25/outbox.cif.g09.slc.cpg/sg2_140_cif.got.tgz:279763.got - 2010.06.27 13:26:56.
