data_PCOD8019843
_publ_section_title
;
Structure prediction by ZEFSAII (Michael W. Deem and Ramdas Pophale) SiO2 
 PCOD8019843
Probable space group: P -1
;
_chemical_formula_sum "Si O2"
_cell_formula_units_Z 16
_cell_length_a 8.877040
_cell_length_b 11.995914
_cell_length_c 14.440533
_cell_angle_alpha 101.350657
_cell_angle_beta 120.824354
_cell_angle_gamma 38.735493
_cell_volume 765.124588
_symmetry_space_group_name_H-M "P -1"
_symmetry_group_IT_number 2
_symmetry_cell_setting 'triclinic'
loop_
_space_group_symop_operation_xyz
x,y,z
-x,-y,-z
loop_
_atom_site_type_symbol
_atom_site_label
_atom_site_fract_x
_atom_site_fract_y
_atom_site_fract_z
Si Si1 0.945160 0.882670 0.365303
Si Si2 0.299972 0.149390 0.172200
Si Si3 0.951789 0.248090 0.230787
Si Si4 0.142230 0.467729 0.822589
Si Si5 0.212393 0.557979 0.284585
Si Si6 0.828441 0.866545 0.061964
Si Si7 0.104868 0.833128 0.606598
Si Si8 0.786752 0.123140 0.040937
O O1 0.207705 0.670032 0.368976
O O2 0.930076 0.873682 0.469958
O O3 0.643185 0.998989 0.239114
O O4 0.008809 0.980559 0.378395
O O5 0.267206 0.096897 0.251197
O O6 0.099419 0.368599 0.149011
O O7 0.142353 0.159598 0.044063
O O8 0.798775 0.454410 0.214662
O O9 0.982475 0.197822 0.338544
O O10 0.774020 0.247792 0.113920
O O11 0.981002 0.440028 0.724420
O O12 0.454026 0.267025 0.928664
O O13 0.547108 0.345055 0.336537
O O14 0.068428 0.664897 0.157639
O O15 0.878530 0.974437 0.117608
O O16 0.500000 0.000000 0.000000
O O17 0.000000 0.000000 0.000000
#
# Coordination Sequence:
#
# PCOD8019843 Si02
#       8
#     2   2   2   2   2   2   2   2
#     4  11  23  46  68  94 124 167 221 268 316 366
#     4  10  22  42  59  93 131 162 208 260 317 386
#     4  10  24  40  60  91 129 171 206 256 330 367
#     4  10  23  40  60  89 132 169 205 257 328 374
#     4  12  24  42  67  93 131 165 218 264 318 377
#     4  12  23  37  63  98 122 169 212 251 324 382
#     4  11  25  43  68  94 126 168 218 270 311 378
#     4  12  22  38  60  93 137 169 205 262 312 391
#
# _framework density 20.911628
#
# number of rings (size 3 to 8) (size 9 to 14) (size 15 to 20)
#    0.750    0.250    5.000    1.500    3.500    1.000 
#    0.000    0.625    0.000    0.000    0.000    0.000 
#    0.000    0.000    0.000    0.000    0.000    0.000 
#
# Total GULP energy -198232.435001 kJ/mol
# GULP energy per Si atom -12389.527188 kJ/mol
# Density = 2.086403 g / cm^3
# Si number density = 20.911628 Si / 1000 Ang^3
#
#
#
# Elastic Constant Matrix: (Units=GPa)
#
#
# Indices 1 2 3 4 5 6 
#
# 1 86.7404 30.2671 21.3619 6.5181 -10.7063 23.2062
# 2 30.2671 95.0433 21.3214 6.3482 -1.0245 18.0616
# 3 21.3619 21.3214 79.8929 11.9688 -10.4755 14.3908
# 4 6.5181 6.3482 11.9688 28.9548 -4.0100 2.9628
# 5 -10.7063 -1.0245 -10.4755 -4.0100 32.3317 -2.0171
# 6 23.2062 18.0616 14.3908 2.9628 -2.0171 35.0993
#
#
#
# Elastic Compliance Matrix: (Units=1/GPa)
#
#
# Indices 1 2 3 4 5 6 
#
# 1 0.015596 -0.003077 -0.001252 -0.000949 0.004050 -0.007902
# 2 -0.003077 0.012699 -0.001942 -0.001134 -0.001617 -0.003701
# 3 -0.001252 -0.001942 0.015238 -0.004697 0.003640 -0.003815
# 4 -0.000949 -0.001134 -0.004697 0.037308 0.002764 0.000146
# 5 0.004050 -0.001617 0.003640 0.002764 0.033639 -0.001639
# 6 -0.007902 -0.003701 -0.003815 0.000146 -0.001639 0.037077
#
#
# Mechanical properties :
#
#
# Convention : Reuss Voigt Hill
#
# Bulk Modulus (GPa) = 32.26794 45.28639 38.77716
# Shear Modulus (GPa) = 28.66485 31.85890 30.26187
#
# Velocity S-wave (km/s) = 3.70640 3.90744 3.80824
# Velocity P-wave (km/s) = 5.81211 6.48541 6.15797
#
# Compressibility (1/GPa) = 0.03099051
#
# Stress axis : x y z
#
# Youngs Moduli (GPa) = 64.11888 78.74828 65.62604
#
# Poissons Ratio (x) = 0.24231 0.08219
# Poissons Ratio (y) = 0.19730 0.12742
# Poissons Ratio (z) = 0.08030 0.15290
#
# Static dielectric constant tensor:
#      x y z
#    x 3.766350 0.259020 -0.062640 
#    y 0.259020 4.040240 0.199100 
#    z -0.062640 0.199100 3.784120 
# 
# 
# High freq. dielectric constant tensor:
#      x y z
#    x 1.818320 0.014220 0.002610 
#    y 0.014220 1.828280 0.006230 
#    z 0.002610 0.006230 1.795930 
# 
# From -- ./inp_files/499204.got.cif
#   From: 2010.06.25/outbox.cif.g09.slc.cpg/sg2_250_cif.got.tgz:499204.got - 2010.06.27 13:26:56.
