data_PCOD8019092
_publ_section_title
;
Structure prediction by ZEFSAII (Michael W. Deem and Ramdas Pophale) SiO2 
 PCOD8019092
Probable space group: P -1
;
_chemical_formula_sum "Si O2"
_cell_formula_units_Z 16
_cell_length_a 14.198292
_cell_length_b 11.562953
_cell_length_c 9.001822
_cell_angle_alpha 148.054192
_cell_angle_beta 101.839787
_cell_angle_gamma 66.931663
_cell_volume 694.399151
_symmetry_space_group_name_H-M "P -1"
_symmetry_group_IT_number 2
_symmetry_cell_setting 'triclinic'
loop_
_space_group_symop_operation_xyz
x,y,z
-x,-y,-z
loop_
_atom_site_type_symbol
_atom_site_label
_atom_site_fract_x
_atom_site_fract_y
_atom_site_fract_z
Si Si1 0.121815 0.112850 0.902389
Si Si2 0.606072 0.823694 0.765831
Si Si3 0.930882 0.561260 0.261052
Si Si4 0.229285 0.012071 0.131672
Si Si5 0.382825 0.575828 0.872740
Si Si6 0.731070 0.672133 0.916667
Si Si7 0.440021 0.265527 0.832738
Si Si8 0.079122 0.722804 0.316974
O O1 0.220301 0.129905 0.867077
O O2 0.069103 0.994035 0.634288
O O3 0.160086 0.989961 0.943681
O O4 0.028502 0.378392 0.192968
O O5 0.664257 0.972071 0.870579
O O6 0.575047 0.668898 0.472059
O O7 0.682201 0.640814 0.712064
O O8 0.500000 0.000000 0.000000
O O9 0.838193 0.745116 0.533492
O O10 0.971468 0.713420 0.330022
O O11 0.887984 0.402380 0.970800
O O12 0.268514 0.776097 0.994524
O O13 0.376214 0.486690 0.940529
O O14 0.471474 0.676580 0.992533
O O15 0.643705 0.759181 0.110077
O O16 0.822402 0.411374 0.688804
O O17 0.500000 0.000000 0.500000
#
# Coordination Sequence:
#
# PCOD8019092 Si02
#       8
#     2   2   2   2   2   2   2   2
#     4  10  22  43  70  96 132 184 220 275 342 405
#     4  11  24  44  66  97 136 177 221 280 332 406
#     4  10  23  42  63 100 137 175 220 288 333 395
#     4  11  24  42  69 101 137 172 231 277 335 407
#     4  11  25  42  69  98 131 183 218 275 348 388
#     4  10  23  41  65  94 132 169 225 274 333 394
#     4  11  25  45  64  97 137 171 224 281 327 400
#     4  10  22  41  64  96 134 178 225 273 340 406
#
# _framework density 23.041504
#
# number of rings (size 3 to 8) (size 9 to 14) (size 15 to 20)
#    0.000    1.500    0.000    3.750    3.500    7.500 
#    4.500    0.000    0.000    0.000    0.000    0.000 
#    0.000    0.000    0.000    0.000    0.000    0.000 
#
# Total GULP energy -198326.177061 kJ/mol
# GULP energy per Si atom -12395.386066 kJ/mol
# Density = 2.298906 g / cm^3
# Si number density = 23.041504 Si / 1000 Ang^3
#
#
#
# Elastic Constant Matrix: (Units=GPa)
#
#
# Indices 1 2 3 4 5 6 
#
# 1 71.3400 16.7386 17.2737 -8.3231 0.3241 1.8322
# 2 16.7386 105.6793 5.3052 4.5570 -6.2338 -3.6369
# 3 17.2737 5.3052 91.4946 -12.1824 12.1135 -1.3870
# 4 -8.3231 4.5570 -12.1824 35.7075 -5.9774 -0.8665
# 5 0.3241 -6.2338 12.1135 -5.9774 36.5647 -5.6016
# 6 1.8322 -3.6369 -1.3870 -0.8665 -5.6016 25.5633
#
#
#
# Elastic Compliance Matrix: (Units=1/GPa)
#
#
# Indices 1 2 3 4 5 6 
#
# 1 0.015606 -0.002499 -0.002474 0.003173 0.000563 -0.001377
# 2 -0.002499 0.010144 -0.000573 -0.001696 0.001965 0.001964
# 3 -0.002474 -0.000573 0.012325 0.003093 -0.003642 0.000071
# 4 0.003173 -0.001696 0.003093 0.030712 0.003924 0.001600
# 5 0.000563 0.001965 -0.003642 0.003924 0.030580 0.006876
# 6 -0.001377 0.001964 0.000071 0.001600 0.006876 0.041061
#
#
# Mechanical properties :
#
#
# Convention : Reuss Voigt Hill
#
# Bulk Modulus (GPa) = 37.05968 38.57211 37.81590
# Shear Modulus (GPa) = 31.14989 34.84685 32.99837
#
# Velocity S-wave (km/s) = 3.68081 3.89312 3.78845
# Velocity P-wave (km/s) = 5.84665 6.08154 5.96525
#
# Compressibility (1/GPa) = 0.02698351
#
# Stress axis : x y z
#
# Youngs Moduli (GPa) = 64.07883 98.58318 81.13501
#
# Poissons Ratio (x) = 0.24632 0.20076
# Poissons Ratio (y) = 0.16011 0.04646
# Poissons Ratio (z) = 0.15855 0.05645
#
# Static dielectric constant tensor:
#      x y z
#    x 4.261720 -0.146720 0.130300 
#    y -0.146720 4.677870 0.009250 
#    z 0.130300 0.009250 3.924050 
# 
# 
# High freq. dielectric constant tensor:
#      x y z
#    x 1.903780 -0.017160 0.005240 
#    y -0.017160 1.932340 0.001440 
#    z 0.005240 0.001440 1.903680 
# 
# From -- ./inp_files/308954.got.cif
#   From: 2010.06.25/outbox.cif.g09.slc.cpg/sg2_155_cif.got.tgz:308954.got - 2010.06.27 13:26:56.
