data_PCOD8019784
_publ_section_title
;
Structure prediction by ZEFSAII (Michael W. Deem and Ramdas Pophale) SiO2 
 PCOD8019784
Probable space group: P -1
;
_chemical_formula_sum "Si O2"
_cell_formula_units_Z 16
_cell_length_a 19.246319
_cell_length_b 9.477869
_cell_length_c 11.424527
_cell_angle_alpha 70.874458
_cell_angle_beta 23.077137
_cell_angle_gamma 67.026261
_cell_volume 749.214088
_symmetry_space_group_name_H-M "P -1"
_symmetry_group_IT_number 2
_symmetry_cell_setting 'triclinic'
loop_
_space_group_symop_operation_xyz
x,y,z
-x,-y,-z
loop_
_atom_site_type_symbol
_atom_site_label
_atom_site_fract_x
_atom_site_fract_y
_atom_site_fract_z
Si Si1 0.166553 0.429718 0.680801
Si Si2 0.663081 0.520795 0.903896
Si Si3 0.675562 0.307594 0.745909
Si Si4 0.941699 0.684836 0.351183
Si Si5 0.886546 0.958138 0.534462
Si Si6 0.639996 0.405642 0.219683
Si Si7 0.579945 0.795433 0.485088
Si Si8 0.254012 0.037958 0.998906
O O1 0.214437 0.576701 0.508811
O O2 0.332994 0.340389 0.525355
O O3 0.120277 0.310190 0.689904
O O4 0.000000 0.500000 0.000000
O O5 0.653541 0.356846 0.903824
O O6 0.862519 0.554840 0.574403
O O7 0.520728 0.662725 0.021677
O O8 0.621752 0.512734 0.105269
O O9 0.781122 0.131350 0.617815
O O10 0.866185 0.848766 0.487589
O O11 0.158725 0.634075 0.029806
O O12 0.101549 0.946793 0.222956
O O13 0.800022 0.900415 0.801898
O O14 0.500000 0.500000 0.500000
O O15 0.576606 0.249857 0.337877
O O16 0.464677 0.938824 0.700145
O O17 0.739884 0.829953 0.143044
#
# Coordination Sequence:
#
# PCOD8019784 Si02
#       8
#     2   2   2   2   2   2   2   2
#     4  11  23  45  70  99 133 179 229 274 341 401
#     4  10  23  43  67  99 132 177 228 270 334 398
#     4  10  22  41  72  95 130 184 221 274 325 409
#     4  11  26  42  66 104 138 173 222 287 335 395
#     4  11  23  43  67 100 139 171 229 273 340 395
#     4  12  24  42  69  97 137 170 224 285 332 397
#     4  11  22  45  69  95 133 180 225 266 334 410
#     4  10  24  41  70  96 133 184 218 270 337 409
#
# _framework density 21.355713000000002
#
# number of rings (size 3 to 8) (size 9 to 14) (size 15 to 20)
#    0.000    1.250    2.500    2.625    7.000    1.500 
#    0.000    2.500    0.000    0.000    0.000    0.000 
#    0.000    0.000    0.000    0.000    0.000    0.000 
#
# Total GULP energy -198349.236528 kJ/mol
# GULP energy per Si atom -12396.827283 kJ/mol
# Density = 2.130711 g / cm^3
# Si number density = 21.355713 Si / 1000 Ang^3
#
#
#
# Elastic Constant Matrix: (Units=GPa)
#
#
# Indices 1 2 3 4 5 6 
#
# 1 76.5152 40.1556 47.9947 0.4969 7.8479 7.1853
# 2 40.1556 92.9864 35.2731 16.0933 7.7719 6.1490
# 3 47.9947 35.2731 141.3302 3.3015 9.6869 6.2542
# 4 0.4969 16.0933 3.3015 34.9179 1.4217 0.1391
# 5 7.8479 7.7719 9.6869 1.4217 39.6607 1.7267
# 6 7.1853 6.1490 6.2542 0.1391 1.7267 31.3693
#
#
#
# Elastic Compliance Matrix: (Units=1/GPa)
#
#
# Indices 1 2 3 4 5 6 
#
# 1 0.020324 -0.007245 -0.004984 0.003587 -0.001418 -0.002179
# 2 -0.007245 0.015695 -0.001173 -0.006972 -0.001058 -0.001094
# 3 -0.004984 -0.001173 0.009152 -0.000212 -0.000994 -0.000397
# 4 0.003587 -0.006972 -0.000212 0.031838 -0.000454 0.000471
# 5 -0.001418 -0.001058 -0.000994 -0.000454 0.025991 -0.000698
# 6 -0.002179 -0.001094 -0.000397 0.000471 -0.000698 0.032708
#
#
# Mechanical properties :
#
#
# Convention : Reuss Voigt Hill
#
# Bulk Modulus (GPa) = 54.44328 61.96429 58.20378
# Shear Modulus (GPa) = 29.64997 33.68347 31.66672
#
# Velocity S-wave (km/s) = 3.73015 3.97578 3.85492
# Velocity P-wave (km/s) = 6.64085 7.08195 6.86495
#
# Compressibility (1/GPa) = 0.01836774
#
# Stress axis : x y z
#
# Youngs Moduli (GPa) = 49.20189 63.71328 109.26974
#
# Poissons Ratio (x) = 0.46157 0.54461
# Poissons Ratio (y) = 0.35644 0.12820
# Poissons Ratio (z) = 0.24523 0.07475
#
# Static dielectric constant tensor:
#      x y z
#    x 2.180310 -1.262330 -1.737380 
#    y -1.262330 2.576970 -1.364270 
#    z -1.737380 -1.364270 2.322020 
# 
# 
# High freq. dielectric constant tensor:
#      x y z
#    x 1.834230 0.002110 0.004210 
#    y 0.002110 1.819480 0.002290 
#    z 0.004210 0.002290 1.866080 
# 
# From -- ./inp_files/205268.got.cif
#   From: 2010.06.25/outbox.cif.g09.slc.cpg/sg2_103_cif.got.tgz:205268.got - 2010.06.27 13:26:56.
