data_PCOD8019037
_publ_section_title
;
Structure prediction by ZEFSAII (Michael W. Deem and Ramdas Pophale) SiO2 
 PCOD8019037
Probable space group: P -1
;
_chemical_formula_sum "Si O2"
_cell_formula_units_Z 14
_cell_length_a 22.128489
_cell_length_b 12.246786
_cell_length_c 6.294107
_cell_angle_alpha 64.836629
_cell_angle_beta 85.766570
_cell_angle_gamma 30.788223
_cell_volume 614.275845
_symmetry_space_group_name_H-M "P -1"
_symmetry_group_IT_number 2
_symmetry_cell_setting 'triclinic'
loop_
_space_group_symop_operation_xyz
x,y,z
-x,-y,-z
loop_
_atom_site_type_symbol
_atom_site_label
_atom_site_fract_x
_atom_site_fract_y
_atom_site_fract_z
Si Si1 0.752994 0.753433 0.381994
Si Si2 0.280622 0.599254 0.814802
Si Si3 0.131281 0.222273 0.542249
Si Si4 0.297786 0.292364 0.178320
Si Si5 0.594174 0.427930 0.909048
Si Si6 0.980006 0.291601 0.346009
Si Si7 0.504297 0.231266 0.709150
O O1 0.782350 0.809115 0.500133
O O2 0.684167 0.769494 0.524446
O O3 0.901785 0.433513 0.483118
O O4 0.632565 0.025229 0.020400
O O5 0.344512 0.488395 0.648882
O O6 0.286733 0.453917 0.021168
O O7 0.390081 0.481070 0.028237
O O8 0.105664 0.958318 0.570333
O O9 0.000000 0.500000 0.500000
O O10 0.062090 0.274662 0.313732
O O11 0.240084 0.930046 0.881189
O O12 0.443338 0.978226 0.272309
O O13 0.144204 0.504426 0.969856
O O14 0.516172 0.610032 0.557597
O O15 0.500000 0.500000 0.000000
#
# Coordination Sequence:
#
# PCOD8019037 Si02
#       7
#     2   2   2   2   2   2   2
#     4  10  22  41  64  91 126 166 208 253 303 366
#     4  11  24  40  62  94 126 161 208 257 307 366
#     4   9  19  39  62  90 120 153 202 252 306 362
#     4  11  23  41  63  89 126 169 209 251 305 366
#     4  11  24  42  64  92 123 159 203 255 312 368
#     4   9  22  40  62  91 124 163 208 259 309 359
#     4  11  24  41  63  91 126 164 203 254 309 367
#
# _framework density 22.791063000000001
#
# number of rings (size 3 to 8) (size 9 to 14) (size 15 to 20)
#    0.000    1.714    0.000    3.429    0.000   11.429 
#    0.000    7.143    0.000    0.000    0.000    0.000 
#    0.000    0.000    0.000    0.000    0.000    0.000 
#
# Total GULP energy -173526.563349 kJ/mol
# GULP energy per Si atom -12394.754525 kJ/mol
# Density = 2.273919 g / cm^3
# Si number density = 22.791063 Si / 1000 Ang^3
#
#
#
# Elastic Constant Matrix: (Units=GPa)
#
#
# Indices 1 2 3 4 5 6 
#
# 1 102.3395 44.5785 74.7848 -3.4725 -17.1726 6.7088
# 2 44.5785 141.0770 65.9055 -20.7688 -15.6940 -0.3568
# 3 74.7848 65.9055 130.3489 -2.3217 -19.5498 -9.9447
# 4 -3.4725 -20.7688 -2.3217 35.8745 -1.8908 -7.6023
# 5 -17.1726 -15.6940 -19.5498 -1.8908 38.8010 -0.0513
# 6 6.7088 -0.3568 -9.9447 -7.6023 -0.0513 26.8387
#
#
#
# Elastic Compliance Matrix: (Units=1/GPa)
#
#
# Indices 1 2 3 4 5 6 
#
# 1 0.019041 -0.000874 -0.010814 -0.001156 0.002557 -0.009101
# 2 -0.000874 0.010494 -0.004378 0.005897 0.001940 0.000410
# 3 -0.010814 -0.004378 0.017058 -0.000500 0.002025 0.008828
# 4 -0.001156 0.005897 -0.000500 0.033359 0.003260 0.009638
# 5 0.002557 0.001940 0.002025 0.003260 0.028870 0.001116
# 6 -0.009101 0.000410 0.008828 0.009638 0.001116 0.045543
#
#
# Mechanical properties :
#
#
# Convention : Reuss Voigt Hill
#
# Bulk Modulus (GPa) = 69.14417 82.70033 75.92225
# Shear Modulus (GPa) = 26.13495 32.86928 29.50212
#
# Velocity S-wave (km/s) = 3.39000 3.80175 3.60176
# Velocity P-wave (km/s) = 6.76217 7.45896 7.11910
#
# Compressibility (1/GPa) = 0.01446254
#
# Stress axis : x y z
#
# Youngs Moduli (GPa) = 52.51939 95.28934 58.62494
#
# Poissons Ratio (x) = 0.08324 0.63396
# Poissons Ratio (y) = 0.04588 0.25663
# Poissons Ratio (z) = 0.56794 0.41713
#
# Static dielectric constant tensor:
#      x y z
#    x 4.471990 0.117730 0.214640 
#    y 0.117730 4.339270 -0.231090 
#    z 0.214640 -0.231090 4.106560 
# 
# 
# High freq. dielectric constant tensor:
#      x y z
#    x 1.900780 0.005800 0.004430 
#    y 0.005800 1.909970 -0.024200 
#    z 0.004430 -0.024200 1.889310 
# 
# From -- ./inp_files/71563.got.cif
#   From: 2010.06.25/outbox.cif.g09.slc.cpg/sg2_36_cif.got.tgz:71563.got - 2010.06.27 13:26:56.
