data_PCOD8019891
_publ_section_title
;
Structure prediction by ZEFSAII (Michael W. Deem and Ramdas Pophale) SiO2 
 PCOD8019891
Probable space group: P -1
;
_chemical_formula_sum "Si O2"
_cell_formula_units_Z 16
_cell_length_a 7.623130
_cell_length_b 9.010526
_cell_length_c 14.701414
_cell_angle_alpha 120.764580
_cell_angle_beta 63.256498
_cell_angle_gamma 117.428370
_cell_volume 739.120021
_symmetry_space_group_name_H-M "P -1"
_symmetry_group_IT_number 2
_symmetry_cell_setting 'triclinic'
loop_
_space_group_symop_operation_xyz
x,y,z
-x,-y,-z
loop_
_atom_site_type_symbol
_atom_site_label
_atom_site_fract_x
_atom_site_fract_y
_atom_site_fract_z
Si Si1 0.812855 0.694981 0.253674
Si Si2 0.575653 0.201946 0.582994
Si Si3 0.740473 0.572334 0.962684
Si Si4 0.767647 0.715307 0.820440
Si Si5 0.795728 0.552098 0.566582
Si Si6 0.697168 0.339668 0.061351
Si Si7 0.017434 0.881310 0.096454
Si Si8 0.988169 0.791969 0.439083
O O1 0.610384 0.762300 0.306016
O O2 0.758730 0.485635 0.173369
O O3 0.986418 0.828466 0.193001
O O4 0.901172 0.704776 0.336913
O O5 0.618425 0.356682 0.541206
O O6 0.785152 0.229806 0.601409
O O7 0.500000 0.000000 0.500000
O O8 0.815819 0.577821 0.841464
O O9 0.500000 0.500000 0.000000
O O10 0.808887 0.435344 0.970765
O O11 0.817126 0.775549 0.050979
O O12 0.768305 0.645139 0.696929
O O13 0.549079 0.740642 0.907893
O O14 0.942280 0.905327 0.852847
O O15 0.000000 0.500000 0.500000
O O16 0.813136 0.690843 0.522675
O O17 0.789650 0.176009 0.007189
O O18 0.000000 0.000000 0.500000
#
# Coordination Sequence:
#
# PCOD8019891 Si02
#       8
#     2   2   2   2   2   2   2   2
#     4  11  22  43  67  92 135 172 213 269 332 388
#     4  11  23  43  67  93 132 172 223 272 322 391
#     4   9  20  38  64  88 121 168 209 257 321 384
#     4  11  21  41  65  90 128 163 209 273 323 383
#     4  10  24  41  65  94 130 170 217 269 329 392
#     4  10  22  42  62  91 125 166 213 267 322 390
#     4  11  23  39  65  94 128 163 219 267 322 387
#     4  11  23  43  68  97 132 175 218 268 331 394
#
# _framework density 21.647362999999999
#
# number of rings (size 3 to 8) (size 9 to 14) (size 15 to 20)
#    0.000    1.500    2.500    3.000    1.750    4.500 
#    4.500    0.000    2.750    0.000    0.000    0.000 
#    0.000    0.000    0.000    0.000    0.000    0.000 
#
# Total GULP energy -198219.126561 kJ/mol
# GULP energy per Si atom -12388.695410 kJ/mol
# Density = 2.159809 g / cm^3
# Si number density = 21.647363 Si / 1000 Ang^3
#
#
#
# Elastic Constant Matrix: (Units=GPa)
#
#
# Indices 1 2 3 4 5 6 
#
# 1 100.2317 27.3652 39.4638 -5.2252 8.0976 4.1710
# 2 27.3652 135.5615 46.5400 -1.6770 9.2870 10.2774
# 3 39.4638 46.5400 110.7902 -17.4054 7.8080 -7.2082
# 4 -5.2252 -1.6770 -17.4054 30.8010 -8.7984 3.5429
# 5 8.0976 9.2870 7.8080 -8.7984 41.8268 0.5974
# 6 4.1710 10.2774 -7.2082 3.5429 0.5974 31.9367
#
#
#
# Elastic Compliance Matrix: (Units=1/GPa)
#
#
# Indices 1 2 3 4 5 6 
#
# 1 0.011964 -0.000768 -0.004050 -0.000470 -0.001458 -0.002150
# 2 -0.000768 0.009271 -0.004050 -0.001937 -0.001510 -0.003554
# 3 -0.004050 -0.004050 0.013401 0.006317 0.000451 0.004148
# 4 -0.000470 -0.001937 0.006317 0.038230 0.007416 -0.002269
# 5 -0.001458 -0.001510 0.000451 0.007416 0.026009 -0.000531
# 6 -0.002150 -0.003554 0.004148 -0.002269 -0.000531 0.033934
#
#
# Mechanical properties :
#
#
# Convention : Reuss Voigt Hill
#
# Bulk Modulus (GPa) = 59.17256 63.70239 61.43748
# Shear Modulus (GPa) = 32.01466 36.46052 34.23759
#
# Velocity S-wave (km/s) = 3.84984 4.10847 3.98126
# Velocity P-wave (km/s) = 6.86701 7.21091 7.04106
#
# Compressibility (1/GPa) = 0.01689972
#
# Stress axis : x y z
#
# Youngs Moduli (GPa) = 83.58529 107.86147 74.62372
#
# Poissons Ratio (x) = 0.08279 0.30223
# Poissons Ratio (y) = 0.06416 0.30224
# Poissons Ratio (z) = 0.33853 0.43686
#
# Static dielectric constant tensor:
#      x y z
#    x 4.082890 -0.002160 0.017680 
#    y -0.002160 4.806500 -0.471880 
#    z 0.017680 -0.471880 4.129760 
# 
# 
# High freq. dielectric constant tensor:
#      x y z
#    x 1.845040 0.012030 -0.000580 
#    y 0.012030 1.862260 -0.005450 
#    z -0.000580 -0.005450 1.845550 
# 
# From -- ./inp_files/493607.got.cif
#   From: 2010.06.25/outbox.cif.g09.slc.cpg/sg2_247_cif.got.tgz:493607.got - 2010.06.27 13:26:56.
