data_PCOD8019790
_publ_section_title
;
Structure prediction by ZEFSAII (Michael W. Deem and Ramdas Pophale) SiO2 
 PCOD8019790
Probable space group: P -1
;
_chemical_formula_sum "Si O2"
_cell_formula_units_Z 16
_cell_length_a 8.883317
_cell_length_b 5.354163
_cell_length_c 24.493558
_cell_angle_alpha 91.478148
_cell_angle_beta 48.525286
_cell_angle_gamma 64.815518
_cell_volume 703.910500
_symmetry_space_group_name_H-M "P -1"
_symmetry_group_IT_number 2
_symmetry_cell_setting 'triclinic'
loop_
_space_group_symop_operation_xyz
x,y,z
-x,-y,-z
loop_
_atom_site_type_symbol
_atom_site_label
_atom_site_fract_x
_atom_site_fract_y
_atom_site_fract_z
Si Si1 0.413986 0.352807 0.693222
Si Si2 0.600016 0.678818 0.003579
Si Si3 0.558191 0.584719 0.749331
Si Si4 0.852752 0.852436 0.520121
Si Si5 0.176236 0.247851 0.841428
Si Si6 0.556437 0.209476 0.833838
Si Si7 0.093732 0.291807 0.615228
Si Si8 0.114061 0.764461 0.673336
O O1 0.597878 0.336943 0.694002
O O2 0.195012 0.377921 0.780158
O O3 0.286581 0.645625 0.684965
O O4 0.588323 0.036751 0.615542
O O5 0.517695 0.742310 0.085700
O O6 0.500000 0.500000 0.000000
O O7 0.896824 0.453329 0.929887
O O8 0.500000 0.000000 0.000000
O O9 0.554254 0.492793 0.812435
O O10 0.799517 0.579594 0.682395
O O11 0.286320 0.892791 0.801495
O O12 0.790211 0.872444 0.471237
O O13 0.000000 0.500000 0.500000
O O14 0.000000 0.000000 0.500000
O O15 0.356941 0.204125 0.846381
O O16 0.833814 0.897946 0.759071
O O17 0.215235 0.459603 0.609521
O O18 0.133515 0.022288 0.643082
#
# Coordination Sequence:
#
# PCOD8019790 Si02
#       8
#     2   2   2   2   2   2   2   2
#     4  11  26  42  69 105 134 186 228 289 339 406
#     4  12  30  47  71 105 144 177 224 287 346 404
#     4  10  22  41  72  98 132 183 237 273 335 408
#     4  12  25  42  72 100 139 179 237 285 337 401
#     4  11  24  45  74  97 139 181 238 273 340 414
#     4  10  24  44  68 101 134 184 224 281 337 411
#     4  11  23  44  65 101 137 184 223 283 340 407
#     4  11  25  42  69  98 144 175 228 280 349 402
#
# _framework density 22.730160000000001
#
# number of rings (size 3 to 8) (size 9 to 14) (size 15 to 20)
#    0.000    1.000    2.500    2.625   10.500    2.500 
#    0.000    0.000    0.000    0.000    0.000    0.000 
#    0.000    0.000    0.000    0.000    0.000    0.000 
#
# Total GULP energy -198305.112700 kJ/mol
# GULP energy per Si atom -12394.069544 kJ/mol
# Density = 2.267843 g / cm^3
# Si number density = 22.730160 Si / 1000 Ang^3
#
#
#
# Elastic Constant Matrix: (Units=GPa)
#
#
# Indices 1 2 3 4 5 6 
#
# 1 63.0080 33.6751 30.9191 -5.1710 11.7909 -6.9344
# 2 33.6751 134.3124 29.9583 2.3159 18.9054 -7.1455
# 3 30.9191 29.9583 105.1762 -4.4307 31.4788 -11.2768
# 4 -5.1710 2.3159 -4.4307 33.3923 -8.9092 2.8119
# 5 11.7909 18.9054 31.4788 -8.9092 34.1843 -4.5935
# 6 -6.9344 -7.1455 -11.2768 2.8119 -4.5935 40.6566
#
#
#
# Elastic Compliance Matrix: (Units=1/GPa)
#
#
# Indices 1 2 3 4 5 6 
#
# 1 0.020748 -0.004183 -0.004794 0.002889 0.000503 0.001331
# 2 -0.004183 0.009177 -0.000239 -0.002421 -0.003969 0.000552
# 3 -0.004794 -0.000239 0.014720 -0.002160 -0.012062 0.002010
# 4 0.002889 -0.002421 -0.002160 0.033291 0.010791 -0.001615
# 5 0.000503 -0.003969 -0.012062 0.010791 0.045249 0.000409
# 6 0.001331 0.000552 0.002010 -0.001615 0.000409 0.025636
#
#
# Mechanical properties :
#
#
# Convention : Reuss Voigt Hill
#
# Bulk Modulus (GPa) = 38.14874 54.62242 46.38558
# Shear Modulus (GPa) = 28.41046 35.50960 31.96003
#
# Velocity S-wave (km/s) = 3.53923 3.95679 3.75382
# Velocity P-wave (km/s) = 5.78976 6.70506 6.26415
#
# Compressibility (1/GPa) = 0.02621319
#
# Stress axis : x y z
#
# Youngs Moduli (GPa) = 48.19626 108.96580 67.93491
#
# Poissons Ratio (x) = 0.45576 0.32571
# Poissons Ratio (y) = 0.20158 0.01625
# Poissons Ratio (z) = 0.23107 0.02607
#
# Static dielectric constant tensor:
#      x y z
#    x 4.225450 -0.507920 -0.303570 
#    y -0.507920 6.110840 1.626330 
#    z -0.303570 1.626330 5.592870 
# 
# 
# High freq. dielectric constant tensor:
#      x y z
#    x 1.898000 -0.007210 0.010040 
#    y -0.007210 1.905820 0.001690 
#    z 0.010040 0.001690 1.902610 
# 
# From -- ./inp_files/52874.got.cif
#   From: 2010.06.25/outbox.cif.g09.slc.cpg/sg2_27_cif.got.tgz:52874.got - 2010.06.27 13:26:56.
