data_PCOD8019171
_publ_section_title
;
Structure prediction by ZEFSAII (Michael W. Deem and Ramdas Pophale) SiO2 
 PCOD8019171
Probable space group: P -1
;
_chemical_formula_sum "Si O2"
_cell_formula_units_Z 14
_cell_length_a 8.718577
_cell_length_b 15.921553
_cell_length_c 15.003526
_cell_angle_alpha 26.364257
_cell_angle_beta 75.865838
_cell_angle_gamma 58.701550
_cell_volume 642.005583
_symmetry_space_group_name_H-M "P -1"
_symmetry_group_IT_number 2
_symmetry_cell_setting 'triclinic'
loop_
_space_group_symop_operation_xyz
x,y,z
-x,-y,-z
loop_
_atom_site_type_symbol
_atom_site_label
_atom_site_fract_x
_atom_site_fract_y
_atom_site_fract_z
Si Si1 0.475944 0.425902 0.409313
Si Si2 0.265493 0.698038 0.798908
Si Si3 0.745642 0.042568 0.133831
Si Si4 0.815189 0.971914 0.653272
Si Si5 0.780007 0.482264 0.365889
Si Si6 0.743123 0.727170 0.305717
Si Si7 0.698589 0.651834 0.015939
O O1 0.609364 0.452489 0.431421
O O2 0.374059 0.337181 0.559312
O O3 0.647755 0.212909 0.513969
O O4 0.281432 0.711221 0.117531
O O5 0.228179 0.571076 0.849602
O O6 0.068557 0.827276 0.775949
O O7 0.240371 0.921578 0.541766
O O8 0.500000 0.500000 0.000000
O O9 0.672720 0.991401 0.101584
O O10 0.568751 0.124497 0.155482
O O11 0.986291 0.790531 0.373020
O O12 0.795041 0.764975 0.858078
O O13 0.698434 0.728397 0.205418
O O14 0.798679 0.531322 0.214687
O O15 0.000000 0.500000 0.500000
#
# Coordination Sequence:
#
# PCOD8019171 Si02
#       7
#     2   2   2   2   2   2   2
#     4  11  22  42  65  97 132 175 216 265 324 379
#     4  11  26  45  69  98 128 167 219 270 328 387
#     4  10  22  41  65  93 135 169 221 265 312 385
#     4  11  24  44  68  98 132 166 216 269 325 396
#     4  10  23  41  65  96 133 173 218 268 318 378
#     4  10  22  43  63  99 131 175 224 263 314 381
#     4  11  23  44  66  98 130 169 213 269 325 387
#
# _framework density 21.806664000000001
#
# number of rings (size 3 to 8) (size 9 to 14) (size 15 to 20)
#    0.000    1.429    4.286    0.857    2.000    6.286 
#    7.714    0.000    0.000    0.000    0.000    0.000 
#    0.000    0.000    0.000    0.000    0.000    0.000 
#
# Total GULP energy -173536.245946 kJ/mol
# GULP energy per Si atom -12395.446139 kJ/mol
# Density = 2.175703 g / cm^3
# Si number density = 21.806664 Si / 1000 Ang^3
#
#
#
# Elastic Constant Matrix: (Units=GPa)
#
#
# Indices 1 2 3 4 5 6 
#
# 1 77.3443 31.3156 39.8290 9.3540 -5.0370 -8.1101
# 2 31.3156 101.8388 36.7004 -5.2283 -13.7605 -0.3797
# 3 39.8290 36.7004 94.5375 3.8756 -8.5035 -2.4572
# 4 9.3540 -5.2283 3.8756 28.4110 -1.7258 -0.0444
# 5 -5.0370 -13.7605 -8.5035 -1.7258 36.0141 -3.3311
# 6 -8.1101 -0.3797 -2.4572 -0.0444 -3.3311 35.1464
#
#
#
# Elastic Compliance Matrix: (Units=1/GPa)
#
#
# Indices 1 2 3 4 5 6 
#
# 1 0.018753 -0.003915 -0.006054 -0.006077 -0.000239 0.003831
# 2 -0.003915 0.012913 -0.003218 0.004333 0.003776 -0.000625
# 3 -0.006054 -0.003218 0.014507 -0.000500 0.001298 -0.000295
# 4 -0.006077 0.004333 -0.000500 0.038209 0.002416 -0.001113
# 5 -0.000239 0.003776 0.001298 0.002416 0.029868 0.002910
# 6 0.003831 -0.000625 -0.000295 -0.001113 0.002910 0.029584
#
#
# Mechanical properties :
#
#
# Convention : Reuss Voigt Hill
#
# Bulk Modulus (GPa) = 50.50446 54.37894 52.44170
# Shear Modulus (GPa) = 28.27953 30.97269 29.62611
#
# Velocity S-wave (km/s) = 3.60506 3.77282 3.68989
# Velocity P-wave (km/s) = 6.36702 6.63098 6.50034
#
# Compressibility (1/GPa) = 0.01980023
#
# Stress axis : x y z
#
# Youngs Moduli (GPa) = 53.32529 77.43941 68.93235
#
# Poissons Ratio (x) = 0.30318 0.41729
# Poissons Ratio (y) = 0.20877 0.22182
# Poissons Ratio (z) = 0.32281 0.24919
#
# Static dielectric constant tensor:
#      x y z
#    x 3.669100 0.154630 0.273310 
#    y 0.154630 4.255740 -0.455670 
#    z 0.273310 -0.455670 3.638070 
# 
# 
# High freq. dielectric constant tensor:
#      x y z
#    x 1.860050 -0.006420 0.000730 
#    y -0.006420 1.863240 -0.022120 
#    z 0.000730 -0.022120 1.864740 
# 
# From -- ./inp_files/313214.got.cif
#   From: 2010.06.25/outbox.cif.g09.slc.cpg/sg2_157_cif.got.tgz:313214.got - 2010.06.27 13:26:56.
