data_PCOD8019045
_publ_section_title
;
Structure prediction by ZEFSAII (Michael W. Deem and Ramdas Pophale) SiO2 
 PCOD8019045
Probable space group: P -1
;
_chemical_formula_sum "Si O2"
_cell_formula_units_Z 16
_cell_length_a 14.563414
_cell_length_b 4.987629
_cell_length_c 12.952066
_cell_angle_alpha 93.046565
_cell_angle_beta 111.943784
_cell_angle_gamma 65.115309
_cell_volume 785.537486
_symmetry_space_group_name_H-M "P -1"
_symmetry_group_IT_number 2
_symmetry_cell_setting 'triclinic'
loop_
_space_group_symop_operation_xyz
x,y,z
-x,-y,-z
loop_
_atom_site_type_symbol
_atom_site_label
_atom_site_fract_x
_atom_site_fract_y
_atom_site_fract_z
Si Si1 0.989917 0.514609 0.373921
Si Si2 0.861062 0.415466 0.902979
Si Si3 0.288509 0.744670 0.621928
Si Si4 0.889071 0.898469 0.043032
Si Si5 0.858990 0.150188 0.255150
Si Si6 0.476998 0.513925 0.368967
Si Si7 0.660331 0.824376 0.688674
Si Si8 0.227787 0.307649 0.475932
O O1 0.908169 0.393544 0.286242
O O2 0.000000 0.500000 0.500000
O O3 0.113469 0.341165 0.377738
O O4 0.949629 0.857191 0.338182
O O5 0.771788 0.602123 0.785347
O O6 0.979187 0.270656 0.893892
O O7 0.851790 0.639083 0.997820
O O8 0.845046 0.137267 0.936505
O O9 0.255564 0.744660 0.728103
O O10 0.417150 0.537692 0.655990
O O11 0.215599 0.620793 0.522828
O O12 0.261916 0.075074 0.579716
O O13 0.835597 0.079860 0.127804
O O14 0.500000 0.500000 0.500000
O O15 0.436522 0.262898 0.321098
O O16 0.380734 0.828015 0.296900
O O17 0.678028 0.797492 0.572478
#
# Coordination Sequence:
#
# PCOD8019045 Si02
#       8
#     2   2   2   2   2   2   2   2
#     4  12  22  35  55  86 126 159 193 234 288 369
#     4  10  22  41  64  92 115 152 202 255 303 355
#     4  12  23  37  56  83 121 161 198 233 290 356
#     4  10  22  41  65  88 121 152 199 249 306 365
#     4  12  23  39  59  85 123 167 193 239 306 360
#     4  12  23  39  60  86 123 164 204 246 296 351
#     4  12  23  39  63  88 120 156 202 257 303 346
#     4  12  22  35  56  85 120 158 193 236 292 362
#
# _framework density 20.368217999999999
#
# number of rings (size 3 to 8) (size 9 to 14) (size 15 to 20)
#    0.000    0.500    5.000    4.500    0.000    3.000 
#    0.000    0.000    0.000    4.500    0.000    0.000 
#    0.000    0.000    0.000    0.000    0.000    0.000 
#
# Total GULP energy -198405.715112 kJ/mol
# GULP energy per Si atom -12400.357194 kJ/mol
# Density = 2.032186 g / cm^3
# Si number density = 20.368218 Si / 1000 Ang^3
#
#
#
# Elastic Constant Matrix: (Units=GPa)
#
#
# Indices 1 2 3 4 5 6 
#
# 1 105.7955 33.6056 24.0951 8.6681 -8.2591 -8.7292
# 2 33.6056 88.7389 13.5187 -3.4816 -1.8615 -0.2104
# 3 24.0951 13.5187 53.0554 4.0489 -4.4971 -6.2846
# 4 8.6681 -3.4816 4.0489 43.3298 -7.6502 -1.1101
# 5 -8.2591 -1.8615 -4.4971 -7.6502 17.0306 4.9003
# 6 -8.7292 -0.2104 -6.2846 -1.1101 4.9003 36.4011
#
#
#
# Elastic Compliance Matrix: (Units=1/GPa)
#
#
# Indices 1 2 3 4 5 6 
#
# 1 0.012145 -0.004008 -0.003887 -0.001793 0.003118 0.001744
# 2 -0.004008 0.013144 -0.001801 0.002044 0.000273 -0.001170
# 3 -0.003887 -0.001801 0.021642 -0.000879 0.002541 0.002425
# 4 -0.001793 0.002044 -0.000879 0.025590 0.010982 -0.001268
# 5 0.003118 0.000273 0.002541 0.010982 0.068062 -0.007640
# 6 0.001744 -0.001170 0.002425 -0.001268 -0.007640 0.029292
#
#
# Mechanical properties :
#
#
# Convention : Reuss Voigt Hill
#
# Bulk Modulus (GPa) = 36.31001 43.33652 39.82327
# Shear Modulus (GPa) = 25.19594 31.11034 28.15314
#
# Velocity S-wave (km/s) = 3.52095 3.91243 3.72184
# Velocity P-wave (km/s) = 5.86472 6.46005 6.16957
#
# Compressibility (1/GPa) = 0.02754061
#
# Stress axis : x y z
#
# Youngs Moduli (GPa) = 82.34049 76.07864 46.20701
#
# Poissons Ratio (x) = 0.30492 0.17959
# Poissons Ratio (y) = 0.33002 0.08320
# Poissons Ratio (z) = 0.32002 0.13698
#
# Static dielectric constant tensor:
#      x y z
#    x 3.985130 0.039670 -0.172170 
#    y 0.039670 3.896280 0.037550 
#    z -0.172170 0.037550 3.507910 
# 
# 
# High freq. dielectric constant tensor:
#      x y z
#    x 1.797340 0.011580 -0.009770 
#    y 0.011580 1.814010 -0.003900 
#    z -0.009770 -0.003900 1.761010 
# 
# From -- ./inp_files/441191.got.cif
#   From: 2010.06.25/outbox.cif.g09.slc.cpg/sg2_221_cif.got.tgz:441191.got - 2010.06.27 13:26:56.
