data_PCOD8019103
_publ_section_title
;
Structure prediction by ZEFSAII (Michael W. Deem and Ramdas Pophale) SiO2 
 PCOD8019103
Probable space group: P -1
;
_chemical_formula_sum "Si O2"
_cell_formula_units_Z 14
_cell_length_a 9.600247
_cell_length_b 9.652264
_cell_length_c 11.106887
_cell_angle_alpha 59.209819
_cell_angle_beta 78.674395
_cell_angle_gamma 47.239358
_cell_volume 630.213709
_symmetry_space_group_name_H-M "P -1"
_symmetry_group_IT_number 2
_symmetry_cell_setting 'triclinic'
loop_
_space_group_symop_operation_xyz
x,y,z
-x,-y,-z
loop_
_atom_site_type_symbol
_atom_site_label
_atom_site_fract_x
_atom_site_fract_y
_atom_site_fract_z
Si Si1 0.630067 0.673598 0.043110
Si Si2 0.541756 0.685254 0.790921
Si Si3 0.239345 0.722080 0.685178
Si Si4 0.283784 0.182752 0.658258
Si Si5 0.386511 0.962134 0.165882
Si Si6 0.141082 0.568293 0.336712
Si Si7 0.824561 0.163103 0.621214
O O1 0.785935 0.445086 0.194147
O O2 0.432310 0.852570 0.075749
O O3 0.565568 0.629719 0.952847
O O4 0.718394 0.781023 0.945397
O O5 0.428444 0.632941 0.764687
O O6 0.758888 0.522946 0.769995
O O7 0.422467 0.943803 0.676860
O O8 0.283101 0.699772 0.544926
O O9 0.054296 0.973603 0.639303
O O10 0.403721 0.181344 0.741334
O O11 0.212899 0.358253 0.490665
O O12 0.092980 0.248806 0.721624
O O13 0.249780 0.952402 0.270947
O O14 0.212228 0.674659 0.344199
#
# Coordination Sequence:
#
# PCOD8019103 Si02
#       7
#     2   2   2   2   2   2   2
#     4  10  23  43  64  93 133 174 215 268 324 393
#     4  11  22  42  65  96 132 174 213 272 322 391
#     4  11  23  42  66  98 136 164 226 273 317 391
#     4  10  22  41  64  98 133 167 222 275 313 395
#     4  10  22  45  66  93 132 173 218 268 329 382
#     4  11  22  40  67  97 130 177 215 265 338 373
#     4  11  24  42  68  99 127 176 219 272 325 382
#
# _framework density 22.214687000000001
#
# number of rings (size 3 to 8) (size 9 to 14) (size 15 to 20)
#    0.000    1.429    1.429    3.429    0.000    3.429 
#   18.000    1.429    0.000    0.000    0.000    0.000 
#    0.000    0.000    0.000    0.000    0.000    0.000 
#
# Total GULP energy -173612.158632 kJ/mol
# GULP energy per Si atom -12400.868474 kJ/mol
# Density = 2.216413 g / cm^3
# Si number density = 22.214687 Si / 1000 Ang^3
#
#
#
# Elastic Constant Matrix: (Units=GPa)
#
#
# Indices 1 2 3 4 5 6 
#
# 1 90.8302 30.8655 25.6304 21.4019 -10.9717 -4.8484
# 2 30.8655 112.6229 27.6243 17.2308 1.2956 0.9491
# 3 25.6304 27.6243 112.2018 11.0483 -19.1414 4.4350
# 4 21.4019 17.2308 11.0483 39.9472 8.4607 -4.1352
# 5 -10.9717 1.2956 -19.1414 8.4607 22.5830 0.7162
# 6 -4.8484 0.9491 4.4350 -4.1352 0.7162 23.9529
#
#
#
# Elastic Compliance Matrix: (Units=1/GPa)
#
#
# Indices 1 2 3 4 5 6 
#
# 1 0.015659 -0.002990 -0.000076 -0.009300 0.011156 0.001363
# 2 -0.002990 0.010565 -0.002289 -0.001697 -0.003338 -0.000793
# 3 -0.000076 -0.002289 0.012335 -0.005438 0.012699 -0.003527
# 4 -0.009300 -0.001697 -0.005438 0.037879 -0.023426 0.006431
# 5 0.011156 -0.003338 0.012699 -0.023426 0.069626 -0.006087
# 6 0.001363 -0.000793 -0.003527 0.006431 -0.006087 0.044001
#
#
# Mechanical properties :
#
#
# Convention : Reuss Voigt Hill
#
# Bulk Modulus (GPa) = 35.90791 53.76615 44.83703
# Shear Modulus (GPa) = 23.80314 32.73225 28.26770
#
# Velocity S-wave (km/s) = 3.27694 3.84272 3.57105
# Velocity P-wave (km/s) = 5.52421 6.62904 6.10168
#
# Compressibility (1/GPa) = 0.02784901
#
# Stress axis : x y z
#
# Youngs Moduli (GPa) = 63.86269 94.65405 81.07242
#
# Poissons Ratio (x) = 0.28299 0.00614
# Poissons Ratio (y) = 0.19093 0.18558
# Poissons Ratio (z) = 0.00483 0.21667
#
# Static dielectric constant tensor:
#      x y z
#    x 3.852640 0.107740 -0.057200 
#    y 0.107740 4.000140 -0.020690 
#    z -0.057200 -0.020690 4.067450 
# 
# 
# High freq. dielectric constant tensor:
#      x y z
#    x 1.858260 0.013680 -0.006870 
#    y 0.013680 1.883100 -0.000140 
#    z -0.006870 -0.000140 1.880580 
# 
# From -- ./inp_files/373989.got.cif
#   From: 2010.06.25/outbox.cif.g09.slc.cpg/sg2_187_cif.got.tgz:373989.got - 2010.06.27 13:26:56.
