data_PCOD8019298
_publ_section_title
;
Structure prediction by ZEFSAII (Michael W. Deem and Ramdas Pophale) SiO2 
 PCOD8019298
Probable space group: P -1
;
_chemical_formula_sum "Si O2"
_cell_formula_units_Z 14
_cell_length_a 9.100327
_cell_length_b 12.624237
_cell_length_c 8.843696
_cell_angle_alpha 120.791288
_cell_angle_beta 111.771720
_cell_angle_gamma 47.939289
_cell_volume 647.364388
_symmetry_space_group_name_H-M "P -1"
_symmetry_group_IT_number 2
_symmetry_cell_setting 'triclinic'
loop_
_space_group_symop_operation_xyz
x,y,z
-x,-y,-z
loop_
_atom_site_type_symbol
_atom_site_label
_atom_site_fract_x
_atom_site_fract_y
_atom_site_fract_z
Si Si1 0.175701 0.015493 0.085128
Si Si2 0.530175 0.468207 0.807668
Si Si3 0.536917 0.258680 0.209714
Si Si4 0.166294 0.304716 0.255766
Si Si5 0.573071 0.099452 0.622806
Si Si6 0.222818 0.841786 0.478606
Si Si7 0.766485 0.592317 0.339192
O O1 0.128115 0.176297 0.131020
O O2 0.238108 0.983512 0.259476
O O3 0.359349 0.889029 0.963367
O O4 0.000000 0.000000 0.000000
O O5 0.534514 0.592629 0.808269
O O6 0.733661 0.296623 0.717748
O O7 0.340789 0.478584 0.682503
O O8 0.500000 0.500000 0.000000
O O9 0.348850 0.273598 0.211623
O O10 0.698493 0.227249 0.373733
O O11 0.184359 0.329884 0.457256
O O12 0.964947 0.462254 0.230514
O O13 0.636888 0.113608 0.491183
O O14 0.390326 0.271134 0.737230
O O15 0.500000 0.000000 0.500000
O O16 0.000000 0.000000 0.500000
#
# Coordination Sequence:
#
# PCOD8019298 Si02
#       7
#     2   2   2   2   2   2   2
#     4  12  25  43  68 101 140 187 232 282 353 417
#     4  11  24  46  70  97 139 183 234 286 355 424
#     4  12  23  43  69 100 137 183 232 296 342 410
#     4  11  23  41  65 101 132 180 232 285 339 416
#     4  11  21  43  65  95 134 183 224 280 344 413
#     4  11  24  40  64 102 139 175 232 289 344 409
#     4  10  22  41  66  94 136 175 231 276 353 410
#
# _framework density 21.626149999999999
#
# number of rings (size 3 to 8) (size 9 to 14) (size 15 to 20)
#    0.000    0.857    4.286    4.286    0.000    2.286 
#    0.000    2.857    0.000    0.000    0.000    0.000 
#    0.000    0.000    0.000    0.000    0.000    0.000 
#
# Total GULP energy -173480.275041 kJ/mol
# GULP energy per Si atom -12391.448217 kJ/mol
# Density = 2.157693 g / cm^3
# Si number density = 21.626150 Si / 1000 Ang^3
#
#
#
# Elastic Constant Matrix: (Units=GPa)
#
#
# Indices 1 2 3 4 5 6 
#
# 1 133.9375 88.9811 45.4691 19.0733 13.2850 -0.5416
# 2 88.9811 158.1984 47.4690 18.6612 -2.5073 -3.0493
# 3 45.4691 47.4690 87.5627 14.8600 5.1882 10.5313
# 4 19.0733 18.6612 14.8600 44.6651 -1.7192 -2.5075
# 5 13.2850 -2.5073 5.1882 -1.7192 37.9958 5.8089
# 6 -0.5416 -3.0493 10.5313 -2.5075 5.8089 46.7657
#
#
#
# Elastic Compliance Matrix: (Units=1/GPa)
#
#
# Indices 1 2 3 4 5 6 
#
# 1 0.013683 -0.006609 -0.002950 -0.002244 -0.005057 0.000900
# 2 -0.006609 0.010999 -0.002701 -0.000704 0.003250 0.000807
# 3 -0.002950 -0.002701 0.015421 -0.002984 -0.000815 -0.003742
# 4 -0.002244 -0.000704 -0.002984 0.024806 0.002011 0.001680
# 5 -0.005057 0.003250 -0.000815 0.002011 0.028986 -0.003156
# 6 0.000900 0.000807 -0.003742 0.001680 -0.003156 0.022771
#
#
# Mechanical properties :
#
#
# Convention : Reuss Voigt Hill
#
# Bulk Modulus (GPa) = 64.17224 82.61522 73.39373
# Shear Modulus (GPa) = 34.15723 39.07060 36.61391
#
# Velocity S-wave (km/s) = 3.97853 4.25507 4.11912
# Velocity P-wave (km/s) = 7.13041 7.90097 7.52556
#
# Compressibility (1/GPa) = 0.01558306
#
# Stress axis : x y z
#
# Youngs Moduli (GPa) = 73.08170 90.91537 64.84535
#
# Poissons Ratio (x) = 0.60088 0.19130
# Poissons Ratio (y) = 0.48301 0.17515
# Poissons Ratio (z) = 0.21560 0.24557
#
# Static dielectric constant tensor:
#      x y z
#    x 3.849270 -0.167790 -0.184570 
#    y -0.167790 4.279100 0.266500 
#    z -0.184570 0.266500 3.324900 
# 
# 
# High freq. dielectric constant tensor:
#      x y z
#    x 1.848190 -0.005080 0.006380 
#    y -0.005080 1.866230 0.015670 
#    z 0.006380 0.015670 1.843370 
# 
# From -- ./inp_files/190207.got.cif
#   From: 2010.06.25/outbox.cif.g09.slc.cpg/sg2_96_cif.got.tgz:190207.got - 2010.06.27 13:26:56.
