data_PCOD8019115
_publ_section_title
;
Structure prediction by ZEFSAII (Michael W. Deem and Ramdas Pophale) SiO2 
 PCOD8019115
Probable space group: P -1
;
_chemical_formula_sum "Si O2"
_cell_formula_units_Z 16
_cell_length_a 17.737158
_cell_length_b 9.178129
_cell_length_c 17.709922
_cell_angle_alpha 139.265205
_cell_angle_beta 29.525281
_cell_angle_gamma 148.866437
_cell_volume 733.655220
_symmetry_space_group_name_H-M "P -1"
_symmetry_group_IT_number 2
_symmetry_cell_setting 'triclinic'
loop_
_space_group_symop_operation_xyz
x,y,z
-x,-y,-z
loop_
_atom_site_type_symbol
_atom_site_label
_atom_site_fract_x
_atom_site_fract_y
_atom_site_fract_z
Si Si1 0.747683 0.851259 0.195165
Si Si2 0.316404 0.984691 0.131671
Si Si3 0.620806 0.834999 0.024857
Si Si4 0.106275 0.085362 0.060943
Si Si5 0.958373 0.363592 0.385996
Si Si6 0.093246 0.518768 0.672015
Si Si7 0.659397 0.674770 0.617543
Si Si8 0.311255 0.907982 0.363152
O O1 0.546374 0.628877 0.323355
O O2 0.905493 0.835182 0.095757
O O3 0.794082 0.157255 0.274173
O O4 0.732147 0.760351 0.085328
O O5 0.125347 0.663141 0.178090
O O6 0.295745 0.175963 0.281595
O O7 0.500000 0.000000 0.000000
O O8 0.330089 0.076411 0.069726
O O9 0.503984 0.933536 0.203690
O O10 0.500000 0.500000 0.000000
O O11 0.817142 0.994909 0.967003
O O12 0.063881 0.290800 0.208755
O O13 0.896119 0.503891 0.437694
O O14 0.763227 0.084075 0.485049
O O15 0.129414 0.586712 0.379242
O O16 0.189897 0.377476 0.561903
O O17 0.663594 0.864294 0.624038
#
# Coordination Sequence:
#
# PCOD8019115 Si02
#       8
#     2   2   2   2   2   2   2   2
#     4  10  25  46  73  95 138 186 233 281 342 408
#     4  12  26  43  73 106 141 171 233 294 339 403
#     4  12  24  40  70 107 135 176 228 285 344 403
#     4  10  23  43  72  93 133 183 229 274 340 407
#     4  10  22  41  65 100 141 172 217 285 347 408
#     4  11  25  45  70 101 133 187 231 280 343 412
#     4  12  25  43  71 102 137 184 230 281 344 409
#     4  11  24  39  65 103 144 170 220 284 353 394
#
# _framework density 21.808610999999999
#
# number of rings (size 3 to 8) (size 9 to 14) (size 15 to 20)
#    0.000    1.000    3.750    1.500   12.250    0.000 
#    0.000    5.000    0.000    0.000    0.000    0.000 
#    0.000    0.000    0.000    0.000    0.000    0.000 
#
# Total GULP energy -198256.316436 kJ/mol
# GULP energy per Si atom -12391.019777 kJ/mol
# Density = 2.175897 g / cm^3
# Si number density = 21.808611 Si / 1000 Ang^3
#
#
#
# Elastic Constant Matrix: (Units=GPa)
#
#
# Indices 1 2 3 4 5 6 
#
# 1 139.9661 44.3946 48.5267 -4.3584 -5.0634 -21.8291
# 2 44.3946 87.7616 50.3263 -23.5140 8.4528 -4.0373
# 3 48.5267 50.3263 125.3344 -6.2629 -6.7042 -14.3840
# 4 -4.3584 -23.5140 -6.2629 32.4570 -5.5664 6.5033
# 5 -5.0634 8.4528 -6.7042 -5.5664 32.0628 -2.9289
# 6 -21.8291 -4.0373 -14.3840 6.5033 -2.9289 23.8824
#
#
#
# Elastic Compliance Matrix: (Units=1/GPa)
#
#
# Indices 1 2 3 4 5 6 
#
# 1 0.010921 -0.006308 -0.000570 -0.004688 0.003392 0.010265
# 2 -0.006308 0.023525 -0.007949 0.015784 -0.007194 -0.011757
# 3 -0.000570 -0.007949 0.012251 -0.004140 0.004506 0.007194
# 4 -0.004688 0.015784 -0.004140 0.044109 0.000422 -0.016070
# 5 0.003392 -0.007194 0.004506 0.000422 0.035443 0.008830
# 6 0.010265 -0.011757 0.007194 -0.016070 0.008830 0.059058
#
#
# Mechanical properties :
#
#
# Convention : Reuss Voigt Hill
#
# Bulk Modulus (GPa) = 58.67882 71.06190 64.87036
# Shear Modulus (GPa) = 22.66120 31.66809 27.16465
#
# Velocity S-wave (km/s) = 3.22700 3.81477 3.53312
# Velocity P-wave (km/s) = 6.39135 7.21514 6.81570
#
# Compressibility (1/GPa) = 0.01704192
#
# Stress axis : x y z
#
# Youngs Moduli (GPa) = 91.56978 42.50826 81.62627
#
# Poissons Ratio (x) = 0.26814 0.04654
# Poissons Ratio (y) = 0.57762 0.64886
# Poissons Ratio (z) = 0.05221 0.33790
#
# Static dielectric constant tensor:
#      x y z
#    x 4.644020 0.031000 0.247010 
#    y 0.031000 3.713370 -0.105630 
#    z 0.247010 -0.105630 4.264000 
# 
# 
# High freq. dielectric constant tensor:
#      x y z
#    x 1.861690 -0.005320 0.002750 
#    y -0.005320 1.837960 -0.008850 
#    z 0.002750 -0.008850 1.874450 
# 
# From -- ./inp_files/575589.got.cif
#   From: 2010.06.25/outbox.cif.g09.slc.cpg/sg2_288_cif.got.tgz:575589.got - 2010.06.27 13:26:56.
