data_PCOD8019113
_publ_section_title
;
Structure prediction by ZEFSAII (Michael W. Deem and Ramdas Pophale) SiO2 
 PCOD8019113
Probable space group: P -1
;
_chemical_formula_sum "Si O2"
_cell_formula_units_Z 14
_cell_length_a 8.627686
_cell_length_b 7.382138
_cell_length_c 14.359849
_cell_angle_alpha 125.986289
_cell_angle_beta 63.587816
_cell_angle_gamma 127.860386
_cell_volume 579.176880
_symmetry_space_group_name_H-M "P -1"
_symmetry_group_IT_number 2
_symmetry_cell_setting 'triclinic'
loop_
_space_group_symop_operation_xyz
x,y,z
-x,-y,-z
loop_
_atom_site_type_symbol
_atom_site_label
_atom_site_fract_x
_atom_site_fract_y
_atom_site_fract_z
Si Si1 0.192608 0.336614 0.023083
Si Si2 0.409448 0.937618 0.107983
Si Si3 0.289215 0.301617 0.788148
Si Si4 0.012594 0.493347 0.629085
Si Si5 0.274178 0.294815 0.190609
Si Si6 0.268353 0.881258 0.539933
Si Si7 0.811751 0.332219 0.174329
O O1 0.284362 0.265821 0.066271
O O2 0.958200 0.226631 0.068870
O O3 0.297590 0.644053 0.078237
O O4 0.224395 0.204295 0.882703
O O5 0.254911 0.049386 0.179049
O O6 0.591173 0.093970 0.178829
O O7 0.500000 0.000000 0.000000
O O8 0.524800 0.453475 0.758869
O O9 0.195952 0.485277 0.848456
O O10 0.210833 0.069876 0.666830
O O11 0.186864 0.620983 0.544244
O O12 0.110000 0.492690 0.701177
O O13 0.909343 0.669858 0.720796
O O14 0.850843 0.204891 0.552925
O O15 0.500000 0.000000 0.500000
#
# Coordination Sequence:
#
# PCOD8019113 Si02
#       7
#     2   2   2   2   2   2   2
#     4  11  23  42  65  98 143 170 211 270 326 398
#     4  11  23  37  63  95 139 173 211 264 324 388
#     4  11  22  40  67  92 132 173 213 264 329 381
#     4  10  24  44  66  94 127 165 227 271 325 391
#     4  10  22  41  65 100 129 174 218 258 333 400
#     4  11  24  43  69  90 125 173 221 277 322 382
#     4  10  24  41  63 102 130 166 220 266 326 403
#
# _framework density 24.172236000000002
#
# number of rings (size 3 to 8) (size 9 to 14) (size 15 to 20)
#    0.000    1.429    4.286    0.857    4.000    0.571 
#    0.000    3.571    0.000    0.000    0.000    0.000 
#    0.000    0.000    0.000    0.000    0.000    0.000 
#
# Total GULP energy -173595.660346 kJ/mol
# GULP energy per Si atom -12399.690025 kJ/mol
# Density = 2.411722 g / cm^3
# Si number density = 24.172236 Si / 1000 Ang^3
#
#
#
# Elastic Constant Matrix: (Units=GPa)
#
#
# Indices 1 2 3 4 5 6 
#
# 1 106.3887 27.9634 25.9489 4.2124 19.8374 16.0892
# 2 27.9634 81.8114 18.2482 0.1240 9.6485 17.2645
# 3 25.9489 18.2482 119.4852 17.0294 23.5633 16.3457
# 4 4.2124 0.1240 17.0294 37.8698 4.9736 1.1714
# 5 19.8374 9.6485 23.5633 4.9736 37.0018 6.4974
# 6 16.0892 17.2645 16.3457 1.1714 6.4974 20.7484
#
#
#
# Elastic Compliance Matrix: (Units=1/GPa)
#
#
# Indices 1 2 3 4 5 6 
#
# 1 0.011775 -0.002234 -0.000566 -0.000305 -0.004374 -0.005439
# 2 -0.002234 0.015398 -0.000370 0.000801 -0.000833 -0.010572
# 3 -0.000566 -0.000370 0.010930 -0.004012 -0.004952 -0.006087
# 4 -0.000305 0.000801 -0.004012 0.028401 -0.001593 0.001627
# 5 -0.004374 -0.000833 -0.004952 -0.001593 0.033373 -0.002375
# 6 -0.005439 -0.010572 -0.006087 0.001627 -0.002375 0.066658
#
#
# Mechanical properties :
#
#
# Convention : Reuss Voigt Hill
#
# Bulk Modulus (GPa) = 31.48436 50.22292 40.85364
# Shear Modulus (GPa) = 27.25366 34.82564 31.03965
#
# Velocity S-wave (km/s) = 3.36144 3.79981 3.58733
# Velocity P-wave (km/s) = 5.30273 6.33037 5.83920
#
# Compressibility (1/GPa) = 0.03176181
#
# Stress axis : x y z
#
# Youngs Moduli (GPa) = 84.92585 64.94535 91.49359
#
# Poissons Ratio (x) = 0.14512 0.05177
# Poissons Ratio (y) = 0.18976 0.03385
# Poissons Ratio (z) = 0.04806 0.02402
#
# Static dielectric constant tensor:
#      x y z
#    x 4.650600 0.265860 0.285510 
#    y 0.265860 4.608420 0.171240 
#    z 0.285510 0.171240 4.404840 
# 
# 
# High freq. dielectric constant tensor:
#      x y z
#    x 1.962940 0.020530 0.012170 
#    y 0.020530 1.961700 0.011460 
#    z 0.012170 0.011460 1.949220 
# 
# From -- ./inp_files/400068.got.cif
#   From: 2010.06.25/outbox.cif.g09.slc.cpg/sg2_201_cif.got.tgz:400068.got - 2010.06.27 13:26:56.
