data_PCOD8019652
_publ_section_title
;
Structure prediction by ZEFSAII (Michael W. Deem and Ramdas Pophale) SiO2 
 PCOD8019652
Probable space group: P -1
;
_chemical_formula_sum "Si O2"
_cell_formula_units_Z 14
_cell_length_a 11.696942
_cell_length_b 10.602290
_cell_length_c 14.903191
_cell_angle_alpha 132.815553
_cell_angle_beta 29.430120
_cell_angle_gamma 136.205754
_cell_volume 621.399859
_symmetry_space_group_name_H-M "P -1"
_symmetry_group_IT_number 2
_symmetry_cell_setting 'triclinic'
loop_
_space_group_symop_operation_xyz
x,y,z
-x,-y,-z
loop_
_atom_site_type_symbol
_atom_site_label
_atom_site_fract_x
_atom_site_fract_y
_atom_site_fract_z
Si Si1 0.870925 0.984713 0.394874
Si Si2 0.586593 0.214169 0.294554
Si Si3 0.937280 0.498024 0.322277
Si Si4 0.606425 0.414868 0.060943
Si Si5 0.916354 0.645098 0.679669
Si Si6 0.954997 0.679312 0.076713
Si Si7 0.281181 0.220403 0.339632
O O1 0.951698 0.147275 0.345941
O O2 0.061346 0.029225 0.371290
O O3 0.586076 0.953739 0.605996
O O4 0.868291 0.790603 0.264158
O O5 0.722169 0.394060 0.348235
O O6 0.380462 0.240155 0.381706
O O7 0.795487 0.176940 0.072605
O O8 0.841572 0.623502 0.513248
O O9 0.007288 0.353990 0.267596
O O10 0.185905 0.626144 0.161119
O O11 0.382677 0.419421 0.153161
O O12 0.502621 0.257902 0.133016
O O13 0.739333 0.610625 0.115519
O O14 0.000000 0.500000 0.500000
O O15 0.000000 0.500000 0.000000
#
# Coordination Sequence:
#
# PCOD8019652 Si02
#       7
#     2   2   2   2   2   2   2
#     4  11  26  41  66 100 135 173 222 277 325 393
#     4  11  25  41  68 101 135 176 220 272 331 400
#     4  11  23  41  72  96 127 187 218 268 337 384
#     4  10  22  41  69  97 131 174 223 272 324 399
#     4  11  23  48  67  96 133 176 225 275 327 389
#     4  11  24  44  66  99 135 174 215 270 336 391
#     4  11  22  42  65 104 134 170 223 271 333 393
#
# _framework density 22.529778
#
# number of rings (size 3 to 8) (size 9 to 14) (size 15 to 20)
#    0.000    1.143    4.286    2.143    4.000    3.429 
#    2.571    1.429    0.000    0.000    0.000    0.000 
#    0.000    0.000    0.000    0.000    0.000    0.000 
#
# Total GULP energy -173521.921505 kJ/mol
# GULP energy per Si atom -12394.422965 kJ/mol
# Density = 2.247850 g / cm^3
# Si number density = 22.529778 Si / 1000 Ang^3
#
#
#
# Elastic Constant Matrix: (Units=GPa)
#
#
# Indices 1 2 3 4 5 6 
#
# 1 96.1521 25.2753 22.9238 -5.9591 3.3464 2.1551
# 2 25.2753 71.2397 45.5199 -17.1477 -2.5912 0.5234
# 3 22.9238 45.5199 110.0873 -43.8654 5.8387 1.3730
# 4 -5.9591 -17.1477 -43.8654 42.9321 6.4522 -6.3250
# 5 3.3464 -2.5912 5.8387 6.4522 25.9240 -2.2183
# 6 2.1551 0.5234 1.3730 -6.3250 -2.2183 24.3337
#
#
#
# Elastic Compliance Matrix: (Units=1/GPa)
#
#
# Indices 1 2 3 4 5 6 
#
# 1 0.011670 -0.003632 -0.001285 -0.001123 -0.001412 -0.001304
# 2 -0.003632 0.020695 -0.008882 -0.002030 0.005070 0.000312
# 3 -0.001285 -0.008882 0.021720 0.020545 -0.010431 0.003469
# 4 -0.001123 -0.002030 0.020545 0.047102 -0.015569 0.009808
# 5 -0.001412 0.005070 -0.010431 -0.015569 0.045548 0.000710
# 6 -0.001304 0.000312 0.003469 0.009808 0.000710 0.043622
#
#
# Mechanical properties :
#
#
# Convention : Reuss Voigt Hill
#
# Bulk Modulus (GPa) = 37.75398 51.65747 44.70572
# Shear Modulus (GPa) = 22.04736 30.88863 26.46799
#
# Velocity S-wave (km/s) = 3.13163 3.70674 3.43125
# Velocity P-wave (km/s) = 5.46534 6.42637 5.96524
#
# Compressibility (1/GPa) = 0.02648727
#
# Stress axis : x y z
#
# Youngs Moduli (GPa) = 85.69062 48.32172 46.03982
#
# Poissons Ratio (x) = 0.17548 0.05916
# Poissons Ratio (y) = 0.31119 0.40894
# Poissons Ratio (z) = 0.11011 0.42921
#
# Static dielectric constant tensor:
#      x y z
#    x 4.270350 0.233700 0.031120 
#    y 0.233700 3.777510 -0.381700 
#    z 0.031120 -0.381700 4.203810 
# 
# 
# High freq. dielectric constant tensor:
#      x y z
#    x 1.894820 0.025890 0.010240 
#    y 0.025890 1.860650 -0.029010 
#    z 0.010240 -0.029010 1.900190 
# 
# From -- ./inp_files/345878.got.cif
#   From: 2010.06.25/outbox.cif.g09.slc.cpg/sg2_173_cif.got.tgz:345878.got - 2010.06.27 13:26:56.
