data_PCOD8019426
_publ_section_title
;
Structure prediction by ZEFSAII (Michael W. Deem and Ramdas Pophale) SiO2 
 PCOD8019426
Probable space group: P -1
;
_chemical_formula_sum "Si O2"
_cell_formula_units_Z 16
_cell_length_a 11.853786
_cell_length_b 8.599091
_cell_length_c 18.362046
_cell_angle_alpha 47.228449
_cell_angle_beta 148.218659
_cell_angle_gamma 132.096374
_cell_volume 702.319668
_symmetry_space_group_name_H-M "P -1"
_symmetry_group_IT_number 2
_symmetry_cell_setting 'triclinic'
loop_
_space_group_symop_operation_xyz
x,y,z
-x,-y,-z
loop_
_atom_site_type_symbol
_atom_site_label
_atom_site_fract_x
_atom_site_fract_y
_atom_site_fract_z
Si Si1 0.352669 0.984574 0.652399
Si Si2 0.569277 0.807215 0.137658
Si Si3 0.011090 0.105185 0.330522
Si Si4 0.355777 0.211542 0.366032
Si Si5 0.980279 0.602765 0.134636
Si Si6 0.702710 0.094715 0.684638
Si Si7 0.655063 0.313599 0.806056
Si Si8 0.510628 0.441016 0.109020
O O1 0.336968 0.729933 0.740851
O O2 0.125609 0.049876 0.485806
O O3 0.523712 0.071644 0.655412
O O4 0.453187 0.112868 0.738588
O O5 0.360674 0.693566 0.112053
O O6 0.618103 0.644030 0.154826
O O7 0.793301 0.910475 0.270469
O O8 0.500000 0.000000 0.000000
O O9 0.165613 0.077762 0.356951
O O10 0.963634 0.347861 0.225604
O O11 0.601852 0.185129 0.528413
O O12 0.390124 0.465046 0.317895
O O13 0.273379 0.138298 0.260981
O O14 0.076788 0.744579 0.214440
O O15 0.114658 0.694266 0.104905
O O16 0.742502 0.651223 0.975054
O O17 0.500000 0.500000 0.000000
#
# Coordination Sequence:
#
# PCOD8019426 Si02
#       8
#     2   2   2   2   2   2   2   2
#     4  10  22  42  64  98 131 166 217 264 320 385
#     4  12  25  45  64  95 131 172 217 268 321 384
#     4  10  22  42  68  95 128 171 216 263 322 383
#     4   9  18  37  62  99 126 167 212 267 316 378
#     4  10  22  43  67  97 125 175 211 263 326 378
#     4   9  18  35  65  94 133 162 213 267 317 377
#     4  10  22  41  67  96 127 168 217 268 313 386
#     4  12  27  45  63  94 137 171 212 269 326 384
#
# _framework density 22.781649000000002
#
# number of rings (size 3 to 8) (size 9 to 14) (size 15 to 20)
#    0.000    1.750    1.250    2.250    1.750    6.500 
#    4.500    0.000    0.000    0.000    0.000    0.000 
#    0.000    0.000    0.000    0.000    0.000    0.000 
#
# Total GULP energy -198228.764494 kJ/mol
# GULP energy per Si atom -12389.297781 kJ/mol
# Density = 2.272980 g / cm^3
# Si number density = 22.781649 Si / 1000 Ang^3
#
#
#
# Elastic Constant Matrix: (Units=GPa)
#
#
# Indices 1 2 3 4 5 6 
#
# 1 90.3153 22.2429 12.7471 4.4434 -11.1032 1.2108
# 2 22.2429 108.2283 11.4128 8.0133 -6.4991 -10.4277
# 3 12.7471 11.4128 63.1334 -2.8246 -2.7533 15.4078
# 4 4.4434 8.0133 -2.8246 32.9323 2.0265 -2.7579
# 5 -11.1032 -6.4991 -2.7533 2.0265 22.8672 2.5772
# 6 1.2108 -10.4277 15.4078 -2.7579 2.5772 34.2113
#
#
#
# Elastic Compliance Matrix: (Units=1/GPa)
#
#
# Indices 1 2 3 4 5 6 
#
# 1 0.012609 -0.002010 -0.001823 -0.001779 0.005580 -0.000801
# 2 -0.002010 0.010578 -0.002558 -0.002264 0.001455 0.004155
# 3 -0.001823 -0.002558 0.019081 0.001629 0.001589 -0.009297
# 4 -0.001779 -0.002264 0.001629 0.031687 -0.004290 0.001517
# 5 0.005580 0.001455 0.001589 -0.004290 0.047924 -0.004425
# 6 -0.000801 0.004155 -0.009297 0.001517 -0.004425 0.035168
#
#
# Mechanical properties :
#
#
# Convention : Reuss Voigt Hill
#
# Bulk Modulus (GPa) = 33.91492 39.38696 36.65094
# Shear Modulus (GPa) = 27.83076 32.35375 30.09226
#
# Velocity S-wave (km/s) = 3.49897 3.77260 3.63836
# Velocity P-wave (km/s) = 5.58955 6.02521 5.81146
#
# Compressibility (1/GPa) = 0.02948555
#
# Stress axis : x y z
#
# Youngs Moduli (GPa) = 79.30981 94.53718 52.40750
#
# Poissons Ratio (x) = 0.18997 0.09555
# Poissons Ratio (y) = 0.15937 0.13408
# Poissons Ratio (z) = 0.14460 0.24187
#
# Static dielectric constant tensor:
#      x y z
#    x 5.187550 0.475170 0.451570 
#    y 0.475170 4.861830 0.551130 
#    z 0.451570 0.551130 4.277050 
# 
# 
# High freq. dielectric constant tensor:
#      x y z
#    x 1.908040 -0.014330 -0.005170 
#    y -0.014330 1.900800 0.002840 
#    z -0.005170 0.002840 1.888460 
# 
# From -- ./inp_files/206992.got.cif
#   From: 2010.06.25/outbox.cif.g09.slc.cpg/sg2_104_cif.got.tgz:206992.got - 2010.06.27 13:26:56.
