data_PCOD8019191
_publ_section_title
;
Structure prediction by ZEFSAII (Michael W. Deem and Ramdas Pophale) SiO2 
 PCOD8019191
Probable space group: P -1
;
_chemical_formula_sum "Si O2"
_cell_formula_units_Z 16
_cell_length_a 5.306869
_cell_length_b 18.227143
_cell_length_c 9.470717
_cell_angle_alpha 100.820034
_cell_angle_beta 118.274286
_cell_angle_gamma 64.513008
_cell_volume 728.130129
_symmetry_space_group_name_H-M "P -1"
_symmetry_group_IT_number 2
_symmetry_cell_setting 'triclinic'
loop_
_space_group_symop_operation_xyz
x,y,z
-x,-y,-z
loop_
_atom_site_type_symbol
_atom_site_label
_atom_site_fract_x
_atom_site_fract_y
_atom_site_fract_z
Si Si1 0.662441 0.338849 0.327357
Si Si2 0.560838 0.791459 0.733845
Si Si3 0.617837 0.178269 0.875151
Si Si4 0.307068 0.273439 0.564730
Si Si5 0.869542 0.504531 0.806073
Si Si6 0.524431 0.587112 0.245823
Si Si7 0.354715 0.095654 0.006456
Si Si8 0.206086 0.684917 0.949179
O O1 0.688498 0.245634 0.304348
O O2 0.310793 0.405605 0.281282
O O3 0.743899 0.361721 0.202237
O O4 0.939925 0.333571 0.505846
O O5 0.639081 0.776841 0.584732
O O6 0.853665 0.745601 0.897169
O O7 0.482727 0.883016 0.801865
O O8 0.427472 0.202695 0.687001
O O9 0.453833 0.132096 0.907783
O O10 0.981935 0.123673 0.926309
O O11 0.572970 0.264652 0.964590
O O12 0.487240 0.334438 0.638843
O O13 0.604710 0.467025 0.713561
O O14 0.138205 0.460605 0.749680
O O15 0.000000 0.500000 0.000000
O O16 0.280314 0.617227 0.063704
O O17 0.500000 0.000000 0.000000
#
# Coordination Sequence:
#
# PCOD8019191 Si02
#       8
#     2   2   2   2   2   2   2   2
#     4  11  22  38  63  86 128 172 221 263 326 380
#     4  10  22  41  65  95 128 170 219 261 323 389
#     4  10  22  42  67  98 128 168 215 257 315 387
#     4  10  26  41  65  93 133 178 213 267 323 389
#     4  12  25  39  63  91 128 171 224 284 328 368
#     4  11  25  41  61  91 127 167 228 273 331 373
#     4  11  23  44  74 102 130 164 211 265 316 385
#     4   9  19  37  62  88 117 171 218 271 301 382
#
# _framework density 21.974093
#
# number of rings (size 3 to 8) (size 9 to 14) (size 15 to 20)
#    0.000    1.500    2.500    1.500    7.000    3.000 
#    0.000    1.250    0.000    0.000    0.000    0.000 
#    0.000    0.000    0.000    0.000    0.000    0.000 
#
# Total GULP energy -198246.872116 kJ/mol
# GULP energy per Si atom -12390.429507 kJ/mol
# Density = 2.192408 g / cm^3
# Si number density = 21.974093 Si / 1000 Ang^3
#
#
#
# Elastic Constant Matrix: (Units=GPa)
#
#
# Indices 1 2 3 4 5 6 
#
# 1 103.3849 24.0652 31.7657 4.5872 -5.7192 3.9685
# 2 24.0652 90.9426 38.7787 12.0120 -7.7495 3.2757
# 3 31.7657 38.7787 105.7238 -2.5109 3.7373 -4.6219
# 4 4.5872 12.0120 -2.5109 30.4667 -2.6218 3.2002
# 5 -5.7192 -7.7495 3.7373 -2.6218 22.0310 0.3955
# 6 3.9685 3.2757 -4.6219 3.2002 0.3955 32.2840
#
#
#
# Elastic Compliance Matrix: (Units=1/GPa)
#
#
# Indices 1 2 3 4 5 6 
#
# 1 0.011178 -0.001178 -0.003126 -0.001053 0.002922 -0.001634
# 2 -0.001178 0.014886 -0.005495 -0.005519 0.005236 -0.001669
# 3 -0.003126 -0.005495 0.012758 0.003028 -0.004594 0.002524
# 4 -0.001053 -0.005519 0.003028 0.035799 0.001576 -0.002445
# 5 0.002922 0.005236 -0.004594 0.001576 0.048999 -0.002305
# 6 -0.001634 -0.001669 0.002524 -0.002445 -0.002305 0.031977
#
#
# Mechanical properties :
#
#
# Convention : Reuss Voigt Hill
#
# Bulk Modulus (GPa) = 52.01944 54.36340 53.19142
# Shear Modulus (GPa) = 27.53218 30.65244 29.09231
#
# Velocity S-wave (km/s) = 3.54353 3.73893 3.64254
# Velocity P-wave (km/s) = 6.36133 6.59037 6.47687
#
# Compressibility (1/GPa) = 0.01922358
#
# Stress axis : x y z
#
# Youngs Moduli (GPa) = 89.45783 67.17647 78.38068
#
# Poissons Ratio (x) = 0.07914 0.24504
# Poissons Ratio (y) = 0.10538 0.43073
# Poissons Ratio (z) = 0.27967 0.36916
#
# Static dielectric constant tensor:
#      x y z
#    x 3.900770 -0.014790 0.171750 
#    y -0.014790 3.937990 0.124690 
#    z 0.171750 0.124690 4.170430 
# 
# 
# High freq. dielectric constant tensor:
#      x y z
#    x 1.873180 0.003940 0.007780 
#    y 0.003940 1.839000 0.004260 
#    z 0.007780 0.004260 1.865130 
# 
# From -- ./inp_files/44972.got.cif
#   From: 2010.06.25/outbox.cif.g09.slc.cpg/sg2_23_cif.got.tgz:44972.got - 2010.06.27 13:26:56.
