data_PCOD8019629
_publ_section_title
;
Structure prediction by ZEFSAII (Michael W. Deem and Ramdas Pophale) SiO2 
 PCOD8019629
Probable space group: P -1
;
_chemical_formula_sum "Si O2"
_cell_formula_units_Z 12
_cell_length_a 8.974174
_cell_length_b 9.633661
_cell_length_c 8.159029
_cell_angle_alpha 104.953477
_cell_angle_beta 73.852809
_cell_angle_gamma 129.149700
_cell_volume 522.214383
_symmetry_space_group_name_H-M "P -1"
_symmetry_group_IT_number 2
_symmetry_cell_setting 'triclinic'
loop_
_space_group_symop_operation_xyz
x,y,z
-x,-y,-z
loop_
_atom_site_type_symbol
_atom_site_label
_atom_site_fract_x
_atom_site_fract_y
_atom_site_fract_z
Si Si1 0.878069 0.529420 0.878347
Si Si2 0.656295 0.971024 0.383477
Si Si3 0.591751 0.107900 0.841975
Si Si4 0.100247 0.284937 0.385334
Si Si5 0.362806 0.180383 0.354094
Si Si6 0.204475 0.505553 0.754623
O O1 0.763399 0.316331 0.871801
O O2 0.805577 0.577600 0.756764
O O3 0.101132 0.604017 0.803145
O O4 0.853751 0.599653 0.082418
O O5 0.587660 0.910241 0.199519
O O6 0.634801 0.808352 0.443023
O O7 0.500000 0.000000 0.500000
O O8 0.873192 0.152965 0.380589
O O9 0.685632 0.016927 0.705129
O O10 0.500000 0.000000 0.000000
O O11 0.191155 0.176583 0.325230
O O12 0.148023 0.381889 0.575212
O O13 0.565120 0.341210 0.263664
#
# Coordination Sequence:
#
# PCOD8019629 Si02
#       6
#     2   2   2   2   2   2
#     4  11  24  42  72  97 131 178 235 271 326 403
#     4  10  22  41  69  94 130 179 224 266 330 399
#     4  11  22  44  68  95 130 176 229 272 321 408
#     4  12  25  44  68 104 140 171 221 286 341 391
#     4  11  23  44  68 100 136 176 221 278 343 393
#     4  11  23  42  69  98 134 179 227 270 333 398
#
# _framework density 22.979068999999999
#
# number of rings (size 3 to 8) (size 9 to 14) (size 15 to 20)
#    0.000    1.000    1.667    6.500    2.333    0.667 
#    3.000    0.833    0.000    0.000    0.000    0.000 
#    0.000    0.000    0.000    0.000    0.000    0.000 
#
# Total GULP energy -148669.135014 kJ/mol
# GULP energy per Si atom -12389.094585 kJ/mol
# Density = 2.292677 g / cm^3
# Si number density = 22.979069 Si / 1000 Ang^3
#
#
#
# Elastic Constant Matrix: (Units=GPa)
#
#
# Indices 1 2 3 4 5 6 
#
# 1 146.2239 55.3069 51.3270 -15.3506 19.6709 -9.1386
# 2 55.3069 69.4391 34.7385 -19.9293 0.9601 -0.8787
# 3 51.3270 34.7385 131.0205 -20.7107 30.7068 -14.6842
# 4 -15.3506 -19.9293 -20.7107 35.8354 -3.1082 9.5319
# 5 19.6709 0.9601 30.7068 -3.1082 30.0654 -9.7344
# 6 -9.1386 -0.8787 -14.6842 9.5319 -9.7344 42.5749
#
#
#
# Elastic Compliance Matrix: (Units=1/GPa)
#
#
# Indices 1 2 3 4 5 6 
#
# 1 0.011167 -0.008818 -0.000699 -0.001286 -0.006168 0.000852
# 2 -0.008818 0.026372 -0.004573 0.009862 0.009671 -0.002923
# 3 -0.000699 -0.004573 0.012387 0.003134 -0.011498 0.000697
# 4 -0.001286 0.009862 0.003134 0.036523 -0.001317 -0.007470
# 5 -0.006168 0.009671 -0.011498 -0.001317 0.050803 0.006820
# 6 0.000852 -0.002923 0.000697 -0.007470 0.006820 0.027083
#
#
# Mechanical properties :
#
#
# Convention : Reuss Voigt Hill
#
# Bulk Modulus (GPa) = 45.98417 69.93646 57.96031
# Shear Modulus (GPa) = 25.02956 35.38255 30.20606
#
# Velocity S-wave (km/s) = 3.30393 3.92825 3.62954
# Velocity P-wave (km/s) = 5.88298 7.14673 6.54543
#
# Compressibility (1/GPa) = 0.02174661
#
# Stress axis : x y z
#
# Youngs Moduli (GPa) = 89.54591 37.91910 80.73027
#
# Poissons Ratio (x) = 0.33437 0.05644
# Poissons Ratio (y) = 0.78960 0.36917
# Poissons Ratio (z) = 0.06260 0.17340
#
# Static dielectric constant tensor:
#      x y z
#    x 4.587560 0.171560 0.949000 
#    y 0.171560 4.123560 0.176370 
#    z 0.949000 0.176370 6.279180 
# 
# 
# High freq. dielectric constant tensor:
#      x y z
#    x 1.911680 0.011180 0.025490 
#    y 0.011180 1.893350 -0.027570 
#    z 0.025490 -0.027570 1.915910 
# 
# From -- ./inp_files/159625.got.cif
#   From: 2010.06.25/outbox.cif.g09.slc.cpg/sg2_80_cif.got.tgz:159625.got - 2010.06.27 13:26:56.
