data_PCOD8019668
_publ_section_title
;
Structure prediction by ZEFSAII (Michael W. Deem and Ramdas Pophale) SiO2 
 PCOD8019668
Probable space group: P -1
;
_chemical_formula_sum "Si O2"
_cell_formula_units_Z 16
_cell_length_a 9.289622
_cell_length_b 15.003782
_cell_length_c 12.282467
_cell_angle_alpha 113.099874
_cell_angle_beta 105.631029
_cell_angle_gamma 26.708077
_cell_volume 693.996180
_symmetry_space_group_name_H-M "P -1"
_symmetry_group_IT_number 2
_symmetry_cell_setting 'triclinic'
loop_
_space_group_symop_operation_xyz
x,y,z
-x,-y,-z
loop_
_atom_site_type_symbol
_atom_site_label
_atom_site_fract_x
_atom_site_fract_y
_atom_site_fract_z
Si Si1 0.633682 0.891209 0.089042
Si Si2 0.851304 0.129339 0.299983
Si Si3 0.266648 0.976908 0.487227
Si Si4 0.148715 0.376142 0.710335
Si Si5 0.462845 0.181166 0.303167
Si Si6 0.371936 0.500587 0.066108
Si Si7 0.582745 0.182235 0.891826
Si Si8 0.246418 0.578490 0.315636
O O1 0.487620 0.870193 0.073848
O O2 0.016745 0.667176 0.044032
O O3 0.529950 0.028571 0.226977
O O4 0.500000 0.000000 0.000000
O O5 0.707876 0.103702 0.241157
O O6 0.552196 0.378915 0.361108
O O7 0.063344 0.010625 0.398201
O O8 0.064690 0.034651 0.194134
O O9 0.001835 0.211571 0.569393
O O10 0.562536 0.841380 0.404840
O O11 0.446757 0.836594 0.565143
O O12 0.305470 0.353241 0.823967
O O13 0.914582 0.576901 0.682967
O O14 0.946559 0.409225 0.746148
O O15 0.367070 0.552394 0.210892
O O16 0.500000 0.500000 0.000000
O O17 0.593883 0.275586 0.007266
#
# Coordination Sequence:
#
# PCOD8019668 Si02
#       8
#     2   2   2   2   2   2   2   2
#     4  12  26  42  69 101 135 178 226 281 332 405
#     4  10  25  41  67  97 135 184 217 280 339 403
#     4  11  21  42  67 100 136 176 228 275 340 397
#     4  10  22  41  69  99 132 182 216 283 338 402
#     4  11  22  43  65 102 136 172 226 276 342 401
#     4  12  26  44  69  99 137 181 223 279 338 400
#     4  11  24  45  67  99 137 177 226 278 336 402
#     4  11  23  42  67  96 137 177 226 272 341 403
#
# _framework density 23.054881000000002
#
# number of rings (size 3 to 8) (size 9 to 14) (size 15 to 20)
#    0.000    1.000    2.500    3.375    5.250    1.500 
#    0.000    0.000    0.000    0.000    0.000    0.000 
#    0.000    0.000    0.000    0.000    0.000    0.000 
#
# Total GULP energy -198365.134272 kJ/mol
# GULP energy per Si atom -12397.820892 kJ/mol
# Density = 2.300241 g / cm^3
# Si number density = 23.054881 Si / 1000 Ang^3
#
#
#
# Elastic Constant Matrix: (Units=GPa)
#
#
# Indices 1 2 3 4 5 6 
#
# 1 116.8561 25.3152 36.5235 10.6121 -11.9945 12.2163
# 2 25.3152 107.7625 32.8357 5.5943 -6.1569 3.3531
# 3 36.5235 32.8357 99.6334 9.6898 -8.6470 4.1937
# 4 10.6121 5.5943 9.6898 41.8421 5.4654 1.6101
# 5 -11.9945 -6.1569 -8.6470 5.4654 33.3055 2.3118
# 6 12.2163 3.3531 4.1937 1.6101 2.3118 33.2169
#
#
#
# Elastic Compliance Matrix: (Units=1/GPa)
#
#
# Indices 1 2 3 4 5 6 
#
# 1 0.010635 -0.001211 -0.002834 -0.002196 0.003478 -0.003567
# 2 -0.001211 0.010530 -0.002887 -0.000535 0.000869 -0.000288
# 3 -0.002834 -0.002887 0.012411 -0.002022 0.002019 -0.000276
# 4 -0.002196 -0.000535 -0.002022 0.025725 -0.005655 0.000264
# 5 0.003478 0.000869 0.002019 -0.005655 0.033144 -0.003654
# 6 -0.003567 -0.000288 -0.000276 0.000264 -0.003654 0.031722
#
#
# Mechanical properties :
#
#
# Convention : Reuss Voigt Hill
#
# Bulk Modulus (GPa) = 50.73055 57.06674 53.89865
# Shear Modulus (GPa) = 34.57787 36.97807 35.77797
#
# Velocity S-wave (km/s) = 3.87694 4.00924 3.94364
# Velocity P-wave (km/s) = 6.48790 6.79987 6.64572
#
# Compressibility (1/GPa) = 0.01971199
#
# Stress axis : x y z
#
# Youngs Moduli (GPa) = 94.02942 94.96529 80.57659
#
# Poissons Ratio (x) = 0.11501 0.22834
# Poissons Ratio (y) = 0.11388 0.23262
# Poissons Ratio (z) = 0.26646 0.27416
#
# Static dielectric constant tensor:
#      x y z
#    x 3.772130 -0.715860 -0.347940 
#    y -0.715860 3.361600 -0.573840 
#    z -0.347940 -0.573840 3.756950 
# 
# 
# High freq. dielectric constant tensor:
#      x y z
#    x 1.895970 -0.010560 -0.007490 
#    y -0.010560 1.928110 -0.000810 
#    z -0.007490 -0.000810 1.911930 
# 
# From -- ./inp_files/242082.got.cif
#   From: 2010.06.25/outbox.cif.g09.slc.cpg/sg2_122_cif.got.tgz:242082.got - 2010.06.27 13:26:56.
