data_PCOD8019367
_publ_section_title
;
Structure prediction by ZEFSAII (Michael W. Deem and Ramdas Pophale) SiO2 
 PCOD8019367
Probable space group: P -1
;
_chemical_formula_sum "Si O2"
_cell_formula_units_Z 10
_cell_length_a 5.112650
_cell_length_b 12.200167
_cell_length_c 9.086102
_cell_angle_alpha 122.221703
_cell_angle_beta 53.968872
_cell_angle_gamma 118.862714
_cell_volume 375.714107
_symmetry_space_group_name_H-M "P -1"
_symmetry_group_IT_number 2
_symmetry_cell_setting 'triclinic'
loop_
_space_group_symop_operation_xyz
x,y,z
-x,-y,-z
loop_
_atom_site_type_symbol
_atom_site_label
_atom_site_fract_x
_atom_site_fract_y
_atom_site_fract_z
Si Si1 0.403420 0.929638 0.770636
Si Si2 0.872235 0.675546 0.214235
Si Si3 0.488742 0.606601 0.828955
Si Si4 0.077911 0.221069 0.421302
Si Si5 0.800189 0.830173 0.093670
O O1 0.754127 0.899654 0.675260
O O2 0.225615 0.831792 0.627514
O O3 0.462546 0.083158 0.804870
O O4 0.171592 0.912729 0.981592
O O5 0.544322 0.552583 0.259438
O O6 0.046398 0.721130 0.346929
O O7 0.770572 0.800443 0.257044
O O8 0.121555 0.630753 0.986062
O O9 0.638447 0.659412 0.658830
O O10 0.723949 0.687296 0.935461
#
# Coordination Sequence:
#
# PCOD8019367 Si02
#       5
#     2   2   2   2   2
#     4  10  24  42  68  93 131 166 211 260 322 370
#     4  11  23  40  67  92 126 170 214 258 316 376
#     4  10  23  43  62  94 128 168 211 263 313 377
#     4  11  24  44  65  97 127 167 209 266 314 375
#     4  10  22  41  67  90 129 170 209 263 315 377
#
# _framework density 26.615981000000001
#
# number of rings (size 3 to 8) (size 9 to 14) (size 15 to 20)
#    0.000    1.600    2.000    1.200    5.600    4.000 
#    0.000    3.000    0.000    0.000    0.000    0.000 
#    0.000    0.000    0.000    0.000    0.000    0.000 
#
# Total GULP energy -124015.302417 kJ/mol
# GULP energy per Si atom -12401.530242 kJ/mol
# Density = 2.655540 g / cm^3
# Si number density = 26.615981 Si / 1000 Ang^3
#
#
#
# Elastic Constant Matrix: (Units=GPa)
#
#
# Indices 1 2 3 4 5 6 
#
# 1 38.4580 2.1547 -4.6410 -13.4229 7.0585 -12.7686
# 2 2.1547 127.4836 46.6640 -17.8017 20.9708 -25.5413
# 3 -4.6410 46.6640 83.3728 -15.4927 30.8243 -11.9872
# 4 -13.4229 -17.8017 -15.4927 29.1791 -7.3719 11.0438
# 5 7.0585 20.9708 30.8243 -7.3719 37.1735 -1.1105
# 6 -12.7686 -25.5413 -11.9872 11.0438 -1.1105 36.4468
#
#
#
# Elastic Compliance Matrix: (Units=1/GPa)
#
#
# Indices 1 2 3 4 5 6 
#
# 1 0.040859 0.002880 0.011540 0.017428 -0.015066 0.014388
# 2 0.002880 0.011395 -0.003448 0.003019 -0.003314 0.006845
# 3 0.011540 -0.003448 0.023772 0.008937 -0.018001 0.006189
# 4 0.017428 0.003019 0.008937 0.049704 -0.002685 -0.003982
# 5 -0.015066 -0.003314 -0.018001 -0.002685 0.045687 -0.011315
# 6 0.014388 0.006845 0.006189 -0.003982 -0.011315 0.040172
#
#
# Mechanical properties :
#
#
# Convention : Reuss Voigt Hill
#
# Bulk Modulus (GPa) = 10.20719 37.51885 23.86302
# Shear Modulus (GPa) = 22.49200 34.23567 28.36383
#
# Velocity S-wave (km/s) = 2.91014 3.59037 3.26800
# Velocity P-wave (km/s) = 3.89040 5.59595 4.81922
#
# Compressibility (1/GPa) = 0.09797019
#
# Stress axis : x y z
#
# Youngs Moduli (GPa) = 24.47467 87.75446 42.06630
#
# Poissons Ratio (x) = -0.25273 -0.48543
# Poissons Ratio (y) = -0.07049 0.14503
# Poissons Ratio (z) = -0.28243 0.30254
#
# Static dielectric constant tensor:
#      x y z
#    x 4.260710 -0.141380 0.173070 
#    y -0.141380 5.156590 -0.177350 
#    z 0.173070 -0.177350 4.642670 
# 
# 
# High freq. dielectric constant tensor:
#      x y z
#    x 2.048270 -0.001120 0.016620 
#    y -0.001120 2.082390 -0.013050 
#    z 0.016620 -0.013050 2.057160 
# 
# From -- ./inp_files/16058.got.cif
#   From: 2010.06.25/outbox.cif.g09.slc.cpg/sg2_9_cif.got.tgz:16058.got - 2010.06.27 13:26:56.
