data_PCOD8019005
_publ_section_title
;
Structure prediction by ZEFSAII (Michael W. Deem and Ramdas Pophale) SiO2 
 PCOD8019005
Probable space group: P -1
;
_chemical_formula_sum "Si O2"
_cell_formula_units_Z 16
_cell_length_a 8.462524
_cell_length_b 13.709496
_cell_length_c 12.404635
_cell_angle_alpha 116.029876
_cell_angle_beta 61.686317
_cell_angle_gamma 145.524149
_cell_volume 713.868832
_symmetry_space_group_name_H-M "P -1"
_symmetry_group_IT_number 2
_symmetry_cell_setting 'triclinic'
loop_
_space_group_symop_operation_xyz
x,y,z
-x,-y,-z
loop_
_atom_site_type_symbol
_atom_site_label
_atom_site_fract_x
_atom_site_fract_y
_atom_site_fract_z
Si Si1 0.401053 0.635422 0.186349
Si Si2 0.829630 0.804881 0.954411
Si Si3 0.320477 0.016108 0.028341
Si Si4 0.736119 0.603533 0.708746
Si Si5 0.833579 0.344483 0.899043
Si Si6 0.840975 0.146329 0.475617
Si Si7 0.886075 0.716452 0.320438
Si Si8 0.945518 0.954544 0.290605
O O1 0.262411 0.482631 0.236536
O O2 0.164294 0.606835 0.201092
O O3 0.648252 0.816681 0.255341
O O4 0.534763 0.649084 0.039654
O O5 0.780659 0.742455 0.817523
O O6 0.000000 0.000000 0.000000
O O7 0.060473 0.838542 0.959616
O O8 0.509238 0.183555 0.971065
O O9 0.209879 0.042040 0.172752
O O10 0.500000 0.000000 0.000000
O O11 0.453378 0.468738 0.660303
O O12 0.007071 0.708032 0.594322
O O13 0.976818 0.292893 0.823388
O O14 0.000000 0.500000 0.000000
O O15 0.951226 0.238086 0.600360
O O16 0.500000 0.000000 0.500000
O O17 0.972112 0.087380 0.393183
O O18 0.932596 0.864430 0.350310
#
# Coordination Sequence:
#
# PCOD8019005 Si02
#       8
#     2   2   2   2   2   2   2   2
#     4  10  22  41  64 100 135 179 225 280 349 415
#     4  11  21  38  68  96 135 180 230 280 347 409
#     4  11  23  39  66 106 140 175 228 286 351 418
#     4  11  25  44  67  95 138 184 228 287 349 404
#     4  12  25  40  65 103 146 179 227 283 352 422
#     4  12  27  47  75 102 133 188 244 290 339 410
#     4  11  25  47  68 102 143 181 232 289 349 416
#     4  10  23  45  73  98 137 181 230 292 347 406
#
# _framework density 22.413080000000001
#
# number of rings (size 3 to 8) (size 9 to 14) (size 15 to 20)
#    0.000    1.000    2.500    4.125    5.250    0.000 
#    0.000    6.875    0.000    0.000    0.000    0.000 
#    0.000    0.000    0.000    0.000    0.000    0.000 
#
# Total GULP energy -198314.646076 kJ/mol
# GULP energy per Si atom -12394.665380 kJ/mol
# Density = 2.236207 g / cm^3
# Si number density = 22.413080 Si / 1000 Ang^3
#
#
#
# Elastic Constant Matrix: (Units=GPa)
#
#
# Indices 1 2 3 4 5 6 
#
# 1 116.8209 43.8470 37.5791 -0.3580 9.1688 0.6760
# 2 43.8470 112.5717 49.7550 -18.7614 2.7708 4.9120
# 3 37.5791 49.7550 109.3048 -6.8579 6.3419 0.9989
# 4 -0.3580 -18.7614 -6.8579 40.8555 -0.4354 -0.9084
# 5 9.1688 2.7708 6.3419 -0.4354 43.0594 1.1279
# 6 0.6760 4.9120 0.9989 -0.9084 1.1279 33.9441
#
#
#
# Elastic Compliance Matrix: (Units=1/GPa)
#
#
# Indices 1 2 3 4 5 6 
#
# 1 0.010686 -0.003527 -0.002088 -0.001887 -0.001770 0.000367
# 2 -0.003527 0.013159 -0.004473 0.005233 0.000657 -0.001584
# 3 -0.002088 -0.004473 0.011955 -0.000068 -0.001039 0.000370
# 4 -0.001887 0.005233 -0.000068 0.026855 0.000347 -0.000010
# 5 -0.001770 0.000657 -0.001039 0.000347 0.023736 -0.000809
# 6 0.000367 -0.001584 0.000370 -0.000010 -0.000809 0.029698
#
#
# Mechanical properties :
#
#
# Convention : Reuss Voigt Hill
#
# Bulk Modulus (GPa) = 63.99553 66.78441 65.38997
# Shear Modulus (GPa) = 35.34276 37.40621 36.37449
#
# Velocity S-wave (km/s) = 3.97530 4.08971 4.03291
# Velocity P-wave (km/s) = 7.04879 7.22237 7.13611
#
# Compressibility (1/GPa) = 0.01562609
#
# Stress axis : x y z
#
# Youngs Moduli (GPa) = 93.57741 75.99509 83.64652
#
# Poissons Ratio (x) = 0.26800 0.17463
# Poissons Ratio (y) = 0.33000 0.37413
# Poissons Ratio (z) = 0.19537 0.33990
#
# Static dielectric constant tensor:
#      x y z
#    x 4.316290 0.123900 0.190400 
#    y 0.123900 4.165620 -0.050370 
#    z 0.190400 -0.050370 4.049900 
# 
# 
# High freq. dielectric constant tensor:
#      x y z
#    x 1.896020 0.002080 0.012140 
#    y 0.002080 1.882980 -0.002990 
#    z 0.012140 -0.002990 1.873650 
# 
# From -- ./inp_files/297519.got.cif
#   From: 2010.06.25/outbox.cif.g09.slc.cpg/sg2_149_cif.got.tgz:297519.got - 2010.06.27 13:26:56.
