data_PCOD8019618
_publ_section_title
;
Structure prediction by ZEFSAII (Michael W. Deem and Ramdas Pophale) SiO2 
 PCOD8019618
Probable space group: P -1
;
_chemical_formula_sum "Si O2"
_cell_formula_units_Z 14
_cell_length_a 9.971234
_cell_length_b 14.738712
_cell_length_c 8.026118
_cell_angle_alpha 67.769184
_cell_angle_beta 133.237232
_cell_angle_gamma 83.193191
_cell_volume 658.988535
_symmetry_space_group_name_H-M "P -1"
_symmetry_group_IT_number 2
_symmetry_cell_setting 'triclinic'
loop_
_space_group_symop_operation_xyz
x,y,z
-x,-y,-z
loop_
_atom_site_type_symbol
_atom_site_label
_atom_site_fract_x
_atom_site_fract_y
_atom_site_fract_z
Si Si1 0.679027 0.633523 0.336249
Si Si2 0.512722 0.983919 0.217148
Si Si3 0.564579 0.792570 0.834953
Si Si4 0.111542 0.276876 0.317665
Si Si5 0.966919 0.369296 0.801405
Si Si6 0.268106 0.714718 0.140895
Si Si7 0.766619 0.089033 0.820351
O O1 0.809787 0.691750 0.471576
O O2 0.520701 0.636809 0.343894
O O3 0.853322 0.497105 0.530107
O O4 0.542261 0.708833 0.005098
O O5 0.713109 0.851525 0.522074
O O6 0.294334 0.997914 0.094335
O O7 0.542962 0.078353 0.267043
O O8 0.500000 0.000000 0.000000
O O9 0.417767 0.813039 0.533245
O O10 0.828355 0.728268 0.070276
O O11 0.068488 0.369368 0.069202
O O12 0.887854 0.277588 0.150612
O O13 0.782171 0.338699 0.701064
O O14 0.211922 0.842284 0.055556
O O15 0.000000 0.000000 0.000000
#
# Coordination Sequence:
#
# PCOD8019618 Si02
#       7
#     2   2   2   2   2   2   2
#     4  12  22  44  66  98 130 172 218 263 318 381
#     4  12  22  42  67  92 126 167 215 266 319 385
#     4  12  24  41  66  97 134 170 208 270 331 380
#     4  10  22  41  69  92 127 169 219 260 322 374
#     4  10  23  42  68  93 131 172 218 262 318 382
#     4  10  22  42  65  96 123 172 222 255 317 381
#     4  12  23  41  64  96 135 167 211 270 325 384
#
# _framework density 21.244678
#
# number of rings (size 3 to 8) (size 9 to 14) (size 15 to 20)
#    0.857    0.000    4.286    3.429    0.000    1.143 
#    2.571    3.571    0.000    0.000    0.000    0.000 
#    0.000    0.000    0.000    0.000    0.000    0.000 
#
# Total GULP energy -173491.421971 kJ/mol
# GULP energy per Si atom -12392.244427 kJ/mol
# Density = 2.119632 g / cm^3
# Si number density = 21.244678 Si / 1000 Ang^3
#
#
#
# Elastic Constant Matrix: (Units=GPa)
#
#
# Indices 1 2 3 4 5 6 
#
# 1 85.3674 16.0732 41.4701 -2.1360 -4.2105 5.0351
# 2 16.0732 63.5211 31.8338 -2.2750 9.5870 5.6971
# 3 41.4701 31.8338 88.8587 -8.0410 1.7342 10.4999
# 4 -2.1360 -2.2750 -8.0410 39.2649 0.6625 0.5914
# 5 -4.2105 9.5870 1.7342 0.6625 32.7804 -3.4334
# 6 5.0351 5.6971 10.4999 0.5914 -3.4334 25.5579
#
#
#
# Elastic Compliance Matrix: (Units=1/GPa)
#
#
# Indices 1 2 3 4 5 6 
#
# 1 0.015381 -0.000822 -0.007049 -0.000706 0.002647 0.000421
# 2 -0.000822 0.020327 -0.006492 -0.000058 -0.005968 -0.002503
# 3 -0.007049 -0.006492 0.017684 0.002939 -0.000480 -0.004562
# 4 -0.000706 -0.000058 0.002939 0.026071 -0.000943 -0.001785
# 5 0.002647 -0.005968 -0.000480 -0.000943 0.033211 0.005489
# 6 0.000421 -0.002503 -0.004562 -0.001785 0.005489 0.042255
#
#
# Mechanical properties :
#
#
# Convention : Reuss Voigt Hill
#
# Bulk Modulus (GPa) = 40.54085 46.27793 43.40939
# Shear Modulus (GPa) = 26.05845 29.41197 27.73521
#
# Velocity S-wave (km/s) = 3.50607 3.72484 3.61711
# Velocity P-wave (km/s) = 5.95938 6.35058 6.15809
#
# Compressibility (1/GPa) = 0.02466648
#
# Stress axis : x y z
#
# Youngs Moduli (GPa) = 65.01395 49.19512 56.54939
#
# Poissons Ratio (x) = 0.04043 0.39863
# Poissons Ratio (y) = 0.05343 0.36710
# Poissons Ratio (z) = 0.45830 0.31936
#
# Static dielectric constant tensor:
#      x y z
#    x 3.840550 0.064630 0.057880 
#    y 0.064630 3.873300 -0.023240 
#    z 0.057880 -0.023240 4.031790 
# 
# 
# High freq. dielectric constant tensor:
#      x y z
#    x 1.833330 0.001070 0.006440 
#    y 0.001070 1.822900 -0.011140 
#    z 0.006440 -0.011140 1.826010 
# 
# From -- ./inp_files/200414.got.cif
#   From: 2010.06.25/outbox.cif.g09.slc.cpg/sg2_101_cif.got.tgz:200414.got - 2010.06.27 13:26:56.
