data_PCOD8019116
_publ_section_title
;
Structure prediction by ZEFSAII (Michael W. Deem and Ramdas Pophale) SiO2 
 PCOD8019116
Probable space group: P -1
;
_chemical_formula_sum "Si O2"
_cell_formula_units_Z 16
_cell_length_a 8.085326
_cell_length_b 9.280765
_cell_length_c 13.087229
_cell_angle_alpha 101.671165
_cell_angle_beta 43.803998
_cell_angle_gamma 91.036249
_cell_volume 653.748233
_symmetry_space_group_name_H-M "P -1"
_symmetry_group_IT_number 2
_symmetry_cell_setting 'triclinic'
loop_
_space_group_symop_operation_xyz
x,y,z
-x,-y,-z
loop_
_atom_site_type_symbol
_atom_site_label
_atom_site_fract_x
_atom_site_fract_y
_atom_site_fract_z
Si Si1 0.368760 0.503844 0.877236
Si Si2 0.229869 0.474387 0.608139
Si Si3 0.068173 0.038685 0.707635
Si Si4 0.400363 0.767446 0.153464
Si Si5 0.890168 0.689119 0.177634
Si Si6 0.145170 0.245819 0.196217
Si Si7 0.695123 0.686083 0.646145
Si Si8 0.720452 0.999516 0.597204
O O1 0.574875 0.406868 0.845368
O O2 0.234234 0.379103 0.870158
O O3 0.469620 0.606479 0.763792
O O4 0.178325 0.619352 0.044433
O O5 0.500000 0.500000 0.500000
O O6 0.223792 0.339999 0.667874
O O7 0.155551 0.424557 0.520823
O O8 0.047560 0.622428 0.750736
O O9 0.157300 0.127947 0.777324
O O10 0.864925 0.165771 0.761634
O O11 0.285679 0.979390 0.520835
O O12 0.953367 0.907219 0.787769
O O13 0.445596 0.864043 0.248063
O O14 0.598136 0.777399 0.978623
O O15 0.155117 0.293216 0.316645
O O16 0.620602 0.849892 0.651865
O O17 0.000000 0.000000 0.500000
#
# Coordination Sequence:
#
# PCOD8019116 Si02
#       8
#     2   2   2   2   2   2   2   2
#     4  11  26  43  70 101 136 188 233 279 344 403
#     4  12  26  47  68 101 138 181 233 284 341 414
#     4  11  24  43  71 100 142 179 226 283 346 408
#     4  11  24  44  68 102 143 175 230 285 340 410
#     4  11  24  48  65  97 145 184 230 285 337 411
#     4  12  26  44  69 106 135 182 228 284 351 405
#     4  12  24  42  74 103 137 176 230 289 344 406
#     4  10  22  41  65 100 141 174 216 278 348 401
#
# _framework density 24.474252
#
# number of rings (size 3 to 8) (size 9 to 14) (size 15 to 20)
#    0.000    0.750    6.250    1.500    5.250    1.000 
#    2.250    1.875    0.000    0.000    0.000    0.000 
#    0.000    0.000    0.000    0.000    0.000    0.000 
#
# Total GULP energy -198310.115979 kJ/mol
# GULP energy per Si atom -12394.382249 kJ/mol
# Density = 2.441855 g / cm^3
# Si number density = 24.474252 Si / 1000 Ang^3
#
#
#
# Elastic Constant Matrix: (Units=GPa)
#
#
# Indices 1 2 3 4 5 6 
#
# 1 26.2515 0.1599 -2.1587 8.0823 13.7110 16.1960
# 2 0.1599 106.7354 23.2052 -7.1738 3.6106 16.0264
# 3 -2.1587 23.2052 95.4200 -1.5159 21.7348 3.8154
# 4 8.0823 -7.1738 -1.5159 41.3006 3.4421 9.2298
# 5 13.7110 3.6106 21.7348 3.4421 33.8803 7.1419
# 6 16.1960 16.0264 3.8154 9.2298 7.1419 34.4190
#
#
#
# Elastic Compliance Matrix: (Units=1/GPa)
#
#
# Indices 1 2 3 4 5 6 
#
# 1 0.073742 0.003192 0.008611 -0.004457 -0.028943 -0.029940
# 2 0.003192 0.011147 -0.002368 0.002820 0.000280 -0.007244
# 3 0.008611 -0.002368 0.014012 -0.000149 -0.011781 -0.002018
# 4 -0.004457 0.002820 -0.000149 0.027000 0.000223 -0.006486
# 5 -0.028943 0.000280 -0.011781 0.000223 0.047715 0.004834
# 6 -0.029940 -0.007244 -0.002018 -0.006486 0.004834 0.047475
#
#
# Mechanical properties :
#
#
# Convention : Reuss Voigt Hill
#
# Bulk Modulus (GPa) = 8.49094 30.09107 19.29101
# Shear Modulus (GPa) = 20.70581 35.73335 28.21958
#
# Velocity S-wave (km/s) = 2.91180 3.82519 3.39932
# Velocity P-wave (km/s) = 3.84469 5.64191 4.82767
#
# Compressibility (1/GPa) = 0.11777261
#
# Stress axis : x y z
#
# Youngs Moduli (GPa) = 13.56073 89.71207 71.36516
#
# Poissons Ratio (x) = -0.28640 -0.61452
# Poissons Ratio (y) = -0.04329 0.16898
# Poissons Ratio (z) = -0.11677 0.21242
#
# Static dielectric constant tensor:
#      x y z
#    x 4.227060 0.351520 0.361450 
#    y 0.351520 4.688300 0.212570 
#    z 0.361450 0.212570 4.645010 
# 
# 
# High freq. dielectric constant tensor:
#      x y z
#    x 1.955310 0.018840 0.018430 
#    y 0.018840 1.983830 0.005570 
#    z 0.018430 0.005570 1.983790 
# 
# From -- ./inp_files/495112.got.cif
#   From: 2010.06.25/outbox.cif.g09.slc.cpg/sg2_248_cif.got.tgz:495112.got - 2010.06.27 13:26:56.
