data_PCOD8019745
_publ_section_title
;
Structure prediction by ZEFSAII (Michael W. Deem and Ramdas Pophale) SiO2 
 PCOD8019745
Probable space group: P -1
;
_chemical_formula_sum "Si O2"
_cell_formula_units_Z 14
_cell_length_a 8.751592
_cell_length_b 8.497297
_cell_length_c 11.826980
_cell_angle_alpha 67.894256
_cell_angle_beta 57.356095
_cell_angle_gamma 106.495310
_cell_volume 536.085320
_symmetry_space_group_name_H-M "P -1"
_symmetry_group_IT_number 2
_symmetry_cell_setting 'triclinic'
loop_
_space_group_symop_operation_xyz
x,y,z
-x,-y,-z
loop_
_atom_site_type_symbol
_atom_site_label
_atom_site_fract_x
_atom_site_fract_y
_atom_site_fract_z
Si Si1 0.407289 0.984930 0.917005
Si Si2 0.957624 0.567836 0.120537
Si Si3 0.794872 0.102487 0.568893
Si Si4 0.158174 0.870783 0.716201
Si Si5 0.488593 0.665149 0.526416
Si Si6 0.297969 0.315426 0.326847
Si Si7 0.746768 0.751877 0.017918
O O1 0.626818 0.121376 0.707038
O O2 0.273045 0.085299 0.949242
O O3 0.500000 0.000000 0.000000
O O4 0.220330 0.735486 0.016576
O O5 0.911495 0.353405 0.132074
O O6 0.780092 0.435258 0.332868
O O7 0.861462 0.684028 0.074759
O O8 0.754229 0.113837 0.448990
O O9 0.065601 0.293521 0.438807
O O10 0.743621 0.875209 0.681958
O O11 0.359689 0.085183 0.650631
O O12 0.928000 0.858305 0.811016
O O13 0.500000 0.500000 0.500000
O O14 0.610159 0.698837 0.587437
O O15 0.493601 0.548802 0.128913
#
# Coordination Sequence:
#
# PCOD8019745 Si02
#       7
#     2   2   2   2   2   2   2
#     4  12  29  46  72 107 149 195 241 304 370 427
#     4  11  25  46  69 105 145 192 244 299 357 438
#     4  10  24  45  71 104 150 182 248 290 365 438
#     4  11  24  43  78 109 140 195 242 294 362 435
#     4  10  22  41  71 110 145 183 241 300 364 423
#     4   9  22  43  71 101 143 194 230 299 358 442
#     4  11  25  46  72 103 148 186 247 300 367 419
#
# _framework density 26.115241999999999
#
# number of rings (size 3 to 8) (size 9 to 14) (size 15 to 20)
#    0.000    1.429    0.000    3.000   10.000    8.000 
#    0.000    0.000    0.000    0.000    0.000    0.000 
#    0.000    0.000    0.000    0.000    0.000    0.000 
#
# Total GULP energy -173496.052404 kJ/mol
# GULP energy per Si atom -12392.575172 kJ/mol
# Density = 2.605580 g / cm^3
# Si number density = 26.115242 Si / 1000 Ang^3
#
#
#
# Elastic Constant Matrix: (Units=GPa)
#
#
# Indices 1 2 3 4 5 6 
#
# 1 89.2933 50.9032 42.8265 2.1932 -24.8983 -6.4438
# 2 50.9032 144.4118 69.3884 -3.1586 -15.2660 -18.5582
# 3 42.8265 69.3884 151.3764 -3.0752 -37.7371 -12.0699
# 4 2.1932 -3.1586 -3.0752 51.7347 -3.0301 -15.3424
# 5 -24.8983 -15.2660 -37.7371 -3.0301 49.3036 1.0879
# 6 -6.4438 -18.5582 -12.0699 -15.3424 1.0879 47.9640
#
#
#
# Elastic Compliance Matrix: (Units=1/GPa)
#
#
# Indices 1 2 3 4 5 6 
#
# 1 0.015897 -0.004560 -0.000992 -0.000744 0.005816 -0.000248
# 2 -0.004560 0.010552 -0.003747 0.001399 -0.001885 0.003017
# 3 -0.000992 -0.003747 0.010286 0.001157 0.006255 0.001233
# 4 -0.000744 0.001399 0.001157 0.021922 0.002120 0.007697
# 5 0.005816 -0.001885 0.006255 0.002120 0.027517 0.001680
# 6 -0.000248 0.003017 0.001233 0.007697 0.001680 0.024717
#
#
# Mechanical properties :
#
#
# Convention : Reuss Voigt Hill
#
# Bulk Modulus (GPa) = 55.14228 79.03529 67.08878
# Shear Modulus (GPa) = 36.89108 44.59803 40.74456
#
# Velocity S-wave (km/s) = 3.76257 4.13696 3.95420
# Velocity P-wave (km/s) = 6.32746 7.29034 6.82590
#
# Compressibility (1/GPa) = 0.01813491
#
# Stress axis : x y z
#
# Youngs Moduli (GPa) = 62.90691 94.77133 97.22216
#
# Poissons Ratio (x) = 0.43215 0.09646
# Poissons Ratio (y) = 0.28685 0.36433
# Poissons Ratio (z) = 0.06241 0.35515
#
# Static dielectric constant tensor:
#      x y z
#    x 0.428300 -5.656050 2.942010 
#    y -5.656050 -1.980830 4.066480 
#    z 2.942010 4.066480 3.566180 
# 
# 
# High freq. dielectric constant tensor:
#      x y z
#    x 2.039460 -0.016100 -0.017660 
#    y -0.016100 2.041910 -0.007530 
#    z -0.017660 -0.007530 2.072980 
# 
# From -- ./inp_files/381628.got.cif
#   From: 2010.06.25/outbox.cif.g09.slc.cpg/sg2_191_cif.got.tgz:381628.got - 2010.06.27 13:26:56.
