data_PCOD8019304
_publ_section_title
;
Structure prediction by ZEFSAII (Michael W. Deem and Ramdas Pophale) SiO2 
 PCOD8019304
Probable space group: P -1
;
_chemical_formula_sum "Si O2"
_cell_formula_units_Z 14
_cell_length_a 5.001755
_cell_length_b 21.419515
_cell_length_c 6.061248
_cell_angle_alpha 68.575503
_cell_angle_beta 83.525231
_cell_angle_gamma 80.307565
_cell_volume 594.941380
_symmetry_space_group_name_H-M "P -1"
_symmetry_group_IT_number 2
_symmetry_cell_setting 'triclinic'
loop_
_space_group_symop_operation_xyz
x,y,z
-x,-y,-z
loop_
_atom_site_type_symbol
_atom_site_label
_atom_site_fract_x
_atom_site_fract_y
_atom_site_fract_z
Si Si1 0.131784 0.452001 0.739339
Si Si2 0.777402 0.422696 0.191185
Si Si3 0.486426 0.892367 0.529643
Si Si4 0.203085 0.025084 0.278782
Si Si5 0.704886 0.640734 0.521453
Si Si6 0.137974 0.855341 0.976984
Si Si7 0.658050 0.797529 0.271341
O O1 0.292620 0.498416 0.824588
O O2 0.325250 0.390776 0.680843
O O3 0.000000 0.500000 0.500000
O O4 0.899724 0.420816 0.937049
O O5 0.502724 0.388967 0.254339
O O6 0.991371 0.379280 0.390655
O O7 0.628456 0.921414 0.688724
O O8 0.685001 0.835087 0.455111
O O9 0.392482 0.955131 0.284101
O O10 0.239794 0.857538 0.709498
O O11 0.000000 0.000000 0.500000
O O12 0.030174 0.069205 0.045961
O O13 0.625128 0.720392 0.413091
O O14 0.383138 0.836084 0.144754
O O15 0.923987 0.801399 0.092152
#
# Coordination Sequence:
#
# PCOD8019304 Si02
#       7
#     2   2   2   2   2   2   2
#     4   9  21  40  69  97 129 162 212 266 305 369
#     4  10  22  41  66  95 126 171 209 256 320 359
#     4  10  23  44  64  94 131 163 211 279 324 388
#     4   9  20  43  67  92 127 162 214 275 329 374
#     4  11  24  42  60  95 131 168 214 255 310 382
#     4  11  24  44  63  96 123 169 219 266 320 385
#     4  12  27  40  67  93 129 176 216 256 327 387
#
# _framework density 23.531728999999999
#
# number of rings (size 3 to 8) (size 9 to 14) (size 15 to 20)
#    0.000    1.714    1.429    1.286    4.000   10.857 
#    0.000    0.000    0.000    0.000    0.000    0.000 
#    0.000    0.000    0.000    0.000    0.000    0.000 
#
# Total GULP energy -173506.545024 kJ/mol
# GULP energy per Si atom -12393.324645 kJ/mol
# Density = 2.347817 g / cm^3
# Si number density = 23.531729 Si / 1000 Ang^3
#
#
#
# Elastic Constant Matrix: (Units=GPa)
#
#
# Indices 1 2 3 4 5 6 
#
# 1 91.1646 27.6010 16.6632 -7.7193 -18.4878 2.8642
# 2 27.6010 151.6309 53.2332 -8.5648 -14.0538 -6.0180
# 3 16.6632 53.2332 92.3072 -10.3214 -21.9363 -0.2030
# 4 -7.7193 -8.5648 -10.3214 23.3795 4.2531 -6.4546
# 5 -18.4878 -14.0538 -21.9363 4.2531 40.3607 -11.9619
# 6 2.8642 -6.0180 -0.2030 -6.4546 -11.9619 25.6410
#
#
#
# Elastic Compliance Matrix: (Units=1/GPa)
#
#
# Indices 1 2 3 4 5 6 
#
# 1 0.012768 -0.001689 0.000356 0.003176 0.005590 0.001587
# 2 -0.001689 0.008691 -0.004425 0.001344 0.000530 0.002779
# 3 0.000356 -0.004425 0.015765 0.005134 0.007833 0.003993
# 4 0.003176 0.001344 0.005134 0.049849 0.003689 0.014271
# 5 0.005590 0.000530 0.007833 0.003689 0.036595 0.017563
# 6 0.001587 0.002779 0.003993 0.014271 0.017563 0.051292
#
#
# Mechanical properties :
#
#
# Convention : Reuss Voigt Hill
#
# Bulk Modulus (GPa) = 38.89686 58.89974 48.89830
# Shear Modulus (GPa) = 25.63496 33.71657 29.67576
#
# Velocity S-wave (km/s) = 3.30415 3.78936 3.55504
# Velocity P-wave (km/s) = 5.57871 6.65056 6.13807
#
# Compressibility (1/GPa) = 0.02570902
#
# Stress axis : x y z
#
# Youngs Moduli (GPa) = 78.32091 115.05977 63.42984
#
# Poissons Ratio (x) = 0.19429 -0.02258
# Poissons Ratio (y) = 0.13225 0.28068
# Poissons Ratio (z) = -0.02788 0.50915
#
# Static dielectric constant tensor:
#      x y z
#    x 0.945990 -0.420650 0.534760 
#    y -0.420650 4.491220 -0.086140 
#    z 0.534760 -0.086140 4.170000 
# 
# 
# High freq. dielectric constant tensor:
#      x y z
#    x 1.934590 -0.007010 -0.012400 
#    y -0.007010 1.910100 -0.019260 
#    z -0.012400 -0.019260 1.931140 
# 
# From -- ./inp_files/9210.got.cif
#   From: 2010.06.25/outbox.cif.g09.slc.cpg/sg2_5_cif.got.tgz:9210.got - 2010.06.27 13:26:56.
