data_PCOD8019096
_publ_section_title
;
Structure prediction by ZEFSAII (Michael W. Deem and Ramdas Pophale) SiO2 
 PCOD8019096
Probable space group: P -1
;
_chemical_formula_sum "Si O2"
_cell_formula_units_Z 14
_cell_length_a 9.340193
_cell_length_b 8.032196
_cell_length_c 19.212749
_cell_angle_alpha 130.560715
_cell_angle_beta 151.236209
_cell_angle_gamma 52.400491
_cell_volume 523.752444
_symmetry_space_group_name_H-M "P -1"
_symmetry_group_IT_number 2
_symmetry_cell_setting 'triclinic'
loop_
_space_group_symop_operation_xyz
x,y,z
-x,-y,-z
loop_
_atom_site_type_symbol
_atom_site_label
_atom_site_fract_x
_atom_site_fract_y
_atom_site_fract_z
Si Si1 0.635635 0.403474 0.459990
Si Si2 0.243567 0.182504 0.683315
Si Si3 0.523024 0.575383 0.952807
Si Si4 0.445183 0.860877 0.335218
Si Si5 0.906259 0.812390 0.634575
Si Si6 0.517129 0.031783 0.128383
Si Si7 0.195354 0.428457 0.158529
O O1 0.500000 0.500000 0.500000
O O2 0.825118 0.568200 0.544798
O O3 0.357159 0.357220 0.281079
O O4 0.880634 0.183437 0.514184
O O5 0.463417 0.082329 0.688715
O O6 0.339847 0.068689 0.766116
O O7 0.283603 0.447222 0.774599
O O8 0.444204 0.841053 0.991604
O O9 0.852584 0.510947 0.045807
O O10 0.500000 0.500000 0.000000
O O11 0.722627 0.909808 0.515619
O O12 0.355594 0.614330 0.237717
O O13 0.170373 0.036747 0.288948
O O14 0.255349 0.814623 0.767900
O O15 0.220932 0.202988 0.062250
#
# Coordination Sequence:
#
# PCOD8019096 Si02
#       7
#     2   2   2   2   2   2   2
#     4  11  24  41  66 101 131 168 217 277 320 389
#     4  11  25  41  65  99 134 163 228 272 317 385
#     4  10  23  45  63  94 138 173 213 273 324 384
#     4  10  22  41  64  97 132 172 213 274 323 390
#     4  10  22  41  66  94 138 171 211 265 342 379
#     4  11  23  43  69  95 129 182 214 265 330 389
#     4  11  23  43  70  91 132 177 218 260 336 388
#
# _framework density 26.730187000000001
#
# number of rings (size 3 to 8) (size 9 to 14) (size 15 to 20)
#    0.000    1.429    1.429    3.429    6.000    6.286 
#    2.571    1.429    0.000    0.000    0.000    0.000 
#    0.000    0.000    0.000    0.000    0.000    0.000 
#
# Total GULP energy -173589.932174 kJ/mol
# GULP energy per Si atom -12399.280870 kJ/mol
# Density = 2.666935 g / cm^3
# Si number density = 26.730187 Si / 1000 Ang^3
#
#
#
# Elastic Constant Matrix: (Units=GPa)
#
#
# Indices 1 2 3 4 5 6 
#
# 1 117.2031 12.6780 16.2656 -2.3634 14.3888 -19.7167
# 2 12.6780 100.7030 -0.7228 1.3696 5.3091 -32.2556
# 3 16.2656 -0.7228 55.3159 -0.4762 4.3411 -1.6205
# 4 -2.3634 1.3696 -0.4762 37.4544 6.7181 5.4049
# 5 14.3888 5.3091 4.3411 6.7181 29.4453 1.8614
# 6 -19.7167 -32.2556 -1.6205 5.4049 1.8614 51.6781
#
#
#
# Elastic Compliance Matrix: (Units=1/GPa)
#
#
# Indices 1 2 3 4 5 6 
#
# 1 0.010176 0.000257 -0.002460 0.000936 -0.005126 0.004052
# 2 0.000257 0.012711 0.000540 -0.001140 -0.002759 0.008267
# 3 -0.002460 0.000540 0.018952 0.000382 -0.001778 0.000017
# 4 0.000936 -0.001140 0.000382 0.028433 -0.006601 -0.003078
# 5 -0.005126 -0.002759 -0.001778 -0.006601 0.039013 -0.004449
# 6 0.004052 0.008267 0.000017 -0.003078 -0.004449 0.026539
#
#
# Mechanical properties :
#
#
# Convention : Reuss Voigt Hill
#
# Bulk Modulus (GPa) = 25.96670 36.62929 31.29800
# Shear Modulus (GPa) = 32.89755 40.04897 36.47326
#
# Velocity S-wave (km/s) = 3.51198 3.87495 3.69792
# Velocity P-wave (km/s) = 5.11671 5.80976 5.47422
#
# Compressibility (1/GPa) = 0.03851086
#
# Stress axis : x y z
#
# Youngs Moduli (GPa) = 98.27396 78.67407 52.76594
#
# Poissons Ratio (x) = -0.02020 0.12979
# Poissons Ratio (y) = -0.02523 -0.02847
# Poissons Ratio (z) = 0.24173 -0.04245
#
# Static dielectric constant tensor:
#      x y z
#    x 4.841860 -0.146750 -0.208180 
#    y -0.146750 5.288330 0.561620 
#    z -0.208180 0.561620 5.181530 
# 
# 
# High freq. dielectric constant tensor:
#      x y z
#    x 2.087120 0.000510 -0.000560 
#    y 0.000510 2.088980 0.012930 
#    z -0.000560 0.012930 2.071830 
# 
# From -- ./inp_files/223999.got.cif
#   From: 2010.06.25/outbox.cif.g09.slc.cpg/sg2_112_cif.got.tgz:223999.got - 2010.06.27 13:26:56.
