data_PCOD8019773
_publ_section_title
;
Structure prediction by ZEFSAII (Michael W. Deem and Ramdas Pophale) SiO2 
 PCOD8019773
Probable space group: P -1
;
_chemical_formula_sum "Si O2"
_cell_formula_units_Z 14
_cell_length_a 9.055099
_cell_length_b 11.417643
_cell_length_c 9.075574
_cell_angle_alpha 122.098516
_cell_angle_beta 56.948867
_cell_angle_gamma 128.539479
_cell_volume 588.313972
_symmetry_space_group_name_H-M "P -1"
_symmetry_group_IT_number 2
_symmetry_cell_setting 'triclinic'
loop_
_space_group_symop_operation_xyz
x,y,z
-x,-y,-z
loop_
_atom_site_type_symbol
_atom_site_label
_atom_site_fract_x
_atom_site_fract_y
_atom_site_fract_z
Si Si1 0.755689 0.667839 0.589058
Si Si2 0.987679 0.210242 0.213324
Si Si3 0.710585 0.957658 0.715898
Si Si4 0.669732 0.949972 0.395662
Si Si5 0.250112 0.786440 0.923535
Si Si6 0.336311 0.339358 0.910949
Si Si7 0.294360 0.502734 0.787313
O O1 0.794273 0.842910 0.649555
O O2 0.532640 0.566742 0.704067
O O3 0.797373 0.590874 0.373573
O O4 0.918887 0.671911 0.620168
O O5 0.875778 0.265659 0.193806
O O6 0.843435 0.038893 0.240594
O O7 0.184681 0.220359 0.034027
O O8 0.761718 0.993591 0.539159
O O9 0.474970 0.884453 0.811856
O O10 0.814565 0.113677 0.864550
O O11 0.574809 0.762670 0.290347
O O12 0.500000 0.000000 0.500000
O O13 0.227561 0.636816 0.927808
O O14 0.209932 0.386669 0.895119
O O15 0.500000 0.500000 0.000000
#
# Coordination Sequence:
#
# PCOD8019773 Si02
#       7
#     2   2   2   2   2   2   2
#     4  10  22  41  72 101 138 189 238 291 346 435
#     4  12  27  45  75 112 141 183 252 295 348 421
#     4  10  22  44  69  99 144 192 229 286 367 416
#     4  12  27  47  74 107 146 186 238 302 355 420
#     4  10  24  41  71 105 141 183 237 295 349 426
#     4  12  27  47  74 106 145 193 232 296 363 425
#     4  10  22  46  68  99 147 190 228 283 373 421
#
# _framework density 23.796817000000001
#
# number of rings (size 3 to 8) (size 9 to 14) (size 15 to 20)
#    0.000    1.143    4.286    0.429    6.000    2.857 
#    2.571    0.000    0.000    0.000    0.000    0.000 
#    0.000    0.000    0.000    0.000    0.000    0.000 
#
# Total GULP energy -173561.886002 kJ/mol
# GULP energy per Si atom -12397.277572 kJ/mol
# Density = 2.374265 g / cm^3
# Si number density = 23.796817 Si / 1000 Ang^3
#
#
#
# Elastic Constant Matrix: (Units=GPa)
#
#
# Indices 1 2 3 4 5 6 
#
# 1 114.7290 46.5195 50.6127 16.2924 37.3314 4.4271
# 2 46.5195 114.4350 77.5537 10.9709 8.0304 -16.1437
# 3 50.6127 77.5537 116.4900 16.0632 19.4153 -12.2543
# 4 16.2924 10.9709 16.0632 48.8832 -4.3131 5.3075
# 5 37.3314 8.0304 19.4153 -4.3131 38.8164 3.6769
# 6 4.4271 -16.1437 -12.2543 5.3075 3.6769 31.4068
#
#
#
# Elastic Compliance Matrix: (Units=1/GPa)
#
#
# Indices 1 2 3 4 5 6 
#
# 1 0.016967 -0.004963 -0.001132 -0.005198 -0.015042 -0.002745
# 2 -0.004963 0.018031 -0.010442 0.001013 0.005902 0.005032
# 3 -0.001132 -0.010442 0.018037 -0.004141 -0.006545 0.003296
# 4 -0.005198 0.001013 -0.004141 0.024844 0.010166 -0.005751
# 5 -0.015042 0.005902 -0.006545 0.010166 0.043813 -0.004247
# 6 -0.002745 0.005032 0.003296 -0.005751 -0.004247 0.037569
#
#
# Mechanical properties :
#
#
# Convention : Reuss Voigt Hill
#
# Bulk Modulus (GPa) = 50.10117 77.22508 63.66312
# Shear Modulus (GPa) = 25.12685 35.21915 30.17300
#
# Velocity S-wave (km/s) = 3.25297 3.85124 3.56468
# Velocity P-wave (km/s) = 5.93368 7.23176 6.61464
#
# Compressibility (1/GPa) = 0.01995961
#
# Stress axis : x y z
#
# Youngs Moduli (GPa) = 58.93881 55.45857 55.44161
#
# Poissons Ratio (x) = 0.27525 0.06279
# Poissons Ratio (y) = 0.29252 0.57893
# Poissons Ratio (z) = 0.06675 0.57911
#
# Static dielectric constant tensor:
#      x y z
#    x 4.212690 -0.004540 0.294020 
#    y -0.004540 4.369980 -0.108380 
#    z 0.294020 -0.108380 4.374440 
# 
# 
# High freq. dielectric constant tensor:
#      x y z
#    x 1.942080 0.001070 0.020170 
#    y 0.001070 1.944350 -0.006280 
#    z 0.020170 -0.006280 1.945600 
# 
# From -- ./inp_files/157205.got.cif
#   From: 2010.06.25/outbox.cif.g09.slc.cpg/sg2_79_cif.got.tgz:157205.got - 2010.06.27 13:26:56.
