data_PCOD8019639
_publ_section_title
;
Structure prediction by ZEFSAII (Michael W. Deem and Ramdas Pophale) SiO2 
 PCOD8019639
Probable space group: P -1
;
_chemical_formula_sum "Si O2"
_cell_formula_units_Z 14
_cell_length_a 10.150523
_cell_length_b 8.927857
_cell_length_c 14.166208
_cell_angle_alpha 32.695914
_cell_angle_beta 58.609882
_cell_angle_gamma 61.098382
_cell_volume 589.152100
_symmetry_space_group_name_H-M "P -1"
_symmetry_group_IT_number 2
_symmetry_cell_setting 'triclinic'
loop_
_space_group_symop_operation_xyz
x,y,z
-x,-y,-z
loop_
_atom_site_type_symbol
_atom_site_label
_atom_site_fract_x
_atom_site_fract_y
_atom_site_fract_z
Si Si1 0.603463 0.644596 0.954094
Si Si2 0.743138 0.945788 0.483218
Si Si3 0.466618 0.246407 0.713514
Si Si4 0.096543 0.272593 0.275376
Si Si5 0.492865 0.426714 0.299088
Si Si6 0.889310 0.817500 0.077732
Si Si7 0.006870 0.169032 0.170881
O O1 0.770590 0.537623 0.906374
O O2 0.569579 0.976534 0.780965
O O3 0.500000 0.500000 0.000000
O O4 0.592297 0.544255 0.117197
O O5 0.854095 0.911401 0.552922
O O6 0.672966 0.659366 0.630803
O O7 0.596492 0.166269 0.445890
O O8 0.837836 0.050247 0.302580
O O9 0.500000 0.500000 0.500000
O O10 0.532334 0.323641 0.749921
O O11 0.287972 0.166886 0.828426
O O12 0.083464 0.069708 0.296007
O O13 0.946595 0.488313 0.237058
O O14 0.899322 0.933616 0.904050
O O15 0.000000 0.000000 0.000000
O O16 0.000000 0.500000 0.000000
#
# Coordination Sequence:
#
# PCOD8019639 Si02
#       7
#     2   2   2   2   2   2   2
#     4  12  24  45  74 105 142 191 239 289 366 438
#     4  11  23  40  72 106 140 190 243 302 353 433
#     4  12  28  46  73 111 145 188 237 307 363 424
#     4  11  22  44  71 103 135 185 240 291 357 431
#     4  11  24  43  69 103 150 185 243 296 364 425
#     4  11  25  46  73 100 146 186 238 296 366 429
#     4  10  22  41  69  95 138 182 236 286 358 424
#
# _framework density 23.762965000000001
#
# number of rings (size 3 to 8) (size 9 to 14) (size 15 to 20)
#    0.000    0.857    1.429    6.857    4.000    1.143 
#    0.000    0.714    0.000    0.000    0.000    0.000 
#    0.000    0.000    0.000    0.000    0.000    0.000 
#
# Total GULP energy -173475.269978 kJ/mol
# GULP energy per Si atom -12391.090713 kJ/mol
# Density = 2.370888 g / cm^3
# Si number density = 23.762965 Si / 1000 Ang^3
#
#
#
# Elastic Constant Matrix: (Units=GPa)
#
#
# Indices 1 2 3 4 5 6 
#
# 1 86.8413 23.5955 23.9840 8.4730 0.7808 14.0571
# 2 23.5955 74.0362 24.5462 6.9301 0.5621 19.2589
# 3 23.9840 24.5462 120.8233 22.7264 -8.5713 6.9013
# 4 8.4730 6.9301 22.7264 45.0408 -5.4634 -4.2439
# 5 0.7808 0.5621 -8.5713 -5.4634 44.9424 9.4078
# 6 14.0571 19.2589 6.9013 -4.2439 9.4078 45.3752
#
#
#
# Elastic Compliance Matrix: (Units=1/GPa)
#
#
# Indices 1 2 3 4 5 6 
#
# 1 0.013340 -0.002838 -0.001632 -0.001526 -0.000107 -0.002800
# 2 -0.002838 0.016888 -0.002197 -0.001475 0.000538 -0.006204
# 3 -0.001632 -0.002197 0.010015 -0.004290 0.001616 -0.000821
# 4 -0.001526 -0.001475 -0.004290 0.025424 0.001519 0.003814
# 5 -0.000107 0.000538 0.001616 0.001519 0.023836 -0.005241
# 6 -0.002800 -0.006204 -0.000821 0.003814 -0.005241 0.027108
#
#
# Mechanical properties :
#
#
# Convention : Reuss Voigt Hill
#
# Bulk Modulus (GPa) = 37.16388 47.32800 42.24594
# Shear Modulus (GPa) = 35.99290 41.04336 38.51813
#
# Velocity S-wave (km/s) = 3.89609 4.16047 4.03045
# Velocity P-wave (km/s) = 5.99272 6.56043 6.28299
#
# Compressibility (1/GPa) = 0.02690784
#
# Stress axis : x y z
#
# Youngs Moduli (GPa) = 74.96038 59.21428 99.84614
#
# Poissons Ratio (x) = 0.16807 0.16295
# Poissons Ratio (y) = 0.21276 0.21941
# Poissons Ratio (z) = 0.12234 0.13012
#
# Static dielectric constant tensor:
#      x y z
#    x 4.504330 0.342240 -0.096280 
#    y 0.342240 4.312420 0.341210 
#    z -0.096280 0.341210 4.277510 
# 
# 
# High freq. dielectric constant tensor:
#      x y z
#    x 1.957260 0.010190 -0.015200 
#    y 0.010190 1.928340 0.022710 
#    z -0.015200 0.022710 1.952670 
# 
# From -- ./inp_files/296161.got.cif
#   From: 2010.06.25/outbox.cif.g09.slc.cpg/sg2_149_cif.got.tgz:296161.got - 2010.06.27 13:26:56.
