data_PCOD8019658
_publ_section_title
;
Structure prediction by ZEFSAII (Michael W. Deem and Ramdas Pophale) SiO2 
 PCOD8019658
Probable space group: P -1
;
_chemical_formula_sum "Si O2"
_cell_formula_units_Z 12
_cell_length_a 12.634548
_cell_length_b 9.678418
_cell_length_c 8.601297
_cell_angle_alpha 96.718855
_cell_angle_beta 120.037061
_cell_angle_gamma 36.781800
_cell_volume 456.149241
_symmetry_space_group_name_H-M "P -1"
_symmetry_group_IT_number 2
_symmetry_cell_setting 'triclinic'
loop_
_space_group_symop_operation_xyz
x,y,z
-x,-y,-z
loop_
_atom_site_type_symbol
_atom_site_label
_atom_site_fract_x
_atom_site_fract_y
_atom_site_fract_z
Si Si1 0.662248 0.032006 0.498710
Si Si2 0.274099 0.253305 0.724788
Si Si3 0.053730 0.806251 0.105686
Si Si4 0.474097 0.754655 0.250465
Si Si5 0.884861 0.517211 0.050923
Si Si6 0.227765 0.778263 0.529126
O O1 0.487295 0.218139 0.543926
O O2 0.697714 0.143624 0.455754
O O3 0.562963 0.018953 0.293359
O O4 0.919085 0.728412 0.712459
O O5 0.357678 0.326092 0.753378
O O6 0.296345 0.218178 0.928108
O O7 0.000000 0.500000 0.500000
O O8 0.178954 0.723372 0.344171
O O9 0.225315 0.519609 0.109772
O O10 0.804902 0.965306 0.970097
O O11 0.000000 0.000000 0.000000
O O12 0.547171 0.519632 0.261696
O O13 0.000000 0.500000 0.000000
O O14 0.000000 0.000000 0.500000
#
# Coordination Sequence:
#
# PCOD8019658 Si02
#       6
#     2   2   2   2   2   2
#     4  10  22  43  66 105 135 182 235 280 341 420
#     4  10  22  43  70  98 138 183 234 284 338 417
#     4  11  25  47  70 102 145 177 236 288 339 421
#     4  11  24  45  74 103 139 186 231 286 355 401
#     4  10  22  41  69  97 139 185 223 286 349 393
#     4  12  25  44  75 103 140 186 230 285 355 410
#
# _framework density 26.307178
#
# number of rings (size 3 to 8) (size 9 to 14) (size 15 to 20)
#    0.000    1.333    3.333    3.000    7.000    0.667 
#    0.000    3.333    0.000    0.000    0.000    0.000 
#    0.000    0.000    0.000    0.000    0.000    0.000 
#
# Total GULP energy -148765.176130 kJ/mol
# GULP energy per Si atom -12397.098011 kJ/mol
# Density = 2.624730 g / cm^3
# Si number density = 26.307178 Si / 1000 Ang^3
#
#
#
# Elastic Constant Matrix: (Units=GPa)
#
#
# Indices 1 2 3 4 5 6 
#
# 1 171.3342 35.1421 30.3597 15.0619 -20.4064 8.7575
# 2 35.1421 127.3632 -1.0395 8.8911 -24.3648 18.4438
# 3 30.3597 -1.0395 54.3774 23.8910 -3.3412 17.6552
# 4 15.0619 8.8911 23.8910 36.4402 -0.8848 0.3771
# 5 -20.4064 -24.3648 -3.3412 -0.8848 36.6603 2.4270
# 6 8.7575 18.4438 17.6552 0.3771 2.4270 52.3503
#
#
#
# Elastic Compliance Matrix: (Units=1/GPa)
#
#
# Indices 1 2 3 4 5 6 
#
# 1 0.007158 -0.001658 -0.004218 0.000264 0.002459 0.000693
# 2 -0.001658 0.010983 0.005993 -0.005688 0.007176 -0.005905
# 3 -0.004218 0.005993 0.035557 -0.022765 0.005218 -0.013475
# 4 0.000264 -0.005688 -0.022765 0.043418 -0.005294 0.009570
# 5 0.002459 0.007176 0.005218 -0.005294 0.034177 -0.006246
# 6 0.000693 -0.005905 -0.013475 0.009570 -0.006246 0.025832
#
#
# Mechanical properties :
#
#
# Convention : Reuss Voigt Hill
#
# Bulk Modulus (GPa) = 18.54195 53.55551 36.04873
# Shear Modulus (GPa) = 28.59276 44.33099 36.46187
#
# Velocity S-wave (km/s) = 3.30036 4.10949 3.72695
# Velocity P-wave (km/s) = 4.64615 6.55127 5.67917
#
# Compressibility (1/GPa) = 0.05393176
#
# Stress axis : x y z
#
# Youngs Moduli (GPa) = 139.69845 91.04983 28.12362
#
# Poissons Ratio (x) = 0.15097 0.11863
# Poissons Ratio (y) = 0.23163 -0.16854
# Poissons Ratio (z) = 0.58929 -0.54566
#
# Static dielectric constant tensor:
#      x y z
#    x 4.975060 0.015360 -0.371220 
#    y 0.015360 5.948500 0.288630 
#    z -0.371220 0.288630 5.379060 
# 
# 
# High freq. dielectric constant tensor:
#      x y z
#    x 2.043140 0.003560 0.001680 
#    y 0.003560 2.095380 -0.009380 
#    z 0.001680 -0.009380 2.074920 
# 
# From -- ./inp_files/148254.got.cif
#   From: 2010.06.25/outbox.cif.g09.slc.cpg/sg2_75_cif.got.tgz:148254.got - 2010.06.27 13:26:56.
