data_PCOD8019537
_publ_section_title
;
Structure prediction by ZEFSAII (Michael W. Deem and Ramdas Pophale) SiO2 
 PCOD8019537
Probable space group: P -1
;
_chemical_formula_sum "Si O2"
_cell_formula_units_Z 10
_cell_length_a 8.172353
_cell_length_b 24.351248
_cell_length_c 19.307444
_cell_angle_alpha 13.003792
_cell_angle_beta 147.134793
_cell_angle_gamma 148.721658
_cell_volume 448.030908
_symmetry_space_group_name_H-M "P -1"
_symmetry_group_IT_number 2
_symmetry_cell_setting 'triclinic'
loop_
_space_group_symop_operation_xyz
x,y,z
-x,-y,-z
loop_
_atom_site_type_symbol
_atom_site_label
_atom_site_fract_x
_atom_site_fract_y
_atom_site_fract_z
Si Si1 0.171174 0.254227 0.791654
Si Si2 0.238927 0.142744 0.223916
Si Si3 0.775598 0.153510 0.169211
Si Si4 0.636482 0.626909 0.820975
Si Si5 0.845288 0.192835 0.897950
O O1 0.152689 0.523988 0.422204
O O2 0.033947 0.219267 0.862085
O O3 0.545515 0.291156 0.882507
O O4 0.000000 0.000000 0.000000
O O5 0.009318 0.091047 0.272240
O O6 0.500000 0.000000 0.500000
O O7 0.457778 0.435890 0.932440
O O8 0.022231 0.067231 0.171666
O O9 0.984478 0.324688 0.095125
O O10 0.567266 0.892118 0.452498
O O11 0.500000 0.500000 0.000000
O O12 0.500000 0.000000 0.000000
#
# Coordination Sequence:
#
# PCOD8019537 Si02
#       5
#     2   2   2   2   2
#     4  11  25  46  72  97 138 184 235 283 344 409
#     4  11  25  41  65 102 140 174 222 282 342 404
#     4  10  22  41  68  95 130 182 225 276 339 404
#     4   9  21  39  63  97 130 172 222 272 339 399
#     4  11  27  45  69 104 138 180 234 286 342 410
#
# _framework density 22.319887999999999
#
# number of rings (size 3 to 8) (size 9 to 14) (size 15 to 20)
#    0.000    1.600    0.000    2.400   11.200    7.200 
#    0.000    0.000    0.000    0.000    0.000    0.000 
#    0.000    0.000    0.000    0.000    0.000    0.000 
#
# Total GULP energy -123901.140690 kJ/mol
# GULP energy per Si atom -12390.114069 kJ/mol
# Density = 2.226909 g / cm^3
# Si number density = 22.319888 Si / 1000 Ang^3
#
#
#
# Elastic Constant Matrix: (Units=GPa)
#
#
# Indices 1 2 3 4 5 6 
#
# 1 81.1814 25.4003 38.5023 7.2496 3.8997 10.5378
# 2 25.4003 168.6586 61.0022 5.5852 7.6206 -2.5358
# 3 38.5023 61.0022 122.5201 3.1386 0.8149 6.5906
# 4 7.2496 5.5852 3.1386 54.8525 4.2385 2.0146
# 5 3.8997 7.6206 0.8149 4.2385 33.5505 4.3027
# 6 10.5378 -2.5358 6.5906 2.0146 4.3027 34.6941
#
#
#
# Elastic Compliance Matrix: (Units=1/GPa)
#
#
# Indices 1 2 3 4 5 6 
#
# 1 0.015174 -0.000752 -0.004152 -0.001492 -0.000831 -0.003685
# 2 -0.000752 0.007435 -0.003534 -0.000387 -0.001681 0.001674
# 3 -0.004152 -0.003534 0.011283 0.000222 0.001150 -0.001296
# 4 -0.001492 -0.000387 0.000222 0.018629 -0.002040 -0.000446
# 5 -0.000831 -0.001681 0.001150 -0.002040 0.031003 -0.003815
# 6 -0.003685 0.001674 -0.001296 -0.000446 -0.003815 0.030810
#
#
# Mechanical properties :
#
#
# Convention : Reuss Voigt Hill
#
# Bulk Modulus (GPa) = 58.77224 69.12996 63.95110
# Shear Modulus (GPa) = 36.52766 41.11644 38.82205
#
# Velocity S-wave (km/s) = 4.04982 4.29668 4.17507
# Velocity P-wave (km/s) = 6.94673 7.46022 7.20805
#
# Compressibility (1/GPa) = 0.01701484
#
# Stress axis : x y z
#
# Youngs Moduli (GPa) = 65.90155 134.50494 88.62989
#
# Poissons Ratio (x) = 0.10114 0.36800
# Poissons Ratio (y) = 0.04955 0.31325
# Poissons Ratio (z) = 0.27363 0.47539
#
# Static dielectric constant tensor:
#      x y z
#    x 3.701300 -0.357300 0.241640 
#    y -0.357300 4.168580 0.055300 
#    z 0.241640 0.055300 4.071420 
# 
# 
# High freq. dielectric constant tensor:
#      x y z
#    x 1.862370 0.003920 -0.012460 
#    y 0.003920 1.905380 -0.001750 
#    z -0.012460 -0.001750 1.880900 
# 
# From -- ./inp_files/18191.got.cif
#   From: 2010.06.25/outbox.cif.g09.slc.cpg/sg2_10_cif.got.tgz:18191.got - 2010.06.27 13:26:56.
