data_PCOD8019826
_publ_section_title
;
Structure prediction by ZEFSAII (Michael W. Deem and Ramdas Pophale) SiO2 
 PCOD8019826
Probable space group: P -1
;
_chemical_formula_sum "Si O2"
_cell_formula_units_Z 14
_cell_length_a 14.951442
_cell_length_b 9.288240
_cell_length_c 5.220838
_cell_angle_alpha 79.801901
_cell_angle_beta 87.524108
_cell_angle_gamma 85.353037
_cell_volume 710.923411
_symmetry_space_group_name_H-M "P -1"
_symmetry_group_IT_number 2
_symmetry_cell_setting 'triclinic'
loop_
_space_group_symop_operation_xyz
x,y,z
-x,-y,-z
loop_
_atom_site_type_symbol
_atom_site_label
_atom_site_fract_x
_atom_site_fract_y
_atom_site_fract_z
Si Si1 0.752673 0.609741 0.143330
Si Si2 0.005122 0.743151 0.396051
Si Si3 0.164286 0.914130 0.446921
Si Si4 0.694341 0.358230 0.519873
Si Si5 0.395901 0.544617 0.986039
Si Si6 0.080782 0.473755 0.189170
Si Si7 0.842920 0.895970 0.116592
O O1 0.751574 0.502638 0.427357
O O2 0.657616 0.602974 0.006857
O O3 0.771162 0.772361 0.173802
O O4 0.826632 0.535933 0.966319
O O5 0.065054 0.855514 0.498584
O O6 0.076631 0.615278 0.328181
O O7 0.931428 0.677214 0.610536
O O8 0.945124 0.823993 0.154372
O O9 0.240930 0.787543 0.425789
O O10 0.182872 0.991395 0.688068
O O11 0.165254 0.027746 0.179559
O O12 0.627534 0.347076 0.286781
O O13 0.635353 0.372183 0.778047
O O14 0.500000 0.500000 0.000000
O O15 0.000000 0.500000 0.000000
#
# Coordination Sequence:
#
# PCOD8019826 Si02
#       7
#     2   2   2   2   2   2   2
#     4  10  24  39  68  92 129 164 220 257 327 367
#     4  11  25  37  59  88 129 176 230 261 310 360
#     4  12  26  42  61  90 133 177 214 256 317 375
#     4  10  23  42  70  93 127 160 214 255 320 384
#     4  10  22  41  75 103 121 152 213 275 317 375
#     4  11  21  37  62  90 125 166 221 272 305 359
#     4  12  26  40  60  91 132 175 213 267 312 369
#
# _framework density 19.692696000000002
#
# number of rings (size 3 to 8) (size 9 to 14) (size 15 to 20)
#    0.857    0.286    1.429    4.714   10.000    0.000 
#    0.000    0.000    0.000    5.143    0.000    0.000 
#    0.000    0.000    0.000    0.000    0.000    0.000 
#
# Total GULP energy -173555.028132 kJ/mol
# GULP energy per Si atom -12396.787724 kJ/mol
# Density = 1.964787 g / cm^3
# Si number density = 19.692696 Si / 1000 Ang^3
#
#
#
# Elastic Constant Matrix: (Units=GPa)
#
#
# Indices 1 2 3 4 5 6 
#
# 1 120.2648 42.4629 13.1544 3.7315 -6.8975 -3.5587
# 2 42.4629 96.6963 28.4097 0.0821 -12.0178 2.5954
# 3 13.1544 28.4097 81.5360 9.2971 1.1421 -3.2662
# 4 3.7315 0.0821 9.2971 33.3905 -6.7789 6.9687
# 5 -6.8975 -12.0178 1.1421 -6.7789 23.8666 1.9405
# 6 -3.5587 2.5954 -3.2662 6.9687 1.9405 24.6028
#
#
#
# Elastic Compliance Matrix: (Units=1/GPa)
#
#
# Indices 1 2 3 4 5 6 
#
# 1 0.010013 -0.004552 0.000266 -0.001715 -0.000098 0.002457
# 2 -0.004552 0.015071 -0.005363 0.004671 0.008258 -0.004935
# 3 0.000266 -0.005363 0.015086 -0.006354 -0.005544 0.004844
# 4 -0.001715 0.004671 -0.006354 0.037494 0.013892 -0.013300
# 5 -0.000098 0.008258 -0.005544 0.013892 0.051019 -0.009580
# 6 0.002457 -0.004935 0.004844 -0.013300 -0.009580 0.046688
#
#
# Mechanical properties :
#
#
# Convention : Reuss Voigt Hill
#
# Bulk Modulus (GPa) = 47.90900 51.83901 49.87401
# Shear Modulus (GPa) = 24.79824 30.67000 27.73412
#
# Velocity S-wave (km/s) = 3.55246 3.95071 3.75686
# Velocity P-wave (km/s) = 6.41932 6.86964 6.64830
#
# Compressibility (1/GPa) = 0.02087290
#
# Stress axis : x y z
#
# Youngs Moduli (GPa) = 99.86595 66.35241 66.28509
#
# Poissons Ratio (x) = 0.30204 -0.01762
# Poissons Ratio (y) = 0.45459 0.35547
# Poissons Ratio (z) = -0.02655 0.35584
#
# Static dielectric constant tensor:
#      x y z
#    x 3.388230 0.085960 0.151380 
#    y 0.085960 3.738570 -0.068810 
#    z 0.151380 -0.068810 3.704180 
# 
# 
# High freq. dielectric constant tensor:
#      x y z
#    x 1.748180 0.004720 0.012810 
#    y 0.004720 1.762450 0.004730 
#    z 0.012810 0.004730 1.781720 
# 
# From -- ./inp_files/39498.got.cif
#   From: 2010.06.25/outbox.cif.g09.slc.cpg/sg2_20_cif.got.tgz:39498.got - 2010.06.27 13:26:56.
