data_PCOD8019941
_publ_section_title
;
Structure prediction by ZEFSAII (Michael W. Deem and Ramdas Pophale) SiO2 
 PCOD8019941
Probable space group: P -1
;
_chemical_formula_sum "Si O2"
_cell_formula_units_Z 14
_cell_length_a 11.147994
_cell_length_b 11.446090
_cell_length_c 12.633433
_cell_angle_alpha 124.319267
_cell_angle_beta 128.798521
_cell_angle_gamma 25.019143
_cell_volume 531.297358
_symmetry_space_group_name_H-M "P -1"
_symmetry_group_IT_number 2
_symmetry_cell_setting 'triclinic'
loop_
_space_group_symop_operation_xyz
x,y,z
-x,-y,-z
loop_
_atom_site_type_symbol
_atom_site_label
_atom_site_fract_x
_atom_site_fract_y
_atom_site_fract_z
Si Si1 0.890999 0.332826 0.785128
Si Si2 0.500195 0.843828 0.963587
Si Si3 0.464416 0.657476 0.140048
Si Si4 0.131237 0.191209 0.251069
Si Si5 0.780424 0.911714 0.517580
Si Si6 0.538264 0.563594 0.367483
Si Si7 0.882465 0.636466 0.247429
O O1 0.761047 0.552917 0.902457
O O2 0.634541 0.422546 0.655146
O O3 0.002849 0.319415 0.732794
O O4 0.170862 0.038754 0.854552
O O5 0.603716 0.770827 0.106543
O O6 0.500000 0.000000 0.000000
O O7 0.392098 0.658089 0.217917
O O8 0.779147 0.487578 0.232132
O O9 0.213457 0.974845 0.131646
O O10 0.500000 0.500000 0.000000
O O11 0.286580 0.085178 0.397368
O O12 0.166970 0.303757 0.254362
O O13 0.741397 0.806624 0.366572
O O14 0.103270 0.733954 0.589115
O O15 0.536105 0.224984 0.515028
#
# Coordination Sequence:
#
# PCOD8019941 Si02
#       7
#     2   2   2   2   2   2   2
#     4  11  24  43  66  95 135 169 219 278 321 387
#     4  10  23  42  61  93 133 169 217 266 328 383
#     4  10  22  42  63  92 128 174 215 265 327 388
#     4  10  23  41  64  98 130 165 221 268 324 384
#     4  10  23  43  67  94 134 173 220 268 319 391
#     4  10  23  43  65  93 131 174 218 273 321 378
#     4  11  24  42  68  99 133 175 218 266 334 390
#
# _framework density 26.350591999999999
#
# number of rings (size 3 to 8) (size 9 to 14) (size 15 to 20)
#    0.000    1.714    0.000    3.429    2.000    9.143 
#    0.000    4.286    0.000    0.000    0.000    0.000 
#    0.000    0.000    0.000    0.000    0.000    0.000 
#
# Total GULP energy -173546.232415 kJ/mol
# GULP energy per Si atom -12396.159458 kJ/mol
# Density = 2.629062 g / cm^3
# Si number density = 26.350592 Si / 1000 Ang^3
#
#
#
# Elastic Constant Matrix: (Units=GPa)
#
#
# Indices 1 2 3 4 5 6 
#
# 1 56.5658 23.9665 15.8226 -6.3423 -6.3549 13.7955
# 2 23.9665 109.8958 29.9467 26.0135 -13.8409 6.6101
# 3 15.8226 29.9467 137.7457 31.0478 -7.8421 18.1138
# 4 -6.3423 26.0135 31.0478 39.2352 -6.2532 8.5636
# 5 -6.3549 -13.8409 -7.8421 -6.2532 24.8571 1.9331
# 6 13.7955 6.6101 18.1138 8.5636 1.9331 35.2317
#
#
#
# Elastic Compliance Matrix: (Units=1/GPa)
#
#
# Indices 1 2 3 4 5 6 
#
# 1 0.026748 -0.007017 -0.003013 0.014952 0.006645 -0.011607
# 2 -0.007017 0.013198 0.000019 -0.009999 0.002848 0.002536
# 3 -0.003013 0.000019 0.009596 -0.007589 0.000510 -0.001941
# 4 0.014952 -0.009999 -0.007589 0.044252 0.007869 -0.011265
# 5 0.006645 0.002848 0.000510 0.007869 0.046266 -0.007850
# 6 -0.011607 0.002536 -0.001941 -0.011265 -0.007850 0.036620
#
#
# Mechanical properties :
#
#
# Convention : Reuss Voigt Hill
#
# Bulk Modulus (GPa) = 33.87297 49.29763 41.58530
# Shear Modulus (GPa) = 24.20840 35.49624 29.85232
#
# Velocity S-wave (km/s) = 3.03430 3.67423 3.36949
# Velocity P-wave (km/s) = 5.01584 6.06209 5.56361
#
# Compressibility (1/GPa) = 0.02952207
#
# Stress axis : x y z
#
# Youngs Moduli (GPa) = 37.38606 75.77131 104.20564
#
# Poissons Ratio (x) = 0.53166 0.31393
# Poissons Ratio (y) = 0.26232 -0.00201
# Poissons Ratio (z) = 0.11263 -0.00146
#
# Static dielectric constant tensor:
#      x y z
#    x 4.544180 -0.015930 -0.280270 
#    y -0.015930 5.398830 -0.381890 
#    z -0.280270 -0.381890 4.554520 
# 
# 
# High freq. dielectric constant tensor:
#      x y z
#    x 2.053310 -0.006240 0.002760 
#    y -0.006240 2.074290 0.005610 
#    z 0.002760 0.005610 2.047840 
# 
# From -- ./inp_files/100851.got.cif
#   From: 2010.06.25/outbox.cif.g09.slc.cpg/sg2_51_cif.got.tgz:100851.got - 2010.06.27 13:26:56.
