data_PCOD8019095
_publ_section_title
;
Structure prediction by ZEFSAII (Michael W. Deem and Ramdas Pophale) SiO2 
 PCOD8019095
Probable space group: P -1
;
_chemical_formula_sum "Si O2"
_cell_formula_units_Z 16
_cell_length_a 9.550885
_cell_length_b 9.448283
_cell_length_c 14.932609
_cell_angle_alpha 84.221073
_cell_angle_beta 70.993817
_cell_angle_gamma 135.852670
_cell_volume 764.480452
_symmetry_space_group_name_H-M "P -1"
_symmetry_group_IT_number 2
_symmetry_cell_setting 'triclinic'
loop_
_space_group_symop_operation_xyz
x,y,z
-x,-y,-z
loop_
_atom_site_type_symbol
_atom_site_label
_atom_site_fract_x
_atom_site_fract_y
_atom_site_fract_z
Si Si1 0.190203 0.579338 0.706811
Si Si2 0.813746 0.106104 0.366658
Si Si3 0.205409 0.130353 0.023713
Si Si4 0.307680 0.926528 0.109060
Si Si5 0.698479 0.625910 0.840830
Si Si6 0.046189 0.870962 0.477161
Si Si7 0.400730 0.578413 0.493577
Si Si8 0.444723 0.196951 0.229379
O O1 0.259168 0.793965 0.656128
O O2 0.283926 0.551404 0.609689
O O3 0.317291 0.633423 0.769521
O O4 0.898517 0.341602 0.796900
O O5 0.803522 0.089346 0.477622
O O6 0.084919 0.273188 0.268864
O O7 0.612067 0.839419 0.390092
O O8 0.188257 0.240702 0.095534
O O9 0.163610 0.944642 0.088711
O O10 0.483591 0.344186 0.913549
O O11 0.000000 0.000000 0.000000
O O12 0.464480 0.102155 0.149537
O O13 0.500000 0.000000 0.000000
O O14 0.568212 0.654564 0.814950
O O15 0.797542 0.591892 0.532779
O O16 0.197655 0.973032 0.348484
O O17 0.000000 0.000000 0.500000
O O18 0.500000 0.500000 0.500000
#
# Coordination Sequence:
#
# PCOD8019095 Si02
#       8
#     2   2   2   2   2   2   2   2
#     4  12  26  43  67 101 140 173 225 280 333 398
#     4  12  26  41  66 103 139 174 223 271 340 396
#     4  10  22  41  68  94 127 168 232 279 330 385
#     4  11  25  44  68  95 134 179 226 274 342 399
#     4  10  22  41  64  97 130 172 221 281 327 397
#     4  12  22  42  68  97 136 180 219 272 333 397
#     4  12  24  41  68  96 133 180 225 265 327 409
#     4  11  22  42  68  93 135 180 223 273 336 397
#
# _framework density 20.929247
#
# number of rings (size 3 to 8) (size 9 to 14) (size 15 to 20)
#    0.000    0.750    5.000    1.875    1.750    4.000 
#    0.000    0.000    0.000    0.000    0.000    0.000 
#    0.000    0.000    0.000    0.000    0.000    0.000 
#
# Total GULP energy -198475.197048 kJ/mol
# GULP energy per Si atom -12404.699815 kJ/mol
# Density = 2.088161 g / cm^3
# Si number density = 20.929247 Si / 1000 Ang^3
#
#
#
# Elastic Constant Matrix: (Units=GPa)
#
#
# Indices 1 2 3 4 5 6 
#
# 1 80.3187 50.7821 21.5999 9.2500 6.2383 -0.2856
# 2 50.7821 126.0751 36.0815 -2.8206 2.2452 2.3941
# 3 21.5999 36.0815 101.5210 0.8694 -11.0044 -11.2360
# 4 9.2500 -2.8206 0.8694 42.9980 -1.5550 5.5231
# 5 6.2383 2.2452 -11.0044 -1.5550 40.1386 5.6446
# 6 -0.2856 2.3941 -11.2360 5.5231 5.6446 36.3340
#
#
#
# Elastic Compliance Matrix: (Units=1/GPa)
#
#
# Indices 1 2 3 4 5 6 
#
# 1 0.017993 -0.006875 -0.001548 -0.004574 -0.003197 0.001308
# 2 -0.006875 0.011637 -0.002928 0.002574 0.000013 -0.002120
# 3 -0.001548 -0.002928 0.011950 -0.000429 0.003179 0.003448
# 4 -0.004574 0.002574 -0.000429 0.025066 0.002049 -0.004467
# 5 -0.003197 0.000013 0.003179 0.002049 0.026857 -0.003527
# 6 0.001308 -0.002120 0.003448 -0.004467 -0.003527 0.029965
#
#
# Mechanical properties :
#
#
# Convention : Reuss Voigt Hill
#
# Bulk Modulus (GPa) = 52.97084 58.31574 55.64329
# Shear Modulus (GPa) = 32.79507 37.19087 34.99297
#
# Velocity S-wave (km/s) = 3.96277 4.22000 4.09340
# Velocity P-wave (km/s) = 6.80459 7.18807 6.99895
#
# Compressibility (1/GPa) = 0.01887831
#
# Stress axis : x y z
#
# Youngs Moduli (GPa) = 55.57725 85.93596 83.68191
#
# Poissons Ratio (x) = 0.59079 0.12950
# Poissons Ratio (y) = 0.38208 0.24505
# Poissons Ratio (z) = 0.08601 0.25165
#
# Static dielectric constant tensor:
#      x y z
#    x 3.662120 0.004320 0.114070 
#    y 0.004320 4.025020 -0.150290 
#    z 0.114070 -0.150290 3.948990 
# 
# 
# High freq. dielectric constant tensor:
#      x y z
#    x 1.813260 0.003380 0.002880 
#    y 0.003380 1.829500 -0.006480 
#    z 0.002880 -0.006480 1.830370 
# 
# From -- ./inp_files/273406.got.cif
#   From: 2010.06.25/outbox.cif.g09.slc.cpg/sg2_137_cif.got.tgz:273406.got - 2010.06.27 13:26:56.
