data_PCOD8019651
_publ_section_title
;
Structure prediction by ZEFSAII (Michael W. Deem and Ramdas Pophale) SiO2 
 PCOD8019651
Probable space group: P -1
;
_chemical_formula_sum "Si O2"
_cell_formula_units_Z 14
_cell_length_a 15.015656
_cell_length_b 5.172798
_cell_length_c 8.779494
_cell_angle_alpha 86.017696
_cell_angle_beta 119.771067
_cell_angle_gamma 104.481507
_cell_volume 571.903254
_symmetry_space_group_name_H-M "P -1"
_symmetry_group_IT_number 2
_symmetry_cell_setting 'triclinic'
loop_
_space_group_symop_operation_xyz
x,y,z
-x,-y,-z
loop_
_atom_site_type_symbol
_atom_site_label
_atom_site_fract_x
_atom_site_fract_y
_atom_site_fract_z
Si Si1 0.826498 0.359415 0.277905
Si Si2 0.065340 0.281424 0.098087
Si Si3 0.617280 0.978892 0.165041
Si Si4 0.971060 0.751675 0.601176
Si Si5 0.368761 0.502769 0.997162
Si Si6 0.303086 0.400410 0.275771
Si Si7 0.390521 0.938987 0.494944
O O1 0.917126 0.306284 0.245188
O O2 0.757751 0.546295 0.137399
O O3 0.891979 0.493509 0.473642
O O4 0.745783 0.080015 0.270183
O O5 0.182406 0.371476 0.120144
O O6 0.086877 0.214247 0.294588
O O7 0.000000 0.500000 0.000000
O O8 0.000000 0.000000 0.000000
O O9 0.585978 0.688613 0.069865
O O10 0.581910 0.997402 0.307582
O O11 0.429299 0.811998 0.989804
O O12 0.000000 0.000000 0.500000
O O13 0.380831 0.461716 0.189788
O O14 0.315946 0.123335 0.366330
O O15 0.333427 0.630414 0.421237
O O16 0.500000 0.000000 0.500000
#
# Coordination Sequence:
#
# PCOD8019651 Si02
#       7
#     2   2   2   2   2   2   2
#     4   9  22  36  67  86 137 165 240 266 339 382
#     4  12  29  43  66 105 150 183 230 279 343 414
#     4  10  22  41  70  94 130 176 220 284 339 408
#     4  11  23  37  62  94 127 185 232 274 322 413
#     4  10  22  41  69  97 129 182 220 278 341 418
#     4  12  26  47  73 102 147 187 226 291 367 398
#     4  12  27  49  74 105 137 180 238 297 354 423
#
# _framework density 24.479665000000001
#
# number of rings (size 3 to 8) (size 9 to 14) (size 15 to 20)
#    0.857    0.286    0.000    5.571   12.000    0.000 
#    0.000    4.286    0.000    0.000    0.000    0.000 
#    0.000    0.000    0.000    0.000    0.000    0.000 
#
# Total GULP energy -173506.283793 kJ/mol
# GULP energy per Si atom -12393.305985 kJ/mol
# Density = 2.442395 g / cm^3
# Si number density = 24.479665 Si / 1000 Ang^3
#
#
#
# Elastic Constant Matrix: (Units=GPa)
#
#
# Indices 1 2 3 4 5 6 
#
# 1 90.1318 33.1517 38.0593 7.6742 -12.5305 -12.1699
# 2 33.1517 145.2306 38.2728 20.0722 -11.4282 -14.8204
# 3 38.0593 38.2728 90.3712 -2.7181 -22.8937 -6.6223
# 4 7.6742 20.0722 -2.7181 43.8772 2.2047 -0.2539
# 5 -12.5305 -11.4282 -22.8937 2.2047 61.7272 -5.7907
# 6 -12.1699 -14.8204 -6.6223 -0.2539 -5.7907 42.3282
#
#
#
# Elastic Compliance Matrix: (Units=1/GPa)
#
#
# Indices 1 2 3 4 5 6 
#
# 1 0.014491 -0.001226 -0.005127 -0.002333 0.001185 0.003083
# 2 -0.001226 0.008797 -0.003001 -0.004014 0.000628 0.002320
# 3 -0.005127 -0.003001 0.015678 0.003035 0.004158 0.000515
# 4 -0.002333 -0.004014 0.003035 0.025271 -0.001144 -0.001606
# 5 0.001185 0.000628 0.004158 -0.001144 0.018491 0.003734
# 6 0.003083 0.002320 0.000515 -0.001606 0.003734 0.025905
#
#
# Mechanical properties :
#
#
# Convention : Reuss Voigt Hill
#
# Bulk Modulus (GPa) = 49.36540 60.52236 54.94388
# Shear Modulus (GPa) = 37.28708 44.00318 40.64513
#
# Velocity S-wave (km/s) = 3.90704 4.24434 4.07918
# Velocity P-wave (km/s) = 6.36890 6.98544 6.68428
#
# Compressibility (1/GPa) = 0.02025710
#
# Stress axis : x y z
#
# Youngs Moduli (GPa) = 69.00997 113.67151 63.78304
#
# Poissons Ratio (x) = 0.13939 0.32703
# Poissons Ratio (y) = 0.08463 0.19141
# Poissons Ratio (z) = 0.35383 0.34112
#
# Static dielectric constant tensor:
#      x y z
#    x 4.346730 -0.115910 0.204240 
#    y -0.115910 4.343710 0.178220 
#    z 0.204240 0.178220 4.419290 
# 
# 
# High freq. dielectric constant tensor:
#      x y z
#    x 1.998060 0.002860 0.011240 
#    y 0.002860 1.974370 0.009890 
#    z 0.011240 0.009890 1.977200 
# 
# From -- ./inp_files/52941.got.cif
#   From: 2010.06.25/outbox.cif.g09.slc.cpg/sg2_27_cif.got.tgz:52941.got - 2010.06.27 13:26:56.
