data_PCOD8019418
_publ_section_title
;
Structure prediction by ZEFSAII (Michael W. Deem and Ramdas Pophale) SiO2 
 PCOD8019418
Probable space group: P -1
;
_chemical_formula_sum "Si O2"
_cell_formula_units_Z 16
_cell_length_a 12.132212
_cell_length_b 8.444723
_cell_length_c 11.843163
_cell_angle_alpha 131.900624
_cell_angle_beta 60.258833
_cell_angle_gamma 121.293479
_cell_volume 750.197124
_symmetry_space_group_name_H-M "P -1"
_symmetry_group_IT_number 2
_symmetry_cell_setting 'triclinic'
loop_
_space_group_symop_operation_xyz
x,y,z
-x,-y,-z
loop_
_atom_site_type_symbol
_atom_site_label
_atom_site_fract_x
_atom_site_fract_y
_atom_site_fract_z
Si Si1 0.856617 0.637299 0.617740
Si Si2 0.259544 0.985110 0.246874
Si Si3 0.521840 0.754033 0.590438
Si Si4 0.140729 0.525847 0.001328
Si Si5 0.977102 0.748195 0.854135
Si Si6 0.742538 0.208647 0.348942
Si Si7 0.729951 0.816235 0.317152
Si Si8 0.922587 0.118312 0.516206
O O1 0.795416 0.820722 0.681758
O O2 0.891819 0.695681 0.757063
O O3 0.759017 0.387092 0.530058
O O4 0.989181 0.654525 0.480914
O O5 0.410464 0.101227 0.265454
O O6 0.230990 0.784319 0.076634
O O7 0.192822 0.852415 0.331341
O O8 0.500000 0.500000 0.500000
O O9 0.379359 0.790952 0.667983
O O10 0.609836 0.805790 0.457426
O O11 0.106878 0.422136 0.092962
O O12 0.244577 0.416503 0.836668
O O13 0.000000 0.500000 0.000000
O O14 0.123226 0.717165 0.756202
O O15 0.000000 0.000000 0.000000
O O16 0.707720 0.954408 0.286087
O O17 0.870683 0.953544 0.361036
O O18 0.000000 0.000000 0.500000
#
# Coordination Sequence:
#
# PCOD8019418 Si02
#       8
#     2   2   2   2   2   2   2   2
#     4  11  21  39  65  99 132 168 221 279 333 391
#     4  10  22  41  67  95 132 176 223 272 325 394
#     4  11  25  47  69  96 126 179 241 268 315 387
#     4  12  25  43  68 101 139 175 212 274 348 399
#     4  12  24  41  66 104 141 168 212 273 353 404
#     4  12  24  42  69  97 134 174 218 279 327 390
#     4  11  24  43  63  95 134 173 220 272 330 393
#     4   9  17  34  61  94 126 164 214 271 324 380
#
# _framework density 21.327725999999998
#
# number of rings (size 3 to 8) (size 9 to 14) (size 15 to 20)
#    0.000    1.000    3.750    3.750    5.250    0.000 
#    0.000    2.500    0.000    0.000    0.000    0.000 
#    0.000    0.000    0.000    0.000    0.000    0.000 
#
# Total GULP energy -198241.227542 kJ/mol
# GULP energy per Si atom -12390.076721 kJ/mol
# Density = 2.127918 g / cm^3
# Si number density = 21.327726 Si / 1000 Ang^3
#
#
#
# Elastic Constant Matrix: (Units=GPa)
#
#
# Indices 1 2 3 4 5 6 
#
# 1 144.3845 19.9494 47.5216 16.3080 13.1700 9.8847
# 2 19.9494 66.0741 19.3742 21.1153 5.1172 2.6876
# 3 47.5216 19.3742 79.2310 28.5327 -1.2354 3.6415
# 4 16.3080 21.1153 28.5327 48.4811 0.7711 7.2575
# 5 13.1700 5.1172 -1.2354 0.7711 29.9132 2.4616
# 6 9.8847 2.6876 3.6415 7.2575 2.4616 32.0194
#
#
#
# Elastic Compliance Matrix: (Units=1/GPa)
#
#
# Indices 1 2 3 4 5 6 
#
# 1 0.009335 -0.001095 -0.005678 0.001053 -0.004014 -0.002074
# 2 -0.001095 0.018226 -0.001425 -0.006796 -0.002578 0.000709
# 3 -0.005678 -0.001425 0.019737 -0.009363 0.003679 0.001467
# 4 0.001053 -0.006796 -0.009363 0.029550 -0.000006 -0.005387
# 5 -0.004014 -0.002578 0.003679 -0.000006 0.035932 -0.001724
# 6 -0.002074 0.000709 0.001467 -0.005387 -0.001724 0.032999
#
#
# Mechanical properties :
#
#
# Convention : Reuss Voigt Hill
#
# Bulk Modulus (GPa) = 32.36037 51.48667 41.92352
# Shear Modulus (GPa) = 28.98974 35.60569 32.29771
#
# Velocity S-wave (km/s) = 3.69080 4.09033 3.89569
# Velocity P-wave (km/s) = 5.77655 6.81915 6.31939
#
# Compressibility (1/GPa) = 0.03090200
#
# Stress axis : x y z
#
# Youngs Moduli (GPa) = 107.12192 54.86785 50.66586
#
# Poissons Ratio (x) = 0.06007 0.28766
# Poissons Ratio (y) = 0.11728 0.07222
# Poissons Ratio (z) = 0.60820 0.07821
#
# Static dielectric constant tensor:
#      x y z
#    x 0.744410 -4.377940 2.446080 
#    y -4.377940 -1.873300 3.185640 
#    z 2.446080 3.185640 2.312610 
# 
# 
# High freq. dielectric constant tensor:
#      x y z
#    x 1.835930 -0.010580 0.010880 
#    y -0.010580 1.847500 0.015520 
#    z 0.010880 0.015520 1.824580 
# 
# From -- ./inp_files/405160.got.cif
#   From: 2010.06.25/outbox.cif.g09.slc.cpg/sg2_203_cif.got.tgz:405160.got - 2010.06.27 13:26:56.
