data_PCOD8019994
_publ_section_title
;
Structure prediction by ZEFSAII (Michael W. Deem and Ramdas Pophale) SiO2 
 PCOD8019994
Probable space group: P -1
;
_chemical_formula_sum "Si O2"
_cell_formula_units_Z 16
_cell_length_a 9.048827
_cell_length_b 11.428993
_cell_length_c 9.768019
_cell_angle_alpha 51.339908
_cell_angle_beta 89.618196
_cell_angle_gamma 88.962728
_cell_volume 788.686202
_symmetry_space_group_name_H-M "P -1"
_symmetry_group_IT_number 2
_symmetry_cell_setting 'triclinic'
loop_
_space_group_symop_operation_xyz
x,y,z
-x,-y,-z
loop_
_atom_site_type_symbol
_atom_site_label
_atom_site_fract_x
_atom_site_fract_y
_atom_site_fract_z
Si Si1 0.650168 0.589223 0.163850
Si Si2 0.169795 0.536010 0.501277
Si Si3 0.987568 0.923567 0.703927
Si Si4 0.320320 0.510325 0.249111
Si Si5 0.449923 0.072794 0.086059
Si Si6 0.854072 0.605150 0.906210
Si Si7 0.242408 0.849475 0.943698
Si Si8 0.188035 0.885830 0.227083
O O1 0.776066 0.540187 0.305222
O O2 0.498140 0.496185 0.241948
O O3 0.622926 0.764816 0.058264
O O4 0.725082 0.551698 0.046470
O O5 0.277453 0.467154 0.435089
O O6 0.190463 0.712195 0.386494
O O7 0.000000 0.500000 0.500000
O O8 0.884974 0.779471 0.803800
O O9 0.146202 0.868617 0.795279
O O10 0.943146 0.039028 0.740243
O O11 0.000000 0.000000 0.500000
O O12 0.223804 0.401429 0.235864
O O13 0.261067 0.675521 0.099443
O O14 0.602311 0.085448 0.159105
O O15 0.334838 0.960252 0.237486
O O16 0.500000 0.000000 0.000000
O O17 0.000000 0.500000 0.000000
O O18 0.179762 0.920231 0.037125
#
# Coordination Sequence:
#
# PCOD8019994 Si02
#       8
#     2   2   2   2   2   2   2   2
#     4  11  23  42  69  95 125 173 220 263 319 381
#     4  11  25  40  67 101 132 163 214 273 319 372
#     4  12  26  41  60  96 131 167 213 267 324 373
#     4  10  22  42  65  95 128 169 217 260 320 383
#     4   9  19  40  68  93 122 163 211 263 317 384
#     4  12  24  43  67  89 133 177 217 259 321 396
#     4   9  20  41  68  89 122 167 211 264 318 380
#     4  10  22  42  64  92 126 164 214 261 318 384
#
# _framework density 20.286904
#
# number of rings (size 3 to 8) (size 9 to 14) (size 15 to 20)
#    0.000    1.500    2.500    2.625    5.250    2.000 
#    2.250    0.625    0.000    0.000    0.000    0.000 
#    0.000    0.000    0.000    0.000    0.000    0.000 
#
# Total GULP energy -198291.446217 kJ/mol
# GULP energy per Si atom -12393.215389 kJ/mol
# Density = 2.024073 g / cm^3
# Si number density = 20.286904 Si / 1000 Ang^3
#
#
#
# Elastic Constant Matrix: (Units=GPa)
#
#
# Indices 1 2 3 4 5 6 
#
# 1 110.7629 22.5666 29.2138 -4.7071 -0.6669 16.9214
# 2 22.5666 83.6172 16.6401 -2.5359 4.8889 9.0269
# 3 29.2138 16.6401 65.9122 8.6211 -2.3524 8.8925
# 4 -4.7071 -2.5359 8.6211 21.8986 7.8326 -3.9426
# 5 -0.6669 4.8889 -2.3524 7.8326 28.9740 4.0160
# 6 16.9214 9.0269 8.8925 -3.9426 4.0160 40.2035
#
#
#
# Elastic Compliance Matrix: (Units=1/GPa)
#
#
# Indices 1 2 3 4 5 6 
#
# 1 0.011187 -0.001644 -0.004647 0.003675 -0.000433 -0.002908
# 2 -0.001644 0.013425 -0.003101 0.003448 -0.003354 -0.000963
# 3 -0.004647 -0.003101 0.020288 -0.012078 0.005828 -0.003602
# 4 0.003675 0.003448 -0.012078 0.059774 -0.018757 0.008086
# 5 -0.000433 -0.003354 0.005828 -0.018757 0.041492 -0.006338
# 6 -0.002908 -0.000963 -0.003602 0.008086 -0.006338 0.028536
#
#
# Mechanical properties :
#
#
# Convention : Reuss Voigt Hill
#
# Bulk Modulus (GPa) = 38.29186 44.12591 41.20889
# Shear Modulus (GPa) = 24.72909 31.00667 27.86788
#
# Velocity S-wave (km/s) = 3.49516 3.91373 3.71035
# Velocity P-wave (km/s) = 5.93332 6.49778 6.22196
#
# Compressibility (1/GPa) = 0.02611521
#
# Stress axis : x y z
#
# Youngs Moduli (GPa) = 89.39254 74.48972 49.29009
#
# Poissons Ratio (x) = 0.12243 0.22905
# Poissons Ratio (y) = 0.14693 0.15287
# Poissons Ratio (z) = 0.41541 0.23103
#
# Static dielectric constant tensor:
#      x y z
#    x 5.187690 0.530470 -0.210800 
#    y 0.530470 4.012810 0.050720 
#    z -0.210800 0.050720 3.480220 
# 
# 
# High freq. dielectric constant tensor:
#      x y z
#    x 1.809950 0.004710 -0.008730 
#    y 0.004710 1.803210 0.001860 
#    z -0.008730 0.001860 1.768100 
# 
# From -- ./inp_files/184240.got.cif
#   From: 2010.06.25/outbox.cif.g09.slc.cpg/sg2_93_cif.got.tgz:184240.got - 2010.06.27 13:26:56.
