data_PCOD8019286
_publ_section_title
;
Structure prediction by ZEFSAII (Michael W. Deem and Ramdas Pophale) SiO2 
 PCOD8019286
Probable space group: P -1
;
_chemical_formula_sum "Si O2"
_cell_formula_units_Z 16
_cell_length_a 13.879059
_cell_length_b 16.757580
_cell_length_c 22.645268
_cell_angle_alpha 22.196853
_cell_angle_beta 31.314484
_cell_angle_gamma 21.947745
_cell_volume 743.320658
_symmetry_space_group_name_H-M "P -1"
_symmetry_group_IT_number 2
_symmetry_cell_setting 'triclinic'
loop_
_space_group_symop_operation_xyz
x,y,z
-x,-y,-z
loop_
_atom_site_type_symbol
_atom_site_label
_atom_site_fract_x
_atom_site_fract_y
_atom_site_fract_z
Si Si1 0.405151 0.251070 0.553235
Si Si2 0.757594 0.734605 0.809244
Si Si3 0.885287 0.106716 0.703326
Si Si4 0.638913 0.998663 0.483173
Si Si5 0.946802 0.365759 0.761175
Si Si6 0.702312 0.171137 0.974830
Si Si7 0.744151 0.912285 0.012988
Si Si8 0.797245 0.829738 0.856036
O O1 0.323501 0.542461 0.422183
O O2 0.179190 0.256873 0.672166
O O3 0.652593 0.980621 0.646604
O O4 0.454821 0.236496 0.467270
O O5 0.559587 0.696057 0.947516
O O6 0.784227 0.836326 0.787561
O O7 0.030753 0.430042 0.852419
O O8 0.172650 0.965364 0.663002
O O9 0.878563 0.004414 0.712011
O O10 0.824929 0.959517 0.878270
O O11 0.804572 0.682895 0.644625
O O12 0.500000 0.000000 0.500000
O O13 0.049517 0.148988 0.910470
O O14 0.742951 0.389141 0.813603
O O15 0.698656 0.131099 0.934901
O O16 0.479641 0.993597 0.089800
O O17 0.000000 0.500000 0.000000
#
# Coordination Sequence:
#
# PCOD8019286 Si02
#       8
#     2   2   2   2   2   2   2   2
#     4  10  24  43  61  89 131 169 209 253 314 371
#     4  10  22  41  66  94 125 165 206 263 312 368
#     4  11  26  41  64  94 126 166 209 256 312 373
#     4  11  26  39  62  89 131 166 211 252 307 370
#     4   9  20  39  58  90 124 167 210 258 304 370
#     4   9  20  36  63  90 125 160 213 260 308 360
#     4  11  23  38  68  94 123 161 210 258 315 367
#     4  11  24  43  68  97 126 154 210 265 311 371
#
# _framework density 21.525030000000001
#
# number of rings (size 3 to 8) (size 9 to 14) (size 15 to 20)
#    0.000    1.750    1.250    1.125    7.000    2.500 
#    0.000    5.000    0.000    0.000    0.000    0.000 
#    0.000    0.000    0.000    0.000    0.000    0.000 
#
# Total GULP energy -198428.348100 kJ/mol
# GULP energy per Si atom -12401.771756 kJ/mol
# Density = 2.147604 g / cm^3
# Si number density = 21.525030 Si / 1000 Ang^3
#
#
#
# Elastic Constant Matrix: (Units=GPa)
#
#
# Indices 1 2 3 4 5 6 
#
# 1 121.3056 38.2825 34.0338 4.0301 -18.0628 -6.4661
# 2 38.2825 106.6600 28.6964 -9.7352 -9.9807 -8.8309
# 3 34.0338 28.6964 67.4597 -8.2826 -13.7619 -0.7949
# 4 4.0301 -9.7352 -8.2826 25.9292 0.6237 0.3074
# 5 -18.0628 -9.9807 -13.7619 0.6237 35.6635 2.8777
# 6 -6.4661 -8.8309 -0.7949 0.3074 2.8777 35.2947
#
#
#
# Elastic Compliance Matrix: (Units=1/GPa)
#
#
# Indices 1 2 3 4 5 6 
#
# 1 0.010970 -0.002814 -0.004199 -0.004190 0.003141 0.000991
# 2 -0.002814 0.011777 -0.002994 0.003864 0.000463 0.002292
# 3 -0.004199 -0.002994 0.019871 0.005780 0.004724 -0.001506
# 4 -0.004190 0.003864 0.005780 0.042505 0.000453 -0.000078
# 5 0.003141 0.000463 0.004724 0.000453 0.031720 -0.001792
# 6 0.000991 0.002292 -0.001506 -0.000078 -0.001792 0.029201
#
#
# Mechanical properties :
#
#
# Convention : Reuss Voigt Hill
#
# Bulk Modulus (GPa) = 44.24121 55.27229 49.75675
# Shear Modulus (GPa) = 28.80299 32.33831 30.57065
#
# Velocity S-wave (km/s) = 3.66200 3.88023 3.77269
# Velocity P-wave (km/s) = 6.20309 6.76822 6.49181
#
# Compressibility (1/GPa) = 0.02260336
#
# Stress axis : x y z
#
# Youngs Moduli (GPa) = 91.16105 84.91173 50.32335
#
# Poissons Ratio (x) = 0.23893 0.21132
# Poissons Ratio (y) = 0.25651 0.15068
# Poissons Ratio (z) = 0.38280 0.25425
#
# Static dielectric constant tensor:
#      x y z
#    x 3.953100 -0.149850 -0.108830 
#    y -0.149850 3.926930 -0.131680 
#    z -0.108830 -0.131680 3.781850 
# 
# 
# High freq. dielectric constant tensor:
#      x y z
#    x 1.850330 -0.005070 -0.005950 
#    y -0.005070 1.847920 -0.010130 
#    z -0.005950 -0.010130 1.838390 
# 
# From -- ./inp_files/97212.got.cif
#   From: 2010.06.25/outbox.cif.g09.slc.cpg/sg2_49_cif.got.tgz:97212.got - 2010.06.27 13:26:56.
