data_PCOD8019256
_publ_section_title
;
Structure prediction by ZEFSAII (Michael W. Deem and Ramdas Pophale) SiO2 
 PCOD8019256
Probable space group: P -1
;
_chemical_formula_sum "Si O2"
_cell_formula_units_Z 12
_cell_length_a 8.040849
_cell_length_b 8.183274
_cell_length_c 11.559330
_cell_angle_alpha 70.688318
_cell_angle_beta 85.022348
_cell_angle_gamma 130.156056
_cell_volume 498.902005
_symmetry_space_group_name_H-M "P -1"
_symmetry_group_IT_number 2
_symmetry_cell_setting 'triclinic'
loop_
_space_group_symop_operation_xyz
x,y,z
-x,-y,-z
loop_
_atom_site_type_symbol
_atom_site_label
_atom_site_fract_x
_atom_site_fract_y
_atom_site_fract_z
Si Si1 0.862849 0.206171 0.172852
Si Si2 0.445536 0.806460 0.946895
Si Si3 0.077040 0.631991 0.617214
Si Si4 0.316781 0.326146 0.153768
Si Si5 0.158270 0.852519 0.330547
Si Si6 0.454376 0.698890 0.220218
O O1 0.813232 0.319116 0.052811
O O2 0.812065 0.248132 0.292960
O O3 0.140325 0.351480 0.112206
O O4 0.685904 0.909080 0.236084
O O5 0.508022 0.644182 0.957949
O O6 0.626037 0.046619 0.793581
O O7 0.472848 0.850569 0.073705
O O8 0.078509 0.426172 0.635021
O O9 0.798143 0.480741 0.656548
O O10 0.221428 0.845241 0.460356
O O11 0.471568 0.517948 0.206359
O O12 0.134885 0.043134 0.279580
#
# Coordination Sequence:
#
# PCOD8019256 Si02
#       6
#     2   2   2   2   2   2
#     4  11  23  38  67  93 122 166 204 246 318 362
#     4  10  22  43  63  91 126 162 206 254 301 363
#     4  10  22  41  66  89 125 164 206 253 305 365
#     4   9  23  41  62  93 125 159 205 258 301 360
#     4   9  21  45  61  88 131 158 201 267 296 353
#     4  11  21  41  63  94 126 158 207 256 303 366
#
# _framework density 24.052819
#
# number of rings (size 3 to 8) (size 9 to 14) (size 15 to 20)
#    1.000    1.000    1.667    1.000    0.000    8.000 
#    0.000    1.667    0.000    0.000    0.000    0.000 
#    0.000    0.000    0.000    0.000    0.000    0.000 
#
# Total GULP energy -148710.136415 kJ/mol
# GULP energy per Si atom -12392.511368 kJ/mol
# Density = 2.399807 g / cm^3
# Si number density = 24.052819 Si / 1000 Ang^3
#
#
#
# Elastic Constant Matrix: (Units=GPa)
#
#
# Indices 1 2 3 4 5 6 
#
# 1 77.6713 38.5366 37.4198 -3.8787 15.7532 -8.1317
# 2 38.5366 159.3588 40.7068 22.9645 12.3988 -9.3591
# 3 37.4198 40.7068 139.4030 10.5401 3.6080 -9.4604
# 4 -3.8787 22.9645 10.5401 45.6487 -1.5608 6.2480
# 5 15.7532 12.3988 3.6080 -1.5608 30.1507 -4.7510
# 6 -8.1317 -9.3591 -9.4604 6.2480 -4.7510 37.3067
#
#
#
# Elastic Compliance Matrix: (Units=1/GPa)
#
#
# Indices 1 2 3 4 5 6 
#
# 1 0.018179 -0.003325 -0.003969 0.003807 -0.007373 0.000545
# 2 -0.003325 0.008189 -0.001014 -0.004442 -0.001482 0.001628
# 3 -0.003969 -0.001014 0.008758 -0.002019 0.001597 0.001643
# 4 0.003807 -0.004442 -0.002019 0.025638 0.000616 -0.005012
# 5 -0.007373 -0.001482 0.001597 0.000616 0.037967 0.003158
# 6 0.000545 0.001628 0.001643 -0.005012 0.003158 0.028990
#
#
# Mechanical properties :
#
#
# Convention : Reuss Voigt Hill
#
# Bulk Modulus (GPa) = 54.02530 67.75104 60.88817
# Shear Modulus (GPa) = 33.22092 39.93921 36.58006
#
# Velocity S-wave (km/s) = 3.72043 4.07932 3.90400
# Velocity P-wave (km/s) = 6.40042 7.10046 6.75951
#
# Compressibility (1/GPa) = 0.01850985
#
# Stress axis : x y z
#
# Youngs Moduli (GPa) = 55.00774 122.11033 114.18433
#
# Poissons Ratio (x) = 0.40606 0.45318
# Poissons Ratio (y) = 0.18292 0.11579
# Poissons Ratio (z) = 0.21832 0.12383
#
# Static dielectric constant tensor:
#      x y z
#    x 3.998700 -0.463280 -0.084330 
#    y -0.463280 4.642170 -0.214910 
#    z -0.084330 -0.214910 4.225440 
# 
# 
# High freq. dielectric constant tensor:
#      x y z
#    x 1.927340 -0.038990 -0.015540 
#    y -0.038990 1.991370 -0.022740 
#    z -0.015540 -0.022740 1.968570 
# 
# From -- ./inp_files/99984.got.cif
#   From: 2010.06.25/outbox.cif.g09.slc.cpg/sg2_50_cif.got.tgz:99984.got - 2010.06.27 13:26:56.
