data_PCOD8019325
_publ_section_title
;
Structure prediction by ZEFSAII (Michael W. Deem and Ramdas Pophale) SiO2 
 PCOD8019325
Probable space group: P -1
;
_chemical_formula_sum "Si O2"
_cell_formula_units_Z 16
_cell_length_a 15.865824
_cell_length_b 5.252311
_cell_length_c 8.738568
_cell_angle_alpha 78.852615
_cell_angle_beta 77.963260
_cell_angle_gamma 73.896893
_cell_volume 677.099723
_symmetry_space_group_name_H-M "P -1"
_symmetry_group_IT_number 2
_symmetry_cell_setting 'triclinic'
loop_
_space_group_symop_operation_xyz
x,y,z
-x,-y,-z
loop_
_atom_site_type_symbol
_atom_site_label
_atom_site_fract_x
_atom_site_fract_y
_atom_site_fract_z
Si Si1 0.778893 0.120889 0.183143
Si Si2 0.048414 0.154537 0.669529
Si Si3 0.602181 0.719840 0.927914
Si Si4 0.668888 0.375704 0.664782
Si Si5 0.687917 0.652948 0.332152
Si Si6 0.236748 0.049826 0.119775
Si Si7 0.494834 0.230839 0.752323
Si Si8 0.061624 0.268190 0.308201
O O1 0.735551 0.423805 0.220691
O O2 0.875500 0.012385 0.230547
O O3 0.720346 0.920994 0.280701
O O4 0.783602 0.122635 0.996814
O O5 0.086224 0.217811 0.483696
O O6 0.004864 0.442164 0.729141
O O7 0.977484 0.976711 0.704213
O O8 0.654141 0.486680 0.828693
O O9 0.676919 0.841890 0.969759
O O10 0.532584 0.924169 0.823753
O O11 0.548490 0.610193 0.095393
O O12 0.709984 0.543352 0.508965
O O13 0.742192 0.104999 0.706814
O O14 0.575432 0.336893 0.639320
O O15 0.581137 0.738378 0.349027
O O16 0.147964 0.273860 0.171801
#
# Coordination Sequence:
#
# PCOD8019325 Si02
#       8
#     2   2   2   2   2   2   2   2
#     4  12  27  46  69 100 143 176 225 280 340 397
#     4  10  23  44  67 102 134 174 214 279 336 398
#     4  10  22  41  66  97 135 178 228 279 338 395
#     4  11  25  40  69  96 137 180 234 279 335 399
#     4  12  27  43  70 100 138 182 228 285 333 396
#     4  11  25  42  68 102 134 183 225 276 335 409
#     4  10  22  42  63  99 132 182 226 282 337 396
#     4  10  23  42  72  98 135 172 222 268 338 407
#
# _framework density 23.630195000000001
#
# number of rings (size 3 to 8) (size 9 to 14) (size 15 to 20)
#    0.000    1.250    1.250    3.000    8.750    2.500 
#    0.000    0.000    0.000    0.000    0.000    0.000 
#    0.000    0.000    0.000    0.000    0.000    0.000 
#
# Total GULP energy -198363.601031 kJ/mol
# GULP energy per Si atom -12397.725064 kJ/mol
# Density = 2.357641 g / cm^3
# Si number density = 23.630195 Si / 1000 Ang^3
#
#
#
# Elastic Constant Matrix: (Units=GPa)
#
#
# Indices 1 2 3 4 5 6 
#
# 1 84.1032 15.9472 22.6264 -3.6206 15.4864 -24.8720
# 2 15.9472 67.7589 -3.7674 -0.3883 -4.9151 -4.9865
# 3 22.6264 -3.7674 61.3876 -5.7958 -5.0635 -9.4925
# 4 -3.6206 -0.3883 -5.7958 28.3068 -7.1627 -0.9801
# 5 15.4864 -4.9151 -5.0635 -7.1627 29.5491 -0.7438
# 6 -24.8720 -4.9865 -9.4925 -0.9801 -0.7438 31.5373
#
#
#
# Elastic Compliance Matrix: (Units=1/GPa)
#
#
# Indices 1 2 3 4 5 6 
#
# 1 0.021213 -0.005405 -0.007369 -0.001795 -0.013380 0.013286
# 2 -0.005405 0.016716 0.003718 0.001991 0.006726 -0.000281
# 3 -0.007369 0.003718 0.020788 0.005816 0.009489 0.001438
# 4 -0.001795 0.001991 0.005816 0.039394 0.011872 0.002154
# 5 -0.013380 0.006726 0.009489 0.011872 0.046347 -0.005171
# 6 0.013286 -0.000281 0.001438 0.002154 -0.005171 0.042520
#
#
# Mechanical properties :
#
#
# Convention : Reuss Voigt Hill
#
# Bulk Modulus (GPa) = 24.62874 31.42912 28.02893
# Shear Modulus (GPa) = 22.87004 29.77488 26.32246
#
# Velocity S-wave (km/s) = 3.11437 3.55355 3.34118
# Velocity P-wave (km/s) = 4.83504 5.49238 5.17416
#
# Compressibility (1/GPa) = 0.04060298
#
# Stress axis : x y z
#
# Youngs Moduli (GPa) = 47.14041 59.82376 48.10396
#
# Poissons Ratio (x) = 0.32338 0.35449
# Poissons Ratio (y) = 0.25482 -0.17883
# Poissons Ratio (z) = 0.34739 -0.22240
#
# Static dielectric constant tensor:
#      x y z
#    x 4.215940 -0.083580 0.055370 
#    y -0.083580 4.194940 0.007380 
#    z 0.055370 0.007380 4.121080 
# 
# 
# High freq. dielectric constant tensor:
#      x y z
#    x 1.937310 -0.012730 0.005530 
#    y -0.012730 1.935570 -0.003130 
#    z 0.005530 -0.003130 1.933980 
# 
# From -- ./inp_files/37347.got.cif
#   From: 2010.06.25/outbox.cif.g09.slc.cpg/sg2_19_cif.got.tgz:37347.got - 2010.06.27 13:26:56.
