data_PCOD8019175
_publ_section_title
;
Structure prediction by ZEFSAII (Michael W. Deem and Ramdas Pophale) SiO2 
 PCOD8019175
Probable space group: P -1
;
_chemical_formula_sum "Si O2"
_cell_formula_units_Z 16
_cell_length_a 27.921079
_cell_length_b 12.013363
_cell_length_c 9.601190
_cell_angle_alpha 41.562377
_cell_angle_beta 27.855501
_cell_angle_gamma 31.164432
_cell_volume 778.243854
_symmetry_space_group_name_H-M "P -1"
_symmetry_group_IT_number 2
_symmetry_cell_setting 'triclinic'
loop_
_space_group_symop_operation_xyz
x,y,z
-x,-y,-z
loop_
_atom_site_type_symbol
_atom_site_label
_atom_site_fract_x
_atom_site_fract_y
_atom_site_fract_z
Si Si1 0.872188 0.954937 0.579262
Si Si2 0.932886 0.712257 0.384333
Si Si3 0.282681 0.238432 0.274260
Si Si4 0.544468 0.017311 0.679822
Si Si5 0.096042 0.715251 0.728371
Si Si6 0.401713 0.383073 0.236798
Si Si7 0.035959 0.622483 0.698962
Si Si8 0.415356 0.744785 0.864392
O O1 0.912795 0.884280 0.381671
O O2 0.926654 0.763239 0.729687
O O3 0.937100 0.064988 0.344240
O O4 0.715467 0.121179 0.831912
O O5 0.790740 0.808931 0.599449
O O6 0.000000 0.500000 0.500000
O O7 0.023372 0.660768 0.068198
O O8 0.360737 0.057417 0.361677
O O9 0.176913 0.468540 0.403353
O O10 0.394608 0.221737 0.913828
O O11 0.544530 0.825424 0.800253
O O12 0.600747 0.098832 0.356885
O O13 0.248072 0.509966 0.533634
O O14 0.043271 0.763746 0.660172
O O15 0.464378 0.319697 0.288561
O O16 0.432950 0.537945 0.947842
O O17 0.000000 0.500000 0.000000
#
# Coordination Sequence:
#
# PCOD8019175 Si02
#       8
#     2   2   2   2   2   2   2   2
#     4  11  24  41  64  96 130 164 213 263 322 380
#     4  12  24  40  63  94 128 164 212 262 317 381
#     4  11  24  40  63  97 122 166 220 256 317 385
#     4  11  23  42  66  89 130 169 214 263 318 376
#     4  11  24  40  66  94 129 169 207 263 326 377
#     4  10  22  41  65  94 127 163 219 262 311 389
#     4  12  21  42  67  92 128 167 212 259 315 386
#     4  10  23  40  66  95 125 170 213 262 321 375
#
# _framework density 20.559107999999998
#
# number of rings (size 3 to 8) (size 9 to 14) (size 15 to 20)
#    0.000    1.000    3.750    2.625    3.500    0.000 
#    0.000    3.750    0.000    0.000    0.000    0.000 
#    0.000    0.000    0.000    0.000    0.000    0.000 
#
# Total GULP energy -198350.754828 kJ/mol
# GULP energy per Si atom -12396.922177 kJ/mol
# Density = 2.051231 g / cm^3
# Si number density = 20.559108 Si / 1000 Ang^3
#
#
#
# Elastic Constant Matrix: (Units=GPa)
#
#
# Indices 1 2 3 4 5 6 
#
# 1 141.2798 34.4254 24.7521 3.5483 -1.1368 2.7359
# 2 34.4254 76.4090 30.0279 -3.7557 2.3913 11.5559
# 3 24.7521 30.0279 62.5778 4.9572 2.7826 -0.4436
# 4 3.5483 -3.7557 4.9572 25.8385 2.2071 2.4645
# 5 -1.1368 2.3913 2.7826 2.2071 29.1497 7.6032
# 6 2.7359 11.5559 -0.4436 2.4645 7.6032 39.3275
#
#
#
# Elastic Compliance Matrix: (Units=1/GPa)
#
#
# Indices 1 2 3 4 5 6 
#
# 1 0.008173 -0.003174 -0.001634 -0.001362 0.000764 0.000283
# 2 -0.003174 0.018906 -0.008289 0.005308 0.000229 -0.005805
# 3 -0.001634 -0.008289 0.021126 -0.005202 -0.001915 0.003484
# 4 -0.001362 0.005308 -0.005202 0.041194 -0.002149 -0.003690
# 5 0.000764 0.000229 -0.001915 -0.002149 0.036505 -0.007065
# 6 0.000283 -0.005805 0.003484 -0.003690 -0.007065 0.028750
#
#
# Mechanical properties :
#
#
# Convention : Reuss Voigt Hill
#
# Bulk Modulus (GPa) = 45.42927 50.96415 48.19671
# Shear Modulus (GPa) = 26.56984 31.60058 29.08521
#
# Velocity S-wave (km/s) = 3.59885 3.92479 3.76535
# Velocity P-wave (km/s) = 6.27804 6.73658 6.51135
#
# Compressibility (1/GPa) = 0.02201224
#
# Stress axis : x y z
#
# Youngs Moduli (GPa) = 122.35989 52.89205 47.33600
#
# Poissons Ratio (x) = 0.16787 0.07733
# Poissons Ratio (y) = 0.38834 0.39235
# Poissons Ratio (z) = 0.19990 0.43841
#
# Static dielectric constant tensor:
#      x y z
#    x 4.138590 0.160200 0.039700 
#    y 0.160200 4.114560 0.253840 
#    z 0.039700 0.253840 3.718120 
# 
# 
# High freq. dielectric constant tensor:
#      x y z
#    x 1.824720 -0.001760 -0.004310 
#    y -0.001760 1.801930 0.010690 
#    z -0.004310 0.010690 1.797640 
# 
# From -- ./inp_files/208989.got.cif
#   From: 2010.06.25/outbox.cif.g09.slc.cpg/sg2_105_cif.got.tgz:208989.got - 2010.06.27 13:26:56.
