data_PCOD8019536
_publ_section_title
;
Structure prediction by ZEFSAII (Michael W. Deem and Ramdas Pophale) SiO2 
 PCOD8019536
Probable space group: P -1
;
_chemical_formula_sum "Si O2"
_cell_formula_units_Z 14
_cell_length_a 14.743272
_cell_length_b 12.309740
_cell_length_c 4.894750
_cell_angle_alpha 68.966456
_cell_angle_beta 91.938758
_cell_angle_gamma 46.973972
_cell_volume 553.258169
_symmetry_space_group_name_H-M "P -1"
_symmetry_group_IT_number 2
_symmetry_cell_setting 'triclinic'
loop_
_space_group_symop_operation_xyz
x,y,z
-x,-y,-z
loop_
_atom_site_type_symbol
_atom_site_label
_atom_site_fract_x
_atom_site_fract_y
_atom_site_fract_z
Si Si1 0.154806 0.419354 0.859318
Si Si2 0.740527 0.187254 0.723185
Si Si3 0.460342 0.778811 0.578523
Si Si4 0.024992 0.887287 0.850593
Si Si5 0.457625 0.163042 0.968163
Si Si6 0.996340 0.350696 0.861775
Si Si7 0.678314 0.376262 0.019502
O O1 0.312207 0.296828 0.970998
O O2 0.070329 0.587224 0.502739
O O3 0.129587 0.306434 0.895254
O O4 0.114279 0.481814 0.109154
O O5 0.689657 0.116247 0.638657
O O6 0.715304 0.313795 0.388981
O O7 0.650614 0.289270 0.899825
O O8 0.907582 0.034308 0.944592
O O9 0.546104 0.749010 0.367476
O O10 0.443430 0.883383 0.737715
O O11 0.546620 0.581696 0.841836
O O12 0.187360 0.706477 0.064171
O O13 0.965537 0.813005 0.870149
O O14 0.000000 0.000000 0.500000
O O15 0.500000 0.000000 0.000000
#
# Coordination Sequence:
#
# PCOD8019536 Si02
#       7
#     2   2   2   2   2   2   2
#     4  10  22  43  66  96 125 174 223 272 325 389
#     4  11  24  41  64  99 132 171 217 267 327 390
#     4  12  25  44  68  93 130 181 216 270 330 390
#     4  10  23  40  65 100 135 171 213 277 337 393
#     4  12  26  43  66  96 132 169 223 274 332 390
#     4  10  22  41  68  95 130 170 220 272 327 397
#     4  11  22  42  67  94 132 171 223 263 318 402
#
# _framework density 25.304641
#
# number of rings (size 3 to 8) (size 9 to 14) (size 15 to 20)
#    0.000    1.143    0.000    6.000    2.000    5.714 
#    5.143    0.000    0.000    0.000    0.000    0.000 
#    0.000    0.000    0.000    0.000    0.000    0.000 
#
# Total GULP energy -173436.042498 kJ/mol
# GULP energy per Si atom -12388.288750 kJ/mol
# Density = 2.524705 g / cm^3
# Si number density = 25.304641 Si / 1000 Ang^3
#
#
#
# Elastic Constant Matrix: (Units=GPa)
#
#
# Indices 1 2 3 4 5 6 
#
# 1 76.9561 16.3816 21.7905 -17.6486 5.7355 16.5075
# 2 16.3816 82.8101 9.3420 12.9532 13.1817 2.5824
# 3 21.7905 9.3420 82.4106 13.9546 0.1402 15.8562
# 4 -17.6486 12.9532 13.9546 36.6267 7.8827 5.9752
# 5 5.7355 13.1817 0.1402 7.8827 45.7737 -4.0902
# 6 16.5075 2.5824 15.8562 5.9752 -4.0902 28.0453
#
#
#
# Elastic Compliance Matrix: (Units=1/GPa)
#
#
# Indices 1 2 3 4 5 6 
#
# 1 0.024327 -0.005773 -0.006176 0.019969 -0.006187 -0.015453
# 2 -0.005773 0.014630 0.000671 -0.008351 -0.001768 0.003193
# 3 -0.006176 0.000671 0.015844 -0.009123 0.001820 -0.003175
# 4 0.019969 -0.008351 -0.009123 0.048369 -0.009970 -0.017586
# 5 -0.006187 -0.001768 0.001820 -0.009970 0.025614 0.008635
# 6 -0.015453 0.003193 -0.003175 -0.017586 0.008635 0.051260
#
#
# Mechanical properties :
#
#
# Convention : Reuss Voigt Hill
#
# Bulk Modulus (GPa) = 31.01133 37.46724 34.23928
# Shear Modulus (GPa) = 23.43589 35.06665 29.25127
#
# Velocity S-wave (km/s) = 3.04657 3.72664 3.40364
# Velocity P-wave (km/s) = 4.96561 5.77545 5.38577
#
# Compressibility (1/GPa) = 0.03224628
#
# Stress axis : x y z
#
# Youngs Moduli (GPa) = 41.10620 68.35093 63.11544
#
# Poissons Ratio (x) = 0.39457 0.38979
# Poissons Ratio (y) = 0.23729 -0.04233
# Poissons Ratio (z) = 0.25386 -0.04585
#
# Static dielectric constant tensor:
#      x y z
#    x 2.303110 1.408720 0.588630 
#    y 1.408720 4.051780 -0.102990 
#    z 0.588630 -0.102990 4.278300 
# 
# 
# High freq. dielectric constant tensor:
#      x y z
#    x 2.037040 -0.003640 0.001220 
#    y -0.003640 2.011100 0.022420 
#    z 0.001220 0.022420 1.999270 
# 
# From -- ./inp_files/94598.got.cif
#   From: 2010.06.25/outbox.cif.g09.slc.cpg/sg2_48_cif.got.tgz:94598.got - 2010.06.27 13:26:56.
