data_PCOD8019769
_publ_section_title
;
Structure prediction by ZEFSAII (Michael W. Deem and Ramdas Pophale) SiO2 
 PCOD8019769
Probable space group: P -1
;
_chemical_formula_sum "Si O2"
_cell_formula_units_Z 16
_cell_length_a 17.353434
_cell_length_b 11.725512
_cell_length_c 11.499471
_cell_angle_alpha 40.113320
_cell_angle_beta 49.729418
_cell_angle_gamma 29.375369
_cell_volume 738.029960
_symmetry_space_group_name_H-M "P -1"
_symmetry_group_IT_number 2
_symmetry_cell_setting 'triclinic'
loop_
_space_group_symop_operation_xyz
x,y,z
-x,-y,-z
loop_
_atom_site_type_symbol
_atom_site_label
_atom_site_fract_x
_atom_site_fract_y
_atom_site_fract_z
Si Si1 0.169602 0.249422 0.392019
Si Si2 0.159689 0.476230 0.450026
Si Si3 0.734357 0.756431 0.226862
Si Si4 0.128156 0.734079 0.662662
Si Si5 0.630510 0.336812 0.403732
Si Si6 0.738948 0.276611 0.899289
Si Si7 0.010608 0.314378 0.961134
Si Si8 0.489497 0.374473 0.944434
O O1 0.218470 0.308603 0.404811
O O2 0.023770 0.318040 0.511966
O O3 0.321244 0.926358 0.472426
O O4 0.134572 0.416199 0.182738
O O5 0.262376 0.260397 0.623456
O O6 0.186715 0.648748 0.286781
O O7 0.748878 0.545597 0.316252
O O8 0.884251 0.667261 0.104913
O O9 0.571343 0.072080 0.108466
O O10 0.218125 0.767657 0.613760
O O11 0.045223 0.722747 0.846787
O O12 0.000000 0.000000 0.500000
O O13 0.500000 0.500000 0.500000
O O14 0.561843 0.534843 0.207872
O O15 0.606712 0.375323 0.865258
O O16 0.881072 0.945646 0.030612
O O17 0.666462 0.411235 0.991340
#
# Coordination Sequence:
#
# PCOD8019769 Si02
#       8
#     2   2   2   2   2   2   2   2
#     4  10  24  43  67 101 133 171 225 281 343 386
#     4  10  22  41  72 100 131 170 228 285 329 394
#     4  10  23  42  69  98 134 177 226 272 334 399
#     4  12  26  45  74  99 131 180 235 272 330 405
#     4  12  30  46  66  95 144 181 220 281 335 400
#     4  10  22  42  70  96 135 175 226 273 336 402
#     4  10  22  42  71  99 131 173 224 289 327 394
#     4  10  26  43  64  98 138 180 219 272 343 404
#
# _framework density 21.679338000000001
#
# number of rings (size 3 to 8) (size 9 to 14) (size 15 to 20)
#    0.000    1.500    0.000    3.375   17.500    2.500 
#    0.000    0.000    0.000    0.000    0.000    0.000 
#    0.000    0.000    0.000    0.000    0.000    0.000 
#
# Total GULP energy -198488.810586 kJ/mol
# GULP energy per Si atom -12405.550662 kJ/mol
# Density = 2.163000 g / cm^3
# Si number density = 21.679338 Si / 1000 Ang^3
#
#
#
# Elastic Constant Matrix: (Units=GPa)
#
#
# Indices 1 2 3 4 5 6 
#
# 1 70.9581 13.9247 30.7350 -6.5282 9.7585 10.7384
# 2 13.9247 93.1951 31.3887 -23.9198 13.4418 23.4923
# 3 30.7350 31.3887 119.6957 -9.0640 14.1451 2.5888
# 4 -6.5282 -23.9198 -9.0640 43.6623 -1.0398 -5.1670
# 5 9.7585 13.4418 14.1451 -1.0398 43.1724 -1.0814
# 6 10.7384 23.4923 2.5888 -5.1670 -1.0814 28.2849
#
#
#
# Elastic Compliance Matrix: (Units=1/GPa)
#
#
# Indices 1 2 3 4 5 6 
#
# 1 0.017291 0.001533 -0.004189 0.001619 -0.003157 -0.007279
# 2 0.001533 0.017856 -0.003631 0.007497 -0.004884 -0.013897
# 3 -0.004189 -0.003631 0.010449 -0.000051 -0.001258 0.003592
# 4 0.001619 0.007497 -0.000051 0.026956 -0.002084 -0.001992
# 5 -0.003157 -0.004884 -0.001258 -0.002084 0.025909 0.005980
# 6 -0.007279 -0.013897 0.003592 -0.001992 0.005980 0.049197
#
#
# Mechanical properties :
#
#
# Convention : Reuss Voigt Hill
#
# Bulk Modulus (GPa) = 30.28189 48.43842 39.36015
# Shear Modulus (GPa) = 29.19912 36.87729 33.03820
#
# Velocity S-wave (km/s) = 3.67395 4.12883 3.90801
# Velocity P-wave (km/s) = 5.65646 6.71724 6.20955
#
# Compressibility (1/GPa) = 0.03302304
#
# Stress axis : x y z
#
# Youngs Moduli (GPa) = 57.83335 56.00484 95.70019
#
# Poissons Ratio (x) = -0.08586 0.40088
# Poissons Ratio (y) = -0.08867 0.34746
# Poissons Ratio (z) = 0.24226 0.20334
#
# Static dielectric constant tensor:
#      x y z
#    x 3.687390 0.112470 0.003160 
#    y 0.112470 3.871140 -0.030430 
#    z 0.003160 -0.030430 3.950430 
# 
# 
# High freq. dielectric constant tensor:
#      x y z
#    x 1.850760 0.011760 -0.002690 
#    y 0.011760 1.852260 -0.004410 
#    z -0.002690 -0.004410 1.861950 
# 
# From -- ./inp_files/261950.got.cif
#   From: 2010.06.25/outbox.cif.g09.slc.cpg/sg2_131_cif.got.tgz:261950.got - 2010.06.27 13:26:56.
