data_PCOD8019262
_publ_section_title
;
Structure prediction by ZEFSAII (Michael W. Deem and Ramdas Pophale) SiO2 
 PCOD8019262
Probable space group: P -1
;
_chemical_formula_sum "Si O2"
_cell_formula_units_Z 14
_cell_length_a 9.507045
_cell_length_b 25.316850
_cell_length_c 5.058569
_cell_angle_alpha 63.749428
_cell_angle_beta 72.774529
_cell_angle_gamma 35.079761
_cell_volume 622.436001
_symmetry_space_group_name_H-M "P -1"
_symmetry_group_IT_number 2
_symmetry_cell_setting 'triclinic'
loop_
_space_group_symop_operation_xyz
x,y,z
-x,-y,-z
loop_
_atom_site_type_symbol
_atom_site_label
_atom_site_fract_x
_atom_site_fract_y
_atom_site_fract_z
Si Si1 0.370705 0.848869 0.820559
Si Si2 0.347944 0.927152 0.142925
Si Si3 0.047069 0.560840 0.612380
Si Si4 0.700051 0.566292 0.752304
Si Si5 0.878331 0.248084 0.320716
Si Si6 0.021341 0.855542 0.004488
Si Si7 0.168522 0.260493 0.926476
O O1 0.301715 0.895140 0.470654
O O2 0.234913 0.934747 0.921344
O O3 0.266474 0.816693 0.977637
O O4 0.666174 0.753759 0.925964
O O5 0.643670 0.840900 0.125874
O O6 0.226071 0.028340 0.055066
O O7 0.245645 0.472739 0.487144
O O8 0.800459 0.600235 0.662263
O O9 0.977869 0.649895 0.387538
O O10 0.169771 0.520149 0.923230
O O11 0.412483 0.658740 0.764208
O O12 0.954497 0.205147 0.667281
O O13 0.001757 0.163488 0.232544
O O14 0.977105 0.282189 0.145042
#
# Coordination Sequence:
#
# PCOD8019262 Si02
#       7
#     2   2   2   2   2   2   2
#     4  10  22  41  66  91 126 167 220 268 302 376
#     4  10  23  41  67  96 125 171 224 257 312 377
#     4  10  22  42  69  89 124 164 208 270 312 379
#     4  10  23  42  65  96 120 161 217 258 325 372
#     4  12  27  41  63  99 133 171 209 262 321 384
#     4  12  24  42  68  91 134 172 217 265 310 367
#     4  10  27  40  67  95 136 167 213 256 328 378
#
# _framework density 22.492270000000001
#
# number of rings (size 3 to 8) (size 9 to 14) (size 15 to 20)
#    0.857    0.571    0.000    4.286    6.000    3.429 
#    0.000    0.000    0.000    0.000    0.000    0.000 
#    0.000    0.000    0.000    0.000    0.000    0.000 
#
# Total GULP energy -173625.682198 kJ/mol
# GULP energy per Si atom -12401.834443 kJ/mol
# Density = 2.244108 g / cm^3
# Si number density = 22.492270 Si / 1000 Ang^3
#
#
#
# Elastic Constant Matrix: (Units=GPa)
#
#
# Indices 1 2 3 4 5 6 
#
# 1 35.6619 18.8172 19.1020 6.0537 -11.9853 -2.5967
# 2 18.8172 60.3577 30.4220 3.8968 -17.2202 -12.2214
# 3 19.1020 30.4220 129.6836 1.6870 -21.1233 -20.5168
# 4 6.0537 3.8968 1.6870 36.5492 8.4842 -0.5834
# 5 -11.9853 -17.2202 -21.1233 8.4842 39.0137 7.6328
# 6 -2.5967 -12.2214 -20.5168 -0.5834 7.6328 13.2537
#
#
#
# Elastic Compliance Matrix: (Units=1/GPa)
#
#
# Indices 1 2 3 4 5 6 
#
# 1 0.038800 -0.009493 -0.003858 -0.007745 0.009901 -0.013167
# 2 -0.009493 0.024871 -0.001004 -0.001842 0.004638 0.016768
# 3 -0.003858 -0.001004 0.011064 0.000125 0.001479 0.014599
# 4 -0.007745 -0.001842 0.000125 0.031429 -0.010863 0.004617
# 5 0.009901 0.004638 0.001479 -0.010863 0.036416 -0.012945
# 6 -0.013167 0.016768 0.014599 0.004617 -0.012945 0.118591
#
#
# Mechanical properties :
#
#
# Convention : Reuss Voigt Hill
#
# Bulk Modulus (GPa) = 21.72737 40.26509 30.99623
# Shear Modulus (GPa) = 16.38154 28.25412 22.31783
#
# Velocity S-wave (km/s) = 2.70167 3.54809 3.15341
# Velocity P-wave (km/s) = 4.40601 5.89287 5.20283
#
# Compressibility (1/GPa) = 0.04602490
#
# Stress axis : x y z
#
# Youngs Moduli (GPa) = 25.77307 40.20798 90.38576
#
# Poissons Ratio (x) = 0.38170 0.34869
# Poissons Ratio (y) = 0.24467 0.09074
# Poissons Ratio (z) = 0.09943 0.04036
#
# Static dielectric constant tensor:
#      x y z
#    x 3.740690 -0.081560 0.056520 
#    y -0.081560 3.967950 0.175220 
#    z 0.056520 0.175220 4.085090 
# 
# 
# High freq. dielectric constant tensor:
#      x y z
#    x 1.865960 -0.004070 0.003730 
#    y -0.004070 1.885920 0.011240 
#    z 0.003730 0.011240 1.900950 
# 
# From -- ./inp_files/33696.got.cif
#   From: 2010.06.25/outbox.cif.g09.slc.cpg/sg2_17_cif.got.tgz:33696.got - 2010.06.27 13:26:56.
