data_PCOD8019947
_publ_section_title
;
Structure prediction by ZEFSAII (Michael W. Deem and Ramdas Pophale) SiO2 
 PCOD8019947
Probable space group: P -1
;
_chemical_formula_sum "Si O2"
_cell_formula_units_Z 16
_cell_length_a 15.164221
_cell_length_b 15.195616
_cell_length_c 8.245004
_cell_angle_alpha 107.862329
_cell_angle_beta 96.619752
_cell_angle_gamma 145.834309
_cell_volume 734.581659
_symmetry_space_group_name_H-M "P -1"
_symmetry_group_IT_number 2
_symmetry_cell_setting 'triclinic'
loop_
_space_group_symop_operation_xyz
x,y,z
-x,-y,-z
loop_
_atom_site_type_symbol
_atom_site_label
_atom_site_fract_x
_atom_site_fract_y
_atom_site_fract_z
Si Si1 0.560791 0.818449 0.189382
Si Si2 0.683588 0.730898 0.830562
Si Si3 0.602380 0.661048 0.251681
Si Si4 0.075018 0.109968 0.342486
Si Si5 0.938672 0.422691 0.190053
Si Si6 0.957810 0.309057 0.415980
Si Si7 0.339094 0.777925 0.257261
Si Si8 0.325837 0.530685 0.671366
O O1 0.591974 0.758853 0.273886
O O2 0.463955 0.800758 0.281050
O O3 0.782573 0.065255 0.292744
O O4 0.375637 0.618208 0.907779
O O5 0.521309 0.490431 0.694075
O O6 0.830797 0.846425 0.776487
O O7 0.551349 0.701023 0.746424
O O8 0.817811 0.871736 0.111280
O O9 0.856157 0.884827 0.480560
O O10 0.500000 0.500000 0.000000
O O11 0.150224 0.283407 0.499129
O O12 0.024758 0.598870 0.386845
O O13 0.122528 0.555489 0.188254
O O14 0.873956 0.281770 0.223580
O O15 0.720644 0.237431 0.940091
O O16 0.196003 0.489849 0.528591
O O17 0.500000 0.000000 0.500000
#
# Coordination Sequence:
#
# PCOD8019947 Si02
#       8
#     2   2   2   2   2   2   2   2
#     4  12  24  40  66 102 131 175 221 268 330 392
#     4  10  22  42  63  94 131 177 214 267 333 378
#     4  11  22  39  63  97 131 171 218 266 320 381
#     4  10  22  42  67  88 138 173 216 272 322 389
#     4  10  24  45  67  98 130 172 215 276 336 390
#     4  11  24  42  69  98 129 168 224 274 327 392
#     4  11  23  45  70  96 138 171 213 276 336 392
#     4  11  21  39  63  96 131 164 222 267 315 393
#
# _framework density 21.781105
#
# number of rings (size 3 to 8) (size 9 to 14) (size 15 to 20)
#    0.000    1.250    5.000    2.250    0.000    5.000 
#    0.000    2.500    0.000    0.000    0.000    0.000 
#    0.000    0.000    0.000    0.000    0.000    0.000 
#
# Total GULP energy -198251.073063 kJ/mol
# GULP energy per Si atom -12390.692066 kJ/mol
# Density = 2.173153 g / cm^3
# Si number density = 21.781105 Si / 1000 Ang^3
#
#
#
# Elastic Constant Matrix: (Units=GPa)
#
#
# Indices 1 2 3 4 5 6 
#
# 1 152.2998 50.9381 51.9899 -1.3277 7.6675 -10.6682
# 2 50.9381 55.1463 18.7101 3.0809 9.9518 -4.4456
# 3 51.9899 18.7101 138.9517 -4.6098 10.9814 -10.5211
# 4 -1.3277 3.0809 -4.6098 26.0858 -3.6470 8.7181
# 5 7.6675 9.9518 10.9814 -3.6470 41.1191 -0.5421
# 6 -10.6682 -4.4456 -10.5211 8.7181 -0.5421 29.3334
#
#
#
# Elastic Compliance Matrix: (Units=1/GPa)
#
#
# Indices 1 2 3 4 5 6 
#
# 1 0.010515 -0.008925 -0.002688 0.000827 0.001007 0.001280
# 2 -0.008925 0.027861 0.000035 -0.005338 -0.005529 0.002473
# 3 -0.002688 0.000035 0.008492 0.000487 -0.001707 0.001898
# 4 0.000827 -0.005338 0.000487 0.044234 0.004754 -0.013392
# 5 0.001007 -0.005529 -0.001707 0.004754 0.026321 -0.002010
# 6 0.001280 0.002473 0.001898 -0.013392 -0.002010 0.039555
#
#
# Mechanical properties :
#
#
# Convention : Reuss Voigt Hill
#
# Bulk Modulus (GPa) = 42.17155 65.51934 53.84544
# Shear Modulus (GPa) = 26.59024 34.29164 30.44094
#
# Velocity S-wave (km/s) = 3.49778 3.97214 3.74248
# Velocity P-wave (km/s) = 5.97630 7.15426 6.59164
#
# Compressibility (1/GPa) = 0.02371267
#
# Stress axis : x y z
#
# Youngs Moduli (GPa) = 95.10389 35.89194 117.75280
#
# Poissons Ratio (x) = 0.32035 0.31648
# Poissons Ratio (y) = 0.84884 -0.00413
# Poissons Ratio (z) = 0.25560 -0.00126
#
# Static dielectric constant tensor:
#      x y z
#    x 4.420790 0.006740 0.357420 
#    y 0.006740 3.822690 -0.048290 
#    z 0.357420 -0.048290 4.473250 
# 
# 
# High freq. dielectric constant tensor:
#      x y z
#    x 1.869190 0.008780 0.009150 
#    y 0.008780 1.832990 0.000490 
#    z 0.009150 0.000490 1.880960 
# 
# From -- ./inp_files/315653.got.cif
#   From: 2010.06.25/outbox.cif.g09.slc.cpg/sg2_158_cif.got.tgz:315653.got - 2010.06.27 13:26:56.
