data_PCOD8019502
_publ_section_title
;
Structure prediction by ZEFSAII (Michael W. Deem and Ramdas Pophale) SiO2 
 PCOD8019502
Probable space group: P -1
;
_chemical_formula_sum "Si O2"
_cell_formula_units_Z 16
_cell_length_a 8.860179
_cell_length_b 14.131676
_cell_length_c 14.501044
_cell_angle_alpha 31.265677
_cell_angle_beta 52.033921
_cell_angle_gamma 53.838704
_cell_volume 733.714699
_symmetry_space_group_name_H-M "P -1"
_symmetry_group_IT_number 2
_symmetry_cell_setting 'triclinic'
loop_
_space_group_symop_operation_xyz
x,y,z
-x,-y,-z
loop_
_atom_site_type_symbol
_atom_site_label
_atom_site_fract_x
_atom_site_fract_y
_atom_site_fract_z
Si Si1 0.226644 0.355112 0.772436
Si Si2 0.052395 0.748040 0.481400
Si Si3 0.458699 0.785704 0.367534
Si Si4 0.325408 0.293860 0.243067
Si Si5 0.562736 0.151317 0.102257
Si Si6 0.606613 0.501916 0.232203
Si Si7 0.941047 0.084263 0.134139
Si Si8 0.290410 0.670417 0.846399
O O1 0.104683 0.530657 0.619142
O O2 0.435902 0.302515 0.690464
O O3 0.254233 0.412079 0.820807
O O4 0.117665 0.180286 0.952555
O O5 0.227977 0.816444 0.413932
O O6 0.858429 0.787606 0.582724
O O7 0.016322 0.866277 0.302022
O O8 0.511123 0.641584 0.552348
O O9 0.528920 0.978588 0.198295
O O10 0.403426 0.176904 0.221459
O O11 0.493171 0.276605 0.272255
O O12 0.266012 0.508887 0.062364
O O13 0.777380 0.115875 0.091891
O O14 0.543626 0.335091 0.893730
O O15 0.743852 0.389397 0.195752
O O16 0.867178 0.160746 0.199634
#
# Coordination Sequence:
#
# PCOD8019502 Si02
#       8
#     2   2   2   2   2   2   2   2
#     4  11  25  47  63  88 131 173 218 262 308 372
#     4  11  23  40  67  95 125 170 212 257 318 377
#     4  11  26  45  64  89 129 175 218 259 311 370
#     4   9  19  38  65  95 135 160 201 261 320 386
#     4  10  24  42  64 101 128 163 210 261 323 379
#     4  10  22  41  68  90 126 171 209 257 318 375
#     4  11  24  40  68  99 129 166 206 264 324 376
#     4   9  19  38  64  97 132 163 197 260 330 377
#
# _framework density 21.806842
#
# number of rings (size 3 to 8) (size 9 to 14) (size 15 to 20)
#    0.000    1.750    1.250    3.000    3.500    5.500 
#    4.500    1.250    0.000    0.000    0.000    0.000 
#    0.000    0.000    0.000    0.000    0.000    0.000 
#
# Total GULP energy -198418.236710 kJ/mol
# GULP energy per Si atom -12401.139794 kJ/mol
# Density = 2.175721 g / cm^3
# Si number density = 21.806842 Si / 1000 Ang^3
#
#
#
# Elastic Constant Matrix: (Units=GPa)
#
#
# Indices 1 2 3 4 5 6 
#
# 1 77.4406 20.4964 46.7199 0.7736 -3.0172 -13.3573
# 2 20.4964 50.6406 28.2417 -0.7161 -7.5895 -5.1973
# 3 46.7199 28.2417 115.2592 -7.2256 6.9535 -16.4218
# 4 0.7736 -0.7161 -7.2256 26.9455 -11.6492 -1.7678
# 5 -3.0172 -7.5895 6.9535 -11.6492 33.4198 -5.3580
# 6 -13.3573 -5.1973 -16.4218 -1.7678 -5.3580 23.5704
#
#
#
# Elastic Compliance Matrix: (Units=1/GPa)
#
#
# Indices 1 2 3 4 5 6 
#
# 1 0.018620 -0.003013 -0.006133 -0.000505 0.003104 0.006282
# 2 -0.003013 0.025171 -0.004882 0.003028 0.007911 0.002467
# 3 -0.006133 -0.004882 0.013306 0.002680 -0.002810 0.004280
# 4 -0.000505 0.003028 0.002680 0.046248 0.017769 0.009757
# 5 0.003104 0.007911 -0.002810 0.017769 0.040723 0.012135
# 6 0.006282 0.002467 0.004280 0.009757 0.012135 0.053003
#
#
# Mechanical properties :
#
#
# Convention : Reuss Voigt Hill
#
# Bulk Modulus (GPa) = 34.43535 48.25069 41.34302
# Shear Modulus (GPa) = 21.29398 26.64596 23.96997
#
# Velocity S-wave (km/s) = 3.12826 3.49937 3.31901
# Velocity P-wave (km/s) = 5.37340 6.20499 5.80411
#
# Compressibility (1/GPa) = 0.02903992
#
# Stress axis : x y z
#
# Youngs Moduli (GPa) = 53.70453 39.72843 75.15478
#
# Poissons Ratio (x) = 0.11971 0.46094
# Poissons Ratio (y) = 0.16182 0.36692
# Poissons Ratio (z) = 0.32938 0.19396
#
# Static dielectric constant tensor:
#      x y z
#    x 3.731130 -0.050720 0.074210 
#    y -0.050720 3.861060 -0.153740 
#    z 0.074210 -0.153740 4.054290 
# 
# 
# High freq. dielectric constant tensor:
#      x y z
#    x 1.841310 -0.004940 -0.002550 
#    y -0.004940 1.849170 -0.009620 
#    z -0.002550 -0.009620 1.867100 
# 
# From -- ./inp_files/504888.got.cif
#   From: 2010.06.25/outbox.cif.g09.slc.cpg/sg2_253_cif.got.tgz:504888.got - 2010.06.27 13:26:56.
