data_PCOD8019742
_publ_section_title
;
Structure prediction by ZEFSAII (Michael W. Deem and Ramdas Pophale) SiO2 
 PCOD8019742
Probable space group: P -1
;
_chemical_formula_sum "Si O2"
_cell_formula_units_Z 14
_cell_length_a 22.989595
_cell_length_b 16.187481
_cell_length_c 13.110602
_cell_angle_alpha 27.431569
_cell_angle_beta 27.360645
_cell_angle_gamma 15.214608
_cell_volume 569.269586
_symmetry_space_group_name_H-M "P -1"
_symmetry_group_IT_number 2
_symmetry_cell_setting 'triclinic'
loop_
_space_group_symop_operation_xyz
x,y,z
-x,-y,-z
loop_
_atom_site_type_symbol
_atom_site_label
_atom_site_fract_x
_atom_site_fract_y
_atom_site_fract_z
Si Si1 0.902088 0.942955 0.510879
Si Si2 0.234411 0.385182 0.761161
Si Si3 0.546331 0.718425 0.924196
Si Si4 0.760930 0.752598 0.873611
Si Si5 0.960130 0.375715 0.771343
Si Si6 0.729948 0.298114 0.568578
Si Si7 0.279233 0.694709 0.071621
O O1 0.008401 0.701197 0.703819
O O2 0.088714 0.853496 0.272359
O O3 0.784276 0.942213 0.617404
O O4 0.710946 0.295282 0.477883
O O5 0.387110 0.380424 0.559952
O O6 0.386675 0.081342 0.782653
O O7 0.151095 0.399226 0.983086
O O8 0.740475 0.515376 0.929713
O O9 0.668610 0.544048 0.816005
O O10 0.398126 0.714290 0.166662
O O11 0.922159 0.478117 0.835883
O O12 0.500000 0.000000 0.000000
O O13 0.000000 0.500000 0.500000
O O14 0.178887 0.985374 0.848741
O O15 0.000000 0.000000 0.500000
O O16 0.500000 0.500000 0.000000
#
# Coordination Sequence:
#
# PCOD8019742 Si02
#       7
#     2   2   2   2   2   2   2
#     4  11  24  45  72 109 152 197 248 320 375 443
#     4  11  24  43  77 108 151 195 250 307 383 437
#     4  12  26  48  75 107 155 199 251 315 381 446
#     4  12  24  45  74 113 147 197 254 303 380 457
#     4  12  29  51  76 110 155 205 256 313 380 456
#     4  10  22  41  71 107 144 192 247 305 369 444
#     4  12  29  49  76 112 151 200 260 312 379 457
#
# _framework density 24.592917
#
# number of rings (size 3 to 8) (size 9 to 14) (size 15 to 20)
#    0.000    0.571    2.857    4.286    8.000    1.714 
#    0.000    2.857    0.000    0.000    0.000    0.000 
#    0.000    0.000    0.000    0.000    0.000    0.000 
#
# Total GULP energy -173478.315354 kJ/mol
# GULP energy per Si atom -12391.308240 kJ/mol
# Density = 2.453694 g / cm^3
# Si number density = 24.592917 Si / 1000 Ang^3
#
#
#
# Elastic Constant Matrix: (Units=GPa)
#
#
# Indices 1 2 3 4 5 6 
#
# 1 114.6573 31.2708 36.5469 -17.6031 -25.7209 31.6745
# 2 31.2708 72.5766 35.8895 -11.2200 -13.8842 21.6727
# 3 36.5469 35.8895 127.0693 -1.8523 -23.5385 -4.6618
# 4 -17.6031 -11.2200 -1.8523 31.0271 5.4387 -13.8078
# 5 -25.7209 -13.8842 -23.5385 5.4387 62.9585 3.3849
# 6 31.6745 21.6727 -4.6618 -13.8078 3.3849 59.4471
#
#
#
# Elastic Compliance Matrix: (Units=1/GPa)
#
#
# Indices 1 2 3 4 5 6 
#
# 1 0.013096 -0.001031 -0.002900 0.003374 0.004085 -0.006278
# 2 -0.001031 0.019453 -0.005002 0.002952 0.002086 -0.006368
# 3 -0.002900 -0.005002 0.010525 -0.001421 0.001567 0.003775
# 4 0.003374 0.002952 -0.001421 0.038169 -0.002122 0.006001
# 5 0.004085 0.002086 0.001567 -0.002122 0.019017 -0.004390
# 6 -0.006278 -0.006368 0.003775 0.006001 -0.004390 0.024428
#
#
# Mechanical properties :
#
#
# Convention : Reuss Voigt Hill
#
# Bulk Modulus (GPa) = 39.66954 57.96863 48.81909
# Shear Modulus (GPa) = 33.12201 44.72627 38.92414
#
# Velocity S-wave (km/s) = 3.67387 4.26921 3.98268
# Velocity P-wave (km/s) = 5.84482 6.92271 6.40648
#
# Compressibility (1/GPa) = 0.02520826
#
# Stress axis : x y z
#
# Youngs Moduli (GPa) = 76.36039 51.40502 95.01541
#
# Poissons Ratio (x) = 0.05298 0.27554
# Poissons Ratio (y) = 0.07870 0.47528
# Poissons Ratio (z) = 0.22144 0.25714
#
# Static dielectric constant tensor:
#      x y z
#    x 5.229860 0.610810 -0.552100 
#    y 0.610810 4.656420 -0.314600 
#    z -0.552100 -0.314600 4.685020 
# 
# 
# High freq. dielectric constant tensor:
#      x y z
#    x 2.002020 0.019110 -0.029000 
#    y 0.019110 1.971050 0.005440 
#    z -0.029000 0.005440 1.980790 
# 
# From -- ./inp_files/471835.got.cif
#   From: 2010.06.25/outbox.cif.g09.slc.cpg/sg2_236_cif.got.tgz:471835.got - 2010.06.27 13:26:56.
