data_PCOD8019937
_publ_section_title
;
Structure prediction by ZEFSAII (Michael W. Deem and Ramdas Pophale) SiO2 
 PCOD8019937
Probable space group: P -1
;
_chemical_formula_sum "Si O2"
_cell_formula_units_Z 12
_cell_length_a 11.529581
_cell_length_b 11.600233
_cell_length_c 10.669761
_cell_angle_alpha 117.416313
_cell_angle_beta 61.678757
_cell_angle_gamma 155.426524
_cell_volume 520.769801
_symmetry_space_group_name_H-M "P -1"
_symmetry_group_IT_number 2
_symmetry_cell_setting 'triclinic'
loop_
_space_group_symop_operation_xyz
x,y,z
-x,-y,-z
loop_
_atom_site_type_symbol
_atom_site_label
_atom_site_fract_x
_atom_site_fract_y
_atom_site_fract_z
Si Si1 0.001348 0.825002 0.787371
Si Si2 0.765299 0.242341 0.398888
Si Si3 0.248746 0.317871 0.906675
Si Si4 0.734856 0.877138 0.789239
Si Si5 0.047203 0.176922 0.461712
Si Si6 0.452471 0.723766 0.634144
O O1 0.854354 0.683920 0.656198
O O2 0.161412 0.830988 0.739744
O O3 0.761978 0.642862 0.924263
O O4 0.220061 0.136765 0.824942
O O5 0.706056 0.285155 0.333186
O O6 0.000000 0.500000 0.500000
O O7 0.500000 0.000000 0.500000
O O8 0.540596 0.619725 0.849278
O O9 0.983222 0.152053 0.885003
O O10 0.879794 0.914456 0.621818
O O11 0.558161 0.830779 0.778968
O O12 0.230456 0.411084 0.589234
O O13 0.716861 0.922125 0.509411
#
# Coordination Sequence:
#
# PCOD8019937 Si02
#       6
#     2   2   2   2   2   2
#     4  10  22  42  63  92 123 159 216 245 310 348
#     4  12  24  40  63  92 125 159 201 255 310 365
#     4  10  24  40  65  88 123 169 203 258 288 366
#     4  11  23  39  60  91 125 163 207 242 311 361
#     4  11  21  36  63  89 124 156 203 257 306 352
#     4  12  22  39  59  93 124 161 198 253 310 369
#
# _framework density 23.042811
#
# number of rings (size 3 to 8) (size 9 to 14) (size 15 to 20)
#    0.000    1.000    3.333    4.000    0.000    8.667 
#    0.000    1.667    0.000    0.000    0.000    0.000 
#    0.000    0.000    0.000    0.000    0.000    0.000 
#
# Total GULP energy -148797.185710 kJ/mol
# GULP energy per Si atom -12399.765476 kJ/mol
# Density = 2.299036 g / cm^3
# Si number density = 23.042811 Si / 1000 Ang^3
#
#
#
# Elastic Constant Matrix: (Units=GPa)
#
#
# Indices 1 2 3 4 5 6 
#
# 1 138.3072 -11.6588 12.2829 14.9216 1.7763 8.4611
# 2 -11.6588 76.1611 -5.7993 -0.9607 -6.9741 12.0604
# 3 12.2829 -5.7993 55.6848 -2.4457 -5.8803 -1.3176
# 4 14.9216 -0.9607 -2.4457 31.1897 11.7755 6.6875
# 5 1.7763 -6.9741 -5.8803 11.7755 35.8407 4.1611
# 6 8.4611 12.0604 -1.3176 6.6875 4.1611 24.7251
#
#
#
# Elastic Compliance Matrix: (Units=1/GPa)
#
#
# Indices 1 2 3 4 5 6 
#
# 1 0.008087 0.001616 -0.001722 -0.003806 0.001209 -0.002822
# 2 0.001616 0.015230 0.001462 0.000117 0.004086 -0.008623
# 3 -0.001722 0.001462 0.018868 0.001178 0.003073 0.000046
# 4 -0.003806 0.000117 0.001178 0.040083 -0.011890 -0.007532
# 5 0.001209 0.004086 0.003073 -0.011890 0.033590 -0.004680
# 6 -0.002822 -0.008623 0.000046 -0.007532 -0.004680 0.048444
#
#
# Mechanical properties :
#
#
# Convention : Reuss Voigt Hill
#
# Bulk Modulus (GPa) = 22.27243 28.86696 25.56969
# Shear Modulus (GPa) = 28.31990 36.70633 32.51312
#
# Velocity S-wave (km/s) = 3.50953 3.99552 3.76039
# Velocity P-wave (km/s) = 5.10970 5.81724 5.47492
#
# Compressibility (1/GPa) = 0.04489856
#
# Stress axis : x y z
#
# Youngs Moduli (GPa) = 123.65315 65.65968 53.00085
#
# Poissons Ratio (x) = -0.10614 0.09125
# Poissons Ratio (y) = -0.19988 -0.07749
# Poissons Ratio (z) = 0.21290 -0.09600
#
# Static dielectric constant tensor:
#      x y z
#    x 4.672900 0.102270 0.031420 
#    y 0.102270 3.987710 -0.109530 
#    z 0.031420 -0.109530 4.166240 
# 
# 
# High freq. dielectric constant tensor:
#      x y z
#    x 1.919100 0.012240 0.030730 
#    y 0.012240 1.916030 -0.013250 
#    z 0.030730 -0.013250 1.885670 
# 
# From -- ./inp_files/64130.got.cif
#   From: 2010.06.25/outbox.cif.g09.slc.cpg/sg2_33_cif.got.tgz:64130.got - 2010.06.27 13:26:56.
