data_PCOD8019927
_publ_section_title
;
Structure prediction by ZEFSAII (Michael W. Deem and Ramdas Pophale) SiO2 
 PCOD8019927
Probable space group: P -1
;
_chemical_formula_sum "Si O2"
_cell_formula_units_Z 16
_cell_length_a 22.237340
_cell_length_b 6.974846
_cell_length_c 9.635346
_cell_angle_alpha 47.299513
_cell_angle_beta 127.263299
_cell_angle_gamma 136.610190
_cell_volume 735.456584
_symmetry_space_group_name_H-M "P -1"
_symmetry_group_IT_number 2
_symmetry_cell_setting 'triclinic'
loop_
_space_group_symop_operation_xyz
x,y,z
-x,-y,-z
loop_
_atom_site_type_symbol
_atom_site_label
_atom_site_fract_x
_atom_site_fract_y
_atom_site_fract_z
Si Si1 0.413970 0.334446 0.639532
Si Si2 0.850122 0.242267 0.171119
Si Si3 0.381418 0.314849 0.285574
Si Si4 0.157141 0.195326 0.416586
Si Si5 0.343752 0.744112 0.335117
Si Si6 0.040641 0.806078 0.199562
Si Si7 0.685095 0.250047 0.010660
Si Si8 0.099980 0.642694 0.116325
O O1 0.374832 0.242017 0.475029
O O2 0.516998 0.440766 0.739625
O O3 0.408695 0.630217 0.535176
O O4 0.357310 0.033296 0.802537
O O5 0.954396 0.456164 0.256796
O O6 0.814056 0.914293 0.354501
O O7 0.790506 0.375656 0.075413
O O8 0.836490 0.186504 0.012656
O O9 0.324520 0.467619 0.089737
O O10 0.341941 0.987423 0.314975
O O11 0.245509 0.433254 0.338243
O O12 0.108470 0.363823 0.318503
O O13 0.089952 0.908239 0.365044
O O14 0.368923 0.880597 0.146885
O O15 0.116069 0.855951 0.167636
O O16 0.000000 0.000000 0.000000
O O17 0.000000 0.500000 0.000000
#
# Coordination Sequence:
#
# PCOD8019927 Si02
#       8
#     2   2   2   2   2   2   2   2
#     4  10  22  44  69  96 132 166 217 268 322 394
#     4  11  23  43  63  93 128 171 217 266 314 381
#     4  10  24  42  68  99 128 172 213 268 328 382
#     4  12  23  43  63  93 130 167 218 261 321 379
#     4  11  23  41  65  96 134 167 213 271 323 381
#     4  11  22  43  67  89 127 169 209 267 320 370
#     4  11  22  43  65  96 134 168 217 267 320 388
#     4  10  22  42  63  87 124 163 210 268 313 374
#
# _framework density 21.755195000000001
#
# number of rings (size 3 to 8) (size 9 to 14) (size 15 to 20)
#    0.000    1.250    5.000    1.125    0.000    6.500 
#    2.250    0.000    0.000    0.000    0.000    0.000 
#    0.000    0.000    0.000    0.000    0.000    0.000 
#
# Total GULP energy -198345.222183 kJ/mol
# GULP energy per Si atom -12396.576386 kJ/mol
# Density = 2.170568 g / cm^3
# Si number density = 21.755195 Si / 1000 Ang^3
#
#
#
# Elastic Constant Matrix: (Units=GPa)
#
#
# Indices 1 2 3 4 5 6 
#
# 1 141.3820 41.7154 57.8440 -10.7523 6.2206 -25.3729
# 2 41.7154 88.5409 42.3435 -3.8144 -8.5532 -27.6914
# 3 57.8440 42.3435 135.1120 -20.5132 -1.4725 -20.1984
# 4 -10.7523 -3.8144 -20.5132 20.7112 -0.0936 6.8135
# 5 6.2206 -8.5532 -1.4725 -0.0936 38.9243 -7.9091
# 6 -25.3729 -27.6914 -20.1984 6.8135 -7.9091 43.7736
#
#
#
# Elastic Compliance Matrix: (Units=1/GPa)
#
#
# Indices 1 2 3 4 5 6 
#
# 1 0.009525 -0.002615 -0.002816 0.000977 -0.001776 0.002094
# 2 -0.002615 0.017757 -0.003643 -0.004932 0.006186 0.009921
# 3 -0.002816 -0.003643 0.011070 0.008899 0.000048 -0.000206
# 4 0.000977 -0.004932 0.008899 0.059357 -0.002411 -0.008122
# 5 -0.001776 0.006186 0.000048 -0.002411 0.029064 0.008533
# 6 0.002094 0.009921 -0.000206 -0.008122 0.008533 0.033046
#
#
# Mechanical properties :
#
#
# Convention : Reuss Voigt Hill
#
# Bulk Modulus (GPa) = 49.50089 72.09340 60.79714
# Shear Modulus (GPa) = 27.07061 35.55728 31.31394
#
# Velocity S-wave (km/s) = 3.53133 4.04719 3.79803
# Velocity P-wave (km/s) = 6.27934 7.41957 6.87314
#
# Compressibility (1/GPa) = 0.02020166
#
# Stress axis : x y z
#
# Youngs Moduli (GPa) = 104.98476 56.31613 90.33807
#
# Poissons Ratio (x) = 0.14729 0.25441
# Poissons Ratio (y) = 0.27457 0.32914
# Poissons Ratio (z) = 0.29566 0.20519
#
# Static dielectric constant tensor:
#      x y z
#    x 4.872100 0.059900 -0.016900 
#    y 0.059900 3.470760 -0.044750 
#    z -0.016900 -0.044750 4.010950 
# 
# 
# High freq. dielectric constant tensor:
#      x y z
#    x 1.876370 -0.009530 0.008240 
#    y -0.009530 1.826170 -0.006280 
#    z 0.008240 -0.006280 1.860710 
# 
# From -- ./inp_files/340155.got.cif
#   From: 2010.06.25/outbox.cif.g09.slc.cpg/sg2_171_cif.got.tgz:340155.got - 2010.06.27 13:26:56.
