data_PCOD8019727
_publ_section_title
;
Structure prediction by ZEFSAII (Michael W. Deem and Ramdas Pophale) SiO2 
 PCOD8019727
Probable space group: P -1
;
_chemical_formula_sum "Si O2"
_cell_formula_units_Z 16
_cell_length_a 13.181651
_cell_length_b 9.523973
_cell_length_c 9.841420
_cell_angle_alpha 61.923454
_cell_angle_beta 48.422146
_cell_angle_gamma 55.964184
_cell_volume 756.025151
_symmetry_space_group_name_H-M "P -1"
_symmetry_group_IT_number 2
_symmetry_cell_setting 'triclinic'
loop_
_space_group_symop_operation_xyz
x,y,z
-x,-y,-z
loop_
_atom_site_type_symbol
_atom_site_label
_atom_site_fract_x
_atom_site_fract_y
_atom_site_fract_z
Si Si1 0.937383 0.263323 0.210421
Si Si2 0.636978 0.659370 0.823843
Si Si3 0.023064 0.878245 0.321663
Si Si4 0.952562 0.735467 0.187858
Si Si5 0.632341 0.821633 0.470543
Si Si6 0.372318 0.506310 0.511803
Si Si7 0.914359 0.651494 0.719188
Si Si8 0.342321 0.682422 0.175421
O O1 0.783208 0.411515 0.313897
O O2 0.064438 0.291555 0.173356
O O3 0.930689 0.079145 0.336059
O O4 0.967851 0.277884 0.019470
O O5 0.658742 0.762338 0.629386
O O6 0.746967 0.670269 0.838877
O O7 0.672956 0.461106 0.846354
O O8 0.470544 0.744671 0.985469
O O9 0.189608 0.843253 0.232589
O O10 0.019183 0.834656 0.186513
O O11 0.957831 0.765629 0.520257
O O12 0.779459 0.842156 0.277741
O O13 0.977773 0.545962 0.309357
O O14 0.595966 0.688069 0.469698
O O15 0.500000 0.000000 0.500000
O O16 0.500000 0.500000 0.500000
O O17 0.377570 0.615800 0.326642
#
# Coordination Sequence:
#
# PCOD8019727 Si02
#       8
#     2   2   2   2   2   2   2   2
#     4  12  28  43  68 107 144 179 227 295 351 406
#     4  10  22  41  71 100 129 180 230 284 337 409
#     4  12  24  45  72  99 137 184 239 284 337 413
#     4  12  25  44  73 101 136 186 237 282 342 416
#     4  11  25  44  66 100 138 179 230 281 337 417
#     4  11  26  43  66  96 144 182 217 280 360 408
#     4  12  22  45  74 100 134 183 238 284 341 405
#     4  10  22  42  68 100 134 175 232 281 340 409
#
# _framework density 21.163315000000001
#
# number of rings (size 3 to 8) (size 9 to 14) (size 15 to 20)
#    0.000    0.750    5.000    2.250    5.250    1.000 
#    0.000    0.625    0.000    0.000    0.000    0.000 
#    0.000    0.000    0.000    0.000    0.000    0.000 
#
# Total GULP energy -198497.400736 kJ/mol
# GULP energy per Si atom -12406.087546 kJ/mol
# Density = 2.111515 g / cm^3
# Si number density = 21.163315 Si / 1000 Ang^3
#
#
#
# Elastic Constant Matrix: (Units=GPa)
#
#
# Indices 1 2 3 4 5 6 
#
# 1 169.8493 45.3449 42.0049 7.2683 6.9714 7.1456
# 2 45.3449 130.4984 23.2381 3.0661 0.2691 -8.2935
# 3 42.0049 23.2381 82.9524 13.2526 -10.6846 -3.9910
# 4 7.2683 3.0661 13.2526 20.9010 2.3433 2.8445
# 5 6.9714 0.2691 -10.6846 2.3433 32.0566 9.2020
# 6 7.1456 -8.2935 -3.9910 2.8445 9.2020 24.8401
#
#
#
# Elastic Compliance Matrix: (Units=1/GPa)
#
#
# Indices 1 2 3 4 5 6 
#
# 1 0.007563 -0.002150 -0.003743 0.000676 -0.002124 -0.002785
# 2 -0.002150 0.008897 -0.001354 -0.000089 -0.001144 0.003806
# 3 -0.003743 -0.001354 0.016920 -0.010251 0.006622 0.002064
# 4 0.000676 -0.000089 -0.010251 0.055607 -0.005889 -0.006057
# 5 -0.002124 -0.001144 0.006622 -0.005889 0.037754 -0.012019
# 6 -0.002785 0.003806 0.002064 -0.006057 -0.012019 0.047807
#
#
# Mechanical properties :
#
#
# Convention : Reuss Voigt Hill
#
# Bulk Modulus (GPa) = 52.94849 67.16399 60.05624
# Shear Modulus (GPa) = 25.59691 33.74035 29.66863
#
# Velocity S-wave (km/s) = 3.48155 3.99718 3.74824
# Velocity P-wave (km/s) = 6.42144 7.28754 6.86816
#
# Compressibility (1/GPa) = 0.01888628
#
# Stress axis : x y z
#
# Youngs Moduli (GPa) = 132.23037 112.39308 59.10307
#
# Poissons Ratio (x) = 0.24162 0.22121
# Poissons Ratio (y) = 0.28427 0.08003
# Poissons Ratio (z) = 0.49491 0.15218
#
# Static dielectric constant tensor:
#      x y z
#    x 4.075980 0.004150 0.030760 
#    y 0.004150 3.886460 0.042140 
#    z 0.030760 0.042140 3.787900 
# 
# 
# High freq. dielectric constant tensor:
#      x y z
#    x 1.843050 -0.000550 0.003630 
#    y -0.000550 1.823730 0.002230 
#    z 0.003630 0.002230 1.829770 
# 
# From -- ./inp_files/205394.got.cif
#   From: 2010.06.25/outbox.cif.g09.slc.cpg/sg2_103_cif.got.tgz:205394.got - 2010.06.27 13:26:56.
