data_PCOD8019322
_publ_section_title
;
Structure prediction by ZEFSAII (Michael W. Deem and Ramdas Pophale) SiO2 
 PCOD8019322
Probable space group: P -1
;
_chemical_formula_sum "Si O2"
_cell_formula_units_Z 14
_cell_length_a 9.558092
_cell_length_b 8.869911
_cell_length_c 8.472398
_cell_angle_alpha 83.667421
_cell_angle_beta 97.553566
_cell_angle_gamma 123.955887
_cell_volume 590.030055
_symmetry_space_group_name_H-M "P -1"
_symmetry_group_IT_number 2
_symmetry_cell_setting 'triclinic'
loop_
_space_group_symop_operation_xyz
x,y,z
-x,-y,-z
loop_
_atom_site_type_symbol
_atom_site_label
_atom_site_fract_x
_atom_site_fract_y
_atom_site_fract_z
Si Si1 0.654217 0.109105 0.124653
Si Si2 0.278232 0.311212 0.654662
Si Si3 0.346867 0.048963 0.546577
Si Si4 0.985057 0.321951 0.964837
Si Si5 0.518449 0.279667 0.271432
Si Si6 0.038620 0.685647 0.408659
Si Si7 0.687437 0.684523 0.994219
O O1 0.829531 0.161651 0.063351
O O2 0.658903 0.286934 0.173913
O O3 0.593981 0.961401 0.270886
O O4 0.500000 0.000000 0.000000
O O5 0.307238 0.205585 0.535164
O O6 0.419891 0.526690 0.665582
O O7 0.262119 0.221639 0.836071
O O8 0.111181 0.292134 0.571808
O O9 0.488838 0.133707 0.419723
O O10 0.198535 0.849179 0.500041
O O11 0.935775 0.298067 0.777024
O O12 0.000000 0.500000 0.000000
O O13 0.158659 0.335587 0.030474
O O14 0.340746 0.202262 0.156370
O O15 0.000000 0.500000 0.500000
O O16 0.500000 0.500000 0.000000
#
# Coordination Sequence:
#
# PCOD8019322 Si02
#       7
#     2   2   2   2   2   2   2
#     4  12  26  45  67  99 139 183 229 280 342 412
#     4  10  22  41  66  97 134 175 224 279 342 409
#     4  12  25  42  66  99 134 179 229 284 342 401
#     4  11  23  42  71 100 133 182 229 276 340 407
#     4  11  23  44  69  99 136 179 228 287 338 398
#     4  11  24  43  66  98 138 175 223 286 341 404
#     4   9  20  41  68 100 134 173 225 282 338 407
#
# _framework density 23.727606000000002
#
# number of rings (size 3 to 8) (size 9 to 14) (size 15 to 20)
#    0.000    1.143    0.000    7.286    0.000    5.714 
#    0.000    3.571    0.000    0.000    0.000    0.000 
#    0.000    0.000    0.000    0.000    0.000    0.000 
#
# Total GULP energy -173475.022561 kJ/mol
# GULP energy per Si atom -12391.073040 kJ/mol
# Density = 2.367360 g / cm^3
# Si number density = 23.727606 Si / 1000 Ang^3
#
#
#
# Elastic Constant Matrix: (Units=GPa)
#
#
# Indices 1 2 3 4 5 6 
#
# 1 145.9023 28.3439 49.1600 -1.4962 -9.9552 20.6011
# 2 28.3439 108.2869 43.2492 2.9570 -10.3799 6.5063
# 3 49.1600 43.2492 127.4063 -22.8574 7.0486 11.1342
# 4 -1.4962 2.9570 -22.8574 45.5366 -3.0624 -5.7962
# 5 -9.9552 -10.3799 7.0486 -3.0624 36.7794 6.6781
# 6 20.6011 6.5063 11.1342 -5.7962 6.6781 29.5730
#
#
#
# Elastic Compliance Matrix: (Units=1/GPa)
#
#
# Indices 1 2 3 4 5 6 
#
# 1 0.009242 -0.000173 -0.003535 -0.001996 0.004124 -0.006392
# 2 -0.000173 0.011703 -0.004482 -0.003023 0.004286 -0.002327
# 3 -0.003535 -0.004482 0.011955 0.006030 -0.004207 0.001079
# 4 -0.001996 -0.003023 0.006030 0.025680 -0.001341 0.005121
# 5 0.004124 0.004286 -0.004207 -0.001341 0.031974 -0.009715
# 6 -0.006392 -0.002327 0.001079 0.005121 -0.009715 0.041570
#
#
# Mechanical properties :
#
#
# Convention : Reuss Voigt Hill
#
# Bulk Modulus (GPa) = 60.53512 69.23353 64.88433
# Shear Modulus (GPa) = 32.46532 39.76731 36.11631
#
# Velocity S-wave (km/s) = 3.70300 4.09833 3.90567
# Velocity P-wave (km/s) = 6.62200 7.18588 6.90969
#
# Compressibility (1/GPa) = 0.01651934
#
# Stress axis : x y z
#
# Youngs Moduli (GPa) = 108.20101 85.44512 83.65031
#
# Poissons Ratio (x) = 0.01482 0.29569
# Poissons Ratio (y) = 0.01876 0.37493
# Poissons Ratio (z) = 0.38247 0.38297
#
# Static dielectric constant tensor:
#      x y z
#    x 4.805390 -0.241460 0.087210 
#    y -0.241460 4.022230 -0.030790 
#    z 0.087210 -0.030790 4.743360 
# 
# 
# High freq. dielectric constant tensor:
#      x y z
#    x 1.949320 -0.015230 0.000810 
#    y -0.015230 1.934610 -0.001250 
#    z 0.000810 -0.001250 1.958740 
# 
# From -- ./inp_files/158807.got.cif
#   From: 2010.06.25/outbox.cif.g09.slc.cpg/sg2_80_cif.got.tgz:158807.got - 2010.06.27 13:26:56.
