data_PCOD8019464
_publ_section_title
;
Structure prediction by ZEFSAII (Michael W. Deem and Ramdas Pophale) SiO2 
 PCOD8019464
Probable space group: P -1
;
_chemical_formula_sum "Si O2"
_cell_formula_units_Z 10
_cell_length_a 14.159635
_cell_length_b 9.688979
_cell_length_c 12.715950
_cell_angle_alpha 37.718550
_cell_angle_beta 30.710090
_cell_angle_gamma 58.817905
_cell_volume 465.704108
_symmetry_space_group_name_H-M "P -1"
_symmetry_group_IT_number 2
_symmetry_cell_setting 'triclinic'
loop_
_space_group_symop_operation_xyz
x,y,z
-x,-y,-z
loop_
_atom_site_type_symbol
_atom_site_label
_atom_site_fract_x
_atom_site_fract_y
_atom_site_fract_z
Si Si1 0.189782 0.683070 0.286025
Si Si2 0.659924 0.939782 0.589776
Si Si3 0.387343 0.722435 0.713740
Si Si4 0.073946 0.156865 0.441954
Si Si5 0.226090 0.256801 0.604310
O O1 0.197942 0.506988 0.479169
O O2 0.000000 0.500000 0.500000
O O3 0.136943 0.894127 0.260394
O O4 0.411598 0.822483 0.926983
O O5 0.798605 0.955642 0.548317
O O6 0.684792 0.762057 0.584692
O O7 0.730720 0.233708 0.299770
O O8 0.593502 0.689301 0.511924
O O9 0.500000 0.000000 0.500000
O O10 0.217030 0.471505 0.095685
O O11 0.000000 0.000000 0.500000
O O12 0.000000 0.000000 0.000000
#
# Coordination Sequence:
#
# PCOD8019464 Si02
#       5
#     2   2   2   2   2
#     4  12  21  39  72  97 129 178 223 276 337 385
#     4  11  23  42  67  97 139 171 226 280 325 400
#     4  10  22  41  67  99 131 170 225 277 325 396
#     4  12  27  46  66  99 141 182 219 272 342 400
#     4  11  20  37  68 103 133 166 225 284 332 386
#
# _framework density 21.472860000000001
#
# number of rings (size 3 to 8) (size 9 to 14) (size 15 to 20)
#    0.000    0.800    4.000    6.600    0.000    1.600 
#    0.000    1.000    0.000    0.000    0.000    0.000 
#    0.000    0.000    0.000    0.000    0.000    0.000 
#
# Total GULP energy -123920.208397 kJ/mol
# GULP energy per Si atom -12392.020840 kJ/mol
# Density = 2.142399 g / cm^3
# Si number density = 21.472860 Si / 1000 Ang^3
#
#
#
# Elastic Constant Matrix: (Units=GPa)
#
#
# Indices 1 2 3 4 5 6 
#
# 1 166.4158 60.5144 26.5209 -0.7397 13.3050 -33.8234
# 2 60.5144 94.3806 28.0821 25.0018 -8.0265 -6.4533
# 3 26.5209 28.0821 100.2667 20.5784 7.0421 -9.9339
# 4 -0.7397 25.0018 20.5784 41.2289 -14.1986 4.1236
# 5 13.3050 -8.0265 7.0421 -14.1986 30.8306 -6.0916
# 6 -33.8234 -6.4533 -9.9339 4.1236 -6.0916 48.8879
#
#
#
# Elastic Compliance Matrix: (Units=1/GPa)
#
#
# Indices 1 2 3 4 5 6 
#
# 1 0.009983 -0.006969 -0.000510 0.002883 -0.003654 0.005185
# 2 -0.006969 0.018148 -0.001878 -0.008713 0.003834 -0.001595
# 3 -0.000510 -0.001878 0.012836 -0.007652 -0.006357 0.001861
# 4 0.002883 -0.008713 -0.007652 0.039062 0.015823 -0.002034
# 5 -0.003654 0.003834 -0.006357 0.015823 0.043912 0.000823
# 6 0.005185 -0.001595 0.001861 -0.002034 0.000823 0.024484
#
#
# Mechanical properties :
#
#
# Convention : Reuss Voigt Hill
#
# Bulk Modulus (GPa) = 44.94112 65.69978 55.32045
# Shear Modulus (GPa) = 28.64385 40.58587 34.61486
#
# Velocity S-wave (km/s) = 3.65630 4.35225 4.01936
# Velocity P-wave (km/s) = 6.22892 7.47791 6.88181
#
# Compressibility (1/GPa) = 0.02225134
#
# Stress axis : x y z
#
# Youngs Moduli (GPa) = 100.16664 55.10308 77.90740
#
# Poissons Ratio (x) = 0.38403 0.03974
# Poissons Ratio (y) = 0.69809 0.14635
# Poissons Ratio (z) = 0.05109 0.10351
#
# Static dielectric constant tensor:
#      x y z
#    x 4.106930 -0.256090 0.674370 
#    y -0.256090 3.133040 -0.460850 
#    z 0.674370 -0.460850 3.586890 
# 
# 
# High freq. dielectric constant tensor:
#      x y z
#    x 1.846490 -0.054890 0.013030 
#    y -0.054890 1.820920 0.018550 
#    z 0.013030 0.018550 1.843360 
# 
# From -- ./inp_files/27431.got.cif
#   From: 2010.06.25/outbox.cif.g09.slc.cpg/sg2_14_cif.got.tgz:27431.got - 2010.06.27 13:26:56.
