data_PCOD8019362
_publ_section_title
;
Structure prediction by ZEFSAII (Michael W. Deem and Ramdas Pophale) SiO2 
 PCOD8019362
Probable space group: P -1
;
_chemical_formula_sum "Si O2"
_cell_formula_units_Z 14
_cell_length_a 14.655208
_cell_length_b 9.956904
_cell_length_c 14.072637
_cell_angle_alpha 44.684687
_cell_angle_beta 28.246934
_cell_angle_gamma 60.730653
_cell_volume 622.449695
_symmetry_space_group_name_H-M "P -1"
_symmetry_group_IT_number 2
_symmetry_cell_setting 'triclinic'
loop_
_space_group_symop_operation_xyz
x,y,z
-x,-y,-z
loop_
_atom_site_type_symbol
_atom_site_label
_atom_site_fract_x
_atom_site_fract_y
_atom_site_fract_z
Si Si1 0.693216 0.846897 0.620371
Si Si2 0.259839 0.517180 0.149382
Si Si3 0.443306 0.369044 0.877340
Si Si4 0.190424 0.953598 0.390657
Si Si5 0.698133 0.534785 0.235505
Si Si6 0.112205 0.762817 0.857926
Si Si7 0.910622 0.508032 0.351244
O O1 0.436058 0.737478 0.914579
O O2 0.786749 0.018063 0.531474
O O3 0.775558 0.981986 0.379896
O O4 0.777701 0.663421 0.646362
O O5 0.340820 0.457373 0.007599
O O6 0.039340 0.532323 0.319621
O O7 0.321225 0.355385 0.898635
O O8 0.691166 0.524268 0.567309
O O9 0.404854 0.129787 0.058553
O O10 0.154887 0.717787 0.523231
O O11 0.000000 0.000000 0.500000
O O12 0.500000 0.500000 0.500000
O O13 0.720098 0.320628 0.296555
O O14 0.902077 0.688745 0.026091
O O15 0.053168 0.691529 0.056731
#
# Coordination Sequence:
#
# PCOD8019362 Si02
#       7
#     2   2   2   2   2   2   2
#     4  10  22  41  67  86 119 170 199 251 308 360
#     4  10  23  45  61  85 127 161 207 249 302 365
#     4  11  22  38  62  91 125 161 202 250 308 359
#     4  11  19  39  66  91 119 156 204 254 306 352
#     4  11  21  37  59  95 129 155 200 257 307 360
#     4  11  22  38  62  90 124 158 205 249 311 357
#     4  12  22  39  64  92 122 160 203 254 305 365
#
# _framework density 22.491778
#
# number of rings (size 3 to 8) (size 9 to 14) (size 15 to 20)
#    0.000    1.143    5.714    3.000    0.000    0.571 
#    0.000    8.571    0.000    0.000    0.000    0.000 
#    0.000    0.000    0.000    0.000    0.000    0.000 
#
# Total GULP energy -173573.230777 kJ/mol
# GULP energy per Si atom -12398.087913 kJ/mol
# Density = 2.244059 g / cm^3
# Si number density = 22.491778 Si / 1000 Ang^3
#
#
#
# Elastic Constant Matrix: (Units=GPa)
#
#
# Indices 1 2 3 4 5 6 
#
# 1 78.5103 3.6420 17.9154 -9.8070 -9.8816 -23.0028
# 2 3.6420 29.2392 30.5179 3.1787 7.6471 -13.9841
# 3 17.9154 30.5179 116.6842 -15.9797 16.6658 -22.7549
# 4 -9.8070 3.1787 -15.9797 41.4464 -8.6668 -1.5216
# 5 -9.8816 7.6471 16.6658 -8.6668 43.6957 -3.1568
# 6 -23.0028 -13.9841 -22.7549 -1.5216 -3.1568 29.9738
#
#
#
# Elastic Compliance Matrix: (Units=1/GPa)
#
#
# Indices 1 2 3 4 5 6 
#
# 1 0.019285 0.004436 -0.000877 0.005836 0.006317 0.017165
# 2 0.004436 0.058603 -0.012547 -0.008518 -0.004691 0.020293
# 3 -0.000877 -0.012547 0.013848 0.005862 -0.001826 0.004091
# 4 0.005836 -0.008518 0.005862 0.030168 0.007081 0.007232
# 5 0.006317 -0.004691 -0.001826 0.007081 0.027563 0.004536
# 6 0.017165 0.020293 0.004091 0.007232 0.004536 0.059954
#
#
# Mechanical properties :
#
#
# Convention : Reuss Voigt Hill
#
# Bulk Modulus (GPa) = 13.55764 36.50937 25.03351
# Shear Modulus (GPa) = 19.84256 34.51373 27.17814
#
# Velocity S-wave (km/s) = 2.97343 3.92152 3.47992
# Velocity P-wave (km/s) = 4.22247 6.06399 5.22500
#
# Compressibility (1/GPa) = 0.07375915
#
# Stress axis : x y z
#
# Youngs Moduli (GPa) = 51.85429 17.06411 72.21316
#
# Poissons Ratio (x) = -0.07570 0.06331
# Poissons Ratio (y) = -0.23002 0.90608
# Poissons Ratio (z) = 0.04546 0.21411
#
# Static dielectric constant tensor:
#      x y z
#    x 4.462040 -0.277890 -0.002180 
#    y -0.277890 3.791620 -0.067520 
#    z -0.002180 -0.067520 4.424390 
# 
# 
# High freq. dielectric constant tensor:
#      x y z
#    x 1.900720 -0.016490 0.000480 
#    y -0.016490 1.849190 -0.005710 
#    z 0.000480 -0.005710 1.895950 
# 
# From -- ./inp_files/278121.got.cif
#   From: 2010.06.25/outbox.cif.g09.slc.cpg/sg2_140_cif.got.tgz:278121.got - 2010.06.27 13:26:56.
