data_PCOD8019599
_publ_section_title
;
Structure prediction by ZEFSAII (Michael W. Deem and Ramdas Pophale) SiO2 
 PCOD8019599
Probable space group: P -1
;
_chemical_formula_sum "Si O2"
_cell_formula_units_Z 16
_cell_length_a 5.198500
_cell_length_b 25.795343
_cell_length_c 16.110402
_cell_angle_alpha 17.111011
_cell_angle_beta 77.445327
_cell_angle_gamma 77.040239
_cell_volume 619.403703
_symmetry_space_group_name_H-M "P -1"
_symmetry_group_IT_number 2
_symmetry_cell_setting 'triclinic'
loop_
_space_group_symop_operation_xyz
x,y,z
-x,-y,-z
loop_
_atom_site_type_symbol
_atom_site_label
_atom_site_fract_x
_atom_site_fract_y
_atom_site_fract_z
Si Si1 0.983284 0.701587 0.479701
Si Si2 0.322572 0.565236 0.201455
Si Si3 0.528813 0.740270 0.767887
Si Si4 0.527404 0.682994 0.295556
Si Si5 0.090085 0.888263 0.465123
Si Si6 0.228974 0.588498 0.800589
Si Si7 0.345336 0.978108 0.959951
Si Si8 0.922306 0.285835 0.851411
O O1 0.178096 0.606732 0.677271
O O2 0.849709 0.556948 0.656013
O O3 0.767127 0.825439 0.358439
O O4 0.115836 0.839331 0.198348
O O5 0.533762 0.440626 0.431281
O O6 0.476870 0.702555 0.925992
O O7 0.131928 0.682410 0.096560
O O8 0.300915 0.881376 0.536503
O O9 0.821684 0.805475 0.640038
O O10 0.515930 0.554267 0.999556
O O11 0.335929 0.659379 0.268225
O O12 0.825145 0.612196 0.355672
O O13 0.523252 0.889069 0.009607
O O14 0.250864 0.781704 0.542765
O O15 0.015500 0.082877 0.141750
O O16 0.000000 0.500000 0.000000
O O17 0.500000 0.000000 0.000000
#
# Coordination Sequence:
#
# PCOD8019599 Si02
#       8
#     2   2   2   2   2   2   2   2
#     4  11  24  44  69 105 146 184 233 290 355 427
#     4  12  26  47  73 103 144 190 242 292 349 421
#     4  11  25  45  73 104 141 187 238 296 357 416
#     4  12  26  47  72 105 144 184 239 290 361 424
#     4  11  25  47  70 105 143 187 238 293 355 424
#     4  10  22  41  69 103 139 179 227 292 358 417
#     4  11  24  43  70 106 139 184 227 290 358 421
#     4  12  29  47  73 103 144 195 238 295 347 418
#
# _framework density 25.831294
#
# number of rings (size 3 to 8) (size 9 to 14) (size 15 to 20)
#    0.000    0.750    1.250    5.625    3.500    7.000 
#    0.000    0.000    0.000    0.000    0.000    0.000 
#    0.000    0.000    0.000    0.000    0.000    0.000 
#
# Total GULP energy -198415.252848 kJ/mol
# GULP energy per Si atom -12400.953303 kJ/mol
# Density = 2.577250 g / cm^3
# Si number density = 25.831294 Si / 1000 Ang^3
#
#
#
# Elastic Constant Matrix: (Units=GPa)
#
#
# Indices 1 2 3 4 5 6 
#
# 1 129.4741 26.4442 17.4657 4.4322 16.3752 1.8221
# 2 26.4442 106.3127 7.5332 1.1401 -11.5515 -1.2680
# 3 17.4657 7.5332 61.1945 7.1495 16.4742 12.5940
# 4 4.4322 1.1401 7.1495 42.4420 1.9499 4.5903
# 5 16.3752 -11.5515 16.4742 1.9499 37.1144 -2.5063
# 6 1.8221 -1.2680 12.5940 4.5903 -2.5063 29.9067
#
#
#
# Elastic Compliance Matrix: (Units=1/GPa)
#
#
# Indices 1 2 3 4 5 6 
#
# 1 0.008964 -0.002649 -0.000871 -0.000452 -0.004409 -0.000592
# 2 -0.002649 0.010918 -0.002623 -0.000087 0.005887 0.002235
# 3 -0.000871 -0.002623 0.022108 -0.001988 -0.010814 -0.009969
# 4 -0.000452 -0.000087 -0.001988 0.024279 -0.000417 -0.002901
# 5 -0.004409 0.005887 -0.010814 -0.000417 0.036094 0.008161
# 6 -0.000592 0.002235 -0.009969 -0.002901 0.008161 0.038895
#
#
# Mechanical properties :
#
#
# Convention : Reuss Voigt Hill
#
# Bulk Modulus (GPa) = 33.66458 44.42973 39.04715
# Shear Modulus (GPa) = 30.59145 38.26183 34.42664
#
# Velocity S-wave (km/s) = 3.44507 3.85284 3.65464
# Velocity P-wave (km/s) = 5.37452 6.08521 5.74087
#
# Compressibility (1/GPa) = 0.02970481
#
# Stress axis : x y z
#
# Youngs Moduli (GPa) = 111.56352 91.59004 45.23290
#
# Poissons Ratio (x) = 0.24264 0.03938
# Poissons Ratio (y) = 0.29555 0.11863
# Poissons Ratio (z) = 0.09713 0.24020
#
# Static dielectric constant tensor:
#      x y z
#    x 4.663560 -0.408570 0.210080 
#    y -0.408570 4.914080 -0.194880 
#    z 0.210080 -0.194880 4.871220 
# 
# 
# High freq. dielectric constant tensor:
#      x y z
#    x 2.032510 -0.018490 0.013410 
#    y -0.018490 2.040620 -0.010020 
#    z 0.013410 -0.010020 2.046390 
# 
# From -- ./inp_files/485897.got.cif
#   From: 2010.06.25/outbox.cif.g09.slc.cpg/sg2_243_cif.got.tgz:485897.got - 2010.06.27 13:26:56.
