data_PCOD8019810
_publ_section_title
;
Structure prediction by ZEFSAII (Michael W. Deem and Ramdas Pophale) SiO2 
 PCOD8019810
Probable space group: P -1
;
_chemical_formula_sum "Si O2"
_cell_formula_units_Z 16
_cell_length_a 17.064434
_cell_length_b 12.070546
_cell_length_c 7.861036
_cell_angle_alpha 53.177065
_cell_angle_beta 52.704111
_cell_angle_gamma 33.348012
_cell_volume 691.834686
_symmetry_space_group_name_H-M "P -1"
_symmetry_group_IT_number 2
_symmetry_cell_setting 'triclinic'
loop_
_space_group_symop_operation_xyz
x,y,z
-x,-y,-z
loop_
_atom_site_type_symbol
_atom_site_label
_atom_site_fract_x
_atom_site_fract_y
_atom_site_fract_z
Si Si1 0.564386 0.737463 0.727403
Si Si2 0.974004 0.639921 0.259952
Si Si3 0.096952 0.015319 0.776354
Si Si4 0.909101 0.201490 0.538085
Si Si5 0.706937 0.814726 0.258899
Si Si6 0.363647 0.537067 0.819140
Si Si7 0.587435 0.466774 0.754387
Si Si8 0.774609 0.538833 0.149663
O O1 0.658579 0.774370 0.523917
O O2 0.550219 0.670210 0.626268
O O3 0.406337 0.939102 0.829854
O O4 0.653433 0.548760 0.917550
O O5 0.889508 0.863645 0.235300
O O6 0.871943 0.691058 0.194063
O O7 0.000000 0.500000 0.500000
O O8 0.132135 0.513741 0.088995
O O9 0.008480 0.157941 0.596843
O O10 0.251824 0.782637 0.745583
O O11 0.000000 0.000000 0.000000
O O12 0.762706 0.269851 0.723962
O O13 0.878197 0.368926 0.314509
O O14 0.000000 0.000000 0.500000
O O15 0.696019 0.751511 0.146590
O O16 0.524008 0.447343 0.692695
O O17 0.339299 0.466409 0.749067
O O18 0.500000 0.500000 0.000000
#
# Coordination Sequence:
#
# PCOD8019810 Si02
#       8
#     2   2   2   2   2   2   2   2
#     4  10  22  44  70  95 139 191 240 302 354 440
#     4  12  26  46  73 104 144 195 250 291 359 456
#     4  12  23  43  74 106 143 190 242 296 368 429
#     4  12  24  44  68 109 150 184 230 310 378 421
#     4  11  24  43  67 100 140 192 243 290 374 423
#     4  11  23  42  69 105 139 183 246 297 362 430
#     4  10  22  41  73  99 137 187 238 294 359 436
#     4  12  25  43  69 103 148 187 235 315 366 420
#
# _framework density 23.126909999999999
#
# number of rings (size 3 to 8) (size 9 to 14) (size 15 to 20)
#    0.000    0.750    3.750    4.125    0.000    4.000 
#    0.000    0.000    0.000    0.000    0.000    0.000 
#    0.000    0.000    0.000    0.000    0.000    0.000 
#
# Total GULP energy -198311.406315 kJ/mol
# GULP energy per Si atom -12394.462895 kJ/mol
# Density = 2.307427 g / cm^3
# Si number density = 23.126910 Si / 1000 Ang^3
#
#
#
# Elastic Constant Matrix: (Units=GPa)
#
#
# Indices 1 2 3 4 5 6 
#
# 1 150.4032 59.7486 7.9606 -5.1871 -1.1298 15.6251
# 2 59.7486 142.8949 16.5926 6.0218 -2.7676 14.1704
# 3 7.9606 16.5926 64.4316 -12.8935 0.0859 -8.8599
# 4 -5.1871 6.0218 -12.8935 33.1140 -4.3393 -1.0349
# 5 -1.1298 -2.7676 0.0859 -4.3393 35.6468 2.5855
# 6 15.6251 14.1704 -8.8599 -1.0349 2.5855 43.0133
#
#
#
# Elastic Compliance Matrix: (Units=1/GPa)
#
#
# Indices 1 2 3 4 5 6 
#
# 1 0.008234 -0.003322 -0.000048 0.001864 0.000367 -0.001884
# 2 -0.003322 0.009129 -0.002959 -0.003361 0.000384 -0.002514
# 3 -0.000048 -0.002959 0.018567 0.007959 0.000331 0.004988
# 4 0.001864 -0.003361 0.007959 0.034785 0.003819 0.002677
# 5 0.000367 0.000384 0.000331 0.003819 0.028691 -0.001824
# 6 -0.001884 -0.002514 0.004988 0.002677 -0.001824 0.025963
#
#
# Mechanical properties :
#
#
# Convention : Reuss Voigt Hill
#
# Bulk Modulus (GPa) = 42.97293 58.48149 50.72721
# Shear Modulus (GPa) = 34.29727 40.58333 37.44030
#
# Velocity S-wave (km/s) = 3.85516 4.19359 4.02793
# Velocity P-wave (km/s) = 6.19984 6.98501 6.60410
#
# Compressibility (1/GPa) = 0.02327046
#
# Stress axis : x y z
#
# Youngs Moduli (GPa) = 121.45197 109.53928 53.86002
#
# Poissons Ratio (x) = 0.36387 0.00260
# Poissons Ratio (y) = 0.40344 0.15939
# Poissons Ratio (z) = 0.00587 0.32417
#
# Static dielectric constant tensor:
#      x y z
#    x 4.511480 0.156490 -0.041080 
#    y 0.156490 4.083500 -0.052600 
#    z -0.041080 -0.052600 4.137530 
# 
# 
# High freq. dielectric constant tensor:
#      x y z
#    x 1.928110 0.010100 -0.007350 
#    y 0.010100 1.912560 0.000100 
#    z -0.007350 0.000100 1.906660 
# 
# From -- ./inp_files/332839.got.cif
#   From: 2010.06.25/outbox.cif.g09.slc.cpg/sg2_167_cif.got.tgz:332839.got - 2010.06.27 13:26:56.
