data_PCOD8019022
_publ_section_title
;
Structure prediction by ZEFSAII (Michael W. Deem and Ramdas Pophale) SiO2 
 PCOD8019022
Probable space group: P -1
;
_chemical_formula_sum "Si O2"
_cell_formula_units_Z 14
_cell_length_a 17.179425
_cell_length_b 9.350604
_cell_length_c 14.070720
_cell_angle_alpha 127.748203
_cell_angle_beta 20.676633
_cell_angle_gamma 131.226403
_cell_volume 600.173420
_symmetry_space_group_name_H-M "P -1"
_symmetry_group_IT_number 2
_symmetry_cell_setting 'triclinic'
loop_
_space_group_symop_operation_xyz
x,y,z
-x,-y,-z
loop_
_atom_site_type_symbol
_atom_site_label
_atom_site_fract_x
_atom_site_fract_y
_atom_site_fract_z
Si Si1 0.263872 0.459913 0.944381
Si Si2 0.018384 0.037415 0.644945
Si Si3 0.592372 0.044716 0.255078
Si Si4 0.958383 0.703378 0.451704
Si Si5 0.928769 0.291522 0.111621
Si Si6 0.658768 0.720219 0.476326
Si Si7 0.609920 0.375540 0.638941
O O1 0.460013 0.545593 0.675885
O O2 0.359428 0.383797 0.897355
O O3 0.175557 0.631290 0.151254
O O4 0.066773 0.280276 0.048815
O O5 0.088727 0.165835 0.524264
O O6 0.226923 0.110449 0.511421
O O7 0.998545 0.819494 0.551828
O O8 0.771040 0.043576 0.966991
O O9 0.736475 0.104709 0.214145
O O10 0.448139 0.187557 0.450338
O O11 0.410007 0.837082 0.392668
O O12 0.722989 0.522608 0.653857
O O13 0.784641 0.432834 0.369139
O O14 0.135237 0.366367 0.828998
#
# Coordination Sequence:
#
# PCOD8019022 Si02
#       7
#     2   2   2   2   2   2   2
#     4  11  22  39  63  91 119 162 203 243 299 354
#     4  10  22  41  64  90 119 155 205 252 294 356
#     4  11  24  41  61  91 126 158 197 248 303 353
#     4  10  22  41  64  90 119 155 205 252 294 356
#     4  10  24  38  62  88 128 158 202 243 296 357
#     4  11  22  39  63  91 119 162 203 243 299 354
#     4  11  24  41  61  91 126 158 197 248 303 353
#
# _framework density 23.326589999999999
#
# number of rings (size 3 to 8) (size 9 to 14) (size 15 to 20)
#    0.000    1.429    2.857    1.714    0.000    9.143 
#    0.000    1.429    0.000    0.000    0.000    0.000 
#    0.000    0.000    0.000    0.000    0.000    0.000 
#
# Total GULP energy -173450.957822 kJ/mol
# GULP energy per Si atom -12389.354130 kJ/mol
# Density = 2.327350 g / cm^3
# Si number density = 23.326590 Si / 1000 Ang^3
#
#
#
# Elastic Constant Matrix: (Units=GPa)
#
#
# Indices 1 2 3 4 5 6 
#
# 1 84.4008 38.8337 24.4005 -3.9299 -19.4893 30.1981
# 2 38.8337 89.9454 14.6857 -5.5826 -11.6762 30.4593
# 3 24.4005 14.6857 75.4292 -0.7465 -17.4618 13.7613
# 4 -3.9299 -5.5826 -0.7465 26.5324 6.5947 -5.8430
# 5 -19.4893 -11.6762 -17.4618 6.5947 29.9525 3.9867
# 6 30.1981 30.4593 13.7613 -5.8430 3.9867 45.4264
#
#
#
# Elastic Compliance Matrix: (Units=1/GPa)
#
#
# Indices 1 2 3 4 5 6 
#
# 1 0.021874 -0.002628 -0.000212 -0.004545 0.016043 -0.014707
# 2 -0.002628 0.016403 0.001130 -0.000896 0.006913 -0.010316
# 3 -0.000212 0.001130 0.017252 -0.003983 0.012226 -0.007428
# 4 -0.004545 -0.000896 -0.003983 0.043510 -0.016792 0.011899
# 5 0.016043 0.006913 0.012226 -0.016792 0.060872 -0.026506
# 6 -0.014707 -0.010316 -0.007428 0.011899 -0.026506 0.044815
#
#
# Mechanical properties :
#
#
# Convention : Reuss Voigt Hill
#
# Bulk Modulus (GPa) = 19.19072 45.06835 32.12953
# Shear Modulus (GPa) = 22.17130 31.83931 27.00531
#
# Velocity S-wave (km/s) = 3.08632 3.69851 3.40620
# Velocity P-wave (km/s) = 4.57661 6.13198 5.41048
#
# Compressibility (1/GPa) = 0.05210853
#
# Stress axis : x y z
#
# Youngs Moduli (GPa) = 45.71670 60.96302 57.96381
#
# Poissons Ratio (x) = 0.16024 0.01230
# Poissons Ratio (y) = 0.12017 -0.06551
# Poissons Ratio (z) = 0.00970 -0.06890
#
# Static dielectric constant tensor:
#      x y z
#    x 4.235970 0.494600 -0.096810 
#    y 0.494600 3.984830 0.022360 
#    z -0.096810 0.022360 4.394290 
# 
# 
# High freq. dielectric constant tensor:
#      x y z
#    x 1.914010 0.033540 -0.013590 
#    y 0.033540 1.904970 -0.001310 
#    z -0.013590 -0.001310 1.931500 
# 
# From -- ./inp_files/55457.got.cif
#   From: 2010.06.25/outbox.cif.g09.slc.cpg/sg2_28_cif.got.tgz:55457.got - 2010.06.27 13:26:56.
