data_PCOD8019131
_publ_section_title
;
Structure prediction by ZEFSAII (Michael W. Deem and Ramdas Pophale) SiO2 
 PCOD8019131
Probable space group: P -1
;
_chemical_formula_sum "Si O2"
_cell_formula_units_Z 16
_cell_length_a 9.384523
_cell_length_b 14.791908
_cell_length_c 12.268281
_cell_angle_alpha 104.381293
_cell_angle_beta 102.915065
_cell_angle_gamma 27.648910
_cell_volume 765.503665
_symmetry_space_group_name_H-M "P -1"
_symmetry_group_IT_number 2
_symmetry_cell_setting 'triclinic'
loop_
_space_group_symop_operation_xyz
x,y,z
-x,-y,-z
loop_
_atom_site_type_symbol
_atom_site_label
_atom_site_fract_x
_atom_site_fract_y
_atom_site_fract_z
Si Si1 0.305717 0.138435 0.313545
Si Si2 0.235168 0.796873 0.545079
Si Si3 0.841271 0.367160 0.118156
Si Si4 0.924487 0.701727 0.273738
Si Si5 0.844718 0.290227 0.862141
Si Si6 0.377737 0.873749 0.751829
Si Si7 0.849629 0.364475 0.483570
Si Si8 0.948474 0.554420 0.884497
O O1 0.460858 0.149585 0.315084
O O2 0.100264 0.206870 0.204753
O O3 0.109825 0.267234 0.427006
O O4 0.575943 0.914575 0.312827
O O5 0.361817 0.780863 0.667426
O O6 0.518862 0.595197 0.459546
O O7 0.090207 0.781453 0.561352
O O8 0.000000 0.000000 0.500000
O O9 0.515344 0.524505 0.163426
O O10 0.847339 0.470273 0.111982
O O11 0.911179 0.263748 0.994349
O O12 0.034978 0.686826 0.175176
O O13 0.137138 0.617100 0.381933
O O14 0.936879 0.584811 0.224989
O O15 0.032707 0.096641 0.790713
O O16 0.581613 0.767620 0.864818
O O17 0.000000 0.500000 0.000000
#
# Coordination Sequence:
#
# PCOD8019131 Si02
#       8
#     2   2   2   2   2   2   2   2
#     4  10  24  40  65  93 130 168 219 261 326 379
#     4  11  24  42  67  97 130 175 216 267 331 379
#     4  10  23  40  61  96 122 172 207 267 319 388
#     4  11  22  42  66  90 126 170 213 266 319 385
#     4  10  22  41  65  87 130 163 217 259 327 381
#     4  10  23  42  65  94 125 173 214 266 323 389
#     4  11  25  44  66  97 134 173 217 270 323 388
#     4  11  22  40  63  93 127 163 215 267 320 382
#
# _framework density 20.901271999999999
#
# number of rings (size 3 to 8) (size 9 to 14) (size 15 to 20)
#    0.000    1.500    2.500    1.875    7.000    3.000 
#    2.250    0.625    0.000    0.000    0.000    0.000 
#    0.000    0.000    0.000    0.000    0.000    0.000 
#
# Total GULP energy -198299.538194 kJ/mol
# GULP energy per Si atom -12393.721137 kJ/mol
# Density = 2.085370 g / cm^3
# Si number density = 20.901272 Si / 1000 Ang^3
#
#
#
# Elastic Constant Matrix: (Units=GPa)
#
#
# Indices 1 2 3 4 5 6 
#
# 1 70.0667 42.1520 37.2001 15.3743 9.7010 -0.3487
# 2 42.1520 119.7790 21.6872 10.6846 -8.2789 0.0093
# 3 37.2001 21.6872 74.4902 9.5392 3.0324 -9.6920
# 4 15.3743 10.6846 9.5392 32.2519 0.6468 -0.4141
# 5 9.7010 -8.2789 3.0324 0.6468 39.4848 7.7028
# 6 -0.3487 0.0093 -9.6920 -0.4141 7.7028 33.0427
#
#
#
# Elastic Compliance Matrix: (Units=1/GPa)
#
#
# Indices 1 2 3 4 5 6 
#
# 1 0.026583 -0.007376 -0.010081 -0.007122 -0.006964 -0.001140
# 2 -0.007376 0.011254 0.000135 -0.000354 0.004375 -0.001066
# 3 -0.010081 0.000135 0.019252 -0.000862 -0.000040 0.005539
# 4 -0.007122 -0.000354 -0.000862 0.034746 0.001206 -0.000174
# 5 -0.006964 0.004375 -0.000040 0.001206 0.029284 -0.006898
# 6 -0.001140 -0.001066 0.005539 -0.000174 -0.006898 0.033483
#
#
# Mechanical properties :
#
#
# Convention : Reuss Voigt Hill
#
# Bulk Modulus (GPa) = 44.54982 51.82383 48.18682
# Shear Modulus (GPa) = 25.41619 31.84231 28.62925
#
# Velocity S-wave (km/s) = 3.49092 3.90739 3.70501
# Velocity P-wave (km/s) = 6.13265 6.72349 6.43485
#
# Compressibility (1/GPa) = 0.02244678
#
# Stress axis : x y z
#
# Youngs Moduli (GPa) = 37.61864 88.85886 51.94246
#
# Poissons Ratio (x) = 0.65539 0.52362
# Poissons Ratio (y) = 0.27746 -0.00704
# Poissons Ratio (z) = 0.37922 -0.01204
#
# Static dielectric constant tensor:
#      x y z
#    x 3.770030 -0.046090 0.069450 
#    y -0.046090 4.143450 -0.018980 
#    z 0.069450 -0.018980 3.762040 
# 
# 
# High freq. dielectric constant tensor:
#      x y z
#    x 1.810590 -0.004070 0.011000 
#    y -0.004070 1.827880 -0.003580 
#    z 0.011000 -0.003580 1.822390 
# 
# From -- ./inp_files/222989.got.cif
#   From: 2010.06.25/outbox.cif.g09.slc.cpg/sg2_112_cif.got.tgz:222989.got - 2010.06.27 13:26:56.
