data_PCOD8019866
_publ_section_title
;
Structure prediction by ZEFSAII (Michael W. Deem and Ramdas Pophale) SiO2 
 PCOD8019866
Probable space group: P -1
;
_chemical_formula_sum "Si O2"
_cell_formula_units_Z 16
_cell_length_a 10.735612
_cell_length_b 14.684358
_cell_length_c 7.855804
_cell_angle_alpha 94.634352
_cell_angle_beta 112.642718
_cell_angle_gamma 131.666695
_cell_volume 745.067446
_symmetry_space_group_name_H-M "P -1"
_symmetry_group_IT_number 2
_symmetry_cell_setting 'triclinic'
loop_
_space_group_symop_operation_xyz
x,y,z
-x,-y,-z
loop_
_atom_site_type_symbol
_atom_site_label
_atom_site_fract_x
_atom_site_fract_y
_atom_site_fract_z
Si Si1 0.019152 0.280611 0.761961
Si Si2 0.280846 0.720129 0.875183
Si Si3 0.358533 0.828493 0.281292
Si Si4 0.822020 0.826205 0.067550
Si Si5 0.345119 0.552794 0.817626
Si Si6 0.039625 0.308931 0.406086
Si Si7 0.966444 0.089963 0.136913
Si Si8 0.544873 0.928918 0.738623
O O1 0.250046 0.445009 0.909519
O O2 0.874872 0.256315 0.818735
O O3 0.920175 0.244573 0.516156
O O4 0.036776 0.181407 0.784405
O O5 0.232378 0.593505 0.769261
O O6 0.076512 0.678066 0.771954
O O7 0.439612 0.847022 0.847038
O O8 0.364623 0.758688 0.119828
O O9 0.458737 0.835381 0.506502
O O10 0.490649 0.982057 0.304251
O O11 0.588013 0.689129 0.980974
O O12 0.840609 0.836659 0.872978
O O13 0.898257 0.965595 0.192398
O O14 0.273303 0.465399 0.590706
O O15 0.043544 0.209950 0.316794
O O16 0.784232 0.028510 0.905655
#
# Coordination Sequence:
#
# PCOD8019866 Si02
#       8
#     2   2   2   2   2   2   2   2
#     4  10  22  42  61  91 132 169 215 267 313 383
#     4  12  21  41  68  97 131 172 212 264 329 384
#     4  11  23  37  68  99 132 169 208 271 329 384
#     4  11  22  43  64  89 127 172 224 264 314 383
#     4  10  24  40  66  90 131 176 211 268 316 389
#     4  10  23  40  64  95 129 167 209 268 330 373
#     4  11  23  40  68  93 125 171 213 275 322 376
#     4  11  21  39  62 101 130 163 212 271 323 380
#
# _framework density 21.474565999999999
#
# number of rings (size 3 to 8) (size 9 to 14) (size 15 to 20)
#    0.750    0.500    5.000    1.125    0.000    1.500 
#    0.000    3.750    0.000    0.000    0.000    0.000 
#    0.000    0.000    0.000    0.000    0.000    0.000 
#
# Total GULP energy -198241.712070 kJ/mol
# GULP energy per Si atom -12390.107004 kJ/mol
# Density = 2.142569 g / cm^3
# Si number density = 21.474566 Si / 1000 Ang^3
#
#
#
# Elastic Constant Matrix: (Units=GPa)
#
#
# Indices 1 2 3 4 5 6 
#
# 1 60.3620 27.4374 29.0790 7.6909 -20.5010 -14.5304
# 2 27.4374 72.1793 26.0272 8.6708 -11.0554 -14.0163
# 3 29.0790 26.0272 95.6916 2.6877 -24.1760 -2.4487
# 4 7.6909 8.6708 2.6877 31.7339 -3.6838 -6.7273
# 5 -20.5010 -11.0554 -24.1760 -3.6838 28.3966 1.4203
# 6 -14.5304 -14.0163 -2.4487 -6.7273 1.4203 31.9662
#
#
#
# Elastic Compliance Matrix: (Units=1/GPa)
#
#
# Indices 1 2 3 4 5 6 
#
# 1 0.027835 -0.005281 -0.002997 -0.001384 0.014850 0.009156
# 2 -0.005281 0.018235 -0.003151 -0.002403 0.000050 0.004846
# 3 -0.002997 -0.003151 0.014451 0.001037 0.009139 -0.001825
# 4 -0.001384 -0.002403 0.001037 0.033918 0.003078 0.005398
# 5 0.014850 0.000050 0.009139 0.003078 0.053849 0.005727
# 6 0.009156 0.004846 -0.001825 0.005398 0.005727 0.038312
#
#
# Mechanical properties :
#
#
# Convention : Reuss Voigt Hill
#
# Bulk Modulus (GPa) = 26.55121 43.70223 35.12672
# Shear Modulus (GPa) = 22.52115 28.13196 25.32656
#
# Velocity S-wave (km/s) = 3.24193 3.62334 3.43793
# Velocity P-wave (km/s) = 5.13852 6.15627 5.67027
#
# Compressibility (1/GPa) = 0.03766307
#
# Stress axis : x y z
#
# Youngs Moduli (GPa) = 35.92552 54.83839 69.19944
#
# Poissons Ratio (x) = 0.28962 0.20740
# Poissons Ratio (y) = 0.18974 0.21804
# Poissons Ratio (z) = 0.10767 0.17279
#
# Static dielectric constant tensor:
#      x y z
#    x 3.716560 -0.071150 -0.031750 
#    y -0.071150 3.990910 -0.023290 
#    z -0.031750 -0.023290 3.671430 
# 
# 
# High freq. dielectric constant tensor:
#      x y z
#    x 1.831760 0.000320 -0.002580 
#    y 0.000320 1.849260 -0.000180 
#    z -0.002580 -0.000180 1.819040 
# 
# From -- ./inp_files/268128.got.cif
#   From: 2010.06.25/outbox.cif.g09.slc.cpg/sg2_135_cif.got.tgz:268128.got - 2010.06.27 13:26:56.
