data_PCOD8019154
_publ_section_title
;
Structure prediction by ZEFSAII (Michael W. Deem and Ramdas Pophale) SiO2 
 PCOD8019154
Probable space group: P -1
;
_chemical_formula_sum "Si O2"
_cell_formula_units_Z 16
_cell_length_a 7.500511
_cell_length_b 10.972519
_cell_length_c 13.330917
_cell_angle_alpha 136.159449
_cell_angle_beta 72.796164
_cell_angle_gamma 122.417441
_cell_volume 633.708427
_symmetry_space_group_name_H-M "P -1"
_symmetry_group_IT_number 2
_symmetry_cell_setting 'triclinic'
loop_
_space_group_symop_operation_xyz
x,y,z
-x,-y,-z
loop_
_atom_site_type_symbol
_atom_site_label
_atom_site_fract_x
_atom_site_fract_y
_atom_site_fract_z
Si Si1 0.128698 0.081486 0.129790
Si Si2 0.372926 0.313527 0.540216
Si Si3 0.608583 0.321565 0.153340
Si Si4 0.318833 0.919840 0.398231
Si Si5 0.188593 0.323279 0.012204
Si Si6 0.826394 0.572981 0.543753
Si Si7 0.384376 0.698339 0.079231
Si Si8 0.967385 0.493795 0.703136
O O1 0.377100 0.141571 0.116995
O O2 0.087585 0.259239 0.283543
O O3 0.000000 0.000000 0.000000
O O4 0.021327 0.886536 0.104737
O O5 0.398787 0.469009 0.716903
O O6 0.263073 0.093484 0.479065
O O7 0.610253 0.372825 0.494519
O O8 0.230075 0.325490 0.481004
O O9 0.790442 0.341009 0.210950
O O10 0.681704 0.278960 0.008374
O O11 0.500000 0.000000 0.500000
O O12 0.405840 0.870201 0.252779
O O13 0.109839 0.723371 0.359340
O O14 0.206277 0.479780 0.017902
O O15 0.181567 0.414646 0.179054
O O16 0.387906 0.287940 0.961697
O O17 0.018328 0.531437 0.436910
#
# Coordination Sequence:
#
# PCOD8019154 Si02
#       8
#     2   2   2   2   2   2   2   2
#     4  11  22  38  66  96 124 169 219 262 323 389
#     4   9  21  42  65  93 130 172 212 266 327 387
#     4  10  22  41  65  91 130 165 216 266 323 388
#     4  11  26  40  66 101 130 166 226 268 323 396
#     4  10  23  40  61  90 126 169 215 260 328 380
#     4   9  21  41  65  93 131 170 212 266 328 384
#     4  10  23  41  63  89 128 170 211 267 332 375
#     4  10  24  42  62  97 129 170 218 269 326 382
#
# _framework density 25.248203
#
# number of rings (size 3 to 8) (size 9 to 14) (size 15 to 20)
#    0.000    2.000    1.250    0.750    7.000    7.500 
#    0.000    1.250    0.000    0.000    0.000    0.000 
#    0.000    0.000    0.000    0.000    0.000    0.000 
#
# Total GULP energy -198365.634794 kJ/mol
# GULP energy per Si atom -12397.852175 kJ/mol
# Density = 2.519074 g / cm^3
# Si number density = 25.248203 Si / 1000 Ang^3
#
#
#
# Elastic Constant Matrix: (Units=GPa)
#
#
# Indices 1 2 3 4 5 6 
#
# 1 62.1984 20.4980 25.7784 -2.9599 9.5624 17.1736
# 2 20.4980 120.3781 68.6270 -4.3711 1.5156 18.6218
# 3 25.7784 68.6270 137.1834 -20.0157 7.6182 13.0872
# 4 -2.9599 -4.3711 -20.0157 59.8738 4.9041 0.3889
# 5 9.5624 1.5156 7.6182 4.9041 39.5186 -0.5283
# 6 17.1736 18.6218 13.0872 0.3889 -0.5283 35.8866
#
#
#
# Elastic Compliance Matrix: (Units=1/GPa)
#
#
# Indices 1 2 3 4 5 6 
#
# 1 0.020397 -0.000759 -0.002281 0.000628 -0.004660 -0.008610
# 2 -0.000759 0.012332 -0.005878 -0.001154 0.000935 -0.003866
# 3 -0.002281 -0.005878 0.011253 0.003368 -0.001810 -0.000025
# 4 0.000628 -0.001154 0.003368 0.018029 -0.003010 -0.001170
# 5 -0.004660 0.000935 -0.001810 -0.003010 0.027157 0.002837
# 6 -0.008610 -0.003866 -0.000025 -0.001170 0.002837 0.034056
#
#
# Mechanical properties :
#
#
# Convention : Reuss Voigt Hill
#
# Bulk Modulus (GPa) = 38.24808 61.06298 49.65553
# Shear Modulus (GPa) = 33.38354 40.71291 37.04822
#
# Velocity S-wave (km/s) = 3.64017 4.01996 3.83477
# Velocity P-wave (km/s) = 5.73145 6.76641 6.27032
#
# Compressibility (1/GPa) = 0.02614511
#
# Stress axis : x y z
#
# Youngs Moduli (GPa) = 49.02697 81.09168 88.86512
#
# Poissons Ratio (x) = 0.06157 0.20272
# Poissons Ratio (y) = 0.03722 0.52233
# Poissons Ratio (z) = 0.11184 0.47664
#
# Static dielectric constant tensor:
#      x y z
#    x 4.405910 0.065830 -0.119820 
#    y 0.065830 5.233730 -0.140920 
#    z -0.119820 -0.140920 5.072270 
# 
# 
# High freq. dielectric constant tensor:
#      x y z
#    x 2.006310 0.002750 -0.006250 
#    y 0.002750 2.020220 -0.009110 
#    z -0.006250 -0.009110 2.018450 
# 
# From -- ./inp_files/500974.got.cif
#   From: 2010.06.25/outbox.cif.g09.slc.cpg/sg2_251_cif.got.tgz:500974.got - 2010.06.27 13:26:56.
