data_PCOD8019873
_publ_section_title
;
Structure prediction by ZEFSAII (Michael W. Deem and Ramdas Pophale) SiO2 
 PCOD8019873
Probable space group: P -1
;
_chemical_formula_sum "Si O2"
_cell_formula_units_Z 16
_cell_length_a 16.322193
_cell_length_b 15.234279
_cell_length_c 12.919640
_cell_angle_alpha 122.340522
_cell_angle_beta 38.323424
_cell_angle_gamma 151.785941
_cell_volume 796.658335
_symmetry_space_group_name_H-M "P -1"
_symmetry_group_IT_number 2
_symmetry_cell_setting 'triclinic'
loop_
_space_group_symop_operation_xyz
x,y,z
-x,-y,-z
loop_
_atom_site_type_symbol
_atom_site_label
_atom_site_fract_x
_atom_site_fract_y
_atom_site_fract_z
Si Si1 0.839213 0.924304 0.314425
Si Si2 0.534423 0.645936 0.078518
Si Si3 0.615274 0.989024 0.564414
Si Si4 0.950327 0.556901 0.663358
Si Si5 0.488668 0.895631 0.870209
Si Si6 0.351752 0.520421 0.407546
Si Si7 0.953620 0.482009 0.242966
Si Si8 0.932712 0.047009 0.524643
O O1 0.788183 0.005468 0.375773
O O2 0.601902 0.685793 0.348559
O O3 0.810326 0.908658 0.456082
O O4 0.147781 0.097729 0.091822
O O5 0.475328 0.637000 0.248506
O O6 0.327994 0.568549 0.160989
O O7 0.500000 0.500000 0.000000
O O8 0.598131 0.999358 0.711625
O O9 0.302700 0.765662 0.693574
O O10 0.770233 0.182642 0.466037
O O11 0.918004 0.485167 0.763390
O O12 0.000000 0.500000 0.500000
O O13 0.691102 0.949346 0.752279
O O14 0.174303 0.633338 0.024602
O O15 0.500000 0.000000 0.000000
O O16 0.129000 0.454938 0.616345
O O17 0.207591 0.308479 0.402552
O O18 0.000000 0.000000 0.500000
#
# Coordination Sequence:
#
# PCOD8019873 Si02
#       8
#     2   2   2   2   2   2   2   2
#     4  10  23  41  67  91 125 171 211 254 315 382
#     4  12  21  40  67  91 127 167 210 253 318 381
#     4  10  22  42  61  94 129 163 210 264 314 373
#     4  12  23  39  64  95 128 164 209 263 320 368
#     4  11  21  40  67  90 120 169 215 248 319 385
#     4  11  22  43  65  93 127 168 210 258 320 376
#     4  11  23  39  65  94 128 165 211 265 313 375
#     4  11  24  42  64  92 129 166 209 263 314 371
#
# _framework density 20.083891000000001
#
# number of rings (size 3 to 8) (size 9 to 14) (size 15 to 20)
#    0.000    1.000    5.000    2.625    1.750    0.500 
#    0.000    1.250    0.000    0.000    0.000    0.000 
#    0.000    0.000    0.000    0.000    0.000    0.000 
#
# Total GULP energy -198352.032614 kJ/mol
# GULP energy per Si atom -12397.002038 kJ/mol
# Density = 2.003818 g / cm^3
# Si number density = 20.083891 Si / 1000 Ang^3
#
#
#
# Elastic Constant Matrix: (Units=GPa)
#
#
# Indices 1 2 3 4 5 6 
#
# 1 102.3347 34.7790 27.0682 -7.0462 -17.4998 6.4130
# 2 34.7790 76.9520 19.7249 -11.8283 -6.3164 17.7199
# 3 27.0682 19.7249 111.5524 -16.6048 -13.3723 2.9509
# 4 -7.0462 -11.8283 -16.6048 34.6746 2.1222 0.4818
# 5 -17.4998 -6.3164 -13.3723 2.1222 33.0248 -3.1831
# 6 6.4130 17.7199 2.9509 0.4818 -3.1831 30.2737
#
#
#
# Elastic Compliance Matrix: (Units=1/GPa)
#
#
# Indices 1 2 3 4 5 6 
#
# 1 0.012785 -0.005222 -0.001623 -0.000296 0.005240 0.001062
# 2 -0.005222 0.018595 -0.001139 0.004931 -0.000938 -0.009844
# 3 -0.001623 -0.001139 0.010522 0.004137 0.002939 0.000228
# 4 -0.000296 0.004931 0.004137 0.032494 0.000013 -0.003742
# 5 0.005240 -0.000938 0.002939 0.000013 0.034333 0.002762
# 6 0.001062 -0.009844 0.000228 -0.003742 0.002762 0.038897
#
#
# Mechanical properties :
#
#
# Convention : Reuss Voigt Hill
#
# Bulk Modulus (GPa) = 38.55989 50.44257 44.50123
# Shear Modulus (GPa) = 29.02961 33.54575 31.28768
#
# Velocity S-wave (km/s) = 3.80599 4.09134 3.95124
# Velocity P-wave (km/s) = 6.20928 6.89124 6.55913
#
# Compressibility (1/GPa) = 0.02593368
#
# Stress axis : x y z
#
# Youngs Moduli (GPa) = 78.21602 53.77787 95.04221
#
# Poissons Ratio (x) = 0.28084 0.15424
# Poissons Ratio (y) = 0.40847 0.10824
# Poissons Ratio (z) = 0.12694 0.06124
#
# Static dielectric constant tensor:
#      x y z
#    x 3.837310 0.174670 0.121570 
#    y 0.174670 3.768170 -0.124570 
#    z 0.121570 -0.124570 3.796440 
# 
# 
# High freq. dielectric constant tensor:
#      x y z
#    x 1.774050 0.011090 -0.004760 
#    y 0.011090 1.787670 -0.005610 
#    z -0.004760 -0.005610 1.796960 
# 
# From -- ./inp_files/216740.got.cif
#   From: 2010.06.25/outbox.cif.g09.slc.cpg/sg2_109_cif.got.tgz:216740.got - 2010.06.27 13:26:56.
