data_PCOD8019574
_publ_section_title
;
Structure prediction by ZEFSAII (Michael W. Deem and Ramdas Pophale) SiO2 
 PCOD8019574
Probable space group: P -1
;
_chemical_formula_sum "Si O2"
_cell_formula_units_Z 16
_cell_length_a 8.719988
_cell_length_b 8.006523
_cell_length_c 16.081702
_cell_angle_alpha 128.718926
_cell_angle_beta 129.777480
_cell_angle_gamma 55.904275
_cell_volume 648.720281
_symmetry_space_group_name_H-M "P -1"
_symmetry_group_IT_number 2
_symmetry_cell_setting 'triclinic'
loop_
_space_group_symop_operation_xyz
x,y,z
-x,-y,-z
loop_
_atom_site_type_symbol
_atom_site_label
_atom_site_fract_x
_atom_site_fract_y
_atom_site_fract_z
Si Si1 0.358931 0.413761 0.487087
Si Si2 0.031103 0.135894 0.940940
Si Si3 0.164680 0.398841 0.930011
Si Si4 0.676296 0.002036 0.229256
Si Si5 0.391996 0.772720 0.892000
Si Si6 0.985231 0.187459 0.485592
Si Si7 0.638842 0.624837 0.337303
Si Si8 0.637511 0.001578 0.737351
O O1 0.500000 0.500000 0.500000
O O2 0.130484 0.572690 0.444527
O O3 0.436805 0.425541 0.612878
O O4 0.347401 0.169530 0.385412
O O5 0.860558 0.999948 0.849974
O O6 0.027437 0.266778 0.893437
O O7 0.969651 0.343917 0.050783
O O8 0.246916 0.938623 0.961902
O O9 0.214980 0.266024 0.818227
O O10 0.389253 0.375177 0.043364
O O11 0.504680 0.058395 0.258477
O O12 0.571040 0.069427 0.122656
O O13 0.854370 0.128919 0.345146
O O14 0.274590 0.603242 0.755978
O O15 0.206441 0.218026 0.545975
O O16 0.000000 0.000000 0.500000
O O17 0.448028 0.759089 0.258452
#
# Coordination Sequence:
#
# PCOD8019574 Si02
#       8
#     2   2   2   2   2   2   2   2
#     4  12  24  44  64 101 139 174 231 287 341 415
#     4  10  22  41  68  99 132 170 236 282 338 409
#     4  10  23  45  72  97 133 183 234 286 348 404
#     4  11  23  43  69  94 143 182 222 291 348 400
#     4  11  22  47  72  98 133 183 236 285 350 410
#     4  12  24  43  64  99 138 183 230 274 349 417
#     4  12  24  42  71  96 137 191 222 283 355 411
#     4  12  24  43  64 105 139 177 231 285 343 415
#
# _framework density 24.663943
#
# number of rings (size 3 to 8) (size 9 to 14) (size 15 to 20)
#    0.000    0.750    5.000    3.000    3.500    0.500 
#    0.000    5.000    0.000    0.000    0.000    0.000 
#    0.000    0.000    0.000    0.000    0.000    0.000 
#
# Total GULP energy -198235.074967 kJ/mol
# GULP energy per Si atom -12389.692185 kJ/mol
# Density = 2.460781 g / cm^3
# Si number density = 24.663943 Si / 1000 Ang^3
#
#
#
# Elastic Constant Matrix: (Units=GPa)
#
#
# Indices 1 2 3 4 5 6 
#
# 1 95.5839 34.2473 43.6525 4.7060 7.0409 -11.1592
# 2 34.2473 104.8786 14.3550 20.3500 -15.3977 -19.7018
# 3 43.6525 14.3550 82.5007 37.2384 10.6088 -20.4892
# 4 4.7060 20.3500 37.2384 44.2113 -4.8936 -11.8015
# 5 7.0409 -15.3977 10.6088 -4.8936 38.0633 11.3518
# 6 -11.1592 -19.7018 -20.4892 -11.8015 11.3518 40.7683
#
#
#
# Elastic Compliance Matrix: (Units=1/GPa)
#
#
# Indices 1 2 3 4 5 6 
#
# 1 0.019390 -0.007257 -0.016045 0.014235 0.000456 -0.002270
# 2 -0.007257 0.014146 0.006611 -0.009788 0.002587 0.004619
# 3 -0.016045 0.006611 0.038729 -0.032028 -0.013035 0.012625
# 4 0.014235 -0.009788 -0.032028 0.052504 0.010470 -0.004647
# 5 0.000456 0.002587 -0.013035 0.010470 0.035828 -0.012122
# 6 -0.002270 0.004619 0.012625 -0.004647 -0.012122 0.034515
#
#
# Mechanical properties :
#
#
# Convention : Reuss Voigt Hill
#
# Bulk Modulus (GPa) = 25.71789 51.94141 38.82965
# Shear Modulus (GPa) = 20.70775 37.32247 29.01511
#
# Velocity S-wave (km/s) = 2.90072 3.89426 3.43362
# Velocity P-wave (km/s) = 4.65498 6.42851 5.61225
#
# Compressibility (1/GPa) = 0.03888344
#
# Stress axis : x y z
#
# Youngs Moduli (GPa) = 51.57224 70.68954 25.82067
#
# Poissons Ratio (x) = 0.51300 0.41429
# Poissons Ratio (y) = 0.37427 -0.17070
# Poissons Ratio (z) = 0.82746 -0.46732
#
# Static dielectric constant tensor:
#      x y z
#    x 4.349260 -0.251260 -0.120450 
#    y -0.251260 4.555690 0.416950 
#    z -0.120450 0.416950 4.521020 
# 
# 
# High freq. dielectric constant tensor:
#      x y z
#    x 1.972210 -0.010520 0.003690 
#    y -0.010520 1.984550 0.031080 
#    z 0.003690 0.031080 1.981820 
# 
# From -- ./inp_files/556617.got.cif
#   From: 2010.06.25/outbox.cif.g09.slc.cpg/sg2_279_cif.got.tgz:556617.got - 2010.06.27 13:26:56.
