data_PCOD8019404
_publ_section_title
;
Structure prediction by ZEFSAII (Michael W. Deem and Ramdas Pophale) SiO2 
 PCOD8019404
Probable space group: P -1
;
_chemical_formula_sum "Si O2"
_cell_formula_units_Z 14
_cell_length_a 9.458361
_cell_length_b 11.621921
_cell_length_c 9.141737
_cell_angle_alpha 69.162076
_cell_angle_beta 111.555674
_cell_angle_gamma 129.875053
_cell_volume 707.027394
_symmetry_space_group_name_H-M "P -1"
_symmetry_group_IT_number 2
_symmetry_cell_setting 'triclinic'
loop_
_space_group_symop_operation_xyz
x,y,z
-x,-y,-z
loop_
_atom_site_type_symbol
_atom_site_label
_atom_site_fract_x
_atom_site_fract_y
_atom_site_fract_z
Si Si1 0.864468 0.235900 0.184734
Si Si2 0.466715 0.625130 0.393204
Si Si3 0.932890 0.497209 0.636339
Si Si4 0.581980 0.311809 0.982706
Si Si5 0.177705 0.062949 0.637487
Si Si6 0.165707 0.146849 0.915447
Si Si7 0.106337 0.373687 0.933277
O O1 0.954010 0.336043 0.320666
O O2 0.783399 0.062642 0.265315
O O3 0.690517 0.233074 0.058097
O O4 0.028906 0.301268 0.096654
O O5 0.500000 0.500000 0.500000
O O6 0.284462 0.577088 0.435011
O O7 0.432125 0.632886 0.205869
O O8 0.641523 0.791305 0.438860
O O9 0.000000 0.500000 0.500000
O O10 0.950231 0.385952 0.795370
O O11 0.371502 0.193326 0.020650
O O12 0.697261 0.460683 0.059373
O O13 0.138304 0.117323 0.746681
O O14 0.000000 0.000000 0.500000
O O15 0.148489 0.281003 0.886141
O O16 0.000000 0.000000 0.000000
#
# Coordination Sequence:
#
# PCOD8019404 Si02
#       7
#     2   2   2   2   2   2   2
#     4  11  21  45  69  91 129 171 208 270 323 384
#     4  11  23  41  67  94 128 173 212 259 322 385
#     4  11  24  41  66  98 126 165 218 267 317 376
#     4  10  22  41  67  95 124 169 218 255 323 379
#     4  11  26  43  64  92 134 171 213 260 330 377
#     4  11  24  40  63  97 125 166 209 272 309 375
#     4  11  21  42  68  94 129 163 216 266 316 384
#
# _framework density 19.801214000000002
#
# number of rings (size 3 to 8) (size 9 to 14) (size 15 to 20)
#    0.000    1.143    4.286    2.143    6.000    3.429 
#    5.143    0.714    0.000    0.000    0.000    0.000 
#    0.000    0.000    0.000    0.000    0.000    0.000 
#
# Total GULP energy -173614.462249 kJ/mol
# GULP energy per Si atom -12401.033018 kJ/mol
# Density = 1.975615 g / cm^3
# Si number density = 19.801214 Si / 1000 Ang^3
#
#
#
# Elastic Constant Matrix: (Units=GPa)
#
#
# Indices 1 2 3 4 5 6 
#
# 1 152.8267 90.2903 55.7131 5.1439 6.3617 8.8358
# 2 90.2903 150.7112 64.0443 -3.4354 10.8958 3.1239
# 3 55.7131 64.0443 93.1575 2.9257 9.9953 -2.5662
# 4 5.1439 -3.4354 2.9257 35.3272 -3.1689 -0.8345
# 5 6.3617 10.8958 9.9953 -3.1689 41.0100 2.1234
# 6 8.8358 3.1239 -2.5662 -0.8345 2.1234 50.8132
#
#
#
# Elastic Compliance Matrix: (Units=1/GPa)
#
#
# Indices 1 2 3 4 5 6 
#
# 1 0.010895 -0.005339 -0.002875 -0.001875 0.000375 -0.001758
# 2 -0.005339 0.012129 -0.005113 0.002293 -0.000971 0.000003
# 3 -0.002875 -0.005113 0.016323 -0.001604 -0.002386 0.001712
# 4 -0.001875 0.002293 -0.001604 0.029154 0.002300 0.000487
# 5 0.000375 -0.000971 -0.002386 0.002300 0.025403 -0.001150
# 6 -0.001758 0.000003 0.001712 0.000487 -0.001150 0.020128
#
#
# Mechanical properties :
#
#
# Convention : Reuss Voigt Hill
#
# Bulk Modulus (GPa) = 78.78879 90.75457 84.77168
# Shear Modulus (GPa) = 34.50270 37.87325 36.18797
#
# Velocity S-wave (km/s) = 4.17880 4.37816 4.27964
# Velocity P-wave (km/s) = 7.94729 8.45518 8.20516
#
# Compressibility (1/GPa) = 0.01269216
#
# Stress axis : x y z
#
# Youngs Moduli (GPa) = 91.78776 82.44792 61.26321
#
# Poissons Ratio (x) = 0.44015 0.17614
# Poissons Ratio (y) = 0.49002 0.31326
# Poissons Ratio (z) = 0.26391 0.42159
#
# Static dielectric constant tensor:
#      x y z
#    x 3.717600 0.092880 0.028870 
#    y 0.092880 3.919600 -0.009350 
#    z 0.028870 -0.009350 3.595750 
# 
# 
# High freq. dielectric constant tensor:
#      x y z
#    x 1.782830 0.001950 0.008720 
#    y 0.001950 1.782370 0.003650 
#    z 0.008720 0.003650 1.764590 
# 
# From -- ./inp_files/154979.got.cif
#   From: 2010.06.25/outbox.cif.g09.slc.cpg/sg2_78_cif.got.tgz:154979.got - 2010.06.27 13:26:56.
