data_PCOD8019645
_publ_section_title
;
Structure prediction by ZEFSAII (Michael W. Deem and Ramdas Pophale) SiO2 
 PCOD8019645
Probable space group: P -1
;
_chemical_formula_sum "Si O2"
_cell_formula_units_Z 16
_cell_length_a 18.548542
_cell_length_b 21.592303
_cell_length_c 14.246723
_cell_angle_alpha 31.844771
_cell_angle_beta 20.834385
_cell_angle_gamma 21.711577
_cell_volume 743.019779
_symmetry_space_group_name_H-M "P -1"
_symmetry_group_IT_number 2
_symmetry_cell_setting 'triclinic'
loop_
_space_group_symop_operation_xyz
x,y,z
-x,-y,-z
loop_
_atom_site_type_symbol
_atom_site_label
_atom_site_fract_x
_atom_site_fract_y
_atom_site_fract_z
Si Si1 0.143092 0.813490 0.057390
Si Si2 0.769543 0.287948 0.130943
Si Si3 0.838711 0.530687 0.307611
Si Si4 0.812898 0.982120 0.881835
Si Si5 0.200083 0.777076 0.511435
Si Si6 0.222692 0.249630 0.347153
Si Si7 0.799455 0.468656 0.238308
Si Si8 0.294447 0.414751 0.199351
O O1 0.897402 0.819329 0.372477
O O2 0.242856 0.742369 0.923061
O O3 0.428752 0.691840 0.931491
O O4 0.000000 0.000000 0.000000
O O5 0.508646 0.328197 0.448035
O O6 0.751047 0.436090 0.979981
O O7 0.056850 0.116240 0.051188
O O8 0.954473 0.421994 0.210274
O O9 0.950768 0.422024 0.404523
O O10 0.981205 0.599810 0.029797
O O11 0.894289 0.081876 0.627323
O O12 0.466031 0.113885 0.148721
O O13 0.941889 0.855729 0.799342
O O14 0.507689 0.672477 0.325000
O O15 0.275683 0.636195 0.535369
O O16 0.354603 0.289403 0.209319
O O17 0.000000 0.500000 0.500000
#
# Coordination Sequence:
#
# PCOD8019645 Si02
#       8
#     2   2   2   2   2   2   2   2
#     4  12  28  48  68 104 144 175 225 290 342 409
#     4  12  25  45  71 101 137 181 234 278 342 411
#     4  11  23  41  69 100 132 176 234 277 327 409
#     4  11  25  40  68 100 137 177 221 287 343 403
#     4  10  22  43  64  98 136 175 230 277 340 405
#     4  12  26  46  70 102 140 183 230 278 345 408
#     4  10  22  41  69  96 133 181 226 282 332 404
#     4  12  26  46  75  99 136 184 233 284 335 405
#
# _framework density 21.533749
#
# number of rings (size 3 to 8) (size 9 to 14) (size 15 to 20)
#    0.000    0.750    5.000    1.875    5.250    3.000 
#    0.000    1.250    0.000    0.000    0.000    0.000 
#    0.000    0.000    0.000    0.000    0.000    0.000 
#
# Total GULP energy -198295.735021 kJ/mol
# GULP energy per Si atom -12393.483439 kJ/mol
# Density = 2.148474 g / cm^3
# Si number density = 21.533749 Si / 1000 Ang^3
#
#
#
# Elastic Constant Matrix: (Units=GPa)
#
#
# Indices 1 2 3 4 5 6 
#
# 1 92.8086 43.4570 33.2942 -19.9401 -0.8101 -5.2669
# 2 43.4570 102.1713 31.4232 -13.6638 -5.7777 2.2730
# 3 33.2942 31.4232 124.5631 8.4733 9.0248 14.4777
# 4 -19.9401 -13.6638 8.4733 36.2038 -2.4349 1.6270
# 5 -0.8101 -5.7777 9.0248 -2.4349 30.3036 -0.5971
# 6 -5.2669 2.2730 14.4777 1.6270 -0.5971 30.2562
#
#
#
# Elastic Compliance Matrix: (Units=1/GPa)
#
#
# Indices 1 2 3 4 5 6 
#
# 1 0.016666 -0.004568 -0.004582 0.008417 0.001714 0.005018
# 2 -0.004568 0.013138 -0.002478 0.003281 0.003371 -0.000706
# 3 -0.004582 -0.002478 0.011299 -0.006151 -0.004568 -0.005777
# 4 0.008417 0.003281 -0.006151 0.035202 0.005558 0.002379
# 5 0.001714 0.003371 -0.004568 0.005558 0.035547 0.002634
# 6 0.005018 -0.000706 -0.005777 0.002379 0.002634 0.036666
#
#
# Mechanical properties :
#
#
# Convention : Reuss Voigt Hill
#
# Bulk Modulus (GPa) = 56.03895 59.54353 57.79124
# Shear Modulus (GPa) = 28.13347 33.44398 30.78872
#
# Velocity S-wave (km/s) = 3.61845 3.94521 3.78536
# Velocity P-wave (km/s) = 6.59832 6.96162 6.78241
#
# Compressibility (1/GPa) = 0.01784473
#
# Stress axis : x y z
#
# Youngs Moduli (GPa) = 60.00237 76.11567 88.50376
#
# Poissons Ratio (x) = 0.34773 0.40554
# Poissons Ratio (y) = 0.27411 0.21935
# Poissons Ratio (z) = 0.27494 0.18865
#
# Static dielectric constant tensor:
#      x y z
#    x 3.975050 -0.055060 -0.028170 
#    y -0.055060 3.941740 -0.004990 
#    z -0.028170 -0.004990 4.163700 
# 
# 
# High freq. dielectric constant tensor:
#      x y z
#    x 1.843300 -0.006860 0.005850 
#    y -0.006860 1.843910 0.000540 
#    z 0.005850 0.000540 1.862910 
# 
# From -- ./inp_files/541759.got.cif
#   From: 2010.06.25/outbox.cif.g09.slc.cpg/sg2_271_cif.got.tgz:541759.got - 2010.06.27 13:26:56.
