data_PCOD8019677
_publ_section_title
;
Structure prediction by ZEFSAII (Michael W. Deem and Ramdas Pophale) SiO2 
 PCOD8019677
Probable space group: P -1
;
_chemical_formula_sum "Si O2"
_cell_formula_units_Z 16
_cell_length_a 9.259446
_cell_length_b 17.138701
_cell_length_c 8.920786
_cell_angle_alpha 124.764970
_cell_angle_beta 50.247334
_cell_angle_gamma 90.948169
_cell_volume 746.059639
_symmetry_space_group_name_H-M "P -1"
_symmetry_group_IT_number 2
_symmetry_cell_setting 'triclinic'
loop_
_space_group_symop_operation_xyz
x,y,z
-x,-y,-z
loop_
_atom_site_type_symbol
_atom_site_label
_atom_site_fract_x
_atom_site_fract_y
_atom_site_fract_z
Si Si1 0.914912 0.047514 0.271509
Si Si2 0.015571 0.202016 0.539818
Si Si3 0.398135 0.216404 0.170444
Si Si4 0.921507 0.528952 0.413757
Si Si5 0.756375 0.410855 0.762519
Si Si6 0.946013 0.316564 0.208822
Si Si7 0.140918 0.831222 0.079254
Si Si8 0.556368 0.877649 0.279909
O O1 0.041324 0.106592 0.305828
O O2 0.644124 0.135561 0.543856
O O3 0.963328 0.948697 0.245531
O O4 0.000000 0.000000 0.000000
O O5 0.791756 0.322662 0.771011
O O6 0.982221 0.173988 0.697845
O O7 0.234087 0.209280 0.390005
O O8 0.301700 0.345200 0.320201
O O9 0.635425 0.170988 0.040526
O O10 0.430055 0.135610 0.923120
O O11 0.884053 0.430173 0.281135
O O12 0.000000 0.500000 0.500000
O O13 0.127919 0.523400 0.184595
O O14 0.886091 0.339090 0.448805
O O15 0.500000 0.500000 0.000000
O O16 0.800822 0.273207 0.182664
O O17 0.210905 0.221368 0.908822
O O18 0.500000 0.000000 0.500000
#
# Coordination Sequence:
#
# PCOD8019677 Si02
#       8
#     2   2   2   2   2   2   2   2
#     4  12  26  44  71 102 138 187 245 291 346 427
#     4  11  24  44  67 100 143 181 235 288 359 420
#     4  11  24  46  69 101 145 185 231 295 357 415
#     4   9  19  40  68  96 130 182 232 282 341 414
#     4  10  22  41  70 101 132 181 243 289 343 418
#     4  11  23  44  69 103 140 182 244 285 350 424
#     4  12  27  45  67 107 144 184 230 296 364 416
#     4  12  22  42  73  98 142 184 235 293 344 419
#
# _framework density 21.446006000000001
#
# number of rings (size 3 to 8) (size 9 to 14) (size 15 to 20)
#    0.000    1.000    6.250    1.875    5.250    2.000 
#    2.250    1.250    0.000    0.000    0.000    0.000 
#    0.000    0.000    0.000    0.000    0.000    0.000 
#
# Total GULP energy -198368.966522 kJ/mol
# GULP energy per Si atom -12398.060408 kJ/mol
# Density = 2.139719 g / cm^3
# Si number density = 21.446006 Si / 1000 Ang^3
#
#
#
# Elastic Constant Matrix: (Units=GPa)
#
#
# Indices 1 2 3 4 5 6 
#
# 1 95.4935 36.8740 33.1670 1.4088 -2.1023 11.9367
# 2 36.8740 136.5662 43.9751 2.0842 3.8619 -0.0908
# 3 33.1670 43.9751 102.5817 0.5060 -21.6524 -5.5328
# 4 1.4088 2.0842 0.5060 38.0272 7.4213 6.2063
# 5 -2.1023 3.8619 -21.6524 7.4213 22.7373 3.2238
# 6 11.9367 -0.0908 -5.5328 6.2063 3.2238 37.9564
#
#
#
# Elastic Compliance Matrix: (Units=1/GPa)
#
#
# Indices 1 2 3 4 5 6 
#
# 1 0.013260 -0.002281 -0.003931 0.000794 -0.001718 -0.004733
# 2 -0.002281 0.009670 -0.004821 0.000867 -0.006794 0.000473
# 3 -0.003931 -0.004821 0.016921 -0.003664 0.017366 0.002815
# 4 0.000794 0.000867 -0.003664 0.029455 -0.012534 -0.004533
# 5 -0.001718 -0.006794 0.017366 -0.012534 0.065671 -0.000473
# 6 -0.004733 0.000473 0.002815 -0.004533 -0.000473 0.029027
#
#
# Mechanical properties :
#
#
# Convention : Reuss Voigt Hill
#
# Bulk Modulus (GPa) = 56.22600 62.51928 59.37264
# Shear Modulus (GPa) = 26.04179 34.45253 30.24716
#
# Velocity S-wave (km/s) = 3.48846 4.01244 3.75959
# Velocity P-wave (km/s) = 6.51921 7.11909 6.82574
#
# Compressibility (1/GPa) = 0.01778537
#
# Stress axis : x y z
#
# Youngs Moduli (GPa) = 75.41357 103.41430 59.09690
#
# Poissons Ratio (x) = 0.23590 0.23233
# Poissons Ratio (y) = 0.17203 0.28488
# Poissons Ratio (z) = 0.29647 0.49852
#
# Static dielectric constant tensor:
#      x y z
#    x 4.217120 0.589240 -0.128600 
#    y 0.589240 4.658390 0.069980 
#    z -0.128600 0.069980 3.881430 
# 
# 
# High freq. dielectric constant tensor:
#      x y z
#    x 1.840830 0.014910 -0.009120 
#    y 0.014910 1.852670 0.008200 
#    z -0.009120 0.008200 1.831780 
# 
# From -- ./inp_files/218173.got.cif
#   From: 2010.06.25/outbox.cif.g09.slc.cpg/sg2_110_cif.got.tgz:218173.got - 2010.06.27 13:26:56.
