data_PCOD8019098
_publ_section_title
;
Structure prediction by ZEFSAII (Michael W. Deem and Ramdas Pophale) SiO2 
 PCOD8019098
Probable space group: P -1
;
_chemical_formula_sum "Si O2"
_cell_formula_units_Z 16
_cell_length_a 8.041898
_cell_length_b 12.329348
_cell_length_c 20.329204
_cell_angle_alpha 29.259463
_cell_angle_beta 128.533564
_cell_angle_gamma 135.776505
_cell_volume 687.114195
_symmetry_space_group_name_H-M "P -1"
_symmetry_group_IT_number 2
_symmetry_cell_setting 'triclinic'
loop_
_space_group_symop_operation_xyz
x,y,z
-x,-y,-z
loop_
_atom_site_type_symbol
_atom_site_label
_atom_site_fract_x
_atom_site_fract_y
_atom_site_fract_z
Si Si1 0.371349 0.276454 0.934586
Si Si2 0.159125 0.800809 0.575870
Si Si3 0.772776 0.057463 0.037928
Si Si4 0.162901 0.555234 0.829558
Si Si5 0.731190 0.473326 0.553171
Si Si6 0.915303 0.921699 0.282778
Si Si7 0.567082 0.055837 0.205656
Si Si8 0.353057 0.221175 0.310731
O O1 0.263685 0.408077 0.886616
O O2 0.594032 0.490575 0.834971
O O3 0.180966 0.091535 0.932474
O O4 0.464073 0.109836 0.085292
O O5 0.116748 0.754925 0.668177
O O6 0.390564 0.772180 0.627597
O O7 0.929463 0.586295 0.598575
O O8 0.206504 0.077751 0.416619
O O9 0.850022 0.966537 0.170526
O O10 0.923630 0.353362 0.910975
O O11 0.500000 0.000000 0.000000
O O12 0.346907 0.705917 0.852139
O O13 0.500000 0.500000 0.500000
O O14 0.835309 0.625193 0.430135
O O15 0.643623 0.176423 0.684582
O O16 0.785709 0.004111 0.264445
O O17 0.198133 0.075424 0.285428
#
# Coordination Sequence:
#
# PCOD8019098 Si02
#       8
#     2   2   2   2   2   2   2   2
#     4  11  23  42  65  95 133 172 221 268 325 394
#     4   9  19  41  64  93 134 171 218 265 318 390
#     4  12  25  41  65  96 131 173 216 276 326 384
#     4  11  25  40  65  96 131 178 215 267 328 392
#     4   9  20  39  65  95 132 173 215 270 325 386
#     4  10  22  41  64  97 133 171 219 269 329 387
#     4  11  22  40  67  96 134 171 217 274 325 388
#     4   9  20  39  66  94 130 175 214 266 324 386
#
# _framework density 23.285796000000001
#
# number of rings (size 3 to 8) (size 9 to 14) (size 15 to 20)
#    0.000    1.750    1.250    2.250    3.500    4.000 
#    0.000    5.625    0.000   14.250    0.000    0.000 
#    0.000    0.000    0.000    0.000    0.000    0.000 
#
# Total GULP energy -198274.615250 kJ/mol
# GULP energy per Si atom -12392.163453 kJ/mol
# Density = 2.323280 g / cm^3
# Si number density = 23.285796 Si / 1000 Ang^3
#
#
#
# Elastic Constant Matrix: (Units=GPa)
#
#
# Indices 1 2 3 4 5 6 
#
# 1 48.9628 34.2408 13.9298 1.5712 -2.0926 3.9221
# 2 34.2408 150.3778 58.1828 7.1259 -16.8823 13.2430
# 3 13.9298 58.1828 171.9415 -0.5363 -48.7011 8.2163
# 4 1.5712 7.1259 -0.5363 45.9451 5.7443 -4.2640
# 5 -2.0926 -16.8823 -48.7011 5.7443 38.3083 -0.6434
# 6 3.9221 13.2430 8.2163 -4.2640 -0.6434 39.9989
#
#
#
# Elastic Compliance Matrix: (Units=1/GPa)
#
#
# Indices 1 2 3 4 5 6 
#
# 1 0.024396 -0.005494 -0.000648 0.000213 -0.001952 -0.000449
# 2 -0.005494 0.009160 -0.002249 -0.001597 0.001080 -0.002185
# 3 -0.000648 -0.002249 0.010053 -0.001109 0.011901 -0.001184
# 4 0.000213 -0.001597 -0.001109 0.022967 -0.005494 0.003096
# 5 -0.001952 0.001080 0.011901 -0.005494 0.042384 -0.002515
# 6 -0.000449 -0.002185 -0.001184 0.003096 -0.002515 0.026301
#
#
# Mechanical properties :
#
#
# Convention : Reuss Voigt Hill
#
# Bulk Modulus (GPa) = 37.27568 64.88766 51.08167
# Shear Modulus (GPa) = 31.05851 42.51237 36.78544
#
# Velocity S-wave (km/s) = 3.65608 4.27743 3.97890
# Velocity P-wave (km/s) = 5.81938 7.23336 6.56455
#
# Compressibility (1/GPa) = 0.02682714
#
# Stress axis : x y z
#
# Youngs Moduli (GPa) = 40.99081 109.16440 99.46802
#
# Poissons Ratio (x) = 0.59972 0.06447
# Poissons Ratio (y) = 0.22519 0.22374
# Poissons Ratio (z) = 0.02657 0.24555
#
# Static dielectric constant tensor:
#      x y z
#    x 3.957630 0.287620 -0.536890 
#    y 0.287620 4.260540 -0.194310 
#    z -0.536890 -0.194310 5.297680 
# 
# 
# High freq. dielectric constant tensor:
#      x y z
#    x 1.893670 0.024090 -0.022620 
#    y 0.024090 1.923620 0.004110 
#    z -0.022620 0.004110 1.948330 
# 
# From -- ./inp_files/425108.got.cif
#   From: 2010.06.25/outbox.cif.g09.slc.cpg/sg2_213_cif.got.tgz:425108.got - 2010.06.27 13:26:56.
