data_PCOD8019593
_publ_section_title
;
Structure prediction by ZEFSAII (Michael W. Deem and Ramdas Pophale) SiO2 
 PCOD8019593
Probable space group: P -1
;
_chemical_formula_sum "Si O2"
_cell_formula_units_Z 12
_cell_length_a 8.306638
_cell_length_b 22.769630
_cell_length_c 14.590676
_cell_angle_alpha 19.405563
_cell_angle_beta 142.744432
_cell_angle_gamma 144.291080
_cell_volume 528.691902
_symmetry_space_group_name_H-M "P -1"
_symmetry_group_IT_number 2
_symmetry_cell_setting 'triclinic'
loop_
_space_group_symop_operation_xyz
x,y,z
-x,-y,-z
loop_
_atom_site_type_symbol
_atom_site_label
_atom_site_fract_x
_atom_site_fract_y
_atom_site_fract_z
Si Si1 0.753560 0.950810 0.297239
Si Si2 0.203377 0.342573 0.604209
Si Si3 0.758396 0.588270 0.284209
Si Si4 0.634110 0.882992 0.665204
Si Si5 0.601318 0.797682 0.261180
Si Si6 0.390089 0.674012 0.684319
O O1 0.773004 0.909025 0.259787
O O2 0.532855 0.787845 0.491668
O O3 0.063952 0.987205 0.424538
O O4 0.664742 0.137941 0.982741
O O5 0.500000 0.500000 0.500000
O O6 0.157093 0.278844 0.783213
O O7 0.206847 0.174925 0.783927
O O8 0.941322 0.411114 0.355296
O O9 0.485788 0.417998 0.433380
O O10 0.000000 0.500000 0.500000
O O11 0.682927 0.705289 0.997197
O O12 0.446816 0.809008 0.599932
O O13 0.500000 0.000000 0.500000
O O14 0.500000 0.500000 0.000000
#
# Coordination Sequence:
#
# PCOD8019593 Si02
#       6
#     2   2   2   2   2   2
#     4  11  24  42  69 100 142 182 232 293 348 414
#     4  10  24  42  72 101 131 179 244 286 332 421
#     4  11  21  44  72  97 137 188 237 278 347 426
#     4  12  27  44  69 108 149 181 232 298 362 413
#     4  10  22  41  69 102 131 179 244 287 337 407
#     4  12  27  46  71 101 145 190 231 287 371 425
#
# _framework density 22.697527999999998
#
# number of rings (size 3 to 8) (size 9 to 14) (size 15 to 20)
#    0.000    1.000    1.667    4.500    7.000    3.333 
#    0.000    5.833    0.000    0.000    0.000    0.000 
#    0.000    0.000    0.000    0.000    0.000    0.000 
#
# Total GULP energy -148750.405667 kJ/mol
# GULP energy per Si atom -12395.867139 kJ/mol
# Density = 2.264587 g / cm^3
# Si number density = 22.697528 Si / 1000 Ang^3
#
#
#
# Elastic Constant Matrix: (Units=GPa)
#
#
# Indices 1 2 3 4 5 6 
#
# 1 142.9354 46.3684 32.7377 2.1599 6.8401 -18.2412
# 2 46.3684 107.6687 25.5740 21.1007 6.0914 15.5507
# 3 32.7377 25.5740 88.6208 -0.9970 2.5265 8.0747
# 4 2.1599 21.1007 -0.9970 32.8622 -0.5290 3.9944
# 5 6.8401 6.0914 2.5265 -0.5290 33.6693 1.4873
# 6 -18.2412 15.5507 8.0747 3.9944 1.4873 43.3162
#
#
#
# Elastic Compliance Matrix: (Units=1/GPa)
#
#
# Indices 1 2 3 4 5 6 
#
# 1 0.010064 -0.004813 -0.002860 0.001545 -0.001218 0.006398
# 2 -0.004813 0.014371 -0.001874 -0.008257 -0.001345 -0.006029
# 3 -0.002860 -0.001874 0.013194 0.002182 0.000105 -0.003196
# 4 0.001545 -0.008257 0.002182 0.035739 0.001584 -0.000142
# 5 -0.001218 -0.001345 0.000105 0.001584 0.030263 -0.001235
# 6 0.006398 -0.006029 -0.003196 -0.000142 -0.001235 0.028596
#
#
# Mechanical properties :
#
#
# Convention : Reuss Voigt Hill
#
# Bulk Modulus (GPa) = 53.95268 60.95390 57.45329
# Shear Modulus (GPa) = 31.74625 37.60585 34.67605
#
# Velocity S-wave (km/s) = 3.74393 4.07483 3.91288
# Velocity P-wave (km/s) = 6.52007 7.00372 6.76622
#
# Compressibility (1/GPa) = 0.01853476
#
# Stress axis : x y z
#
# Youngs Moduli (GPa) = 99.36482 69.58635 75.79158
#
# Poissons Ratio (x) = 0.33491 0.21675
# Poissons Ratio (y) = 0.47823 0.14206
# Poissons Ratio (z) = 0.28416 0.13043
#
# Static dielectric constant tensor:
#      x y z
#    x 4.845860 -0.315210 0.009560 
#    y -0.315210 4.212830 0.050090 
#    z 0.009560 0.050090 3.986400 
# 
# 
# High freq. dielectric constant tensor:
#      x y z
#    x 1.920340 -0.011560 0.004480 
#    y -0.011560 1.900080 0.003860 
#    z 0.004480 0.003860 1.879300 
# 
# From -- ./inp_files/157929.got.cif
#   From: 2010.06.25/outbox.cif.g09.slc.cpg/sg2_79_cif.got.tgz:157929.got - 2010.06.27 13:26:56.
