data_PCOD8019475
_publ_section_title
;
Structure prediction by ZEFSAII (Michael W. Deem and Ramdas Pophale) SiO2 
 PCOD8019475
Probable space group: P -1
;
_chemical_formula_sum "Si O2"
_cell_formula_units_Z 14
_cell_length_a 8.405416
_cell_length_b 12.334868
_cell_length_c 10.928416
_cell_angle_alpha 53.326485
_cell_angle_beta 81.682049
_cell_angle_gamma 48.943045
_cell_volume 625.196582
_symmetry_space_group_name_H-M "P -1"
_symmetry_group_IT_number 2
_symmetry_cell_setting 'triclinic'
loop_
_space_group_symop_operation_xyz
x,y,z
-x,-y,-z
loop_
_atom_site_type_symbol
_atom_site_label
_atom_site_fract_x
_atom_site_fract_y
_atom_site_fract_z
Si Si1 0.846878 0.290797 0.373595
Si Si2 0.494252 0.696561 0.479873
Si Si3 0.631852 0.690455 0.196617
Si Si4 0.337696 0.720515 0.835204
Si Si5 0.171720 0.977427 0.908793
Si Si6 0.368158 0.944145 0.535554
Si Si7 0.000700 0.371673 0.677622
O O1 0.684062 0.318911 0.474463
O O2 0.768786 0.492752 0.240800
O O3 0.836411 0.226680 0.285477
O O4 0.111456 0.120282 0.498140
O O5 0.535306 0.697800 0.332433
O O6 0.732741 0.516630 0.648123
O O7 0.382740 0.895450 0.423564
O O8 0.817204 0.701305 0.185328
O O9 0.416214 0.864562 0.021169
O O10 0.196926 0.860201 0.872113
O O11 0.481445 0.757605 0.733084
O O12 0.500000 0.500000 0.000000
O O13 0.073320 0.183107 0.738657
O O14 0.000000 0.000000 0.000000
O O15 0.500000 0.000000 0.500000
O O16 0.000000 0.500000 0.500000
#
# Coordination Sequence:
#
# PCOD8019475 Si02
#       7
#     2   2   2   2   2   2   2
#     4  11  23  45  69 101 134 183 231 282 335 413
#     4  10  22  41  68 101 134 178 231 282 331 411
#     4  11  23  41  69 100 142 173 233 281 350 393
#     4  11  25  47  67  99 143 179 230 279 342 411
#     4  12  27  43  71 101 140 186 225 281 343 412
#     4  11  26  44  73 101 137 181 232 283 344 400
#     4  10  24  44  70 100 138 176 231 287 336 398
#
# _framework density 22.392956999999999
#
# number of rings (size 3 to 8) (size 9 to 14) (size 15 to 20)
#    0.000    1.143    1.429    4.286   14.000    0.000 
#    0.000    0.714    0.000    0.000    0.000    0.000 
#    0.000    0.000    0.000    0.000    0.000    0.000 
#
# Total GULP energy -173527.487262 kJ/mol
# GULP energy per Si atom -12394.820519 kJ/mol
# Density = 2.234199 g / cm^3
# Si number density = 22.392957 Si / 1000 Ang^3
#
#
#
# Elastic Constant Matrix: (Units=GPa)
#
#
# Indices 1 2 3 4 5 6 
#
# 1 129.2282 43.3503 38.8316 -14.8020 -9.3902 -10.6488
# 2 43.3503 142.2147 42.4308 -7.9398 -16.1224 4.6658
# 3 38.8316 42.4308 104.7469 -19.1350 -16.6430 -2.5391
# 4 -14.8020 -7.9398 -19.1350 44.2153 9.8004 2.3699
# 5 -9.3902 -16.1224 -16.6430 9.8004 32.5966 -15.9700
# 6 -10.6488 4.6658 -2.5391 2.3699 -15.9700 37.6146
#
#
#
# Elastic Compliance Matrix: (Units=1/GPa)
#
#
# Indices 1 2 3 4 5 6 
#
# 1 0.009681 -0.002148 -0.002061 0.001306 0.002079 0.003668
# 2 -0.002148 0.008674 -0.002522 -0.000681 0.002148 -0.000900
# 3 -0.002061 -0.002522 0.012754 0.003147 0.004945 0.002491
# 4 0.001306 -0.000681 0.003147 0.026444 -0.008578 -0.004642
# 5 0.002079 0.002148 0.004945 -0.008578 0.048017 0.021583
# 6 0.003668 -0.000900 0.002491 -0.004642 0.021583 0.037360
#
#
# Mechanical properties :
#
#
# Convention : Reuss Voigt Hill
#
# Bulk Modulus (GPa) = 56.67040 69.49059 63.08049
# Shear Modulus (GPa) = 30.81223 39.65711 35.23467
#
# Velocity S-wave (km/s) = 3.71344 4.21285 3.97100
# Velocity P-wave (km/s) = 6.61426 7.40026 7.01827
#
# Compressibility (1/GPa) = 0.01764590
#
# Stress axis : x y z
#
# Youngs Moduli (GPa) = 103.29512 115.28920 78.40934
#
# Poissons Ratio (x) = 0.24762 0.16161
# Poissons Ratio (y) = 0.22186 0.19777
# Poissons Ratio (z) = 0.21290 0.29080
#
# Static dielectric constant tensor:
#      x y z
#    x 4.398860 0.059880 0.160890 
#    y 0.059880 4.515410 -0.164210 
#    z 0.160890 -0.164210 4.054970 
# 
# 
# High freq. dielectric constant tensor:
#      x y z
#    x 1.889620 0.009890 0.003340 
#    y 0.009890 1.897750 -0.016760 
#    z 0.003340 -0.016760 1.865710 
# 
# From -- ./inp_files/154662.got.cif
#   From: 2010.06.25/outbox.cif.g09.slc.cpg/sg2_78_cif.got.tgz:154662.got - 2010.06.27 13:26:56.
