data_PCOD8019939
_publ_section_title
;
Structure prediction by ZEFSAII (Michael W. Deem and Ramdas Pophale) SiO2 
 PCOD8019939
Probable space group: P -1
;
_chemical_formula_sum "Si O2"
_cell_formula_units_Z 16
_cell_length_a 8.962061
_cell_length_b 14.378849
_cell_length_c 14.223004
_cell_angle_alpha 81.534562
_cell_angle_beta 49.673492
_cell_angle_gamma 44.288374
_cell_volume 785.146150
_symmetry_space_group_name_H-M "P -1"
_symmetry_group_IT_number 2
_symmetry_cell_setting 'triclinic'
loop_
_space_group_symop_operation_xyz
x,y,z
-x,-y,-z
loop_
_atom_site_type_symbol
_atom_site_label
_atom_site_fract_x
_atom_site_fract_y
_atom_site_fract_z
Si Si1 0.720004 0.925484 0.603903
Si Si2 0.381368 0.885258 0.655371
Si Si3 0.605447 0.486571 0.186303
Si Si4 0.573247 0.394343 0.560797
Si Si5 0.716783 0.756117 0.170733
Si Si6 0.814234 0.172148 0.719210
Si Si7 0.308271 0.395744 0.318891
Si Si8 0.219544 0.357079 0.642130
O O1 0.474467 0.949810 0.648441
O O2 0.031598 0.746290 0.551082
O O3 0.876243 0.940587 0.465811
O O4 0.514073 0.060159 0.749642
O O5 0.403887 0.796468 0.741755
O O6 0.639672 0.763358 0.481635
O O7 0.983386 0.052212 0.757583
O O8 0.668356 0.498883 0.264954
O O9 0.335355 0.664728 0.218653
O O10 0.458885 0.440048 0.260158
O O11 0.964256 0.342657 0.008652
O O12 0.500000 0.500000 0.500000
O O13 0.513078 0.317167 0.550422
O O14 0.499476 0.761757 0.206829
O O15 0.858367 0.670278 0.228067
O O16 0.000000 0.500000 0.500000
O O17 0.142152 0.451807 0.273448
#
# Coordination Sequence:
#
# PCOD8019939 Si02
#       8
#     2   2   2   2   2   2   2   2
#     4  11  22  39  64  96 125 167 220 255 311 374
#     4  11  22  39  66  94 124 163 221 266 301 369
#     4  11  25  42  64  96 129 163 212 262 326 373
#     4  11  21  39  67  93 122 169 218 258 309 381
#     4  12  24  40  62  97 131 164 209 268 320 373
#     4  11  21  40  65  93 126 168 214 262 308 375
#     4  10  22  42  63  92 125 166 209 261 313 377
#     4  11  20  36  66  92 126 162 212 264 314 366
#
# _framework density 20.378371999999999
#
# number of rings (size 3 to 8) (size 9 to 14) (size 15 to 20)
#    0.000    1.000    3.750    7.125    1.750    0.500 
#    0.000    3.125    0.000    0.000    0.000    0.000 
#    0.000    0.000    0.000    0.000    0.000    0.000 
#
# Total GULP energy -198365.236846 kJ/mol
# GULP energy per Si atom -12397.827303 kJ/mol
# Density = 2.033199 g / cm^3
# Si number density = 20.378372 Si / 1000 Ang^3
#
#
#
# Elastic Constant Matrix: (Units=GPa)
#
#
# Indices 1 2 3 4 5 6 
#
# 1 95.1859 35.7949 31.5448 -8.2438 -15.2850 1.4252
# 2 35.7949 116.8144 42.0969 -9.3140 -9.9755 -16.8948
# 3 31.5448 42.0969 107.0786 5.6716 2.3687 10.8411
# 4 -8.2438 -9.3140 5.6716 18.4258 1.4988 -1.4119
# 5 -15.2850 -9.9755 2.3687 1.4988 17.9015 -2.8215
# 6 1.4252 -16.8948 10.8411 -1.4119 -2.8215 43.9281
#
#
#
# Elastic Compliance Matrix: (Units=1/GPa)
#
#
# Indices 1 2 3 4 5 6 
#
# 1 0.015079 -0.001110 -0.004769 0.006733 0.012526 0.001282
# 2 -0.001110 0.013688 -0.006452 0.008342 0.008045 0.007678
# 3 -0.004769 -0.006452 0.014709 -0.009647 -0.009894 -0.006902
# 4 0.006733 0.008342 -0.009647 0.064466 0.007526 0.007926
# 5 0.012526 0.008045 -0.009894 0.007526 0.073308 0.010080
# 6 0.001282 0.007678 -0.006902 0.007926 0.010080 0.028281
#
#
# Mechanical properties :
#
#
# Convention : Reuss Voigt Hill
#
# Bulk Modulus (GPa) = 53.15034 59.77245 56.46140
# Shear Modulus (GPa) = 20.79311 30.02723 25.41017
#
# Velocity S-wave (km/s) = 3.19776 3.84276 3.53500
# Velocity P-wave (km/s) = 6.30655 7.00601 6.66546
#
# Compressibility (1/GPa) = 0.01881456
#
# Stress axis : x y z
#
# Youngs Moduli (GPa) = 66.31709 73.05480 67.98566
#
# Poissons Ratio (x) = 0.08109 0.32425
# Poissons Ratio (y) = 0.07361 0.43862
# Poissons Ratio (z) = 0.31629 0.47132
#
# Static dielectric constant tensor:
#      x y z
#    x 4.168210 -0.289470 -0.087560 
#    y -0.289470 4.232840 0.076820 
#    z -0.087560 0.076820 3.452130 
# 
# 
# High freq. dielectric constant tensor:
#      x y z
#    x 1.807650 -0.003860 -0.003960 
#    y -0.003860 1.814000 0.003220 
#    z -0.003960 0.003220 1.753620 
# 
# From -- ./inp_files/504119.got.cif
#   From: 2010.06.25/outbox.cif.g09.slc.cpg/sg2_253_cif.got.tgz:504119.got - 2010.06.27 13:26:56.
