data_PCOD8019504
_publ_section_title
;
Structure prediction by ZEFSAII (Michael W. Deem and Ramdas Pophale) SiO2 
 PCOD8019504
Probable space group: P -1
;
_chemical_formula_sum "Si O2"
_cell_formula_units_Z 14
_cell_length_a 8.850374
_cell_length_b 6.012036
_cell_length_c 15.767212
_cell_angle_alpha 123.017993
_cell_angle_beta 99.016114
_cell_angle_gamma 101.463355
_cell_volume 652.597471
_symmetry_space_group_name_H-M "P -1"
_symmetry_group_IT_number 2
_symmetry_cell_setting 'triclinic'
loop_
_space_group_symop_operation_xyz
x,y,z
-x,-y,-z
loop_
_atom_site_type_symbol
_atom_site_label
_atom_site_fract_x
_atom_site_fract_y
_atom_site_fract_z
Si Si1 0.247076 0.302586 0.331375
Si Si2 0.347755 0.800058 0.842459
Si Si3 0.020330 0.429917 0.652740
Si Si4 0.818519 0.798406 0.511314
Si Si5 0.422176 0.356140 0.048623
Si Si6 0.474817 0.195922 0.610399
Si Si7 0.406194 0.886990 0.219136
O O1 0.281052 0.354649 0.446303
O O2 0.388846 0.501861 0.327037
O O3 0.077819 0.351141 0.308662
O O4 0.253075 0.995816 0.240617
O O5 0.177309 0.576464 0.753732
O O6 0.436935 0.626573 0.867918
O O7 0.462834 0.945865 0.804558
O O8 0.313394 0.033117 0.950183
O O9 0.064138 0.366673 0.546778
O O10 0.915066 0.121717 0.616610
O O11 0.702593 0.783546 0.416751
O O12 0.325630 0.552240 0.119708
O O13 0.500000 0.500000 0.000000
O O14 0.487545 0.067459 0.676061
O O15 0.500000 0.000000 0.500000
#
# Coordination Sequence:
#
# PCOD8019504 Si02
#       7
#     2   2   2   2   2   2   2
#     4  12  23  38  58  86 127 165 202 248 303 355
#     4  10  22  41  68  91 120 157 202 253 311 356
#     4  11  24  38  56  89 125 163 201 246 306 366
#     4  11  24  39  57  84 127 168 209 247 295 358
#     4   9  20  41  67  94 114 151 206 257 301 364
#     4  12  23  39  60  90 122 164 214 246 289 357
#     4  11  22  38  65  92 122 157 207 256 298 356
#
# _framework density 21.452732000000001
#
# number of rings (size 3 to 8) (size 9 to 14) (size 15 to 20)
#    0.000    1.143    2.857    3.429    2.000    4.571 
#    0.000    0.714    0.000   14.571    0.000    0.000 
#    0.000    0.000    0.000    0.000    0.000    0.000 
#
# Total GULP energy -173488.209777 kJ/mol
# GULP energy per Si atom -12392.014984 kJ/mol
# Density = 2.140390 g / cm^3
# Si number density = 21.452732 Si / 1000 Ang^3
#
#
#
# Elastic Constant Matrix: (Units=GPa)
#
#
# Indices 1 2 3 4 5 6 
#
# 1 104.6909 50.7409 57.5125 15.0224 -3.7058 -19.7699
# 2 50.7409 103.8345 58.6155 -6.9973 -1.6372 -18.8166
# 3 57.5125 58.6155 109.6938 0.1145 -7.1900 -23.4011
# 4 15.0224 -6.9973 0.1145 42.6833 -10.0158 -19.3113
# 5 -3.7058 -1.6372 -7.1900 -10.0158 31.7251 6.7413
# 6 -19.7699 -18.8166 -23.4011 -19.3113 6.7413 32.3203
#
#
#
# Elastic Compliance Matrix: (Units=1/GPa)
#
#
# Indices 1 2 3 4 5 6 
#
# 1 0.016250 -0.005377 -0.006194 -0.007939 -0.001858 -0.002031
# 2 -0.005377 0.016824 -0.004385 0.008483 0.000146 0.008369
# 3 -0.006194 -0.004385 0.016777 0.006098 0.002898 0.008845
# 4 -0.007939 0.008483 0.006098 0.042199 0.008268 0.027987
# 5 -0.001858 0.000146 0.002898 0.008268 0.034851 -0.001282
# 6 -0.002031 0.008369 0.008845 0.027987 -0.001282 0.057965
#
#
# Mechanical properties :
#
#
# Convention : Reuss Voigt Hill
#
# Bulk Modulus (GPa) = 55.73826 72.43967 64.08897
# Shear Modulus (GPa) = 22.44595 31.43576 26.94086
#
# Velocity S-wave (km/s) = 3.23816 3.83214 3.54761
# Velocity P-wave (km/s) = 6.32608 7.30896 6.83520
#
# Compressibility (1/GPa) = 0.01794100
#
# Stress axis : x y z
#
# Youngs Moduli (GPa) = 61.53676 59.43814 59.60526
#
# Poissons Ratio (x) = 0.31961 0.36917
# Poissons Ratio (y) = 0.33089 0.26135
# Poissons Ratio (z) = 0.38113 0.26062
#
# Static dielectric constant tensor:
#      x y z
#    x 3.760880 -0.488130 -0.413830 
#    y -0.488130 4.268860 0.111150 
#    z -0.413830 0.111150 4.186910 
# 
# 
# High freq. dielectric constant tensor:
#      x y z
#    x 1.820730 -0.020640 -0.029040 
#    y -0.020640 1.857090 0.001990 
#    z -0.029040 0.001990 1.840420 
# 
# From -- ./inp_files/34421.got.cif
#   From: 2010.06.25/outbox.cif.g09.slc.cpg/sg2_18_cif.got.tgz:34421.got - 2010.06.27 13:26:56.
