data_PCOD8019204
_publ_section_title
;
Structure prediction by ZEFSAII (Michael W. Deem and Ramdas Pophale) SiO2 
 PCOD8019204
Probable space group: P -1
;
_chemical_formula_sum "Si O2"
_cell_formula_units_Z 16
_cell_length_a 15.773865
_cell_length_b 12.543522
_cell_length_c 9.755978
_cell_angle_alpha 133.050101
_cell_angle_beta 132.990256
_cell_angle_gamma 36.223886
_cell_volume 794.186465
_symmetry_space_group_name_H-M "P -1"
_symmetry_group_IT_number 2
_symmetry_cell_setting 'triclinic'
loop_
_space_group_symop_operation_xyz
x,y,z
-x,-y,-z
loop_
_atom_site_type_symbol
_atom_site_label
_atom_site_fract_x
_atom_site_fract_y
_atom_site_fract_z
Si Si1 0.591876 0.790912 0.758912
Si Si2 0.928809 0.611980 0.381346
Si Si3 0.428315 0.725658 0.000433
Si Si4 0.906937 0.645052 0.901885
Si Si5 0.913891 0.947772 0.047233
Si Si6 0.868088 0.980605 0.710106
Si Si7 0.383073 0.216975 0.915000
Si Si8 0.469025 0.668055 0.305205
O O1 0.729242 0.783701 0.856495
O O2 0.576531 0.671324 0.529128
O O3 0.435783 0.005809 0.787293
O O4 0.627533 0.704926 0.876062
O O5 0.780500 0.635490 0.204587
O O6 0.000000 0.500000 0.500000
O O7 0.059036 0.485104 0.303108
O O8 0.880744 0.818493 0.503544
O O9 0.490218 0.533965 0.823466
O O10 0.248848 0.861573 0.922892
O O11 0.487916 0.811271 0.054904
O O12 0.491247 0.701315 0.202013
O O13 0.954489 0.773745 0.031285
O O14 0.000000 0.500000 0.000000
O O15 0.031898 0.983342 0.232166
O O16 0.923059 0.902742 0.856701
O O17 0.700650 0.177032 0.695535
#
# Coordination Sequence:
#
# PCOD8019204 Si02
#       8
#     2   2   2   2   2   2   2   2
#     4  11  24  43  66  90 132 173 214 267 322 389
#     4  12  25  40  67 100 126 172 222 270 326 387
#     4  10  23  40  66  98 127 165 220 267 324 384
#     4  12  25  43  64  96 134 171 217 266 330 388
#     4  10  22  42  64  94 133 171 208 273 326 385
#     4  10  22  41  65  96 131 166 219 265 326 387
#     4  11  24  43  66  92 129 173 218 265 322 388
#     4  10  23  40  66  97 128 167 213 272 324 383
#
# _framework density 20.146402999999999
#
# number of rings (size 3 to 8) (size 9 to 14) (size 15 to 20)
#    0.000    1.250    5.000    0.000    5.250    2.000 
#    0.000    0.625    0.000    0.000    0.000    0.000 
#    0.000    0.000    0.000    0.000    0.000    0.000 
#
# Total GULP energy -198394.835249 kJ/mol
# GULP energy per Si atom -12399.677203 kJ/mol
# Density = 2.010055 g / cm^3
# Si number density = 20.146403 Si / 1000 Ang^3
#
#
#
# Elastic Constant Matrix: (Units=GPa)
#
#
# Indices 1 2 3 4 5 6 
#
# 1 93.5953 27.4490 45.3991 -16.9623 6.5070 4.2208
# 2 27.4490 105.3614 47.7493 -3.5905 -2.9465 5.4138
# 3 45.3991 47.7493 124.0435 -0.8696 -5.2955 6.2608
# 4 -16.9623 -3.5905 -0.8696 33.8953 -2.5932 -1.7817
# 5 6.5070 -2.9465 -5.2955 -2.5932 31.0104 1.2478
# 6 4.2208 5.4138 6.2608 -1.7817 1.2478 32.8158
#
#
#
# Elastic Compliance Matrix: (Units=1/GPa)
#
#
# Indices 1 2 3 4 5 6 
#
# 1 0.015092 -0.001499 -0.005039 0.006979 -0.003577 -0.000217
# 2 -0.001499 0.011728 -0.003876 0.000404 0.000841 -0.001013
# 3 -0.005039 -0.003876 0.011545 -0.002505 0.002497 -0.001146
# 4 0.006979 0.000404 -0.002505 0.033107 0.000863 0.001278
# 5 -0.003577 0.000841 0.002497 0.000863 0.033632 -0.001387
# 6 -0.000217 -0.001013 -0.001146 0.001278 -0.001387 0.031009
#
#
# Mechanical properties :
#
#
# Convention : Reuss Voigt Hill
#
# Bulk Modulus (GPa) = 57.02633 62.68832 59.85732
# Shear Modulus (GPa) = 30.71528 33.03783 31.87656
#
# Velocity S-wave (km/s) = 3.90885 4.05395 3.98206
# Velocity P-wave (km/s) = 6.98137 7.28674 7.13569
#
# Compressibility (1/GPa) = 0.01753576
#
# Stress axis : x y z
#
# Youngs Moduli (GPa) = 66.26237 85.26942 86.61843
#
# Poissons Ratio (x) = 0.12782 0.43649
# Poissons Ratio (y) = 0.09932 0.33573
# Poissons Ratio (z) = 0.33391 0.33050
#
# Static dielectric constant tensor:
#      x y z
#    x 3.582110 -0.091930 -0.066240 
#    y -0.091930 3.632570 0.055380 
#    z -0.066240 0.055380 3.580600 
# 
# 
# High freq. dielectric constant tensor:
#      x y z
#    x 1.790810 -0.011610 -0.006120 
#    y -0.011610 1.794880 0.005570 
#    z -0.006120 0.005570 1.776510 
# 
# From -- ./inp_files/184140.got.cif
#   From: 2010.06.25/outbox.cif.g09.slc.cpg/sg2_93_cif.got.tgz:184140.got - 2010.06.27 13:26:56.
