data_PCOD8019838
_publ_section_title
;
Structure prediction by ZEFSAII (Michael W. Deem and Ramdas Pophale) SiO2 
 PCOD8019838
Probable space group: P -1
;
_chemical_formula_sum "Si O2"
_cell_formula_units_Z 14
_cell_length_a 22.370938
_cell_length_b 13.823353
_cell_length_c 10.952168
_cell_angle_alpha 41.663766
_cell_angle_beta 148.668713
_cell_angle_gamma 157.022814
_cell_volume 674.439708
_symmetry_space_group_name_H-M "P -1"
_symmetry_group_IT_number 2
_symmetry_cell_setting 'triclinic'
loop_
_space_group_symop_operation_xyz
x,y,z
-x,-y,-z
loop_
_atom_site_type_symbol
_atom_site_label
_atom_site_fract_x
_atom_site_fract_y
_atom_site_fract_z
Si Si1 0.718354 0.815255 0.743470
Si Si2 0.841067 0.633225 0.056949
Si Si3 0.515535 0.648241 0.795258
Si Si4 0.189100 0.663915 0.592860
Si Si5 0.450520 0.792376 0.235163
Si Si6 0.803533 0.204639 0.791372
Si Si7 0.217937 0.555432 0.288618
O O1 0.732423 0.674748 0.835079
O O2 0.647107 0.720624 0.846527
O O3 0.555796 0.743369 0.458991
O O4 0.931612 0.116099 0.826747
O O5 0.736097 0.415023 0.984150
O O6 0.816080 0.519635 0.249997
O O7 0.289064 0.467092 0.539363
O O8 0.624909 0.908126 0.788721
O O9 0.500000 0.500000 0.000000
O O10 0.182887 0.738066 0.381880
O O11 0.000000 0.500000 0.500000
O O12 0.381821 0.912565 0.776023
O O13 0.375954 0.764660 0.264435
O O14 0.769579 0.316926 0.700471
O O15 0.999617 0.323010 0.068047
#
# Coordination Sequence:
#
# PCOD8019838 Si02
#       7
#     2   2   2   2   2   2   2
#     4  10  22  42  58  92 123 164 201 255 308 364
#     4  11  23  38  65  90 126 162 204 252 308 366
#     4  11  23  40  65  89 125 161 207 253 313 363
#     4  12  22  39  64  91 126 162 202 257 305 360
#     4  11  21  40  64  90 123 163 208 251 312 363
#     4  11  23  43  63  92 128 156 214 254 306 368
#     4  10  23  41  68  89 119 169 202 264 307 357
#
# _framework density 20.757971999999999
#
# number of rings (size 3 to 8) (size 9 to 14) (size 15 to 20)
#    0.000    1.143    4.286    3.000    2.000    0.571 
#    0.000    1.429    3.143    0.000    0.000    0.000 
#    0.000    0.000    0.000    0.000    0.000    0.000 
#
# Total GULP energy -173459.964602 kJ/mol
# GULP energy per Si atom -12389.997472 kJ/mol
# Density = 2.071073 g / cm^3
# Si number density = 20.757972 Si / 1000 Ang^3
#
#
#
# Elastic Constant Matrix: (Units=GPa)
#
#
# Indices 1 2 3 4 5 6 
#
# 1 70.3320 41.3591 31.9233 2.8666 -2.0584 -2.3031
# 2 41.3591 125.4505 62.2626 -14.4916 -7.4276 11.6822
# 3 31.9233 62.2626 103.2967 -0.5062 4.4473 8.0380
# 4 2.8666 -14.4916 -0.5062 39.7267 0.8869 -5.4109
# 5 -2.0584 -7.4276 4.4473 0.8869 22.1528 3.1919
# 6 -2.3031 11.6822 8.0380 -5.4109 3.1919 20.9449
#
#
#
# Elastic Compliance Matrix: (Units=1/GPa)
#
#
# Indices 1 2 3 4 5 6 
#
# 1 0.019223 -0.005759 -0.002921 -0.002731 -0.000282 0.005784
# 2 -0.005759 0.014804 -0.006934 0.004767 0.006492 -0.005987
# 3 -0.002921 -0.006934 0.015137 -0.002288 -0.005247 -0.002055
# 4 -0.002731 0.004767 -0.002288 0.027774 -0.000043 0.005101
# 5 -0.000282 0.006492 -0.005247 -0.000043 0.049675 -0.009220
# 6 0.005784 -0.005987 -0.002055 0.005101 -0.009220 0.055231
#
#
# Mechanical properties :
#
#
# Convention : Reuss Voigt Hill
#
# Bulk Modulus (GPa) = 55.74889 63.35211 59.55050
# Shear Modulus (GPa) = 22.82587 27.46717 25.14652
#
# Velocity S-wave (km/s) = 3.31965 3.64154 3.48431
# Velocity P-wave (km/s) = 6.45045 6.94743 6.70355
#
# Compressibility (1/GPa) = 0.01793758
#
# Stress axis : x y z
#
# Youngs Moduli (GPa) = 52.02125 67.55153 66.06152
#
# Poissons Ratio (x) = 0.38900 0.19297
# Poissons Ratio (y) = 0.29957 0.45804
# Poissons Ratio (z) = 0.15196 0.46837
#
# Static dielectric constant tensor:
#      x y z
#    x 3.645340 0.079470 0.181280 
#    y 0.079470 3.955140 -0.099450 
#    z 0.181280 -0.099450 4.248780 
# 
# 
# High freq. dielectric constant tensor:
#      x y z
#    x 1.803420 0.003660 0.013460 
#    y 0.003660 1.812970 0.004180 
#    z 0.013460 0.004180 1.832770 
# 
# From -- ./inp_files/352811.got.cif
#   From: 2010.06.25/outbox.cif.g09.slc.cpg/sg2_177_cif.got.tgz:352811.got - 2010.06.27 13:26:56.
