data_PCOD8019959
_publ_section_title
;
Structure prediction by ZEFSAII (Michael W. Deem and Ramdas Pophale) SiO2 
 PCOD8019959
Probable space group: P -1
;
_chemical_formula_sum "Si O2"
_cell_formula_units_Z 16
_cell_length_a 11.763974
_cell_length_b 16.941960
_cell_length_c 7.757702
_cell_angle_alpha 105.849895
_cell_angle_beta 58.294975
_cell_angle_gamma 58.393102
_cell_volume 731.913475
_symmetry_space_group_name_H-M "P -1"
_symmetry_group_IT_number 2
_symmetry_cell_setting 'triclinic'
loop_
_space_group_symop_operation_xyz
x,y,z
-x,-y,-z
loop_
_atom_site_type_symbol
_atom_site_label
_atom_site_fract_x
_atom_site_fract_y
_atom_site_fract_z
Si Si1 0.003607 0.896781 0.755480
Si Si2 0.094583 0.233726 0.152425
Si Si3 0.275072 0.808096 0.816386
Si Si4 0.157314 0.297375 0.820411
Si Si5 0.063466 0.805093 0.280200
Si Si6 0.273320 0.415063 0.845259
Si Si7 0.580059 0.975040 0.729831
Si Si8 0.283346 0.556392 0.140484
O O1 0.193395 0.834836 0.700340
O O2 0.110298 0.827011 0.438956
O O3 0.900512 0.866934 0.905829
O O4 0.799439 0.064088 0.990311
O O5 0.912729 0.358708 0.509202
O O6 0.023116 0.305737 0.067438
O O7 0.361975 0.127103 0.900909
O O8 0.552460 0.662793 0.502785
O O9 0.182449 0.789789 0.016965
O O10 0.267458 0.321573 0.845043
O O11 0.352729 0.146018 0.479640
O O12 0.979281 0.423965 0.901008
O O13 0.172133 0.659716 0.126388
O O14 0.791672 0.933184 0.532509
O O15 0.364276 0.425554 0.938206
O O16 0.500000 0.000000 0.000000
O O17 0.500000 0.500000 0.000000
#
# Coordination Sequence:
#
# PCOD8019959 Si02
#       8
#     2   2   2   2   2   2   2   2
#     4  10  22  42  63  99 131 162 231 277 328 396
#     4  11  23  42  70  94 126 174 221 274 330 394
#     4  11  24  41  66  95 137 175 213 284 341 395
#     4  11  25  42  65  99 129 173 222 272 338 397
#     4  11  23  41  68  97 128 179 223 274 339 395
#     4  11  24  43  63  95 138 171 217 275 332 403
#     4  12  21  42  66  94 129 167 223 277 325 393
#     4  11  24  43  66  97 136 172 225 271 325 408
#
# _framework density 21.860506999999998
#
# number of rings (size 3 to 8) (size 9 to 14) (size 15 to 20)
#    0.000    1.000    3.750    3.750    1.750    3.000 
#    0.000    1.250    0.000    0.000    0.000    0.000 
#    0.000    0.000    0.000    0.000    0.000    0.000 
#
# Total GULP energy -198357.709744 kJ/mol
# GULP energy per Si atom -12397.356859 kJ/mol
# Density = 2.181075 g / cm^3
# Si number density = 21.860507 Si / 1000 Ang^3
#
#
#
# Elastic Constant Matrix: (Units=GPa)
#
#
# Indices 1 2 3 4 5 6 
#
# 1 82.2727 17.2415 25.8661 3.6124 16.7713 20.6629
# 2 17.2415 70.8089 44.6769 -10.2315 17.4767 12.7519
# 3 25.8661 44.6769 135.8351 0.1937 6.0755 16.0544
# 4 3.6124 -10.2315 0.1937 28.2359 1.9456 -5.7934
# 5 16.7713 17.4767 6.0755 1.9456 39.0111 9.7182
# 6 20.6629 12.7519 16.0544 -5.7934 9.7182 32.8136
#
#
#
# Elastic Compliance Matrix: (Units=1/GPa)
#
#
# Indices 1 2 3 4 5 6 
#
# 1 0.015917 -0.000995 -0.001530 -0.003848 -0.003869 -0.008421
# 2 -0.000995 0.022039 -0.006611 0.008634 -0.008696 -0.000604
# 3 -0.001530 -0.006611 0.010030 -0.003037 0.002899 -0.002769
# 4 -0.003848 0.008634 -0.003037 0.041482 -0.006232 0.009723
# 5 -0.003869 -0.008696 0.002899 -0.006232 0.032639 -0.006369
# 6 -0.008421 -0.000604 -0.002769 0.009723 -0.006369 0.040970
#
#
# Mechanical properties :
#
#
# Convention : Reuss Voigt Hill
#
# Bulk Modulus (GPa) = 33.65490 51.60952 42.63221
# Shear Modulus (GPa) = 26.14348 33.42094 29.78221
#
# Velocity S-wave (km/s) = 3.46196 3.91426 3.69504
# Velocity P-wave (km/s) = 5.60437 6.63991 6.14400
#
# Compressibility (1/GPa) = 0.02971335
#
# Stress axis : x y z
#
# Youngs Moduli (GPa) = 62.82660 45.37478 99.70467
#
# Poissons Ratio (x) = 0.04514 0.15254
# Poissons Ratio (y) = 0.06250 0.65917
# Poissons Ratio (z) = 0.09612 0.29998
#
# Static dielectric constant tensor:
#      x y z
#    x 4.551770 -0.230990 -0.226000 
#    y -0.230990 4.194230 0.449890 
#    z -0.226000 0.449890 4.149690 
# 
# 
# High freq. dielectric constant tensor:
#      x y z
#    x 1.863460 0.006540 0.003220 
#    y 0.006540 1.847920 0.010100 
#    z 0.003220 0.010100 1.868180 
# 
# From -- ./inp_files/279591.got.cif
#   From: 2010.06.25/outbox.cif.g09.slc.cpg/sg2_140_cif.got.tgz:279591.got - 2010.06.27 13:26:56.
