data_PCOD8019384
_publ_section_title
;
Structure prediction by ZEFSAII (Michael W. Deem and Ramdas Pophale) SiO2 
 PCOD8019384
Probable space group: P -1
;
_chemical_formula_sum "Si O2"
_cell_formula_units_Z 14
_cell_length_a 7.051736
_cell_length_b 11.840925
_cell_length_c 11.654749
_cell_angle_alpha 75.330046
_cell_angle_beta 44.804156
_cell_angle_gamma 82.563132
_cell_volume 661.611823
_symmetry_space_group_name_H-M "P -1"
_symmetry_group_IT_number 2
_symmetry_cell_setting 'triclinic'
loop_
_space_group_symop_operation_xyz
x,y,z
-x,-y,-z
loop_
_atom_site_type_symbol
_atom_site_label
_atom_site_fract_x
_atom_site_fract_y
_atom_site_fract_z
Si Si1 0.035475 0.288627 0.627208
Si Si2 0.807366 0.840191 0.186913
Si Si3 0.471584 0.548088 0.626900
Si Si4 0.894628 0.866321 0.572607
Si Si5 0.954724 0.258997 0.234414
Si Si6 0.707403 0.093931 0.193464
Si Si7 0.434769 0.327093 0.851623
O O1 0.168521 0.250075 0.697815
O O2 0.239365 0.394724 0.467092
O O3 0.012432 0.181459 0.576502
O O4 0.740713 0.332609 0.763896
O O5 0.619024 0.781859 0.183606
O O6 0.667660 0.953902 0.263651
O O7 0.107422 0.876766 0.004003
O O8 0.500000 0.500000 0.500000
O O9 0.375571 0.445787 0.781888
O O10 0.248925 0.640802 0.701720
O O11 0.016239 0.787751 0.638176
O O12 0.573211 0.852870 0.725539
O O13 0.000000 0.000000 0.500000
O O14 0.839730 0.149661 0.236441
O O15 0.240190 0.312244 0.048720
#
# Coordination Sequence:
#
# PCOD8019384 Si02
#       7
#     2   2   2   2   2   2   2
#     4  12  24  41  67  97 131 166 220 268 325 374
#     4  10  22  41  67  93 131 174 214 265 325 388
#     4  12  24  45  68  95 132 171 220 270 321 375
#     4  12  25  39  67  99 134 167 217 267 326 386
#     4  11  25  45  65  96 133 173 216 264 325 390
#     4  10  22  42  64  95 132 171 215 266 326 386
#     4  11  24  44  67  95 131 174 219 263 321 388
#
# _framework density 21.160443000000001
#
# number of rings (size 3 to 8) (size 9 to 14) (size 15 to 20)
#    0.000    0.857    2.857    4.286    2.000    1.143 
#    0.000    7.143    0.000    0.000    0.000    0.000 
#    0.000    0.000    0.000    0.000    0.000    0.000 
#
# Total GULP energy -173701.108579 kJ/mol
# GULP energy per Si atom -12407.222041 kJ/mol
# Density = 2.111228 g / cm^3
# Si number density = 21.160443 Si / 1000 Ang^3
#
#
#
# Elastic Constant Matrix: (Units=GPa)
#
#
# Indices 1 2 3 4 5 6 
#
# 1 66.3003 33.7144 20.9543 5.7090 -11.9551 -2.0137
# 2 33.7144 86.5061 38.1571 1.2130 -10.1583 -14.7298
# 3 20.9543 38.1571 81.4669 3.3030 -13.7107 1.5436
# 4 5.7090 1.2130 3.3030 39.4212 -3.3702 -1.4389
# 5 -11.9551 -10.1583 -13.7107 -3.3702 43.3389 2.3454
# 6 -2.0137 -14.7298 1.5436 -1.4389 2.3454 32.4934
#
#
#
# Elastic Compliance Matrix: (Units=1/GPa)
#
#
# Indices 1 2 3 4 5 6 
#
# 1 0.019834 -0.007266 -0.000985 -0.002362 0.003401 -0.002368
# 2 -0.007266 0.019032 -0.007299 0.001374 -0.000211 0.008600
# 3 -0.000985 -0.007299 0.016649 -0.000895 0.003456 -0.004450
# 4 -0.002362 0.001374 -0.000895 0.025912 0.001317 0.001571
# 5 0.003401 -0.000211 0.003456 0.001317 0.025256 -0.001814
# 6 -0.002368 0.008600 -0.004450 0.001571 -0.001814 0.034939
#
#
# Mechanical properties :
#
#
# Convention : Reuss Voigt Hill
#
# Bulk Modulus (GPa) = 40.96070 46.65830 43.80950
# Shear Modulus (GPa) = 27.64553 32.48054 30.06304
#
# Velocity S-wave (km/s) = 3.61844 3.92211 3.77333
# Velocity P-wave (km/s) = 6.07097 6.52750 6.30337
#
# Compressibility (1/GPa) = 0.02441364
#
# Stress axis : x y z
#
# Youngs Moduli (GPa) = 50.41890 52.54418 60.06253
#
# Poissons Ratio (x) = 0.38179 0.05918
# Poissons Ratio (y) = 0.36635 0.43841
# Poissons Ratio (z) = 0.04968 0.38353
#
# Static dielectric constant tensor:
#      x y z
#    x 3.780970 0.049720 -0.133610 
#    y 0.049720 3.940620 -0.032490 
#    z -0.133610 -0.032490 3.983140 
# 
# 
# High freq. dielectric constant tensor:
#      x y z
#    x 1.830940 0.000730 -0.009350 
#    y 0.000730 1.839570 -0.000850 
#    z -0.009350 -0.000850 1.841100 
# 
# From -- ./inp_files/25219.got.cif
#   From: 2010.06.25/outbox.cif.g09.slc.cpg/sg2_13_cif.got.tgz:25219.got - 2010.06.27 13:26:56.
