data_PCOD8019041
_publ_section_title
;
Structure prediction by ZEFSAII (Michael W. Deem and Ramdas Pophale) SiO2 
 PCOD8019041
Probable space group: P -1
;
_chemical_formula_sum "Si O2"
_cell_formula_units_Z 16
_cell_length_a 11.887463
_cell_length_b 8.771373
_cell_length_c 17.293327
_cell_angle_alpha 110.548620
_cell_angle_beta 139.643538
_cell_angle_gamma 99.948415
_cell_volume 751.817669
_symmetry_space_group_name_H-M "P -1"
_symmetry_group_IT_number 2
_symmetry_cell_setting 'triclinic'
loop_
_space_group_symop_operation_xyz
x,y,z
-x,-y,-z
loop_
_atom_site_type_symbol
_atom_site_label
_atom_site_fract_x
_atom_site_fract_y
_atom_site_fract_z
Si Si1 0.526463 0.960609 0.920712
Si Si2 0.734084 0.151898 0.382452
Si Si3 0.212381 0.377349 0.161342
Si Si4 0.304844 0.510303 0.782269
Si Si5 0.661460 0.888489 0.756267
Si Si6 0.153349 0.550102 0.863928
Si Si7 0.384444 0.768613 0.440439
Si Si8 0.536787 0.350256 0.817485
O O1 0.308120 0.890549 0.739764
O O2 0.507954 0.751499 0.879528
O O3 0.500000 0.000000 0.000000
O O4 0.787887 0.213883 0.069328
O O5 0.569012 0.193364 0.330877
O O6 0.028332 0.379718 0.588357
O O7 0.639445 0.926526 0.337883
O O8 0.302106 0.269253 0.224498
O O9 0.279394 0.565258 0.289384
O O10 0.362957 0.514219 0.186284
O O11 0.912722 0.168310 0.950099
O O12 0.318490 0.561519 0.889840
O O13 0.358364 0.359216 0.768563
O O14 0.591236 0.835566 0.619069
O O15 0.855445 0.326177 0.653437
O O16 0.225404 0.531976 0.982901
O O17 0.500000 0.000000 0.500000
#
# Coordination Sequence:
#
# PCOD8019041 Si02
#       8
#     2   2   2   2   2   2   2   2
#     4   9  20  36  59  88 121 169 211 255 316 382
#     4  11  21  39  64  90 130 167 211 268 323 382
#     4  11  25  43  67  98 131 172 218 272 330 386
#     4  11  21  39  63  93 129 166 216 260 322 384
#     4  11  24  45  69  95 131 172 222 275 323 387
#     4  10  22  41  64  91 128 168 215 263 319 388
#     4  12  24  43  71 100 132 170 221 270 330 392
#     4  11  23  39  61  94 131 169 208 263 327 389
#
# _framework density 21.281756000000001
#
# number of rings (size 3 to 8) (size 9 to 14) (size 15 to 20)
#    0.000    1.250    1.250    5.250    0.000    2.500 
#    0.000    1.250    0.000    0.000    0.000    0.000 
#    0.000    0.000    0.000    0.000    0.000    0.000 
#
# Total GULP energy -198356.792985 kJ/mol
# GULP energy per Si atom -12397.299562 kJ/mol
# Density = 2.123332 g / cm^3
# Si number density = 21.281756 Si / 1000 Ang^3
#
#
#
# Elastic Constant Matrix: (Units=GPa)
#
#
# Indices 1 2 3 4 5 6 
#
# 1 88.0452 42.2509 38.7115 -0.0293 -2.8471 1.3212
# 2 42.2509 119.7993 44.8268 2.6348 -3.4282 13.1166
# 3 38.7115 44.8268 116.2551 -3.5785 -8.9374 4.1355
# 4 -0.0293 2.6348 -3.5785 30.9905 2.4275 -6.1981
# 5 -2.8471 -3.4282 -8.9374 2.4275 35.8287 -6.3586
# 6 1.3212 13.1166 4.1355 -6.1981 -6.3586 39.0888
#
#
#
# Elastic Compliance Matrix: (Units=1/GPa)
#
#
# Indices 1 2 3 4 5 6 
#
# 1 0.014793 -0.004097 -0.003373 0.000219 0.000156 0.001292
# 2 -0.004097 0.011348 -0.002980 -0.002024 -0.000513 -0.003759
# 3 -0.003373 -0.002980 0.011069 0.001462 0.002204 0.000533
# 4 0.000219 -0.002024 0.001462 0.033836 -0.001092 0.005705
# 5 0.000156 -0.000513 0.002204 -0.001092 0.029301 0.004527
# 6 0.001292 -0.003759 0.000533 0.005705 0.004527 0.028385
#
#
# Mechanical properties :
#
#
# Convention : Reuss Voigt Hill
#
# Bulk Modulus (GPa) = 61.30778 63.96422 62.63600
# Shear Modulus (GPa) = 32.24381 34.40229 33.32305
#
# Velocity S-wave (km/s) = 3.89664 4.02495 3.96132
# Velocity P-wave (km/s) = 7.00823 7.19176 7.10059
#
# Compressibility (1/GPa) = 0.01631114
#
# Stress axis : x y z
#
# Youngs Moduli (GPa) = 67.60143 88.11776 90.33852
#
# Poissons Ratio (x) = 0.36098 0.30474
# Poissons Ratio (y) = 0.27694 0.26919
# Poissons Ratio (z) = 0.22804 0.26257
#
# Static dielectric constant tensor:
#      x y z
#    x 3.763890 0.177200 -0.183860 
#    y 0.177200 4.296120 0.186140 
#    z -0.183860 0.186140 4.074300 
# 
# 
# High freq. dielectric constant tensor:
#      x y z
#    x 1.829770 0.012400 -0.018000 
#    y 0.012400 1.848310 0.006290 
#    z -0.018000 0.006290 1.840070 
# 
# From -- ./inp_files/177697.got.cif
#   From: 2010.06.25/outbox.cif.g09.slc.cpg/sg2_89_cif.got.tgz:177697.got - 2010.06.27 13:26:56.
